data_PCOD9215532
_publ_section_title
;
Structure prediction by ZEFSAII (Michael W. Deem and Ramdas Pophale) SiO2 
 PCOD9215532
Probable space group: C 2/M
;
_chemical_formula_sum "Si O2"
_cell_formula_units_Z 54
_cell_length_a 17.877428
_cell_length_b 26.940218
_cell_length_c 5.383765
_cell_angle_alpha 90.000000
_cell_angle_beta 110.829891
_cell_angle_gamma 90.000000
_cell_volume 2423.464917
_symmetry_space_group_name_H-M "C 2/M"
_symmetry_group_IT_number 12
_symmetry_cell_setting 'monoclinic'
loop_
_space_group_symop_operation_xyz
x,y,z
-x,y,-z
-x,-y,-z
x,-y,z
1/2+x,1/2+y,z
1/2-x,1/2+y,-z
1/2-x,1/2-y,-z
1/2+x,1/2-y,z
loop_
_atom_site_type_symbol
_atom_site_label
_atom_site_fract_x
_atom_site_fract_y
_atom_site_fract_z
Si Si1 0.795545 0.412992 0.992644
Si Si2 0.000000 0.000000 0.500000
Si Si3 0.000000 0.102958 0.000000
Si Si4 0.116374 0.828813 0.456099
Si Si5 0.792596 0.650933 0.490796
Si Si6 0.879053 0.923782 0.231710
Si Si7 0.530166 0.943656 0.785070
Si Si8 0.551052 0.219103 0.321041
O O1 0.796166 0.374361 0.223861
O O2 0.875109 0.444691 0.110350
O O3 0.799277 0.388044 0.725234
O O4 0.711155 0.440574 0.905802
O O5 0.931659 0.956640 0.477524
O O6 0.050571 0.139824 0.231250
O O7 0.932528 0.070460 0.051738
O O8 0.203360 0.826595 0.426601
O O9 0.126073 0.865005 0.707277
O O10 0.081241 0.774162 0.435235
O O11 0.867621 0.687469 0.610792
O O12 0.500000 0.918533 0.500000
O O13 0.496138 0.000000 0.746672
O O14 0.500000 0.918268 0.000000
O O15 0.500000 0.201082 0.500000
O O16 0.500000 0.219825 0.000000
#
# Coordination Sequence:
#
# PCOD9215532 Si02
#       8
#     8   2   4   8   8   8   8   8
#     4  11  24  44  67  96 138 176 214 281 346 392
#     4  12  24  42  64 100 138 168 228 282 324 410
#     4  12  18  43  68  86 128 178 226 260 333 408
#     4  11  23  44  66  93 134 179 223 270 337 406
#     4  11  25  43  66  99 133 172 227 277 331 399
#     4  11  25  41  65  99 132 177 223 276 340 397
#     4  10  22  41  67  95 125 171 224 268 331 412
#     4  12  26  42  68 101 134 177 227 280 335 403
#
# _framework density 22.282147999999999
#
# number of rings (size 3 to 8) (size 9 to 14) (size 15 to 20)
#    0.000    0.889    3.704    3.111    1.037    3.852 
#    0.000    3.704    4.889    0.000    0.000    0.000 
#    0.000    0.000    0.000    0.000    0.000    0.000 
#
# Total GULP energy -150468.334192 kJ/mol
# GULP energy per Si atom -5572.901266 kJ/mol
# Density = 2.223143 g / cm^3
# Si number density = 22.282148 Si / 1000 Ang^3
#
#
#
# Elastic Constant Matrix: (Units=GPa)
#
#
# Indices 1 2 3 4 5 6 
#
# 1 177.3489 29.2507 39.2006 0.0000 18.0293 0.0000
# 2 29.2507 72.5521 9.3683 0.0000 10.4128 0.0000
# 3 39.2006 9.3683 103.2360 0.0000 4.5848 0.0000
# 4 0.0000 0.0000 0.0000 -61.5199 0.0000 -10.8410
# 5 18.0293 10.4128 4.5848 0.0000 45.5362 0.0000
# 6 0.0000 0.0000 0.0000 -10.8410 0.0000 17.4881
#
#
#
# Elastic Compliance Matrix: (Units=1/GPa)
#
#
# Indices 1 2 3 4 5 6 
#
# 1 0.006685 -0.002126 -0.002260 0.000000 -0.001933 0.000000
# 2 -0.002126 0.015065 -0.000446 0.000000 -0.002558 0.000000
# 3 -0.002260 -0.000446 0.010588 0.000000 -0.000069 0.000000
# 4 0.000000 0.000000 0.000000 -0.014654 0.000000 -0.009084
# 5 -0.001933 -0.002558 -0.000069 0.000000 0.023318 0.000000
# 6 0.000000 0.000000 0.000000 -0.009084 0.000000 0.051550
#
#
# Mechanical properties :
#
#
# Convention : Reuss Voigt Hill
#
# Bulk Modulus (GPa) = 44.10212 56.53069 50.31641
# Shear Modulus (GPa) = 45.54769 18.65536 32.10152
#
# Velocity S-wave (km/s) = 4.52611 2.89664 3.79975
# Velocity P-wave (km/s) = 6.86657 6.05085 6.47158
#
# Compressibility (1/GPa) = 0.02267465
#
# Stress axis : x y z
#
# Youngs Moduli (GPa) = 149.58253 66.37842 94.44496
#
# Poissons Ratio (x) = 0.14112 0.21342
# Poissons Ratio (y) = 0.31802 0.04214
# Poissons Ratio (z) = 0.33802 0.02962
#
# Static dielectric constant tensor:
#      x y z
#    x 1.802480 0.000000 -0.010430 
#    y 0.000000 1.823570 0.000000 
#    z -0.010430 0.000000 1.936850 
# 
# From -- ./inp_files/17731.got.cif
#   From: 2010.05.17/outbox.cif.g08.bks.cpg/sg12_9_cif.got.tgz:17731.got - 2010.06.03 13:09:07.
