data_PCOD9215001
_publ_section_title
;
Structure prediction by ZEFSAII (Michael W. Deem and Ramdas Pophale) SiO2 
 PCOD9215001
Probable space group: C 2/M
;
_chemical_formula_sum "Si O2"
_cell_formula_units_Z 48
_cell_length_a 17.552615
_cell_length_b 11.494992
_cell_length_c 9.586780
_cell_angle_alpha 90.000000
_cell_angle_beta 101.509205
_cell_angle_gamma 90.000000
_cell_volume 1895.403888
_symmetry_space_group_name_H-M "C 2/M"
_symmetry_group_IT_number 12
_symmetry_cell_setting 'monoclinic'
loop_
_space_group_symop_operation_xyz
x,y,z
-x,y,-z
-x,-y,-z
x,-y,z
1/2+x,1/2+y,z
1/2-x,1/2+y,-z
1/2-x,1/2-y,-z
1/2+x,1/2-y,z
loop_
_atom_site_type_symbol
_atom_site_label
_atom_site_fract_x
_atom_site_fract_y
_atom_site_fract_z
Si Si1 0.088676 0.839364 0.018701
Si Si2 0.674933 0.126659 0.085072
Si Si3 0.168335 0.286516 0.531646
Si Si4 0.250660 0.346559 0.812030
Si Si5 0.524696 0.129470 0.346246
Si Si6 0.929017 0.134794 0.296178
O O1 0.096289 0.701113 0.046531
O O2 0.113201 0.868774 0.869621
O O3 0.158685 0.883498 0.143897
O O4 0.000000 0.877486 0.000000
O O5 0.708664 0.123510 0.940162
O O6 0.666080 0.000000 0.138249
O O7 0.735652 0.207587 0.187246
O O8 0.250000 0.250000 0.500000
O O9 0.193235 0.372722 0.665917
O O10 0.116105 0.345217 0.394053
O O11 0.119577 0.181923 0.588577
O O12 0.500000 0.121240 0.500000
O O13 0.486911 0.253891 0.287961
O O14 0.507065 0.000000 0.278387
O O15 0.956536 0.000000 0.329576
#
# Coordination Sequence:
#
# PCOD9215001 Si02
#       6
#     8   8   8   8   8   8
#     4  10  22  40  67  97 134 171 224 281 347 410
#     4   9  18  37  65  92 128 172 218 277 349 408
#     4  11  23  41  68  97 138 183 232 287 344 408
#     4   9  20  39  56  99 129 170 219 279 340 408
#     4   9  22  43  68  97 133 182 233 279 335 409
#     4  11  24  46  71 100 139 182 229 286 351 414
#
# _framework density 25.324418000000001
#
# number of rings (size 3 to 8) (size 9 to 14) (size 15 to 20)
#    1.000    1.167    1.667    0.000    2.333    8.333 
#    0.000    1.667    0.000    0.000    0.000    0.000 
#    0.000    0.000    0.000    0.000    0.000    0.000 
#
# Total GULP energy -133680.600752 kJ/mol
# GULP energy per Si atom -5570.025031 kJ/mol
# Density = 2.526678 g / cm^3
# Si number density = 25.324418 Si / 1000 Ang^3
#
#
#
# Elastic Constant Matrix: (Units=GPa)
#
#
# Indices 1 2 3 4 5 6 
#
# 1 136.5019 41.6854 -0.2699 0.0000 9.3087 0.0000
# 2 41.6854 265.0748 33.2850 0.0000 19.4516 0.0000
# 3 -0.2699 33.2850 69.8144 0.0000 8.1405 0.0000
# 4 0.0000 0.0000 0.0000 -15.9594 0.0000 10.4496
# 5 9.3087 19.4516 8.1405 0.0000 41.9380 0.0000
# 6 0.0000 0.0000 0.0000 10.4496 0.0000 -78.8532
#
#
#
# Elastic Compliance Matrix: (Units=1/GPa)
#
#
# Indices 1 2 3 4 5 6 
#
# 1 0.007791 -0.001225 0.000767 0.000000 -0.001310 0.000000
# 2 -0.001225 0.004303 -0.001898 0.000000 -0.001355 0.000000
# 3 0.000767 -0.001898 0.015500 0.000000 -0.002298 0.000000
# 4 0.000000 0.000000 0.000000 -0.068612 0.000000 -0.009093
# 5 -0.001310 -0.001355 -0.002298 0.000000 0.025210 0.000000
# 6 0.000000 0.000000 0.000000 -0.009093 0.000000 -0.013887
#
#
# Mechanical properties :
#
#
# Convention : Reuss Voigt Hill
#
# Bulk Modulus (GPa) = 43.70522 68.97689 56.34105
# Shear Modulus (GPa) = -288.09553 15.87113 -136.11220
#
# Velocity S-wave (km/s) = -10.67750 2.50614 -7.33922
# Velocity P-wave (km/s) = 11.60674 5.97250 7.03724
#
# Compressibility (1/GPa) = 0.02288056
#
# Stress axis : x y z
#
# Youngs Moduli (GPa) = 128.35383 232.39358 64.51749
#
# Poissons Ratio (x) = 0.28478 -0.04949
# Poissons Ratio (y) = 0.15728 0.12247
# Poissons Ratio (z) = -0.09846 0.44114
#
# Static dielectric constant tensor:
#      x y z
#    x 2.089340 0.000000 -0.012050 
#    y 0.000000 2.101900 0.000000 
#    z -0.012050 0.000000 2.078200 
# 
# From -- ./inp_files/164307.got.cif
#   From: 2010.05.17/outbox.cif.g08.bks.cpg/sg12_83_cif.got.tgz:164307.got - 2010.06.03 13:09:07.
