data_PCOD9215696
_publ_section_title
;
Structure prediction by ZEFSAII (Michael W. Deem and Ramdas Pophale) SiO2 
 PCOD9215696
Probable space group: C 2/M
;
_chemical_formula_sum "Si O2"
_cell_formula_units_Z 44
_cell_length_a 9.778440
_cell_length_b 9.471360
_cell_length_c 26.631716
_cell_angle_alpha 90.000000
_cell_angle_beta 56.159904
_cell_angle_gamma 90.000000
_cell_volume 2048.662251
_symmetry_space_group_name_H-M "C 2/M"
_symmetry_group_IT_number 12
_symmetry_cell_setting 'monoclinic'
loop_
_space_group_symop_operation_xyz
x,y,z
-x,y,-z
-x,-y,-z
x,-y,z
1/2+x,1/2+y,z
1/2-x,1/2+y,-z
1/2-x,1/2-y,-z
1/2+x,1/2-y,z
loop_
_atom_site_type_symbol
_atom_site_label
_atom_site_fract_x
_atom_site_fract_y
_atom_site_fract_z
Si Si1 0.325410 0.771337 0.552989
Si Si2 0.307670 0.333201 0.668894
Si Si3 0.570010 0.834554 0.262815
Si Si4 0.774947 0.834479 0.943408
Si Si5 0.152936 0.835060 0.875401
Si Si6 0.179749 0.000000 0.518465
O O1 0.500000 0.837131 0.500000
O O2 0.329144 0.742904 0.611049
O O3 0.189030 0.875929 0.559952
O O4 0.314005 0.623007 0.526604
O O5 0.341601 0.500000 0.655882
O O6 0.408206 0.259877 0.692434
O O7 0.113201 0.318560 0.721271
O O8 0.708899 0.798526 0.193731
O O9 0.590726 0.000000 0.272367
O O10 0.673317 0.762555 0.919734
O O11 0.969483 0.822585 0.891224
O O12 0.734951 0.000000 0.957473
O O13 0.750000 0.750000 0.000000
O O14 0.176742 0.000000 0.885080
#
# Coordination Sequence:
#
# PCOD9215696 Si02
#       6
#     8   8   8   8   8   4
#     4  11  24  39  61  86 117 154 194 248 307 365
#     4  11  25  40  62  91 122 153 207 253 299 366
#     4  10  24  43  63  89 120 164 204 250 301 354
#     4  11  23  38  63  96 126 162 204 247 299 356
#     4  10  22  42  63  87 127 163 204 251 298 353
#     4  10  24  40  60  84 118 152 196 236 316 362
#
# _framework density 21.477428
#
# number of rings (size 3 to 8) (size 9 to 14) (size 15 to 20)
#    0.000    1.455    0.909    2.727    6.364    5.091 
#    0.000    0.000    0.000    0.000    0.000    0.000 
#    0.000    0.000    0.000    0.000    0.000    0.000 
#
# Total GULP energy -122629.267676 kJ/mol
# GULP energy per Si atom -5574.057622 kJ/mol
# Density = 2.142854 g / cm^3
# Si number density = 21.477428 Si / 1000 Ang^3
#
#
#
# Elastic Constant Matrix: (Units=GPa)
#
#
# Indices 1 2 3 4 5 6 
#
# 1 57.9177 20.2814 -5.3096 0.0000 4.9860 0.0000
# 2 20.2814 96.0807 16.7607 0.0000 17.7358 0.0000
# 3 -5.3096 16.7607 57.9043 0.0000 -4.6142 0.0000
# 4 0.0000 0.0000 0.0000 -19.6638 0.0000 -47.7391
# 5 4.9860 17.7358 -4.6142 0.0000 40.1224 0.0000
# 6 0.0000 0.0000 0.0000 -47.7391 0.0000 -39.0812
#
#
#
# Elastic Compliance Matrix: (Units=1/GPa)
#
#
# Indices 1 2 3 4 5 6 
#
# 1 0.019152 -0.004580 0.003082 0.000000 -0.000001 0.000000
# 2 -0.004580 0.013279 -0.004729 0.000000 -0.005844 0.000000
# 3 0.003082 -0.004729 0.019234 0.000000 0.003919 0.000000
# 4 0.000000 0.000000 0.000000 0.025872 0.000000 -0.031604
# 5 -0.000001 -0.005844 0.003919 0.000000 0.027958 0.000000
# 6 0.000000 0.000000 0.000000 -0.031604 0.000000 0.013018
#
#
# Mechanical properties :
#
#
# Convention : Reuss Voigt Hill
#
# Bulk Modulus (GPa) = 25.50404 30.59639 28.05021
# Shear Modulus (GPa) = 34.71309 8.28683 21.49996
#
# Velocity S-wave (km/s) = 4.02463 1.96641 3.16737
# Velocity P-wave (km/s) = 5.78770 4.40823 5.14441
#
# Compressibility (1/GPa) = 0.03920948
#
# Stress axis : x y z
#
# Youngs Moduli (GPa) = 52.21274 75.30933 51.99205
#
# Poissons Ratio (x) = 0.34494 -0.16024
# Poissons Ratio (y) = 0.23915 0.24588
# Poissons Ratio (z) = -0.16092 0.35616
#
# Static dielectric constant tensor:
#      x y z
#    x 1.836780 0.000000 -0.089220 
#    y 0.000000 1.727760 0.000000 
#    z -0.089220 0.000000 1.777570 
# 
# From -- ./inp_files/357437.got.cif
#   From: 2010.05.17/outbox.cif.g08.bks.cpg/sg12_179_cif.got.tgz:357437.got - 2010.06.03 13:09:07.
