data_PCOD9215819
_publ_section_title
;
Structure prediction by ZEFSAII (Michael W. Deem and Ramdas Pophale) SiO2 
 PCOD9215819
Probable space group: C 2/M
;
_chemical_formula_sum "Si O2"
_cell_formula_units_Z 40
_cell_length_a 16.386798
_cell_length_b 12.697093
_cell_length_c 11.349090
_cell_angle_alpha 90.000000
_cell_angle_beta 63.478850
_cell_angle_gamma 90.000000
_cell_volume 2112.859690
_symmetry_space_group_name_H-M "C 2/M"
_symmetry_group_IT_number 12
_symmetry_cell_setting 'monoclinic'
loop_
_space_group_symop_operation_xyz
x,y,z
-x,y,-z
-x,-y,-z
x,-y,z
1/2+x,1/2+y,z
1/2-x,1/2+y,-z
1/2-x,1/2-y,-z
1/2+x,1/2-y,z
loop_
_atom_site_type_symbol
_atom_site_label
_atom_site_fract_x
_atom_site_fract_y
_atom_site_fract_z
Si Si1 0.730231 0.812013 0.333750
Si Si2 0.372071 0.500000 0.187624
Si Si3 0.520567 0.114107 0.125072
Si Si4 0.660284 0.275148 0.134074
Si Si5 0.917064 0.000000 0.879453
Si Si6 0.331459 0.883529 0.385417
O O1 0.810370 0.897269 0.256832
O O2 0.678827 0.774891 0.249946
O O3 0.666329 0.860436 0.476732
O O4 0.773715 0.707049 0.360960
O O5 0.471050 0.500000 0.189985
O O6 0.390819 0.500000 0.035294
O O7 0.581115 0.210359 0.122841
O O8 0.428930 0.116906 0.260085
O O9 0.566430 0.000000 0.117025
O O10 0.500000 0.120191 0.000000
O O11 0.628118 0.396423 0.150203
O O12 0.750000 0.250000 0.000000
O O13 0.290675 0.000000 0.394575
#
# Coordination Sequence:
#
# PCOD9215819 Si02
#       6
#     8   4   8   8   4   8
#     4  11  23  40  67  93 130 165 219 266 309 386
#     4  11  22  44  65  93 131 177 217 253 323 394
#     4  10  23  41  64  93 127 162 209 265 323 385
#     4  12  25  39  64  95 130 165 217 271 320 371
#     4  11  26  40  65  94 135 176 211 264 327 384
#     4  10  22  42  66  91 124 174 208 255 327 385
#
# _framework density 18.931687
#
# number of rings (size 3 to 8) (size 9 to 14) (size 15 to 20)
#    0.000    1.200    3.000    2.400    7.000    0.800 
#    0.000    2.000    0.000    3.600    0.000    0.000 
#    0.000    0.000    0.000    0.000    0.000    0.000 
#
# Total GULP energy -111657.962291 kJ/mol
# GULP energy per Si atom -5582.898115 kJ/mol
# Density = 1.888860 g / cm^3
# Si number density = 18.931687 Si / 1000 Ang^3
#
#
#
# Elastic Constant Matrix: (Units=GPa)
#
#
# Indices 1 2 3 4 5 6 
#
# 1 62.4733 56.7338 38.2838 0.0000 0.2571 0.0000
# 2 56.7338 184.1917 43.0200 0.0000 0.5817 0.0000
# 3 38.2838 43.0200 128.1662 0.0000 -2.6339 0.0000
# 4 0.0000 0.0000 0.0000 33.0326 0.0000 9.3120
# 5 0.2571 0.5817 -2.6339 0.0000 21.8729 0.0000
# 6 0.0000 0.0000 0.0000 9.3120 0.0000 48.1965
#
#
#
# Elastic Compliance Matrix: (Units=1/GPa)
#
#
# Indices 1 2 3 4 5 6 
#
# 1 0.025206 -0.006510 -0.005360 0.000000 -0.000769 0.000000
# 2 -0.006510 0.007575 -0.000602 0.000000 -0.000198 0.000000
# 3 -0.005360 -0.000602 0.009631 0.000000 0.001239 0.000000
# 4 0.000000 0.000000 0.000000 0.032017 0.000000 -0.006186
# 5 -0.000769 -0.000198 0.001239 0.000000 0.045882 0.000000
# 6 0.000000 0.000000 0.000000 -0.006186 0.000000 0.021944
#
#
# Mechanical properties :
#
#
# Convention : Reuss Voigt Hill
#
# Bulk Modulus (GPa) = 57.24489 72.32291 64.78390
# Shear Modulus (GPa) = 28.89803 36.40663 32.65233
#
# Velocity S-wave (km/s) = 3.91120 4.39002 4.15751
# Velocity P-wave (km/s) = 7.12039 7.99883 7.57236
#
# Compressibility (1/GPa) = 0.01746881
#
# Stress axis : x y z
#
# Youngs Moduli (GPa) = 39.67291 132.00475 103.83055
#
# Poissons Ratio (x) = 0.85929 0.55653
# Poissons Ratio (y) = 0.25825 0.06255
# Poissons Ratio (z) = 0.21265 0.07952
#
# Static dielectric constant tensor:
#      x y z
#    x 1.560960 0.000000 0.045850 
#    y 0.000000 1.664120 0.000000 
#    z 0.045850 0.000000 1.624290 
# 
# From -- ./inp_files/140849.got.cif
#   From: 2010.05.17/outbox.cif.g08.bks.cpg/sg12_71_cif.got.tgz:140849.got - 2010.06.03 13:09:07.
