data_PCOD9215403
_publ_section_title
;
Structure prediction by ZEFSAII (Michael W. Deem and Ramdas Pophale) SiO2 
 PCOD9215403
Probable space group: C 2/M
;
_chemical_formula_sum "Si O2"
_cell_formula_units_Z 48
_cell_length_a 16.198344
_cell_length_b 14.664341
_cell_length_c 31.902826
_cell_angle_alpha 90.000000
_cell_angle_beta 162.195305
_cell_angle_gamma 90.000000
_cell_volume 2317.191459
_symmetry_space_group_name_H-M "C 2/M"
_symmetry_group_IT_number 12
_symmetry_cell_setting 'monoclinic'
loop_
_space_group_symop_operation_xyz
x,y,z
-x,y,-z
-x,-y,-z
x,-y,z
1/2+x,1/2+y,z
1/2-x,1/2+y,-z
1/2-x,1/2-y,-z
1/2+x,1/2-y,z
loop_
_atom_site_type_symbol
_atom_site_label
_atom_site_fract_x
_atom_site_fract_y
_atom_site_fract_z
Si Si1 0.426672 0.396408 0.600154
Si Si2 0.795546 0.893472 0.124996
Si Si3 0.939210 0.405317 0.788032
Si Si4 0.323723 0.762428 0.662564
Si Si5 0.536074 0.808299 0.679519
Si Si6 0.865006 0.149235 0.059900
O O1 0.388686 0.500000 0.600343
O O2 0.671731 0.406086 0.686567
O O3 0.507890 0.302939 0.663582
O O4 0.165329 0.361772 0.448651
O O5 0.821254 0.882471 0.086785
O O6 0.027372 0.833980 0.259074
O O7 0.824721 0.000000 0.149212
O O8 0.500000 0.864083 0.000000
O O9 0.950415 0.500000 0.768342
O O10 0.907786 0.317353 0.744540
O O11 0.188002 0.403181 0.940179
O O12 0.444398 0.821564 0.682784
O O13 0.000000 0.753717 0.500000
O O14 0.827588 0.842920 0.806492
O O15 0.750000 0.250000 0.000000
#
# Coordination Sequence:
#
# PCOD9215403 Si02
#       6
#     8   8   8   8   8   8
#     4  10  22  41  65  94 129 177 227 270 327 397
#     4  11  26  46  70 100 135 178 222 274 336 398
#     4  11  24  44  70  96 129 179 225 272 332 396
#     4  12  25  44  66  99 141 178 221 274 333 396
#     4  11  24  41  67  99 133 176 221 277 334 390
#     4  12  22  44  70  97 132 173 223 277 331 393
#
# _framework density 20.714732000000001
#
# number of rings (size 3 to 8) (size 9 to 14) (size 15 to 20)
#    0.000    0.833    5.000    1.500    2.333    3.333 
#    0.000    0.833    0.000    0.000    0.000    0.000 
#    0.000    0.000    0.000    0.000    0.000    0.000 
#
# Total GULP energy -133856.485178 kJ/mol
# GULP energy per Si atom -5577.353549 kJ/mol
# Density = 2.066758 g / cm^3
# Si number density = 20.714732 Si / 1000 Ang^3
#
#
#
# Elastic Constant Matrix: (Units=GPa)
#
#
# Indices 1 2 3 4 5 6 
#
# 1 88.4683 6.5901 68.1463 -0.0028 12.1152 0.0001
# 2 6.5901 109.7077 39.8501 -0.0116 2.9994 -0.0042
# 3 68.1463 39.8501 186.3377 -0.0072 17.3448 -0.0589
# 4 -0.0028 -0.0116 -0.0072 2.9167 0.0017 -1.1216
# 5 12.1152 2.9994 17.3448 0.0017 35.4302 0.0202
# 6 0.0001 -0.0042 -0.0589 -1.1216 0.0202 14.3423
#
#
#
# Elastic Compliance Matrix: (Units=1/GPa)
#
#
# Indices 1 2 3 4 5 6 
#
# 1 0.016142 0.001254 -0.005918 0.000000 -0.002729 -0.000020
# 2 0.001254 0.009982 -0.002593 0.000032 -0.000005 -0.000005
# 3 -0.005918 -0.002593 0.008253 0.000020 -0.001797 0.000037
# 4 0.000000 0.000032 0.000020 0.353480 -0.000045 0.027644
# 5 -0.002729 -0.000005 -0.001797 -0.000045 0.030038 -0.000053
# 6 -0.000020 -0.000005 0.000037 0.027644 -0.000053 0.071886
#
#
# Mechanical properties :
#
#
# Convention : Reuss Voigt Hill
#
# Bulk Modulus (GPa) = 50.34233 68.18740 59.26486
# Shear Modulus (GPa) = 9.78638 28.53299 19.15969
#
# Velocity S-wave (km/s) = 2.17592 3.71539 3.04457
# Velocity P-wave (km/s) = 5.53789 7.16898 6.40557
#
# Compressibility (1/GPa) = 0.01986400
#
# Stress axis : x y z
#
# Youngs Moduli (GPa) = 61.95003 100.18228 121.17391
#
# Poissons Ratio (x) = -0.12568 0.71706
# Poissons Ratio (y) = -0.07772 0.31421
# Poissons Ratio (z) = 0.36660 0.25978
#
# Static dielectric constant tensor:
#      x y z
#    x 1.917360 -0.000160 -0.108480 
#    y -0.000160 1.963110 -0.000300 
#    z -0.108480 -0.000300 1.760550 
# 
# From -- ./inp_files/376648.got.cif
#   From: 2010.05.17/outbox.cif.g08.bks.cpg/sg12_189_cif.got.tgz:376648.got - 2010.06.03 13:09:07.
