data_PCOD9215659
_publ_section_title
;
Structure prediction by ZEFSAII (Michael W. Deem and Ramdas Pophale) SiO2 
 PCOD9215659
Probable space group: C 2/M
;
_chemical_formula_sum "Si O2"
_cell_formula_units_Z 48
_cell_length_a 16.512395
_cell_length_b 14.728270
_cell_length_c 12.919235
_cell_angle_alpha 90.000000
_cell_angle_beta 139.334153
_cell_angle_gamma 90.000000
_cell_volume 2047.437199
_symmetry_space_group_name_H-M "C 2/M"
_symmetry_group_IT_number 12
_symmetry_cell_setting 'monoclinic'
loop_
_space_group_symop_operation_xyz
x,y,z
-x,y,-z
-x,-y,-z
x,-y,z
1/2+x,1/2+y,z
1/2-x,1/2+y,-z
1/2-x,1/2-y,-z
1/2+x,1/2-y,z
loop_
_atom_site_type_symbol
_atom_site_label
_atom_site_fract_x
_atom_site_fract_y
_atom_site_fract_z
Si Si1 0.376145 0.101675 0.309137
Si Si2 0.612115 0.715961 0.815763
Si Si3 0.885859 0.097166 0.586510
Si Si4 0.137450 0.352633 0.000907
Si Si5 0.368506 0.854435 0.765734
Si Si6 0.622740 0.638260 0.185835
O O1 0.500000 0.108294 0.500000
O O2 0.374462 0.187844 0.230714
O O3 0.250128 0.109623 0.253597
O O4 0.377276 0.000000 0.261279
O O5 0.483278 0.674864 0.654190
O O6 0.720745 0.641916 0.901820
O O7 0.251058 0.882130 0.586097
O O8 0.617929 0.747254 0.941765
O O9 0.885589 0.094683 0.709842
O O10 0.926499 0.000000 0.583532
O O11 0.144825 0.382076 0.127418
O O12 0.998057 0.387548 0.840565
O O13 0.369891 0.745875 0.783077
O O14 0.500000 0.617910 0.000000
#
# Coordination Sequence:
#
# PCOD9215659 Si02
#       6
#     8   8   8   8   8   8
#     4  11  25  41  66 105 138 170 220 285 354 407
#     4  11  22  44  67 100 136 183 227 280 344 404
#     4  12  28  43  67 105 142 185 230 278 339 412
#     4  10  22  41  72  95 130 182 236 277 340 406
#     4  11  20  44  69  99 128 182 231 277 344 404
#     4  12  22  46  74 100 134 177 230 288 352 403
#
# _framework density 23.443940999999999
#
# number of rings (size 3 to 8) (size 9 to 14) (size 15 to 20)
#    0.000    0.833    5.000    2.000    4.667    1.333 
#    0.000    5.000    0.000    0.000    0.000    0.000 
#    0.000    0.000    0.000    0.000    0.000    0.000 
#
# Total GULP energy -133834.872577 kJ/mol
# GULP energy per Si atom -5576.453024 kJ/mol
# Density = 2.339058 g / cm^3
# Si number density = 23.443941 Si / 1000 Ang^3
#
#
#
# Elastic Constant Matrix: (Units=GPa)
#
#
# Indices 1 2 3 4 5 6 
#
# 1 54.1932 29.7626 7.9415 0.0000 24.2650 0.0000
# 2 29.7626 107.3379 51.1494 0.0000 3.2462 0.0000
# 3 7.9415 51.1494 159.6821 0.0000 15.6196 0.0000
# 4 0.0000 0.0000 0.0000 -34.5271 0.0000 -19.9282
# 5 24.2650 3.2462 15.6196 0.0000 36.7686 0.0000
# 6 0.0000 0.0000 0.0000 -19.9282 0.0000 18.4838
#
#
#
# Elastic Compliance Matrix: (Units=1/GPa)
#
#
# Indices 1 2 3 4 5 6 
#
# 1 0.034161 -0.010673 0.003999 0.000000 -0.023301 0.000000
# 2 -0.010673 0.014340 -0.004828 0.000000 0.007829 0.000000
# 3 0.003999 -0.004828 0.008166 0.000000 -0.005682 0.000000
# 4 0.000000 0.000000 0.000000 -0.017853 0.000000 -0.019248
# 5 -0.023301 0.007829 -0.005682 0.000000 0.044297 0.000000
# 6 0.000000 0.000000 0.000000 -0.019248 0.000000 0.033349
#
#
# Mechanical properties :
#
#
# Convention : Reuss Voigt Hill
#
# Bulk Modulus (GPa) = 29.70703 55.43558 42.57131
# Shear Modulus (GPa) = 33.18181 19.63570 26.40875
#
# Velocity S-wave (km/s) = 3.76622 2.89720 3.35992
# Velocity P-wave (km/s) = 5.62242 5.90670 5.76631
#
# Compressibility (1/GPa) = 0.03366207
#
# Stress axis : x y z
#
# Youngs Moduli (GPa) = 29.27315 69.73548 122.45964
#
# Poissons Ratio (x) = 0.74430 -0.48973
# Poissons Ratio (y) = 0.31244 0.59128
# Poissons Ratio (z) = -0.11707 0.33671
#
# Static dielectric constant tensor:
#      x y z
#    x 1.980680 0.000000 0.005340 
#    y 0.000000 1.960770 0.000000 
#    z 0.005340 0.000000 1.862950 
# 
# From -- ./inp_files/278597.got.cif
#   From: 2010.05.17/outbox.cif.g08.bks.cpg/sg12_140_cif.got.tgz:278597.got - 2010.06.03 13:09:07.
