data_PCOD9215021
_publ_section_title
;
Structure prediction by ZEFSAII (Michael W. Deem and Ramdas Pophale) SiO2 
 PCOD9215021
Probable space group: C 2/M
;
_chemical_formula_sum "Si O2"
_cell_formula_units_Z 32
_cell_length_a 11.620337
_cell_length_b 26.191586
_cell_length_c 8.949235
_cell_angle_alpha 90.000000
_cell_angle_beta 30.931357
_cell_angle_gamma 90.000000
_cell_volume 1400.034248
_symmetry_space_group_name_H-M "C 2/M"
_symmetry_group_IT_number 12
_symmetry_cell_setting 'monoclinic'
loop_
_space_group_symop_operation_xyz
x,y,z
-x,y,-z
-x,-y,-z
x,-y,z
1/2+x,1/2+y,z
1/2-x,1/2+y,-z
1/2-x,1/2-y,-z
1/2+x,1/2-y,z
loop_
_atom_site_type_symbol
_atom_site_label
_atom_site_fract_x
_atom_site_fract_y
_atom_site_fract_z
Si Si1 0.572594 0.218112 0.086814
Si Si2 0.840817 0.119180 0.797373
Si Si3 0.169047 0.156904 0.672251
Si Si4 0.537197 0.056067 0.634143
O O1 0.359374 0.199898 0.427483
O O2 0.500000 0.238991 0.000000
O O3 0.750000 0.250000 0.000000
O O4 0.681574 0.164128 0.917621
O O5 0.000000 0.094110 0.500000
O O6 0.002903 0.152250 0.720401
O O7 0.692310 0.076867 0.041225
O O8 0.289641 0.101997 0.540491
O O9 0.000000 0.159970 0.000000
O O10 0.500000 0.051963 0.500000
O O11 0.602022 0.000000 0.620558
#
# Coordination Sequence:
#
# PCOD9215021 Si02
#       4
#     8   8   8   8
#     4  11  26  50  75 106 146 189 245 308 371 439
#     4  11  23  45  70  99 147 189 237 296 365 428
#     4  11  23  45  73 104 144 193 240 295 363 432
#     4  10  22  40  68 108 145 186 243 299 357 427
#
# _framework density 22.856583000000001
#
# number of rings (size 3 to 8) (size 9 to 14) (size 15 to 20)
#    0.000    1.250    5.000    0.000    0.000    4.000 
#    4.500    2.500    0.000    0.000    0.000    0.000 
#    0.000    0.000    0.000    0.000    0.000    0.000 
#
# Total GULP energy -89159.873396 kJ/mol
# GULP energy per Si atom -5572.492087 kJ/mol
# Density = 2.280456 g / cm^3
# Si number density = 22.856583 Si / 1000 Ang^3
#
#
#
# Elastic Constant Matrix: (Units=GPa)
#
#
# Indices 1 2 3 4 5 6 
#
# 1 106.3168 27.5987 51.0599 0.0000 -10.2654 0.0000
# 2 27.5987 169.1798 82.9148 0.0000 -14.4042 0.0000
# 3 51.0599 82.9148 248.0854 0.0000 17.6241 0.0000
# 4 0.0000 0.0000 0.0000 57.5115 0.0000 -2.4809
# 5 -10.2654 -14.4042 17.6241 0.0000 34.7163 0.0000
# 6 0.0000 0.0000 0.0000 -2.4809 0.0000 31.6111
#
#
#
# Elastic Compliance Matrix: (Units=1/GPa)
#
#
# Indices 1 2 3 4 5 6 
#
# 1 0.011110 -0.000181 -0.002546 0.000000 0.004502 0.000000
# 2 -0.000181 0.007745 -0.002880 0.000000 0.004622 0.000000
# 3 -0.002546 -0.002880 0.005867 0.000000 -0.004926 0.000000
# 4 0.000000 0.000000 0.000000 0.017447 0.000000 0.001369
# 5 0.004502 0.004622 -0.004926 0.000000 0.034555 0.000000
# 6 0.000000 0.000000 0.000000 0.001369 0.000000 0.031742
#
#
# Mechanical properties :
#
#
# Convention : Reuss Voigt Hill
#
# Bulk Modulus (GPa) = 74.02443 94.08098 84.05270
# Shear Modulus (GPa) = 40.26304 48.90167 44.58235
#
# Velocity S-wave (km/s) = 4.20164 4.63049 4.42127
# Velocity P-wave (km/s) = 7.48299 8.35700 7.93204
#
# Compressibility (1/GPa) = 0.01350905
#
# Stress axis : x y z
#
# Youngs Moduli (GPa) = 90.00591 129.11117 170.43775
#
# Poissons Ratio (x) = 0.02342 0.43392
# Poissons Ratio (y) = 0.01632 0.49080
# Poissons Ratio (z) = 0.22915 0.37179
#
# Static dielectric constant tensor:
#      x y z
#    x 2.141320 0.000000 -0.002980 
#    y 0.000000 1.956630 0.000000 
#    z -0.002980 0.000000 1.850310 
# 
# From -- ./inp_files/53945.got.cif
#   From: 2010.05.17/outbox.cif.g08.bks.cpg/sg12_27_cif.got.tgz:53945.got - 2010.06.03 13:09:07.
