data_PCOD9215433
_publ_section_title
;
Structure prediction by ZEFSAII (Michael W. Deem and Ramdas Pophale) SiO2 
 PCOD9215433
Probable space group: C 2/M
;
_chemical_formula_sum "Si O2"
_cell_formula_units_Z 28
_cell_length_a 23.964050
_cell_length_b 10.664452
_cell_length_c 4.831579
_cell_angle_alpha 90.000000
_cell_angle_beta 84.168444
_cell_angle_gamma 90.000000
_cell_volume 1228.384967
_symmetry_space_group_name_H-M "C 2/M"
_symmetry_group_IT_number 12
_symmetry_cell_setting 'monoclinic'
loop_
_space_group_symop_operation_xyz
x,y,z
-x,y,-z
-x,-y,-z
x,-y,z
1/2+x,1/2+y,z
1/2-x,1/2+y,-z
1/2-x,1/2-y,-z
1/2+x,1/2-y,z
loop_
_atom_site_type_symbol
_atom_site_label
_atom_site_fract_x
_atom_site_fract_y
_atom_site_fract_z
Si Si1 0.630660 0.307644 0.944675
Si Si2 0.707360 0.354986 0.404841
Si Si3 0.539650 0.861081 0.715258
Si Si4 0.543051 0.500000 0.224526
O O1 0.660937 0.370527 0.668613
O O2 0.595625 0.200367 0.806188
O O3 0.679301 0.292421 0.147305
O O4 0.584684 0.384488 0.145355
O O5 0.727315 0.500000 0.333209
O O6 0.750000 0.250000 0.500000
O O7 0.500000 0.798776 0.500000
O O8 0.553909 0.000000 0.599079
O O9 0.500000 0.869450 0.000000
O O10 0.500000 0.500000 0.500000
O O11 0.500000 0.500000 0.000000
#
# Coordination Sequence:
#
# PCOD9215433 Si02
#       4
#     8   8   8   4
#     4  12  24  44  69 100 144 180 235 298 360 428
#     4  12  26  47  71  99 139 186 244 312 368 427
#     4  10  22  41  65  98 140 186 232 278 345 437
#     4  12  24  40  68 102 144 186 224 282 367 438
#
# _framework density 22.794156999999998
#
# number of rings (size 3 to 8) (size 9 to 14) (size 15 to 20)
#    0.000    0.571    2.857    5.143    0.000    4.571 
#    0.000    0.000    0.000    0.000    0.000    0.000 
#    0.000    0.000    0.000    0.000    0.000    0.000 
#
# Total GULP energy -78038.488244 kJ/mol
# GULP energy per Si atom -5574.177732 kJ/mol
# Density = 2.274228 g / cm^3
# Si number density = 22.794157 Si / 1000 Ang^3
#
#
#
# Elastic Constant Matrix: (Units=GPa)
#
#
# Indices 1 2 3 4 5 6 
#
# 1 105.1318 77.4234 37.0450 0.0000 44.2516 0.0000
# 2 77.4234 130.8540 18.5913 0.0000 32.9486 0.0000
# 3 37.0450 18.5913 156.7827 0.0000 33.6083 0.0000
# 4 0.0000 0.0000 0.0000 13.3412 0.0000 14.2086
# 5 44.2516 32.9486 33.6083 0.0000 79.5471 0.0000
# 6 0.0000 0.0000 0.0000 14.2086 0.0000 -182.4601
#
#
#
# Elastic Compliance Matrix: (Units=1/GPa)
#
#
# Indices 1 2 3 4 5 6 
#
# 1 0.020440 -0.010214 -0.002296 0.000000 -0.006170 0.000000
# 2 -0.010214 0.013647 0.000867 0.000000 -0.000337 0.000000
# 3 -0.002296 0.000867 0.007280 0.000000 -0.002158 0.000000
# 4 0.000000 0.000000 0.000000 0.069216 0.000000 0.005390
# 5 -0.006170 -0.000337 -0.002158 0.000000 0.017055 0.000000
# 6 0.000000 0.000000 0.000000 0.005390 0.000000 -0.005061
#
#
# Mechanical properties :
#
#
# Convention : Reuss Voigt Hill
#
# Bulk Modulus (GPa) = 55.30177 73.20976 64.25576
# Shear Modulus (GPa) = 32.91858 -0.60044 16.15907
#
# Velocity S-wave (km/s) = 3.80434 -0.51380 2.66543
# Velocity P-wave (km/s) = 6.60389 5.64230 6.14194
#
# Compressibility (1/GPa) = 0.01808261
#
# Stress axis : x y z
#
# Youngs Moduli (GPa) = 48.92366 73.27486 137.35377
#
# Poissons Ratio (x) = 0.74844 0.31534
# Poissons Ratio (y) = 0.49971 -0.11914
# Poissons Ratio (z) = 0.11232 -0.06356
#
# Static dielectric constant tensor:
#      x y z
#    x 1.869040 0.000000 0.044750 
#    y 0.000000 2.020200 0.000000 
#    z 0.044750 0.000000 1.842170 
# 
# From -- ./inp_files/18977.got.cif
#   From: 2010.05.17/outbox.cif.g08.bks.cpg/sg12_10_cif.got.tgz:18977.got - 2010.06.03 13:09:07.
