data_PCOD9215312
_publ_section_title
;
Structure prediction by ZEFSAII (Michael W. Deem and Ramdas Pophale) SiO2 
 PCOD9215312
Probable space group: C 2/M
;
_chemical_formula_sum "Si O2"
_cell_formula_units_Z 56
_cell_length_a 31.410407
_cell_length_b 16.716000
_cell_length_c 5.681376
_cell_angle_alpha 90.000000
_cell_angle_beta 56.106143
_cell_angle_gamma 90.000000
_cell_volume 2476.140392
_symmetry_space_group_name_H-M "C 2/M"
_symmetry_group_IT_number 12
_symmetry_cell_setting 'monoclinic'
loop_
_space_group_symop_operation_xyz
x,y,z
-x,y,-z
-x,-y,-z
x,-y,z
1/2+x,1/2+y,z
1/2-x,1/2+y,-z
1/2-x,1/2-y,-z
1/2+x,1/2-y,z
loop_
_atom_site_type_symbol
_atom_site_label
_atom_site_fract_x
_atom_site_fract_y
_atom_site_fract_z
Si Si1 0.146893 0.090466 0.869307
Si Si2 0.358602 0.091445 0.200194
Si Si3 0.325221 0.166206 0.805762
Si Si4 0.722819 0.410025 0.027716
Si Si5 0.452444 0.408998 0.488600
Si Si6 0.372163 0.326658 0.486009
Si Si7 0.018723 0.593590 0.192093
O O1 0.201998 0.096220 0.825729
O O2 0.136464 0.173024 0.764351
O O3 0.144078 0.000000 0.774780
O O4 0.098459 0.088400 0.194725
O O5 0.343384 0.121661 0.508131
O O6 0.340808 0.000000 0.239263
O O7 0.339306 0.133676 0.020759
O O8 0.420165 0.094294 0.998866
O O9 0.264058 0.155432 0.972252
O O10 0.351813 0.251846 0.690930
O O11 0.742510 0.500000 0.008511
O O12 0.670093 0.395550 0.329331
O O13 0.500000 0.381906 0.500000
O O14 0.463663 0.500000 0.372071
O O15 0.430606 0.352330 0.352174
O O16 0.000385 0.500000 0.248673
O O17 0.000000 0.628785 0.500000
O O18 0.000000 0.629039 0.000000
#
# Coordination Sequence:
#
# PCOD9215312 Si02
#       7
#     8   8   8   8   8   8   8
#     4   9  19  36  64  93 126 169 220 271 322 394
#     4  11  24  44  65  93 127 169 225 282 331 397
#     4  12  27  41  67  95 137 175 216 271 339 397
#     4  10  22  41  64  93 125 173 225 271 324 393
#     4   9  19  38  65  96 131 175 225 274 326 391
#     4  11  23  39  62  92 135 170 217 273 339 402
#     4   9  17  33  62  90 113 150 206 270 327 377
#
# _framework density 22.615839999999999
#
# number of rings (size 3 to 8) (size 9 to 14) (size 15 to 20)
#    0.000    1.857    0.000    4.714    6.000    3.429 
#    0.000    4.286    3.143    0.000    0.000    0.000 
#    0.000    0.000    0.000    0.000    0.000    0.000 
#
# Total GULP energy -155954.653258 kJ/mol
# GULP energy per Si atom -5569.809045 kJ/mol
# Density = 2.256437 g / cm^3
# Si number density = 22.615840 Si / 1000 Ang^3
#
#
#
# Elastic Constant Matrix: (Units=GPa)
#
#
# Indices 1 2 3 4 5 6 
#
# 1 120.5520 28.4661 18.9554 0.0000 7.4805 0.0000
# 2 28.4661 40.0958 -4.9513 0.0000 16.4272 0.0000
# 3 18.9554 -4.9513 64.0364 0.0000 19.0181 0.0000
# 4 0.0000 0.0000 0.0000 23.0743 0.0000 3.3401
# 5 7.4805 16.4272 19.0181 0.0000 30.5226 0.0000
# 6 0.0000 0.0000 0.0000 3.3401 0.0000 8.5172
#
#
#
# Elastic Compliance Matrix: (Units=1/GPa)
#
#
# Indices 1 2 3 4 5 6 
#
# 1 0.011859 -0.012639 -0.006926 0.000000 0.008212 0.000000
# 2 -0.012639 0.050735 0.018226 0.000000 -0.035564 0.000000
# 3 -0.006926 0.018226 0.026363 0.000000 -0.024538 0.000000
# 4 0.000000 0.000000 0.000000 0.045946 0.000000 -0.018018
# 5 0.008212 -0.035564 -0.024538 0.000000 0.065180 0.000000
# 6 0.000000 0.000000 0.000000 -0.018018 0.000000 0.124476
#
#
# Mechanical properties :
#
#
# Convention : Reuss Voigt Hill
#
# Bulk Modulus (GPa) = 11.59030 34.40272 22.99651
# Shear Modulus (GPa) = 14.04500 24.57041 19.30771
#
# Velocity S-wave (km/s) = 2.49474 3.29967 2.92503
# Velocity P-wave (km/s) = 3.66528 5.45545 4.64738
#
# Compressibility (1/GPa) = 0.08627902
#
# Stress axis : x y z
#
# Youngs Moduli (GPa) = 84.32253 19.71028 37.93148
#
# Poissons Ratio (x) = 0.24912 0.26273
# Poissons Ratio (y) = 1.06576 -0.69135
# Poissons Ratio (z) = 0.58406 -0.35925
#
# Static dielectric constant tensor:
#      x y z
#    x 1.923270 0.000000 0.157310 
#    y 0.000000 1.920570 0.000000 
#    z 0.157310 0.000000 2.007620 
# 
# From -- ./inp_files/28755.got.cif
#   From: 2010.05.17/outbox.cif.g08.bks.cpg/sg12_15_cif.got.tgz:28755.got - 2010.06.03 13:09:07.
