data_PCOD9215648
_publ_section_title
;
Structure prediction by ZEFSAII (Michael W. Deem and Ramdas Pophale) SiO2 
 PCOD9215648
Probable space group: C 2/M
;
_chemical_formula_sum "Si O2"
_cell_formula_units_Z 40
_cell_length_a 11.869775
_cell_length_b 16.572191
_cell_length_c 8.275118
_cell_angle_alpha 90.000000
_cell_angle_beta 92.830728
_cell_angle_gamma 90.000000
_cell_volume 1625.797159
_symmetry_space_group_name_H-M "C 2/M"
_symmetry_group_IT_number 12
_symmetry_cell_setting 'monoclinic'
loop_
_space_group_symop_operation_xyz
x,y,z
-x,y,-z
-x,-y,-z
x,-y,z
1/2+x,1/2+y,z
1/2-x,1/2+y,-z
1/2-x,1/2-y,-z
1/2+x,1/2-y,z
loop_
_atom_site_type_symbol
_atom_site_label
_atom_site_fract_x
_atom_site_fract_y
_atom_site_fract_z
Si Si1 0.859601 0.594706 0.142786
Si Si2 0.730283 0.302118 0.336308
Si Si3 0.980907 0.909139 0.691426
Si Si4 0.222683 0.146046 0.821725
Si Si5 0.061755 0.403378 0.344350
O O1 0.869891 0.500000 0.119035
O O2 0.798375 0.615666 0.308635
O O3 0.986185 0.625497 0.186160
O O4 0.780466 0.623116 0.992908
O O5 0.750000 0.250000 0.500000
O O6 0.603886 0.333361 0.295814
O O7 0.778679 0.241642 0.204893
O O8 0.099611 0.890836 0.786297
O O9 0.000000 0.912375 0.500000
O O10 0.941290 0.000000 0.738571
O O11 0.310016 0.116149 0.689379
O O12 0.054274 0.500000 0.352939
O O13 0.000000 0.369019 0.500000
#
# Coordination Sequence:
#
# PCOD9215648 Si02
#       5
#     8   8   8   8   8
#     4  11  25  47  74 107 147 192 246 307 377 451
#     4  12  26  46  71 105 147 193 247 307 371 439
#     4  11  25  46  74 107 148 197 248 303 372 453
#     4  12  25  45  75 105 149 192 247 310 377 440
#     4  10  22  41  71 104 140 188 241 299 365 441
#
# _framework density 24.603316
#
# number of rings (size 3 to 8) (size 9 to 14) (size 15 to 20)
#    0.000    0.800    2.000    4.800    2.800    3.200 
#    3.600    2.000    0.000    0.000    0.000    0.000 
#    0.000    0.000    0.000    0.000    0.000    0.000 
#
# Total GULP energy -111700.939630 kJ/mol
# GULP energy per Si atom -5585.046982 kJ/mol
# Density = 2.454732 g / cm^3
# Si number density = 24.603316 Si / 1000 Ang^3
#
#
#
# Elastic Constant Matrix: (Units=GPa)
#
#
# Indices 1 2 3 4 5 6 
#
# 1 112.3649 16.8316 22.4604 0.0000 37.7980 0.0000
# 2 16.8316 79.0056 28.5193 0.0000 25.4328 0.0000
# 3 22.4604 28.5193 98.3048 0.0000 23.0082 0.0000
# 4 0.0000 0.0000 0.0000 16.4616 0.0000 -3.8072
# 5 37.7980 25.4328 23.0082 0.0000 38.3954 0.0000
# 6 0.0000 0.0000 0.0000 -3.8072 0.0000 47.5123
#
#
#
# Elastic Compliance Matrix: (Units=1/GPa)
#
#
# Indices 1 2 3 4 5 6 
#
# 1 0.013506 0.001838 -0.000258 0.000000 -0.014358 0.000000
# 2 0.001838 0.016897 -0.002651 0.000000 -0.011413 0.000000
# 3 -0.000258 -0.002651 0.012248 0.000000 -0.005329 0.000000
# 4 0.000000 0.000000 0.000000 0.061894 0.000000 0.004960
# 5 -0.014358 -0.011413 -0.005329 0.000000 0.050933 0.000000
# 6 0.000000 0.000000 0.000000 0.004960 0.000000 0.021445
#
#
# Mechanical properties :
#
#
# Convention : Reuss Voigt Hill
#
# Bulk Modulus (GPa) = 24.68626 47.25535 35.97080
# Shear Modulus (GPa) = 25.96493 35.26479 30.61486
#
# Velocity S-wave (km/s) = 3.25213 3.79005 3.53135
# Velocity P-wave (km/s) = 4.91501 6.19687 5.59279
#
# Compressibility (1/GPa) = 0.04050837
#
# Stress axis : x y z
#
# Youngs Moduli (GPa) = 74.04195 59.18336 81.64762
#
# Poissons Ratio (x) = -0.10878 0.02110
# Poissons Ratio (y) = -0.13610 0.21641
# Poissons Ratio (z) = 0.01914 0.15687
#
# Static dielectric constant tensor:
#      x y z
#    x 2.029160 0.000000 0.008970 
#    y 0.000000 1.882380 0.000000 
#    z 0.008970 0.000000 2.034950 
# 
# From -- ./inp_files/47168.got.cif
#   From: 2010.05.17/outbox.cif.g08.bks.cpg/sg12_24_cif.got.tgz:47168.got - 2010.06.03 13:09:07.
