data_PCOD9215798
_publ_section_title
;
Structure prediction by ZEFSAII (Michael W. Deem and Ramdas Pophale) SiO2 
 PCOD9215798
Probable space group: C 2/M
;
_chemical_formula_sum "Si O2"
_cell_formula_units_Z 36
_cell_length_a 13.258363
_cell_length_b 18.092589
_cell_length_c 11.814375
_cell_angle_alpha 90.000000
_cell_angle_beta 147.656172
_cell_angle_gamma 90.000000
_cell_volume 1516.191852
_symmetry_space_group_name_H-M "C 2/M"
_symmetry_group_IT_number 12
_symmetry_cell_setting 'monoclinic'
loop_
_space_group_symop_operation_xyz
x,y,z
-x,y,-z
-x,-y,-z
x,-y,z
1/2+x,1/2+y,z
1/2-x,1/2+y,-z
1/2-x,1/2-y,-z
1/2+x,1/2-y,z
loop_
_atom_site_type_symbol
_atom_site_label
_atom_site_fract_x
_atom_site_fract_y
_atom_site_fract_z
Si Si1 0.792227 0.580063 0.472616
Si Si2 0.920321 0.416340 0.050010
Si Si3 0.074500 0.843157 0.843102
Si Si4 0.359067 0.755405 0.463102
Si Si5 0.500000 0.729000 0.000000
O O1 0.831009 0.500000 0.455093
O O2 0.569522 0.588601 0.284139
O O3 0.847696 0.655559 0.461544
O O4 0.908153 0.583189 0.698653
O O5 0.838393 0.500000 0.973323
O O6 0.760639 0.361594 0.948536
O O7 0.000000 0.404670 0.000000
O O8 0.944992 0.782137 0.655863
O O9 0.109937 0.817360 0.006194
O O10 0.500000 0.732269 0.500000
O O11 0.156470 0.730902 0.223287
#
# Coordination Sequence:
#
# PCOD9215798 Si02
#       5
#     8   8   8   8   4
#     4  10  22  42  65  96 137 177 226 276 334 407
#     4  10  23  42  68 100 137 181 226 276 338 406
#     4  11  24  44  69 103 136 179 227 279 341 399
#     4  11  25  42  66 103 135 181 224 281 340 397
#     4  10  22  44  67  94 143 172 226 278 334 406
#
# _framework density 23.743694999999999
#
# number of rings (size 3 to 8) (size 9 to 14) (size 15 to 20)
#    0.000    1.556    0.000    4.667    3.111    5.778 
#    2.000   19.444    0.000    0.000    0.000    0.000 
#    0.000    0.000    0.000    0.000    0.000    0.000 
#
# Total GULP energy -100573.296790 kJ/mol
# GULP energy per Si atom -5587.405377 kJ/mol
# Density = 2.368965 g / cm^3
# Si number density = 23.743695 Si / 1000 Ang^3
#
#
#
# Elastic Constant Matrix: (Units=GPa)
#
#
# Indices 1 2 3 4 5 6 
#
# 1 133.1968 8.5153 44.6220 0.0000 -9.2466 0.0000
# 2 8.5153 127.1441 27.1341 0.0000 -17.1358 0.0000
# 3 44.6220 27.1341 112.2254 0.0000 -13.8885 0.0000
# 4 0.0000 0.0000 0.0000 31.3531 0.0000 -9.9688
# 5 -9.2466 -17.1358 -13.8885 0.0000 33.7632 0.0000
# 6 0.0000 0.0000 0.0000 -9.9688 0.0000 -5.3065
#
#
#
# Elastic Compliance Matrix: (Units=1/GPa)
#
#
# Indices 1 2 3 4 5 6 
#
# 1 0.008704 0.000294 -0.003391 0.000000 0.001138 0.000000
# 2 0.000294 0.008731 -0.001759 0.000000 0.003788 0.000000
# 3 -0.003391 -0.001759 0.011020 0.000000 0.002711 0.000000
# 4 0.000000 0.000000 0.000000 0.019968 0.000000 -0.037512
# 5 0.001138 0.003788 0.002711 0.000000 0.032968 0.000000
# 6 0.000000 0.000000 0.000000 -0.037512 0.000000 -0.117979
#
#
# Mechanical properties :
#
#
# Convention : Reuss Voigt Hill
#
# Bulk Modulus (GPa) = 53.35347 59.23435 56.29391
# Shear Modulus (GPa) = -242.38052 31.44830 -105.46611
#
# Velocity S-wave (km/s) = -10.11453 3.64330 -6.67196
# Velocity P-wave (km/s) = 10.67172 6.53451 5.96598
#
# Compressibility (1/GPa) = 0.01874292
#
# Stress axis : x y z
#
# Youngs Moduli (GPa) = 114.89080 114.52919 90.74526
#
# Poissons Ratio (x) = -0.03369 0.30772
# Poissons Ratio (y) = -0.03379 0.15964
# Poissons Ratio (z) = 0.38960 0.20148
#
# Static dielectric constant tensor:
#      x y z
#    x 1.913310 0.000000 0.035080 
#    y 0.000000 2.003910 0.000000 
#    z 0.035080 0.000000 1.865160 
# 
# From -- ./inp_files/147862.got.cif
#   From: 2010.05.17/outbox.cif.g08.bks.cpg/sg12_74_cif.got.tgz:147862.got - 2010.06.03 13:09:07.
