data_PCOD9215754
_publ_section_title
;
Structure prediction by ZEFSAII (Michael W. Deem and Ramdas Pophale) SiO2 
 PCOD9215754
Probable space group: C 2/M
;
_chemical_formula_sum "Si O2"
_cell_formula_units_Z 40
_cell_length_a 8.494714
_cell_length_b 18.453245
_cell_length_c 23.850809
_cell_angle_alpha 90.000000
_cell_angle_beta 148.212283
_cell_angle_gamma 90.000000
_cell_volume 1969.466567
_symmetry_space_group_name_H-M "C 2/M"
_symmetry_group_IT_number 12
_symmetry_cell_setting 'monoclinic'
loop_
_space_group_symop_operation_xyz
x,y,z
-x,y,-z
-x,-y,-z
x,-y,z
1/2+x,1/2+y,z
1/2-x,1/2+y,-z
1/2-x,1/2-y,-z
1/2+x,1/2-y,z
loop_
_atom_site_type_symbol
_atom_site_label
_atom_site_fract_x
_atom_site_fract_y
_atom_site_fract_z
Si Si1 0.686610 0.191451 0.932812
Si Si2 0.191646 0.916441 0.814952
Si Si3 0.345859 0.583436 0.591485
Si Si4 0.346466 0.701555 0.393825
Si Si5 0.778332 0.801222 0.742165
O O1 0.505694 0.124118 0.902751
O O2 0.472113 0.234444 0.824788
O O3 0.750000 0.250000 0.000000
O O4 0.000000 0.170825 0.000000
O O5 0.028650 0.912742 0.704960
O O6 0.989562 0.869521 0.795899
O O7 0.218588 0.000000 0.839382
O O8 0.360659 0.500000 0.575389
O O9 0.488252 0.638483 0.590371
O O10 0.000000 0.599396 0.500000
O O11 0.500000 0.713750 0.500000
O O12 0.345707 0.772646 0.354852
O O13 0.000492 0.683481 0.302178
#
# Coordination Sequence:
#
# PCOD9215754 Si02
#       5
#     8   8   8   8   8
#     4  12  23  43  71  93 125 173 220 279 336 389
#     4  11  24  44  68  98 136 174 218 275 338 396
#     4  10  22  42  64  94 141 182 214 267 334 393
#     4  12  23  37  66  98 133 173 228 266 320 397
#     4  12  23  42  63  98 134 169 222 273 328 390
#
# _framework density 20.310068000000001
#
# number of rings (size 3 to 8) (size 9 to 14) (size 15 to 20)
#    0.000    0.600    6.000    1.800    0.000    3.200 
#    0.000    2.000    0.000    0.000    0.000    0.000 
#    0.000    0.000    0.000    0.000    0.000    0.000 
#
# Total GULP energy -111967.018564 kJ/mol
# GULP energy per Si atom -5598.350928 kJ/mol
# Density = 2.026384 g / cm^3
# Si number density = 20.310068 Si / 1000 Ang^3
#
#
#
# Elastic Constant Matrix: (Units=GPa)
#
#
# Indices 1 2 3 4 5 6 
#
# 1 133.4335 70.7231 25.1589 0.0049 53.6833 0.0076
# 2 70.7231 157.9270 18.5838 -0.0036 35.6184 0.0007
# 3 25.1589 18.5838 49.9164 -0.0023 29.6570 0.0107
# 4 0.0049 -0.0036 -0.0023 27.9734 0.0020 5.4275
# 5 53.6833 35.6184 29.6570 0.0020 50.5669 0.0040
# 6 0.0076 0.0007 0.0107 5.4275 0.0040 34.5098
#
#
#
# Elastic Compliance Matrix: (Units=1/GPa)
#
#
# Indices 1 2 3 4 5 6 
#
# 1 0.014866 -0.003637 0.002634 -0.000001 -0.014764 -0.000002
# 2 -0.003637 0.008427 -0.000110 0.000002 -0.002010 0.000001
# 3 0.002634 -0.000110 0.031252 0.000005 -0.021047 -0.000009
# 4 -0.000001 0.000002 0.000005 0.036873 -0.000004 -0.005799
# 5 -0.014764 -0.002010 -0.021047 -0.000004 0.049210 0.000005
# 6 -0.000002 0.000001 -0.000009 -0.005799 0.000005 0.029889
#
#
# Mechanical properties :
#
#
# Convention : Reuss Voigt Hill
#
# Bulk Modulus (GPa) = 19.11393 63.35650 41.23521
# Shear Modulus (GPa) = 26.29032 37.73077 32.01054
#
# Velocity S-wave (km/s) = 3.60175 4.31482 3.97431
# Velocity P-wave (km/s) = 5.16994 7.48906 6.43484
#
# Compressibility (1/GPa) = 0.05231786
#
# Stress axis : x y z
#
# Youngs Moduli (GPa) = 67.26931 118.66444 31.99783
#
# Poissons Ratio (x) = 0.43160 -0.08427
# Poissons Ratio (y) = 0.24467 0.00352
# Poissons Ratio (z) = -0.17716 0.01304
#
# Static dielectric constant tensor:
#      x y z
#    x 1.704880 0.000000 -0.012430 
#    y 0.000000 1.696630 0.000000 
#    z -0.012430 0.000000 1.782370 
# 
# From -- ./inp_files/118957.got.cif
#   From: 2010.05.17/outbox.cif.g08.bks.cpg/sg12_60_cif.got.tgz:118957.got - 2010.06.03 13:09:07.
