data_PCOD9215699
_publ_section_title
;
Structure prediction by ZEFSAII (Michael W. Deem and Ramdas Pophale) SiO2 
 PCOD9215699
Probable space group: C 2/M
;
_chemical_formula_sum "Si O2"
_cell_formula_units_Z 40
_cell_length_a 30.233111
_cell_length_b 8.811798
_cell_length_c 15.180862
_cell_angle_alpha 90.000000
_cell_angle_beta 149.210428
_cell_angle_gamma 90.000000
_cell_volume 2070.224765
_symmetry_space_group_name_H-M "C 2/M"
_symmetry_group_IT_number 12
_symmetry_cell_setting 'monoclinic'
loop_
_space_group_symop_operation_xyz
x,y,z
-x,y,-z
-x,-y,-z
x,-y,z
1/2+x,1/2+y,z
1/2-x,1/2+y,-z
1/2-x,1/2-y,-z
1/2+x,1/2-y,z
loop_
_atom_site_type_symbol
_atom_site_label
_atom_site_fract_x
_atom_site_fract_y
_atom_site_fract_z
Si Si1 0.534830 0.681733 0.288897
Si Si2 0.240380 0.818136 0.886598
Si Si3 0.440128 0.181592 0.481368
Si Si4 0.726628 0.683089 0.554356
Si Si5 0.864048 0.317355 0.939386
O O1 0.532868 0.500000 0.291669
O O2 0.522431 0.753324 0.364204
O O3 0.629962 0.728570 0.418116
O O4 0.457195 0.740214 0.095222
O O5 0.152863 0.755553 0.694102
O O6 0.318461 0.778229 0.954393
O O7 0.236404 0.000000 0.885236
O O8 0.250000 0.750000 0.000000
O O9 0.500000 0.217472 0.500000
O O10 0.432570 0.000000 0.474492
O O11 0.727641 0.500000 0.552076
O O12 0.750000 0.750000 0.500000
O O13 0.797698 0.728495 0.748874
O O14 0.873802 0.500000 0.952894
#
# Coordination Sequence:
#
# PCOD9215699 Si02
#       5
#     8   8   8   8   8
#     4  11  23  41  64  93 126 162 208 260 310 369
#     4  11  22  38  59  87 126 166 209 258 307 367
#     4  11  23  38  58  88 125 166 210 255 309 370
#     4  10  23  44  66  91 125 163 207 260 317 370
#     4  10  22  42  63  88 127 166 203 255 313 372
#
# _framework density 19.321573000000001
#
# number of rings (size 3 to 8) (size 9 to 14) (size 15 to 20)
#    0.000    1.400    2.000    3.000    0.000   11.200 
#    0.000    4.000    0.000    0.000    0.000    0.000 
#    0.000    0.000    0.000    0.000    0.000    0.000 
#
# Total GULP energy -111823.462930 kJ/mol
# GULP energy per Si atom -5591.173147 kJ/mol
# Density = 1.927760 g / cm^3
# Si number density = 19.321573 Si / 1000 Ang^3
#
#
#
# Elastic Constant Matrix: (Units=GPa)
#
#
# Indices 1 2 3 4 5 6 
#
# 1 122.5913 40.0746 70.3994 0.0000 -8.4232 0.0000
# 2 40.0746 31.9271 38.0993 0.0000 3.3729 0.0000
# 3 70.3994 38.0993 167.1621 0.0000 8.3248 0.0000
# 4 0.0000 0.0000 0.0000 39.5016 0.0000 -2.4603
# 5 -8.4232 3.3729 8.3248 0.0000 28.7464 0.0000
# 6 0.0000 0.0000 0.0000 -2.4603 0.0000 32.8922
#
#
#
# Elastic Compliance Matrix: (Units=1/GPa)
#
#
# Indices 1 2 3 4 5 6 
#
# 1 0.016210 -0.017248 -0.003280 0.000000 0.007724 0.000000
# 2 -0.017248 0.061518 -0.006236 0.000000 -0.010466 0.000000
# 3 -0.003280 -0.006236 0.008925 0.000000 -0.002814 0.000000
# 4 0.000000 0.000000 0.000000 0.025434 0.000000 0.001902
# 5 0.007724 -0.010466 -0.002814 0.000000 0.039093 0.000000
# 6 0.000000 0.000000 0.000000 0.001902 0.000000 0.030545
#
#
# Mechanical properties :
#
#
# Convention : Reuss Voigt Hill
#
# Bulk Modulus (GPa) = 30.18894 68.75856 49.47375
# Shear Modulus (GPa) = 20.30085 31.76853 26.03469
#
# Velocity S-wave (km/s) = 3.24494 4.05927 3.67473
# Velocity P-wave (km/s) = 5.44958 7.59170 6.60802
#
# Compressibility (1/GPa) = 0.03312472
#
# Stress axis : x y z
#
# Youngs Moduli (GPa) = 61.69064 16.25531 112.04387
#
# Poissons Ratio (x) = 0.28037 0.36752
# Poissons Ratio (y) = 1.06405 0.69870
# Poissons Ratio (z) = 0.20236 0.10137
#
# Static dielectric constant tensor:
#      x y z
#    x 1.660720 0.000000 -0.000890 
#    y 0.000000 1.645210 0.000000 
#    z -0.000890 0.000000 1.695900 
# 
# From -- ./inp_files/211191.got.cif
#   From: 2010.05.17/outbox.cif.g08.bks.cpg/sg12_106_cif.got.tgz:211191.got - 2010.06.03 13:09:07.
