data_PCOD9215555
_publ_section_title
;
Structure prediction by ZEFSAII (Michael W. Deem and Ramdas Pophale) SiO2 
 PCOD9215555
Probable space group: C 2/M
;
_chemical_formula_sum "Si O2"
_cell_formula_units_Z 56
_cell_length_a 32.339278
_cell_length_b 19.009810
_cell_length_c 9.549738
_cell_angle_alpha 90.000000
_cell_angle_beta 153.311265
_cell_angle_gamma 90.000000
_cell_volume 2636.844503
_symmetry_space_group_name_H-M "C 2/M"
_symmetry_group_IT_number 12
_symmetry_cell_setting 'monoclinic'
loop_
_space_group_symop_operation_xyz
x,y,z
-x,y,-z
-x,-y,-z
x,-y,z
1/2+x,1/2+y,z
1/2-x,1/2+y,-z
1/2-x,1/2-y,-z
1/2+x,1/2-y,z
loop_
_atom_site_type_symbol
_atom_site_label
_atom_site_fract_x
_atom_site_fract_y
_atom_site_fract_z
Si Si1 0.883649 0.924500 0.954483
Si Si2 0.936993 0.579669 0.173171
Si Si3 0.801881 0.824361 0.162596
Si Si4 0.215017 0.419409 0.657149
Si Si5 0.764019 0.083481 0.320333
Si Si6 0.993943 0.211843 0.325412
Si Si7 0.559941 0.821435 0.049718
O O1 0.796388 0.926530 0.791699
O O2 0.842447 0.913011 0.675576
O O3 0.932039 0.000000 0.104065
O O4 0.947251 0.863110 0.198466
O O5 0.924918 0.500000 0.085828
O O6 0.000000 0.580091 0.500000
O O7 0.834603 0.604193 0.908659
O O8 0.984728 0.623488 0.194738
O O9 0.790300 0.863982 0.275488
O O10 0.906072 0.803072 0.437294
O O11 0.750000 0.750000 0.000000
O O12 0.756999 0.879057 0.917051
O O13 0.181649 0.500000 0.585994
O O14 0.142296 0.366645 0.365010
O O15 0.755365 0.000000 0.251908
O O16 0.000000 0.244787 0.500000
O O17 0.930122 0.255921 0.024864
O O18 0.500000 0.798927 0.000000
#
# Coordination Sequence:
#
# PCOD9215555 Si02
#       7
#     8   8   8   8   8   8   8
#     4  10  23  45  75 102 130 181 235 287 354 422
#     4  10  22  41  67  98 136 184 232 284 347 416
#     4  12  28  45  69 105 140 183 233 288 347 418
#     4  11  24  46  72 103 138 182 236 292 350 413
#     4  10  23  45  71 100 139 182 228 286 351 419
#     4  12  28  48  69 102 142 187 232 288 355 423
#     4  12  27  43  67 101 143 184 234 293 346 418
#
# _framework density 21.237504999999999
#
# number of rings (size 3 to 8) (size 9 to 14) (size 15 to 20)
#    0.000    1.000    2.857    2.143   10.000    3.143 
#    0.000    1.429    0.000    0.000    0.000    0.000 
#    0.000    0.000    0.000    0.000    0.000    0.000 
#
# Total GULP energy -156381.944339 kJ/mol
# GULP energy per Si atom -5585.069441 kJ/mol
# Density = 2.118917 g / cm^3
# Si number density = 21.237505 Si / 1000 Ang^3
#
#
#
# Elastic Constant Matrix: (Units=GPa)
#
#
# Indices 1 2 3 4 5 6 
#
# 1 79.8705 34.1262 -3.0833 0.0000 -29.7702 0.0000
# 2 34.1262 111.2654 26.3360 0.0000 -12.2071 0.0000
# 3 -3.0833 26.3360 45.4277 0.0000 -3.6743 0.0000
# 4 0.0000 0.0000 0.0000 40.6199 0.0000 -15.7427
# 5 -29.7702 -12.2071 -3.6743 0.0000 32.1588 0.0000
# 6 0.0000 0.0000 0.0000 -15.7427 0.0000 35.0331
#
#
#
# Elastic Compliance Matrix: (Units=1/GPa)
#
#
# Indices 1 2 3 4 5 6 
#
# 1 0.022802 -0.006491 0.006882 0.000000 0.019430 0.000000
# 2 -0.006491 0.012622 -0.007930 0.000000 -0.002123 0.000000
# 3 0.006882 -0.007930 0.027604 0.000000 0.006515 0.000000
# 4 0.000000 0.000000 0.000000 0.029810 0.000000 0.013396
# 5 0.019430 -0.002123 0.006515 0.000000 0.049021 0.000000
# 6 0.000000 0.000000 0.000000 0.013396 0.000000 0.034564
#
#
# Mechanical properties :
#
#
# Convention : Reuss Voigt Hill
#
# Bulk Modulus (GPa) = 20.85460 39.03573 29.94516
# Shear Modulus (GPa) = 24.09822 33.50799 28.80310
#
# Velocity S-wave (km/s) = 3.37219 3.97643 3.68671
# Velocity P-wave (km/s) = 5.00032 6.28515 5.67919
#
# Compressibility (1/GPa) = 0.04795106
#
# Stress axis : x y z
#
# Youngs Moduli (GPa) = 43.85674 79.22496 36.22630
#
# Poissons Ratio (x) = 0.51422 -0.24931
# Poissons Ratio (y) = 0.28466 0.28727
# Poissons Ratio (z) = -0.30182 0.62824
#
# Static dielectric constant tensor:
#      x y z
#    x 1.782810 0.000000 0.001070 
#    y 0.000000 1.791420 0.000000 
#    z 0.001070 0.000000 1.821860 
# 
# From -- ./inp_files/113403.got.cif
#   From: 2010.05.17/outbox.cif.g08.bks.cpg/sg12_57_cif.got.tgz:113403.got - 2010.06.03 13:09:07.
