data_PCOD9215159
_publ_section_title
;
Structure prediction by ZEFSAII (Michael W. Deem and Ramdas Pophale) SiO2 
 PCOD9215159
Probable space group: C 2/M
;
_chemical_formula_sum "Si O2"
_cell_formula_units_Z 34
_cell_length_a 10.150496
_cell_length_b 10.354697
_cell_length_c 31.981489
_cell_angle_alpha 90.000000
_cell_angle_beta 145.339702
_cell_angle_gamma 90.000000
_cell_volume 1911.674616
_symmetry_space_group_name_H-M "C 2/M"
_symmetry_group_IT_number 12
_symmetry_cell_setting 'monoclinic'
loop_
_space_group_symop_operation_xyz
x,y,z
-x,y,-z
-x,-y,-z
x,-y,z
1/2+x,1/2+y,z
1/2-x,1/2+y,-z
1/2-x,1/2-y,-z
1/2+x,1/2-y,z
loop_
_atom_site_type_symbol
_atom_site_label
_atom_site_fract_x
_atom_site_fract_y
_atom_site_fract_z
Si Si1 0.388869 0.000000 0.596002
Si Si2 0.800794 0.500000 0.856613
Si Si3 0.312890 0.260989 0.327940
Si Si4 0.527096 0.500000 0.577494
Si Si5 0.500000 0.000000 0.000000
Si Si6 0.532681 0.500000 0.159446
Si Si7 0.796406 0.766534 0.226786
O O1 0.543780 0.871791 0.634832
O O2 0.238340 0.000000 0.599266
O O3 0.207431 0.000000 0.510463
O O4 0.546339 0.500000 0.812334
O O5 0.818417 0.373922 0.832699
O O6 0.970098 0.500000 0.940531
O O7 0.448420 0.373225 0.387684
O O8 0.271209 0.300258 0.268943
O O9 0.066266 0.241694 0.285749
O O10 0.786469 0.000000 0.071683
O O11 0.677720 0.628040 0.188709
#
# Coordination Sequence:
#
# PCOD9215159 Si02
#       7
#     4   4   8   4   2   4   8
#     4  11  24  43  60  89 132 164 206 267 322 369
#     4  10  22  41  62  96 125 166 199 254 306 369
#     4  12  22  41  64  92 123 168 209 266 314 365
#     4  11  24  41  63  89 124 170 214 257 316 387
#     4   8  20  46  64  88 140 168 188 256 316 364
#     4  10  22  42  61  96 127 164 199 256 308 367
#     4  12  22  40  68  92 130 160 214 260 308 366
#
# _framework density 17.785453
#
# number of rings (size 3 to 8) (size 9 to 14) (size 15 to 20)
#    0.706    0.235    4.706    3.529    0.000    0.941 
#    0.000    1.176    0.000    2.824    0.000    0.000 
#    0.000    0.000    0.000    0.000    0.000    0.000 
#
# Total GULP energy -94663.200973 kJ/mol
# GULP energy per Si atom -5568.423587 kJ/mol
# Density = 1.774497 g / cm^3
# Si number density = 17.785453 Si / 1000 Ang^3
#
#
#
# Elastic Constant Matrix: (Units=GPa)
#
#
# Indices 1 2 3 4 5 6 
#
# 1 45.8252 26.8516 13.1623 0.0000 -0.7142 0.0000
# 2 26.8516 146.9489 59.9170 0.0000 -15.9260 0.0000
# 3 13.1623 59.9170 106.9854 0.0000 -12.8052 0.0000
# 4 0.0000 0.0000 0.0000 4.1850 0.0000 -2.6829
# 5 -0.7142 -15.9260 -12.8052 0.0000 37.0111 0.0000
# 6 0.0000 0.0000 0.0000 -2.6829 0.0000 27.3537
#
#
#
# Elastic Compliance Matrix: (Units=1/GPa)
#
#
# Indices 1 2 3 4 5 6 
#
# 1 0.024571 -0.004350 -0.000787 0.000000 -0.001670 0.000000
# 2 -0.004350 0.009760 -0.004630 0.000000 0.002514 0.000000
# 3 -0.000787 -0.004630 0.012306 0.000000 0.002250 0.000000
# 4 0.000000 0.000000 0.000000 0.254981 0.000000 0.025009
# 5 -0.001670 0.002514 0.002250 0.000000 0.028847 0.000000
# 6 0.000000 0.000000 0.000000 0.025009 0.000000 0.039011
#
#
# Mechanical properties :
#
#
# Convention : Reuss Voigt Hill
#
# Bulk Modulus (GPa) = 36.89499 55.51347 46.20423
# Shear Modulus (GPa) = 12.56141 27.03187 19.79664
#
# Velocity S-wave (km/s) = 2.66047 3.90280 3.33991
# Velocity P-wave (km/s) = 5.49790 7.18260 6.39596
#
# Compressibility (1/GPa) = 0.02710395
#
# Stress axis : x y z
#
# Youngs Moduli (GPa) = 40.69861 102.45557 81.25927
#
# Poissons Ratio (x) = 0.44569 0.06391
# Poissons Ratio (y) = 0.17704 0.37624
# Poissons Ratio (z) = 0.03201 0.47439
#
# Static dielectric constant tensor:
#      x y z
#    x 1.600440 0.000000 -0.004860 
#    y 0.000000 1.598140 0.000000 
#    z -0.004860 0.000000 1.588770 
# 
# From -- ./inp_files/355655.got.cif
#   From: 2010.05.17/outbox.cif.g08.bks.cpg/sg12_178_cif.got.tgz:355655.got - 2010.06.03 13:09:07.
