data_PCOD9215260
_publ_section_title
;
Structure prediction by ZEFSAII (Michael W. Deem and Ramdas Pophale) SiO2 
 PCOD9215260
Probable space group: C 2/M
;
_chemical_formula_sum "Si O2"
_cell_formula_units_Z 40
_cell_length_a 31.167928
_cell_length_b 9.590893
_cell_length_c 21.636268
_cell_angle_alpha 90.000000
_cell_angle_beta 162.822562
_cell_angle_gamma 90.000000
_cell_volume 1910.115485
_symmetry_space_group_name_H-M "C 2/M"
_symmetry_group_IT_number 12
_symmetry_cell_setting 'monoclinic'
loop_
_space_group_symop_operation_xyz
x,y,z
-x,y,-z
-x,-y,-z
x,-y,z
1/2+x,1/2+y,z
1/2-x,1/2+y,-z
1/2-x,1/2-y,-z
1/2+x,1/2-y,z
loop_
_atom_site_type_symbol
_atom_site_label
_atom_site_fract_x
_atom_site_fract_y
_atom_site_fract_z
Si Si1 0.648853 0.159474 0.818903
Si Si2 0.126658 0.660568 0.474453
Si Si3 0.827604 0.836283 0.855603
Si Si4 0.610205 0.334953 0.330019
Si Si5 0.672061 0.652903 0.736976
O O1 0.487786 0.171720 0.626118
O O2 0.683844 0.221021 0.800667
O O3 0.689586 0.000000 0.877062
O O4 0.750000 0.250000 0.000000
O O5 0.120844 0.500000 0.443653
O O6 0.285412 0.682109 0.724910
O O7 0.079155 0.763761 0.354201
O O8 0.738374 0.713489 0.766200
O O9 0.784035 0.000000 0.808168
O O10 0.984954 0.822340 0.104989
O O11 0.637162 0.500000 0.375134
O O12 0.750000 0.250000 0.500000
O O13 0.500000 0.634643 0.500000
O O14 0.735653 0.500000 0.841195
#
# Coordination Sequence:
#
# PCOD9215260 Si02
#       5
#     8   8   8   8   8
#     4  11  22  36  58  86 123 166 207 252 303 362
#     4  10  22  41  64  89 121 161 208 254 305 367
#     4  10  22  42  66  91 122 168 213 252 304 371
#     4  11  25  44  67  92 121 156 202 260 319 375
#     4  11  22  35  56  89 127 163 202 248 297 356
#
# _framework density 20.941141999999999
#
# number of rings (size 3 to 8) (size 9 to 14) (size 15 to 20)
#    0.000    1.400    2.000    3.000    0.000    8.800 
#    0.000    4.000    0.000    0.000    0.000    0.000 
#    0.000    0.000    0.000    0.000    0.000    0.000 
#
# Total GULP energy -111413.980665 kJ/mol
# GULP energy per Si atom -5570.699033 kJ/mol
# Density = 2.089348 g / cm^3
# Si number density = 20.941142 Si / 1000 Ang^3
#
#
#
# Elastic Constant Matrix: (Units=GPa)
#
#
# Indices 1 2 3 4 5 6 
#
# 1 30.4627 32.8272 4.7524 0.0000 -10.6905 0.0000
# 2 32.8272 151.0535 58.3458 0.0000 -6.8136 0.0000
# 3 4.7524 58.3458 100.7588 0.0000 -21.9481 0.0000
# 4 0.0000 0.0000 0.0000 40.4582 0.0000 1.6391
# 5 -10.6905 -6.8136 -21.9481 0.0000 27.1175 0.0000
# 6 0.0000 0.0000 0.0000 1.6391 0.0000 36.7726
#
#
#
# Elastic Compliance Matrix: (Units=1/GPa)
#
#
# Indices 1 2 3 4 5 6 
#
# 1 0.059288 -0.016716 0.013427 0.000000 0.030040 0.000000
# 2 -0.016716 0.013355 -0.009287 0.000000 -0.010751 0.000000
# 3 0.013427 -0.009287 0.018592 0.000000 0.018007 0.000000
# 4 0.000000 0.000000 0.000000 0.024762 0.000000 -0.001104
# 5 0.030040 -0.010751 0.018007 0.000000 0.060592 0.000000
# 6 0.000000 0.000000 0.000000 -0.001104 0.000000 0.027243
#
#
# Mechanical properties :
#
#
# Convention : Reuss Voigt Hill
#
# Bulk Modulus (GPa) = 15.13259 52.68065 33.90662
# Shear Modulus (GPa) = 19.91948 33.29297 26.60623
#
# Velocity S-wave (km/s) = 3.08752 3.99160 3.56831
# Velocity P-wave (km/s) = 4.46680 6.81579 5.76226
#
# Compressibility (1/GPa) = 0.06608256
#
# Stress axis : x y z
#
# Youngs Moduli (GPa) = 16.86694 74.87826 53.78792
#
# Poissons Ratio (x) = 1.25164 -0.72219
# Poissons Ratio (y) = 0.28194 0.49952
# Poissons Ratio (z) = -0.22647 0.69538
#
# Static dielectric constant tensor:
#      x y z
#    x 1.796090 0.000000 0.068930 
#    y 0.000000 1.742810 0.000000 
#    z 0.068930 0.000000 1.820280 
# 
# From -- ./inp_files/151752.got.cif
#   From: 2010.05.17/outbox.cif.g08.bks.cpg/sg12_76_cif.got.tgz:151752.got - 2010.06.03 13:09:07.
