data_PCOD9215105
_publ_section_title
;
Structure prediction by ZEFSAII (Michael W. Deem and Ramdas Pophale) SiO2 
 PCOD9215105
Probable space group: C 2/M
;
_chemical_formula_sum "Si O2"
_cell_formula_units_Z 52
_cell_length_a 10.138185
_cell_length_b 30.518805
_cell_length_c 14.928852
_cell_angle_alpha 90.000000
_cell_angle_beta 143.726910
_cell_angle_gamma 90.000000
_cell_volume 2732.799122
_symmetry_space_group_name_H-M "C 2/M"
_symmetry_group_IT_number 12
_symmetry_cell_setting 'monoclinic'
loop_
_space_group_symop_operation_xyz
x,y,z
-x,y,-z
-x,-y,-z
x,-y,z
1/2+x,1/2+y,z
1/2-x,1/2+y,-z
1/2-x,1/2-y,-z
1/2+x,1/2-y,z
loop_
_atom_site_type_symbol
_atom_site_label
_atom_site_fract_x
_atom_site_fract_y
_atom_site_fract_z
Si Si1 0.498144 0.072011 0.243516
Si Si2 0.427461 0.326482 0.319844
Si Si3 0.115722 0.328755 0.326673
Si Si4 0.786293 0.413436 0.825590
Si Si5 0.435039 0.500000 0.235296
Si Si6 0.656040 0.500000 0.002392
Si Si7 0.582587 0.000000 0.440491
Si Si8 0.745382 0.753871 0.890763
O O1 0.498521 0.123390 0.269306
O O2 0.675629 0.074489 0.258378
O O3 0.525885 0.042651 0.348330
O O4 0.301725 0.044415 0.087215
O O5 0.249368 0.324528 0.305005
O O6 0.681411 0.321775 0.492343
O O7 0.396151 0.375608 0.266900
O O8 0.350796 0.290082 0.207679
O O9 0.924217 0.292594 0.228334
O O10 0.711094 0.457850 0.828750
O O11 0.000000 0.397490 0.000000
O O12 0.650714 0.500000 0.412664
O O13 0.501507 0.500000 0.168897
O O14 0.500000 0.500000 0.000000
O O15 0.500000 0.000000 0.500000
O O16 0.750000 0.750000 0.000000
O O17 0.000000 0.761323 0.000000
#
# Coordination Sequence:
#
# PCOD9215105 Si02
#       8
#     8   8   8   8   4   4   4   8
#     4  10  22  41  61  91 125 165 215 266 321 382
#     4  10  22  41  66  94 130 173 207 270 338 390
#     4  10  22  42  67  94 130 167 220 267 328 396
#     4  11  21  36  65  98 129 156 215 279 325 377
#     4  12  21  34  60  91 119 164 207 259 324 373
#     4  11  22  37  58  82 126 173 212 258 312 389
#     4  11  24  42  60  83 131 175 213 261 318 393
#     4  12  24  42  66  97 131 171 219 270 333 398
#
# _framework density 19.028108
#
# number of rings (size 3 to 8) (size 9 to 14) (size 15 to 20)
#    0.000    1.231    3.077    3.923    2.154    3.077 
#    0.000    3.077    0.000    0.000    0.000    0.000 
#    0.000    0.000    0.000    0.000    0.000    0.000 
#
# Total GULP energy -144870.255611 kJ/mol
# GULP energy per Si atom -5571.932908 kJ/mol
# Density = 1.898480 g / cm^3
# Si number density = 19.028108 Si / 1000 Ang^3
#
#
#
# Elastic Constant Matrix: (Units=GPa)
#
#
# Indices 1 2 3 4 5 6 
#
# 1 83.1436 54.7529 28.6303 0.0000 -14.1728 0.0000
# 2 54.7529 162.3116 63.7979 0.0000 -1.2180 0.0000
# 3 28.6303 63.7979 111.6193 0.0000 -2.0483 0.0000
# 4 0.0000 0.0000 0.0000 29.8750 0.0000 -14.0341
# 5 -14.1728 -1.2180 -2.0483 0.0000 35.5511 0.0000
# 6 0.0000 0.0000 0.0000 -14.0341 0.0000 32.4675
#
#
#
# Elastic Compliance Matrix: (Units=1/GPa)
#
#
# Indices 1 2 3 4 5 6 
#
# 1 0.016991 -0.005180 -0.001277 0.000000 0.006522 0.000000
# 2 -0.005180 0.009526 -0.004152 0.000000 -0.001978 0.000000
# 3 -0.001277 -0.004152 0.011660 0.000000 0.000020 0.000000
# 4 0.000000 0.000000 0.000000 0.042001 0.000000 0.018155
# 5 0.006522 -0.001978 0.000020 0.000000 0.030662 0.000000
# 6 0.000000 0.000000 0.000000 0.018155 0.000000 0.038647
#
#
# Mechanical properties :
#
#
# Convention : Reuss Voigt Hill
#
# Bulk Modulus (GPa) = 58.97394 72.38182 65.67788
# Shear Modulus (GPa) = 28.35119 33.57162 30.96141
#
# Velocity S-wave (km/s) = 3.86419 4.20493 4.03816
# Velocity P-wave (km/s) = 7.13930 7.85476 7.50556
#
# Compressibility (1/GPa) = 0.01695664
#
# Stress axis : x y z
#
# Youngs Moduli (GPa) = 58.85622 104.97944 85.76142
#
# Poissons Ratio (x) = 0.54384 0.10955
# Poissons Ratio (y) = 0.30490 0.35609
# Poissons Ratio (z) = 0.07518 0.43588
#
# Static dielectric constant tensor:
#      x y z
#    x 1.568510 0.000000 -0.015350 
#    y 0.000000 1.581670 0.000000 
#    z -0.015350 0.000000 1.674070 
# 
# From -- ./inp_files/201382.got.cif
#   From: 2010.05.17/outbox.cif.g08.bks.cpg/sg12_101_cif.got.tgz:201382.got - 2010.06.03 13:09:07.
