data_PCOD9215867
_publ_section_title
;
Structure prediction by ZEFSAII (Michael W. Deem and Ramdas Pophale) SiO2 
 PCOD9215867
Probable space group: C 2/M
;
_chemical_formula_sum "Si O2"
_cell_formula_units_Z 58
_cell_length_a 27.544492
_cell_length_b 7.781250
_cell_length_c 23.263673
_cell_angle_alpha 90.000000
_cell_angle_beta 31.264261
_cell_angle_gamma 90.000000
_cell_volume 2587.724806
_symmetry_space_group_name_H-M "C 2/M"
_symmetry_group_IT_number 12
_symmetry_cell_setting 'monoclinic'
loop_
_space_group_symop_operation_xyz
x,y,z
-x,y,-z
-x,-y,-z
x,-y,z
1/2+x,1/2+y,z
1/2-x,1/2+y,-z
1/2-x,1/2-y,-z
1/2+x,1/2-y,z
loop_
_atom_site_type_symbol
_atom_site_label
_atom_site_fract_x
_atom_site_fract_y
_atom_site_fract_z
Si Si1 0.858114 0.705563 0.383897
Si Si2 0.044037 0.292190 0.831751
Si Si3 0.829616 0.703737 0.192770
Si Si4 0.831989 0.193743 0.059448
Si Si5 0.508453 0.299092 0.648072
Si Si6 0.811350 0.192191 0.883817
Si Si7 0.500000 0.000000 0.500000
Si Si8 0.385181 0.705743 0.573693
O O1 0.868976 0.500000 0.375630
O O2 0.750000 0.750000 0.500000
O O3 0.897390 0.765298 0.282741
O O4 0.919488 0.783124 0.372756
O O5 0.047178 0.500000 0.830297
O O6 0.092903 0.230792 0.841063
O O7 0.937047 0.238315 0.934448
O O8 0.846737 0.500000 0.166339
O O9 0.830056 0.785924 0.129789
O O10 0.725748 0.721996 0.323842
O O11 0.755465 0.305197 0.103966
O O12 0.810128 0.000000 0.064500
O O13 0.493379 0.500000 0.649467
O O14 0.409464 0.219115 0.767634
O O15 0.558238 0.231655 0.540184
O O16 0.839320 0.000000 0.871535
O O17 0.750000 0.250000 0.000000
O O18 0.419560 0.843912 0.585380
O O19 0.401063 0.500000 0.569945
#
# Coordination Sequence:
#
# PCOD9215867 Si02
#       8
#     8   8   8   8   8   8   2   8
#     4  11  23  39  66  97 127 165 211 262 321 386
#     4  10  22  43  66  91 125 168 215 262 321 387
#     4  10  22  42  67  91 126 171 215 265 324 383
#     4  12  26  40  62  95 129 166 212 265 318 380
#     4  10  23  43  65  91 128 168 213 265 322 382
#     4  11  24  43  66  92 125 167 210 261 316 377
#     4  12  26  40  68  98 134 176 222 264 334 390
#     4  10  24  44  66  96 134 173 219 272 327 391
#
# _framework density 22.413512999999998
#
# number of rings (size 3 to 8) (size 9 to 14) (size 15 to 20)
#    0.000    1.379    0.000    4.345    3.862    8.828 
#    0.000    0.000    0.000    0.000    0.000    0.000 
#    0.000    0.000    0.000    0.000    0.000    0.000 
#
# Total GULP energy -161847.397328 kJ/mol
# GULP energy per Si atom -5580.944735 kJ/mol
# Density = 2.236250 g / cm^3
# Si number density = 22.413513 Si / 1000 Ang^3
#
#
#
# Elastic Constant Matrix: (Units=GPa)
#
#
# Indices 1 2 3 4 5 6 
#
# 1 73.1465 -15.3221 33.5200 0.0083 -1.3632 -0.0055
# 2 -15.3221 61.5564 -2.0214 0.0182 1.0009 -0.0106
# 3 33.5200 -2.0214 152.8390 0.0243 -1.3918 -0.0122
# 4 0.0083 0.0182 0.0243 -9.7757 -0.0109 8.2135
# 5 -1.3632 1.0009 -1.3918 -0.0109 45.0910 0.0057
# 6 -0.0055 -0.0106 -0.0122 8.2135 0.0057 19.0638
#
#
#
# Elastic Compliance Matrix: (Units=1/GPa)
#
#
# Indices 1 2 3 4 5 6 
#
# 1 0.016082 0.003884 -0.003473 0.000012 0.000293 0.000000
# 2 0.003884 0.017196 -0.000627 0.000031 -0.000284 -0.000003
# 3 -0.003473 -0.000627 0.007297 0.000012 0.000134 -0.000002
# 4 0.000012 0.000031 0.000012 -0.075107 -0.000022 0.032359
# 5 0.000293 -0.000284 0.000134 -0.000022 0.022197 0.000003
# 6 0.000000 -0.000003 -0.000002 0.032359 0.000003 0.038514
#
#
# Mechanical properties :
#
#
# Convention : Reuss Voigt Hill
#
# Bulk Modulus (GPa) = 24.91058 35.54389 30.22723
# Shear Modulus (GPa) = 125.02506 28.96684 76.99595
#
# Velocity S-wave (km/s) = 7.47678 3.59887 5.86746
# Velocity P-wave (km/s) = 9.25605 5.75863 7.70832
#
# Compressibility (1/GPa) = 0.04014359
#
# Stress axis : x y z
#
# Youngs Moduli (GPa) = 62.18223 58.15283 137.03444
#
# Poissons Ratio (x) = -0.22587 0.47591
# Poissons Ratio (y) = -0.24152 0.08592
# Poissons Ratio (z) = 0.21596 0.03646
#
# Static dielectric constant tensor:
#      x y z
#    x 1.818950 0.000000 0.023730 
#    y 0.000000 1.848960 0.000010 
#    z 0.023730 0.000010 1.859330 
# 
# From -- ./inp_files/351381.got.cif
#   From: 2010.05.17/outbox.cif.g08.bks.cpg/sg12_176_cif.got.tgz:351381.got - 2010.06.03 13:09:07.
