data_PCOD9215706
_publ_section_title
;
Structure prediction by ZEFSAII (Michael W. Deem and Ramdas Pophale) SiO2 
 PCOD9215706
Probable space group: C 2/M
;
_chemical_formula_sum "Si O2"
_cell_formula_units_Z 42
_cell_length_a 24.298622
_cell_length_b 12.294592
_cell_length_c 24.369031
_cell_angle_alpha 90.000000
_cell_angle_beta 17.630547
_cell_angle_gamma 90.000000
_cell_volume 2204.965552
_symmetry_space_group_name_H-M "C 2/M"
_symmetry_group_IT_number 12
_symmetry_cell_setting 'monoclinic'
loop_
_space_group_symop_operation_xyz
x,y,z
-x,y,-z
-x,-y,-z
x,-y,z
1/2+x,1/2+y,z
1/2-x,1/2+y,-z
1/2-x,1/2-y,-z
1/2+x,1/2-y,z
loop_
_atom_site_type_symbol
_atom_site_label
_atom_site_fract_x
_atom_site_fract_y
_atom_site_fract_z
Si Si1 0.500000 0.500000 0.000000
Si Si2 0.535519 0.626992 0.680424
Si Si3 0.184496 0.626726 0.936282
Si Si4 0.669567 0.126669 0.405159
Si Si5 0.625317 0.759945 0.699671
Si Si6 0.760573 0.685607 0.781470
O O1 0.606360 0.595470 0.934380
O O2 0.552672 0.500000 0.678583
O O3 0.361163 0.639887 0.807249
O O4 0.525087 0.699802 0.744842
O O5 0.713960 0.666998 0.478377
O O6 0.166705 0.500000 0.938944
O O7 0.212065 0.703933 0.857807
O O8 0.012166 0.668973 0.134099
O O9 0.781106 0.169969 0.350276
O O10 0.454284 0.140045 0.618966
O O11 0.713795 0.195031 0.308573
O O12 0.712841 0.000000 0.349387
#
# Coordination Sequence:
#
# PCOD9215706 Si02
#       6
#     2   8   8   8   8   8
#     4  12  20  38  62  92 132 162 208 270 318 376
#     4  10  22  42  63  93 129 168 217 272 320 381
#     4  11  24  43  65  94 133 174 218 264 316 392
#     4  11  21  41  62  93 130 164 213 267 328 387
#     4  11  22  40  68  92 127 172 217 263 327 381
#     4  11  22  39  63  94 129 170 208 266 325 380
#
# _framework density 19.047916000000001
#
# number of rings (size 3 to 8) (size 9 to 14) (size 15 to 20)
#    0.000    1.143    3.810    3.429    0.000    0.000 
#    1.714    7.143    2.095    0.000    0.000    0.000 
#    0.000    0.000    0.000    0.000    0.000    0.000 
#
# Total GULP energy -117110.867761 kJ/mol
# GULP energy per Si atom -5576.707989 kJ/mol
# Density = 1.900456 g / cm^3
# Si number density = 19.047916 Si / 1000 Ang^3
#
#
#
# Elastic Constant Matrix: (Units=GPa)
#
#
# Indices 1 2 3 4 5 6 
#
# 1 67.5204 76.8130 37.9483 -0.0066 1.2859 0.0035
# 2 76.8130 148.6614 57.8608 0.0057 1.0542 0.0003
# 3 37.9483 57.8608 78.1149 0.0103 -0.8177 -0.0016
# 4 -0.0066 0.0057 0.0103 26.7306 -0.0062 1.8563
# 5 1.2859 1.0542 -0.8177 -0.0062 23.9819 0.0010
# 6 0.0035 0.0003 -0.0016 1.8563 0.0010 20.6004
#
#
#
# Elastic Compliance Matrix: (Units=1/GPa)
#
#
# Indices 1 2 3 4 5 6 
#
# 1 0.037552 -0.017264 -0.005470 0.000015 -0.001441 -0.000008
# 2 -0.017264 0.017398 -0.004500 -0.000006 0.000007 0.000003
# 3 -0.005470 -0.004500 0.018805 -0.000008 0.001132 0.000003
# 4 0.000015 -0.000006 -0.000008 0.037646 0.000009 -0.003392
# 5 -0.001441 0.000007 0.001132 0.000009 0.041814 -0.000003
# 6 -0.000008 0.000003 0.000003 -0.003392 -0.000003 0.048848
#
#
# Mechanical properties :
#
#
# Convention : Reuss Voigt Hill
#
# Bulk Modulus (GPa) = 51.85153 71.06010 61.45582
# Shear Modulus (GPa) = 19.01430 22.37423 20.69426
#
# Velocity S-wave (km/s) = 3.16291 3.43100 3.29968
# Velocity P-wave (km/s) = 6.37334 7.28579 6.84478
#
# Compressibility (1/GPa) = 0.01928583
#
# Stress axis : x y z
#
# Youngs Moduli (GPa) = 26.62992 57.47695 53.17845
#
# Poissons Ratio (x) = 0.99225 0.29091
# Poissons Ratio (y) = 0.45973 0.23933
# Poissons Ratio (z) = 0.14568 0.25867
#
# Static dielectric constant tensor:
#      x y z
#    x 1.479490 -0.000030 -1.102380 
#    y -0.000030 1.627010 -0.000180 
#    z -1.102380 -0.000180 -6.067510 
# 
# From -- ./inp_files/349308.got.cif
#   From: 2010.05.17/outbox.cif.g08.bks.cpg/sg12_175_cif.got.tgz:349308.got - 2010.06.03 13:09:07.
