data_PCOD9215354
_publ_section_title
;
Structure prediction by ZEFSAII (Michael W. Deem and Ramdas Pophale) SiO2 
 PCOD9215354
Probable space group: C 2/M
;
_chemical_formula_sum "Si O2"
_cell_formula_units_Z 52
_cell_length_a 28.138151
_cell_length_b 7.497214
_cell_length_c 12.416129
_cell_angle_alpha 90.000000
_cell_angle_beta 117.670201
_cell_angle_gamma 90.000000
_cell_volume 2319.725419
_symmetry_space_group_name_H-M "C 2/M"
_symmetry_group_IT_number 12
_symmetry_cell_setting 'monoclinic'
loop_
_space_group_symop_operation_xyz
x,y,z
-x,y,-z
-x,-y,-z
x,-y,z
1/2+x,1/2+y,z
1/2-x,1/2+y,-z
1/2-x,1/2-y,-z
1/2+x,1/2-y,z
loop_
_atom_site_type_symbol
_atom_site_label
_atom_site_fract_x
_atom_site_fract_y
_atom_site_fract_z
Si Si1 0.147215 0.282739 0.504881
Si Si2 0.552023 0.297769 0.997544
Si Si3 0.939333 0.283956 0.414375
Si Si4 0.877801 0.790365 0.127428
Si Si5 0.641542 0.210876 0.254439
Si Si6 0.748496 0.214816 0.751101
Si Si7 0.250000 0.750000 0.000000
O O1 0.148788 0.500000 0.504144
O O2 0.096403 0.228768 0.521602
O O3 0.145669 0.222108 0.380703
O O4 0.199728 0.225773 0.625049
O O5 0.536020 0.500000 0.947986
O O6 0.595981 0.302338 0.137151
O O7 0.500000 0.213052 0.000000
O O8 0.583026 0.218784 0.926282
O O9 0.939862 0.500000 0.410486
O O10 0.909625 0.225790 0.273486
O O11 0.000000 0.223503 0.500000
O O12 0.817305 0.715779 0.067771
O O13 0.868217 0.000000 0.092429
O O14 0.697121 0.239725 0.251944
O O15 0.629474 0.000000 0.244493
O O16 0.745854 0.000000 0.764307
O O17 0.746231 0.290114 0.868153
#
# Coordination Sequence:
#
# PCOD9215354 Si02
#       7
#     8   8   8   8   8   8   4
#     4   9  20  39  59  86 120 159 202 249 304 365
#     4  10  23  44  65  87 122 166 208 252 312 375
#     4  10  22  41  65  90 122 166 208 252 314 379
#     4  11  24  42  65  96 129 163 211 267 315 376
#     4  11  23  38  61  91 123 155 203 260 306 364
#     4  11  22  41  64  86 124 166 204 250 309 377
#     4  12  22  38  66  92 126 166 206 256 314 372
#
# _framework density 22.416446000000001
#
# number of rings (size 3 to 8) (size 9 to 14) (size 15 to 20)
#    0.000    1.538    3.077    1.385    2.154    3.077 
#    0.000    2.308    0.000    0.000    0.000    0.000 
#    0.000    0.000    0.000    0.000    0.000    0.000 
#
# Total GULP energy -144810.678214 kJ/mol
# GULP energy per Si atom -5569.641470 kJ/mol
# Density = 2.236543 g / cm^3
# Si number density = 22.416446 Si / 1000 Ang^3
#
#
#
# Elastic Constant Matrix: (Units=GPa)
#
#
# Indices 1 2 3 4 5 6 
#
# 1 228.6643 -4.8810 92.1743 0.0000 -12.6896 0.0000
# 2 -4.8810 70.9465 -6.5132 0.0000 -0.4328 0.0000
# 3 92.1743 -6.5132 136.4841 0.0000 -35.0665 0.0000
# 4 0.0000 0.0000 0.0000 8.4401 0.0000 9.0151
# 5 -12.6896 -0.4328 -35.0665 0.0000 51.2931 0.0000
# 6 0.0000 0.0000 0.0000 9.0151 0.0000 22.5350
#
#
#
# Elastic Compliance Matrix: (Units=1/GPa)
#
#
# Indices 1 2 3 4 5 6 
#
# 1 0.006114 -0.000006 -0.004538 0.000000 -0.001590 0.000000
# 2 -0.000006 0.014178 0.000862 0.000000 0.000708 0.000000
# 3 -0.004538 0.000862 0.012308 0.000000 0.007299 0.000000
# 4 0.000000 0.000000 0.000000 0.206884 0.000000 -0.082763
# 5 -0.001590 0.000708 0.007299 0.000000 0.024098 0.000000
# 6 0.000000 0.000000 0.000000 -0.082763 0.000000 0.077484
#
#
# Mechanical properties :
#
#
# Convention : Reuss Voigt Hill
#
# Bulk Modulus (GPa) = 39.62323 66.40613 53.01468
# Shear Modulus (GPa) = 14.01180 40.14129 27.07654
#
# Velocity S-wave (km/s) = 2.50285 4.23627 3.47924
# Velocity P-wave (km/s) = 5.10555 7.32230 6.31200
#
# Compressibility (1/GPa) = 0.02523772
#
# Stress axis : x y z
#
# Youngs Moduli (GPa) = 163.55673 70.53075 81.24825
#
# Poissons Ratio (x) = 0.00040 0.36869
# Poissons Ratio (y) = 0.00092 -0.07006
# Poissons Ratio (z) = 0.74220 -0.06082
#
# Static dielectric constant tensor:
#      x y z
#    x 1.815990 0.000000 0.000610 
#    y 0.000000 1.921780 0.000000 
#    z 0.000610 0.000000 1.753630 
# 
# From -- ./inp_files/180155.got.cif
#   From: 2010.05.17/outbox.cif.g08.bks.cpg/sg12_91_cif.got.tgz:180155.got - 2010.06.03 13:09:07.
