data_PCOD9215278
_publ_section_title
;
Structure prediction by ZEFSAII (Michael W. Deem and Ramdas Pophale) SiO2 
 PCOD9215278
Probable space group: C 2/M
;
_chemical_formula_sum "Si O2"
_cell_formula_units_Z 56
_cell_length_a 12.062460
_cell_length_b 16.970029
_cell_length_c 15.661389
_cell_angle_alpha 90.000000
_cell_angle_beta 119.308678
_cell_angle_gamma 90.000000
_cell_volume 2795.521343
_symmetry_space_group_name_H-M "C 2/M"
_symmetry_group_IT_number 12
_symmetry_cell_setting 'monoclinic'
loop_
_space_group_symop_operation_xyz
x,y,z
-x,y,-z
-x,-y,-z
x,-y,z
1/2+x,1/2+y,z
1/2-x,1/2+y,-z
1/2-x,1/2-y,-z
1/2+x,1/2-y,z
loop_
_atom_site_type_symbol
_atom_site_label
_atom_site_fract_x
_atom_site_fract_y
_atom_site_fract_z
Si Si1 0.117175 0.590994 0.982088
Si Si2 0.422661 0.594739 0.341605
Si Si3 0.142436 0.642595 0.807140
Si Si4 0.318185 0.595761 0.487093
Si Si5 0.431421 0.590115 0.882270
Si Si6 0.033758 0.595719 0.415914
Si Si7 0.140850 0.825007 0.853765
O O1 0.150923 0.500000 0.013690
O O2 0.238455 0.645385 0.046828
O O3 0.088461 0.597845 0.870505
O O4 0.000000 0.612665 0.000000
O O5 0.419030 0.500000 0.334424
O O6 0.357604 0.617935 0.406158
O O7 0.570043 0.620416 0.406442
O O8 0.356149 0.631129 0.235566
O O9 0.285022 0.613290 0.840161
O O10 0.057369 0.629389 0.691447
O O11 0.145096 0.733159 0.836385
O O12 0.318182 0.500000 0.489354
O O13 0.177884 0.622617 0.454985
O O14 0.439050 0.500000 0.851823
O O15 0.512208 0.647698 0.852682
O O16 0.500000 0.591526 0.000000
O O17 0.027475 0.500000 0.407140
O O18 0.000000 0.617309 0.500000
#
# Coordination Sequence:
#
# PCOD9215278 Si02
#       7
#     8   8   8   8   8   8   8
#     4  11  25  44  69  97 130 171 220 270 326 404
#     4   9  18  36  61  90 121 163 221 272 321 385
#     4  12  27  43  65  98 139 174 215 280 343 391
#     4   8  17  35  61  88 117 160 215 279 322 367
#     4  11  24  44  70  95 129 180 232 270 317 404
#     4  10  22  41  64  90 125 175 231 276 325 398
#     4  12  26  40  66  99 134 173 216 270 339 397
#
# _framework density 20.032041
#
# number of rings (size 3 to 8) (size 9 to 14) (size 15 to 20)
#    0.000    1.571    1.429    3.857    6.000    0.000 
#    2.571    0.714    0.000    0.000    0.000    0.000 
#    0.000    0.000    0.000    0.000    0.000    0.000 
#
# Total GULP energy -156483.829295 kJ/mol
# GULP energy per Si atom -5588.708189 kJ/mol
# Density = 1.998645 g / cm^3
# Si number density = 20.032041 Si / 1000 Ang^3
#
#
#
# Elastic Constant Matrix: (Units=GPa)
#
#
# Indices 1 2 3 4 5 6 
#
# 1 125.2153 27.5375 44.5863 0.0000 11.3663 0.0000
# 2 27.5375 60.4249 21.6687 0.0000 1.3612 0.0000
# 3 44.5863 21.6687 120.1747 0.0000 -1.8533 0.0000
# 4 0.0000 0.0000 0.0000 84.8106 0.0000 -0.9745
# 5 11.3663 1.3612 -1.8533 0.0000 22.4313 0.0000
# 6 0.0000 0.0000 0.0000 -0.9745 0.0000 19.3018
#
#
#
# Elastic Compliance Matrix: (Units=1/GPa)
#
#
# Indices 1 2 3 4 5 6 
#
# 1 0.010410 -0.003431 -0.003326 0.000000 -0.005341 0.000000
# 2 -0.003431 0.018865 -0.002122 0.000000 0.000419 0.000000
# 3 -0.003326 -0.002122 0.009978 0.000000 0.002638 0.000000
# 4 0.000000 0.000000 0.000000 0.011798 0.000000 0.000596
# 5 -0.005341 0.000419 0.002638 0.000000 0.047480 0.000000
# 6 0.000000 0.000000 0.000000 0.000596 0.000000 0.051839
#
#
# Mechanical properties :
#
#
# Convention : Reuss Voigt Hill
#
# Bulk Modulus (GPa) = 46.52257 54.82223 50.67240
# Shear Modulus (GPa) = 28.52375 39.44357 33.98366
#
# Velocity S-wave (km/s) = 3.77756 4.44218 4.12329
# Velocity P-wave (km/s) = 6.50393 7.33058 6.92959
#
# Compressibility (1/GPa) = 0.02149494
#
# Stress axis : x y z
#
# Youngs Moduli (GPa) = 96.06165 53.00911 100.21548
#
# Poissons Ratio (x) = 0.18188 0.33331
# Poissons Ratio (y) = 0.32960 0.21266
# Poissons Ratio (z) = 0.31950 0.11249
#
# Static dielectric constant tensor:
#      x y z
#    x 1.699800 0.000000 -0.002410 
#    y 0.000000 1.697460 0.000000 
#    z -0.002410 0.000000 1.689460 
# 
# From -- ./inp_files/206757.got.cif
#   From: 2010.05.17/outbox.cif.g08.bks.cpg/sg12_104_cif.got.tgz:206757.got - 2010.06.03 13:09:07.
