data_PCOD9215302
_publ_section_title
;
Structure prediction by ZEFSAII (Michael W. Deem and Ramdas Pophale) SiO2 
 PCOD9215302
Probable space group: C 2/M
;
_chemical_formula_sum "Si O2"
_cell_formula_units_Z 48
_cell_length_a 25.179077
_cell_length_b 21.306898
_cell_length_c 12.101907
_cell_angle_alpha 90.000000
_cell_angle_beta 20.741738
_cell_angle_gamma 90.000000
_cell_volume 2299.369038
_symmetry_space_group_name_H-M "C 2/M"
_symmetry_group_IT_number 12
_symmetry_cell_setting 'monoclinic'
loop_
_space_group_symop_operation_xyz
x,y,z
-x,y,-z
-x,-y,-z
x,-y,z
1/2+x,1/2+y,z
1/2-x,1/2+y,-z
1/2-x,1/2-y,-z
1/2+x,1/2-y,z
loop_
_atom_site_type_symbol
_atom_site_label
_atom_site_fract_x
_atom_site_fract_y
_atom_site_fract_z
Si Si1 0.336397 0.313276 0.363311
Si Si2 0.265915 0.070849 0.784689
Si Si3 0.651303 0.071563 0.630566
Si Si4 0.616982 0.691344 0.472142
Si Si5 0.933710 0.067623 0.505025
Si Si6 0.723511 0.296801 0.948026
O O1 0.250000 0.250000 0.500000
O O2 0.257911 0.373720 0.464767
O O3 0.361900 0.323992 0.442498
O O4 0.500000 0.304779 0.000000
O O5 0.346657 0.078228 0.508238
O O6 0.291017 0.132756 0.811566
O O7 0.301992 0.000000 0.756673
O O8 0.081484 0.071135 0.137830
O O9 0.705251 0.000000 0.544738
O O10 0.500000 0.077769 0.000000
O O11 0.670274 0.627921 0.307083
O O12 0.699945 0.756602 0.296285
O O13 0.451996 0.699636 0.740144
O O14 0.000000 0.069025 0.500000
O O15 0.860398 0.000000 0.630104
O O16 0.750000 0.250000 0.000000
#
# Coordination Sequence:
#
# PCOD9215302 Si02
#       6
#     8   8   8   8   8   8
#     4  12  24  39  60  89 125 165 214 269 325 386
#     4   9  18  35  60  87 118 160 206 252 309 376
#     4  10  22  41  64  92 129 173 220 270 325 388
#     4  11  22  36  57  84 115 154 197 246 305 368
#     4   9  17  32  55  84 116 149 191 246 308 372
#     4  11  22  39  61  87 118 155 202 255 315 379
#
# _framework density 20.875292000000002
#
# number of rings (size 3 to 8) (size 9 to 14) (size 15 to 20)
#    0.000    1.667    0.000    7.000    0.000    2.333 
#    0.000    0.000    0.000    3.000    0.000    0.000 
#    0.000    0.000    0.000    0.000    0.000    0.000 
#
# Total GULP energy -133653.318707 kJ/mol
# GULP energy per Si atom -5568.888279 kJ/mol
# Density = 2.082778 g / cm^3
# Si number density = 20.875292 Si / 1000 Ang^3
#
#
#
# Elastic Constant Matrix: (Units=GPa)
#
#
# Indices 1 2 3 4 5 6 
#
# 1 74.7258 51.8048 8.6010 -0.0006 13.2020 0.0015
# 2 51.8048 214.7212 44.5208 0.0018 -1.8613 0.0014
# 3 8.6010 44.5208 71.9669 0.0047 9.9843 0.0005
# 4 -0.0006 0.0018 0.0047 28.6409 0.0009 5.4015
# 5 13.2020 -1.8613 9.9843 0.0009 24.8554 -0.0019
# 6 0.0015 0.0014 0.0005 5.4015 -0.0019 39.1818
#
#
#
# Elastic Compliance Matrix: (Units=1/GPa)
#
#
# Indices 1 2 3 4 5 6 
#
# 1 0.018632 -0.005111 0.002501 0.000001 -0.011284 -0.000001
# 2 -0.005111 0.006825 -0.004298 0.000000 0.004953 0.000000
# 3 0.002501 -0.004298 0.017457 -0.000002 -0.008663 0.000000
# 4 0.000001 0.000000 -0.000002 0.035847 -0.000001 -0.004942
# 5 -0.011284 0.004953 -0.008663 -0.000001 0.050077 0.000003
# 6 -0.000001 0.000000 0.000000 -0.004942 0.000003 0.026203
#
#
# Mechanical properties :
#
#
# Convention : Reuss Voigt Hill
#
# Bulk Modulus (GPa) = 34.36933 63.47414 48.92173
# Shear Modulus (GPa) = 28.00239 35.63477 31.81858
#
# Velocity S-wave (km/s) = 3.66650 4.13611 3.90836
# Velocity P-wave (km/s) = 5.86721 7.29946 6.62217
#
# Compressibility (1/GPa) = 0.02909571
#
# Stress axis : x y z
#
# Youngs Moduli (GPa) = 53.67252 146.53042 57.28325
#
# Poissons Ratio (x) = 0.74899 -0.14325
# Poissons Ratio (y) = 0.27435 0.24621
# Poissons Ratio (z) = -0.13422 0.62979
#
# Static dielectric constant tensor:
#      x y z
#    x 1.722870 -0.000010 0.069590 
#    y -0.000010 1.785070 0.000010 
#    z 0.069590 0.000010 1.814190 
# 
# From -- ./inp_files/184790.got.cif
#   From: 2010.05.17/outbox.cif.g08.bks.cpg/sg12_93_cif.got.tgz:184790.got - 2010.06.03 13:09:07.
