data_PCOD9215038
_publ_section_title
;
Structure prediction by ZEFSAII (Michael W. Deem and Ramdas Pophale) SiO2 
 PCOD9215038
Probable space group: C 2/M
;
_chemical_formula_sum "Si O2"
_cell_formula_units_Z 52
_cell_length_a 19.842158
_cell_length_b 20.977014
_cell_length_c 11.150058
_cell_angle_alpha 90.000000
_cell_angle_beta 146.195942
_cell_angle_gamma 90.000000
_cell_volume 2582.029971
_symmetry_space_group_name_H-M "C 2/M"
_symmetry_group_IT_number 12
_symmetry_cell_setting 'monoclinic'
loop_
_space_group_symop_operation_xyz
x,y,z
-x,y,-z
-x,-y,-z
x,-y,z
1/2+x,1/2+y,z
1/2-x,1/2+y,-z
1/2-x,1/2-y,-z
1/2+x,1/2-y,z
loop_
_atom_site_type_symbol
_atom_site_label
_atom_site_fract_x
_atom_site_fract_y
_atom_site_fract_z
Si Si1 0.618901 0.637685 0.969475
Si Si2 0.440868 0.500000 0.221775
Si Si3 0.700267 0.500000 0.738301
Si Si4 0.063937 0.671524 0.246030
Si Si5 0.000000 0.210996 0.000000
Si Si6 0.884384 0.327878 0.399221
Si Si7 0.686787 0.876684 0.202885
Si Si8 0.063180 0.184438 0.483658
O O1 0.578308 0.565427 0.881047
O O2 0.543612 0.684393 0.770396
O O3 0.586074 0.665311 0.050996
O O4 0.761508 0.644929 0.164512
O O5 0.576936 0.500000 0.476457
O O6 0.346633 0.500000 0.194302
O O7 0.782101 0.440597 0.820983
O O8 0.107455 0.664216 0.445223
O O9 0.132212 0.622978 0.256711
O O10 0.075474 0.741035 0.199134
O O11 0.919455 0.659340 0.026167
O O12 0.891985 0.251328 0.397074
O O13 0.000000 0.354834 0.500000
O O14 0.817234 0.843632 0.398064
O O15 0.000000 0.146098 0.500000
#
# Coordination Sequence:
#
# PCOD9215038 Si02
#       8
#     8   4   4   8   4   8   8   8
#     4  12  25  43  67  99 138 179 227 279 337 404
#     4  11  26  43  64 103 134 181 236 268 340 392
#     4  11  22  43  71  96 126 179 233 296 317 383
#     4  10  23  43  65 103 137 177 219 275 351 416
#     4  10  22  43  70  95 138 176 218 282 336 400
#     4  11  26  40  66 100 140 177 217 276 356 411
#     4  10  22  40  69  94 131 171 230 280 328 393
#     4  11  23  38  68  99 130 172 222 284 337 400
#
# _framework density 20.139192999999999
#
# number of rings (size 3 to 8) (size 9 to 14) (size 15 to 20)
#    0.000    1.385    3.077    2.769    6.462    4.000 
#    0.000    1.923    0.000    0.000    0.000    0.000 
#    0.000    0.000    0.000    0.000    0.000    0.000 
#
# Total GULP energy -145044.489543 kJ/mol
# GULP energy per Si atom -5578.634213 kJ/mol
# Density = 2.009336 g / cm^3
# Si number density = 20.139193 Si / 1000 Ang^3
#
#
#
# Elastic Constant Matrix: (Units=GPa)
#
#
# Indices 1 2 3 4 5 6 
#
# 1 106.0213 23.9644 33.8687 0.0000 15.0820 0.0000
# 2 23.9644 80.9924 12.8670 0.0000 0.4155 0.0000
# 3 33.8687 12.8670 106.3981 0.0000 18.1754 0.0000
# 4 0.0000 0.0000 0.0000 13.8086 0.0000 7.4640
# 5 15.0820 0.4155 18.1754 0.0000 31.2099 0.0000
# 6 0.0000 0.0000 0.0000 7.4640 0.0000 10.0036
#
#
#
# Elastic Compliance Matrix: (Units=1/GPa)
#
#
# Indices 1 2 3 4 5 6 
#
# 1 0.011509 -0.002968 -0.002622 0.000000 -0.003995 0.000000
# 2 -0.002968 0.013372 -0.000985 0.000000 0.001830 0.000000
# 3 -0.002622 -0.000985 0.011253 0.000000 -0.005273 0.000000
# 4 0.000000 0.000000 0.000000 0.121366 0.000000 -0.090555
# 5 -0.003995 0.001830 -0.005273 0.000000 0.037018 0.000000
# 6 0.000000 0.000000 0.000000 -0.090555 0.000000 0.167530
#
#
# Mechanical properties :
#
#
# Convention : Reuss Voigt Hill
#
# Bulk Modulus (GPa) = 43.50875 48.31245 45.91060
# Shear Modulus (GPa) = 13.05960 25.85186 19.45573
#
# Velocity S-wave (km/s) = 2.54926 3.58671 3.11153
# Velocity P-wave (km/s) = 5.50599 6.41825 5.97954
#
# Compressibility (1/GPa) = 0.02298388
#
# Stress axis : x y z
#
# Youngs Moduli (GPa) = 86.88892 74.78219 88.86327
#
# Poissons Ratio (x) = 0.22197 0.23301
# Poissons Ratio (y) = 0.25791 0.08752
# Poissons Ratio (z) = 0.22783 0.07365
#
# Static dielectric constant tensor:
#      x y z
#    x 1.784360 0.000000 -0.014640 
#    y 0.000000 1.756500 0.000000 
#    z -0.014640 0.000000 1.693980 
# 
# From -- ./inp_files/169896.got.cif
#   From: 2010.05.17/outbox.cif.g08.bks.cpg/sg12_85_cif.got.tgz:169896.got - 2010.06.03 13:09:07.
