data_PCOD9215927
_publ_section_title
;
Structure prediction by ZEFSAII (Michael W. Deem and Ramdas Pophale) SiO2 
 PCOD9215927
Probable space group: C 2/M
;
_chemical_formula_sum "Si O2"
_cell_formula_units_Z 32
_cell_length_a 11.870410
_cell_length_b 15.730585
_cell_length_c 8.651058
_cell_angle_alpha 90.000000
_cell_angle_beta 54.010875
_cell_angle_gamma 90.000000
_cell_volume 1307.065463
_symmetry_space_group_name_H-M "C 2/M"
_symmetry_group_IT_number 12
_symmetry_cell_setting 'monoclinic'
loop_
_space_group_symop_operation_xyz
x,y,z
-x,y,-z
-x,-y,-z
x,-y,z
1/2+x,1/2+y,z
1/2-x,1/2+y,-z
1/2-x,1/2-y,-z
1/2+x,1/2-y,z
loop_
_atom_site_type_symbol
_atom_site_label
_atom_site_fract_x
_atom_site_fract_y
_atom_site_fract_z
Si Si1 0.330648 0.000000 0.136569
Si Si2 0.770097 0.351561 0.953952
Si Si3 0.050389 0.702087 0.617992
Si Si4 0.645798 0.651078 0.736603
Si Si5 0.397023 0.500000 0.441045
O O1 0.258927 0.000000 0.361911
O O2 0.500000 0.000000 0.000000
O O3 0.271988 0.915837 0.095331
O O4 0.662904 0.370916 0.901929
O O5 0.925975 0.360829 0.758637
O O6 0.750000 0.250000 0.000000
O O7 0.197010 0.662501 0.455322
O O8 0.073170 0.760951 0.748532
O O9 0.000000 0.749374 0.500000
O O10 0.579016 0.580201 0.685701
O O11 0.500000 0.500000 0.500000
#
# Coordination Sequence:
#
# PCOD9215927 Si02
#       5
#     4   8   8   8   4
#     4  12  29  48  71 108 146 184 244 300 357 422
#     4  11  26  43  70 104 141 182 240 295 364 415
#     4   9  20  39  68  98 128 181 232 282 340 439
#     4  10  22  42  68  93 139 181 232 280 364 418
#     4  12  27  44  71 100 142 188 236 296 353 432
#
# _framework density 24.482326
#
# number of rings (size 3 to 8) (size 9 to 14) (size 15 to 20)
#    0.000    1.500    0.000    3.000   17.500    0.000 
#    0.000    6.250    0.000    0.000    0.000    0.000 
#    0.000    0.000    0.000    0.000    0.000    0.000 
#
# Total GULP energy -89517.217607 kJ/mol
# GULP energy per Si atom -5594.826100 kJ/mol
# Density = 2.442660 g / cm^3
# Si number density = 24.482326 Si / 1000 Ang^3
#
#
#
# Elastic Constant Matrix: (Units=GPa)
#
#
# Indices 1 2 3 4 5 6 
#
# 1 136.0247 27.7657 28.2176 0.0000 17.3418 0.0000
# 2 27.7657 88.6337 20.0384 0.0000 27.8671 0.0000
# 3 28.2176 20.0384 99.2296 0.0000 2.3825 0.0000
# 4 0.0000 0.0000 0.0000 31.8135 0.0000 15.7060
# 5 17.3418 27.8671 2.3825 0.0000 53.1848 0.0000
# 6 0.0000 0.0000 0.0000 15.7060 0.0000 29.1307
#
#
#
# Elastic Compliance Matrix: (Units=1/GPa)
#
#
# Indices 1 2 3 4 5 6 
#
# 1 0.008320 -0.001591 -0.002002 0.000000 -0.001789 0.000000
# 2 -0.001591 0.014495 -0.002307 0.000000 -0.006973 0.000000
# 3 -0.002002 -0.002307 0.011080 0.000000 0.001365 0.000000
# 4 0.000000 0.000000 0.000000 0.042835 0.000000 -0.023095
# 5 -0.001789 -0.006973 0.001365 0.000000 0.022978 0.000000
# 6 0.000000 0.000000 0.000000 -0.023095 0.000000 0.046780
#
#
# Mechanical properties :
#
#
# Convention : Reuss Voigt Hill
#
# Bulk Modulus (GPa) = 45.25998 52.88129 49.07064
# Shear Modulus (GPa) = 30.18385 39.35021 34.76703
#
# Velocity S-wave (km/s) = 3.51505 4.01345 3.77249
# Velocity P-wave (km/s) = 5.91617 6.56687 6.24999
#
# Compressibility (1/GPa) = 0.02209457
#
# Stress axis : x y z
#
# Youngs Moduli (GPa) = 120.19600 68.99087 90.25312
#
# Poissons Ratio (x) = 0.10977 0.18065
# Poissons Ratio (y) = 0.19125 0.20823
# Poissons Ratio (z) = 0.24058 0.15917
#
# Static dielectric constant tensor:
#      x y z
#    x 1.975490 0.000000 -0.036350 
#    y 0.000000 2.326360 0.000000 
#    z -0.036350 0.000000 1.976600 
# 
# From -- ./inp_files/45278.got.cif
#   From: 2010.05.17/outbox.cif.g08.bks.cpg/sg12_23_cif.got.tgz:45278.got - 2010.06.03 13:09:07.
