data_PCOD9215885
_publ_section_title
;
Structure prediction by ZEFSAII (Michael W. Deem and Ramdas Pophale) SiO2 
 PCOD9215885
Probable space group: C 2/M
;
_chemical_formula_sum "Si O2"
_cell_formula_units_Z 48
_cell_length_a 28.672560
_cell_length_b 19.610988
_cell_length_c 12.402356
_cell_angle_alpha 90.000000
_cell_angle_beta 19.919257
_cell_angle_gamma 90.000000
_cell_volume 2375.946248
_symmetry_space_group_name_H-M "C 2/M"
_symmetry_group_IT_number 12
_symmetry_cell_setting 'monoclinic'
loop_
_space_group_symop_operation_xyz
x,y,z
-x,y,-z
-x,-y,-z
x,-y,z
1/2+x,1/2+y,z
1/2-x,1/2+y,-z
1/2-x,1/2-y,-z
1/2+x,1/2-y,z
loop_
_atom_site_type_symbol
_atom_site_label
_atom_site_fract_x
_atom_site_fract_y
_atom_site_fract_z
Si Si1 0.159118 0.919085 0.654615
Si Si2 0.967816 0.703766 0.196632
Si Si3 0.151406 0.918828 0.130970
Si Si4 0.165787 0.315527 0.138195
Si Si5 0.217217 0.580032 0.378902
Si Si6 0.731738 0.188016 0.746661
O O1 0.220223 0.904513 0.639768
O O2 0.235248 0.877999 0.396597
O O3 0.168351 0.000000 0.616295
O O4 0.000000 0.899289 0.000000
O O5 0.910269 0.630172 0.357635
O O6 0.853710 0.759140 0.468256
O O7 0.000000 0.702095 0.000000
O O8 0.099566 0.721324 0.979525
O O9 0.000000 0.896614 0.500000
O O10 0.162221 0.000000 0.128395
O O11 0.272449 0.878059 0.927107
O O12 0.174852 0.908149 0.952121
O O13 0.000000 0.307855 0.500000
O O14 0.250000 0.250000 0.000000
O O15 0.206031 0.326738 0.926696
O O16 0.179327 0.500000 0.458496
#
# Coordination Sequence:
#
# PCOD9215885 Si02
#       6
#     8   8   8   8   8   8
#     4  10  23  41  65  99 133 168 211 266 326 382
#     4  12  25  43  65  97 132 167 211 263 326 389
#     4  10  23  43  69  99 131 174 220 266 321 385
#     4  12  26  46  67  95 132 173 223 271 324 386
#     4  10  22  42  67  94 132 171 214 264 320 387
#     4  12  26  42  68  97 130 170 214 269 323 385
#
# _framework density 20.202476999999998
#
# number of rings (size 3 to 8) (size 9 to 14) (size 15 to 20)
#    0.000    1.000    1.667    4.500    4.667    2.000 
#    0.000    0.000    0.000    0.000    0.000    0.000 
#    0.000    0.000    0.000    0.000    0.000    0.000 
#
# Total GULP energy -134253.198974 kJ/mol
# GULP energy per Si atom -5593.883291 kJ/mol
# Density = 2.015650 g / cm^3
# Si number density = 20.202477 Si / 1000 Ang^3
#
#
#
# Elastic Constant Matrix: (Units=GPa)
#
#
# Indices 1 2 3 4 5 6 
#
# 1 128.7523 44.0909 59.9138 -0.0007 20.2487 -0.0004
# 2 44.0909 51.9176 50.0792 0.0010 6.5390 -0.0004
# 3 59.9138 50.0792 134.9754 0.0006 0.3802 -0.0005
# 4 -0.0007 0.0010 0.0006 29.9386 0.0000 -6.5414
# 5 20.2487 6.5390 0.3802 0.0000 50.8881 0.0003
# 6 -0.0004 -0.0004 -0.0005 -6.5414 0.0003 19.1461
#
#
#
# Elastic Compliance Matrix: (Units=1/GPa)
#
#
# Indices 1 2 3 4 5 6 
#
# 1 0.012086 -0.007184 -0.002689 0.000001 -0.003866 0.000000
# 2 -0.007184 0.035008 -0.009796 -0.000001 -0.001567 0.000000
# 3 -0.002689 -0.009796 0.012230 0.000000 0.002237 0.000000
# 4 0.000001 -0.000001 0.000000 0.036096 0.000000 0.012333
# 5 -0.003866 -0.001567 0.002237 0.000000 0.021374 0.000000
# 6 0.000000 0.000000 0.000000 0.012333 0.000000 0.056444
#
#
# Mechanical properties :
#
#
# Convention : Reuss Voigt Hill
#
# Bulk Modulus (GPa) = 50.02877 69.31259 59.67068
# Shear Modulus (GPa) = 22.80634 30.76530 26.78582
#
# Velocity S-wave (km/s) = 3.36354 3.90660 3.64520
# Velocity P-wave (km/s) = 6.31680 7.39812 6.87874
#
# Compressibility (1/GPa) = 0.01998850
#
# Stress axis : x y z
#
# Youngs Moduli (GPa) = 82.74049 28.56468 81.76369
#
# Poissons Ratio (x) = 0.20520 0.21983
# Poissons Ratio (y) = 0.59438 0.80094
# Poissons Ratio (z) = 0.22246 0.27981
#
# Static dielectric constant tensor:
#      x y z
#    x 1.701640 0.000000 0.006580 
#    y 0.000000 1.714280 0.000000 
#    z 0.006580 0.000000 1.706770 
# 
# From -- ./inp_files/184789.got.cif
#   From: 2010.05.17/outbox.cif.g08.bks.cpg/sg12_93_cif.got.tgz:184789.got - 2010.06.03 13:09:07.
