data_PCOD9215255
_publ_section_title
;
Structure prediction by ZEFSAII (Michael W. Deem and Ramdas Pophale) SiO2 
 PCOD9215255
Probable space group: C 2/M
;
_chemical_formula_sum "Si O2"
_cell_formula_units_Z 40
_cell_length_a 7.037517
_cell_length_b 13.669346
_cell_length_c 15.327125
_cell_angle_alpha 90.000000
_cell_angle_beta 92.280535
_cell_angle_gamma 90.000000
_cell_volume 1473.274876
_symmetry_space_group_name_H-M "C 2/M"
_symmetry_group_IT_number 12
_symmetry_cell_setting 'monoclinic'
loop_
_space_group_symop_operation_xyz
x,y,z
-x,y,-z
-x,-y,-z
x,-y,z
1/2+x,1/2+y,z
1/2-x,1/2+y,-z
1/2-x,1/2-y,-z
1/2+x,1/2-y,z
loop_
_atom_site_type_symbol
_atom_site_label
_atom_site_fract_x
_atom_site_fract_y
_atom_site_fract_z
Si Si1 0.998350 0.610819 0.763104
Si Si2 0.939641 0.110056 0.179994
Si Si3 0.115244 0.320846 0.418328
Si Si4 0.390291 0.798646 0.071210
Si Si5 0.534587 0.390361 0.381152
O O1 0.024052 0.500000 0.737057
O O2 0.140039 0.637765 0.843588
O O3 0.786786 0.621502 0.800955
O O4 0.004977 0.670191 0.674026
O O5 0.982516 0.201194 0.118358
O O6 0.040252 0.115370 0.276135
O O7 0.965736 0.000000 0.144547
O O8 0.311669 0.376195 0.402157
O O9 0.000000 0.357326 0.500000
O O10 0.138596 0.202918 0.425023
O O11 0.500000 0.862539 0.000000
O O12 0.250000 0.750000 0.000000
O O13 0.596421 0.500000 0.407507
#
# Coordination Sequence:
#
# PCOD9215255 Si02
#       5
#     8   8   8   8   8
#     4  10  22  41  64  88 123 167 210 255 315 384
#     4   9  19  39  62  84 120 164 202 251 314 375
#     4  11  22  41  70  98 131 170 214 267 324 385
#     4  12  23  37  62  89 119 158 204 260 312 374
#     4  10  22  41  66  94 131 175 213 262 324 381
#
# _framework density 27.150397999999999
#
# number of rings (size 3 to 8) (size 9 to 14) (size 15 to 20)
#    0.000    1.600    4.000    2.400    0.000    3.600 
#    0.000    2.000    0.000    0.000    0.000    0.000 
#    0.000    0.000    0.000    0.000    0.000    0.000 
#
# Total GULP energy -111911.761529 kJ/mol
# GULP energy per Si atom -5595.588076 kJ/mol
# Density = 2.708860 g / cm^3
# Si number density = 27.150398 Si / 1000 Ang^3
#
#
#
# Elastic Constant Matrix: (Units=GPa)
#
#
# Indices 1 2 3 4 5 6 
#
# 1 63.5164 -5.1709 21.2512 0.0000 -15.6694 0.0000
# 2 -5.1709 158.5202 29.5496 0.0000 -16.1210 0.0000
# 3 21.2512 29.5496 185.3374 0.0000 -24.3596 0.0000
# 4 0.0000 0.0000 0.0000 6.7677 0.0000 -1.7993
# 5 -15.6694 -16.1210 -24.3596 0.0000 49.1569 0.0000
# 6 0.0000 0.0000 0.0000 -1.7993 0.0000 27.0056
#
#
#
# Elastic Compliance Matrix: (Units=1/GPa)
#
#
# Indices 1 2 3 4 5 6 
#
# 1 0.017694 0.001409 -0.001553 0.000000 0.005333 0.000000
# 2 0.001409 0.006754 -0.000950 0.000000 0.002193 0.000000
# 3 -0.001553 -0.000950 0.006011 0.000000 0.002172 0.000000
# 4 0.000000 0.000000 0.000000 0.150425 0.000000 0.010022
# 5 0.005333 0.002193 0.002172 0.000000 0.023839 0.000000
# 6 0.000000 0.000000 0.000000 0.010022 0.000000 0.037697
#
#
# Mechanical properties :
#
#
# Convention : Reuss Voigt Hill
#
# Bulk Modulus (GPa) = 35.37179 55.40377 45.38778
# Shear Modulus (GPa) = 19.68269 40.70233 30.19251
#
# Velocity S-wave (km/s) = 2.69541 3.87608 3.33835
# Velocity P-wave (km/s) = 4.76900 6.36259 5.62254
#
# Compressibility (1/GPa) = 0.02827111
#
# Stress axis : x y z
#
# Youngs Moduli (GPa) = 56.51734 148.04979 166.37416
#
# Poissons Ratio (x) = -0.20859 0.25830
# Poissons Ratio (y) = -0.07963 0.15808
# Poissons Ratio (z) = 0.08774 0.14067
#
# Static dielectric constant tensor:
#      x y z
#    x 2.377310 0.000000 -0.072300 
#    y 0.000000 2.216870 0.000000 
#    z -0.072300 0.000000 2.087170 
# 
# From -- ./inp_files/194532.got.cif
#   From: 2010.05.17/outbox.cif.g08.bks.cpg/sg12_98_cif.got.tgz:194532.got - 2010.06.03 13:09:07.
