data_PCOD9215108
_publ_section_title
;
Structure prediction by ZEFSAII (Michael W. Deem and Ramdas Pophale) SiO2 
 PCOD9215108
Probable space group: C 2/M
;
_chemical_formula_sum "Si O2"
_cell_formula_units_Z 46
_cell_length_a 17.210079
_cell_length_b 19.371801
_cell_length_c 14.881097
_cell_angle_alpha 90.000000
_cell_angle_beta 153.259177
_cell_angle_gamma 90.000000
_cell_volume 2232.324297
_symmetry_space_group_name_H-M "C 2/M"
_symmetry_group_IT_number 12
_symmetry_cell_setting 'monoclinic'
loop_
_space_group_symop_operation_xyz
x,y,z
-x,y,-z
-x,-y,-z
x,-y,z
1/2+x,1/2+y,z
1/2-x,1/2+y,-z
1/2-x,1/2-y,-z
1/2+x,1/2-y,z
loop_
_atom_site_type_symbol
_atom_site_label
_atom_site_fract_x
_atom_site_fract_y
_atom_site_fract_z
Si Si1 0.500000 0.309520 0.500000
Si Si2 0.478225 0.183313 0.734014
Si Si3 0.000000 0.000000 0.000000
Si Si4 0.866279 0.734445 0.936165
Si Si5 0.545771 0.389999 0.916939
Si Si6 0.902631 0.162477 0.590334
Si Si7 0.440979 0.921933 0.340361
O O1 0.327085 0.265829 0.301023
O O2 0.544211 0.352593 0.456340
O O3 0.301814 0.164950 0.603246
O O4 0.460656 0.258504 0.670562
O O5 0.507607 0.129055 0.685943
O O6 0.623127 0.190946 0.960585
O O7 0.928905 0.938299 0.858065
O O8 0.934710 0.810976 0.030762
O O9 0.000000 0.706625 0.000000
O O10 0.486129 0.385365 0.752728
O O11 0.733033 0.423845 0.122711
O O12 0.500000 0.898432 0.500000
O O13 0.505280 0.000000 0.393811
#
# Coordination Sequence:
#
# PCOD9215108 Si02
#       7
#     4   8   2   8   8   8   8
#     4  12  22  38  68 100 122 176 208 274 334 384
#     4  10  22  41  61  94 130 168 211 276 325 384
#     4  12  24  40  70  86 136 176 212 256 336 392
#     4  11  22  39  65  98 131 163 216 268 325 383
#     4  11  24  40  59  95 129 172 213 269 316 395
#     4  10  23  38  65  93 128 165 220 275 328 377
#     4  11  25  39  60  92 131 175 216 260 324 399
#
# _framework density 20.606324999999998
#
# number of rings (size 3 to 8) (size 9 to 14) (size 15 to 20)
#    0.000    1.217    3.478    2.087    7.304    2.783 
#    0.000    0.000    0.000    1.043    2.261    0.000 
#    0.000    0.000    0.000    0.000    0.000    0.000 
#
# Total GULP energy -128318.260449 kJ/mol
# GULP energy per Si atom -5579.054802 kJ/mol
# Density = 2.055942 g / cm^3
# Si number density = 20.606325 Si / 1000 Ang^3
#
#
#
# Elastic Constant Matrix: (Units=GPa)
#
#
# Indices 1 2 3 4 5 6 
#
# 1 139.8710 49.2268 48.9750 0.0000 -30.1065 0.0000
# 2 49.2268 79.6004 26.9050 0.0000 -28.5574 0.0000
# 3 48.9750 26.9050 126.0058 0.0000 -21.5985 0.0000
# 4 0.0000 0.0000 0.0000 16.7828 0.0000 6.9535
# 5 -30.1065 -28.5574 -21.5985 0.0000 43.7340 0.0000
# 6 0.0000 0.0000 0.0000 6.9535 0.0000 39.8249
#
#
#
# Elastic Compliance Matrix: (Units=1/GPa)
#
#
# Indices 1 2 3 4 5 6 
#
# 1 0.010215 -0.004424 -0.002530 0.000000 0.002894 0.000000
# 2 -0.004424 0.018714 -0.000769 0.000000 0.008794 0.000000
# 3 -0.002530 -0.000769 0.009503 0.000000 0.002450 0.000000
# 4 0.000000 0.000000 0.000000 0.064232 0.000000 -0.011215
# 5 0.002894 0.008794 0.002450 0.000000 0.031810 0.000000
# 6 0.000000 0.000000 0.000000 -0.011215 0.000000 0.027068
#
#
# Mechanical properties :
#
#
# Convention : Reuss Voigt Hill
#
# Bulk Modulus (GPa) = 43.50246 66.18784 54.84515
# Shear Modulus (GPa) = 27.07833 34.75969 30.91901
#
# Velocity S-wave (km/s) = 3.62896 4.11158 3.87778
# Velocity P-wave (km/s) = 6.22223 7.39797 6.83543
#
# Compressibility (1/GPa) = 0.02298720
#
# Stress axis : x y z
#
# Youngs Moduli (GPa) = 97.89421 53.43708 105.22489
#
# Poissons Ratio (x) = 0.23640 0.26618
# Poissons Ratio (y) = 0.43308 0.08090
# Poissons Ratio (z) = 0.24764 0.04108
#
# Static dielectric constant tensor:
#      x y z
#    x 1.854090 0.000000 0.041790 
#    y 0.000000 1.853130 0.000000 
#    z 0.041790 0.000000 1.771360 
# 
# From -- ./inp_files/227319.got.cif
#   From: 2010.05.17/outbox.cif.g08.bks.cpg/sg12_114_cif.got.tgz:227319.got - 2010.06.03 13:09:07.
