data_PCOD9215832
_publ_section_title
;
Structure prediction by ZEFSAII (Michael W. Deem and Ramdas Pophale) SiO2 
 PCOD9215832
Probable space group: C 2/M
;
_chemical_formula_sum "Si O2"
_cell_formula_units_Z 32
_cell_length_a 8.649367
_cell_length_b 17.559329
_cell_length_c 18.733237
_cell_angle_alpha 90.000000
_cell_angle_beta 27.403927
_cell_angle_gamma 90.000000
_cell_volume 1309.510243
_symmetry_space_group_name_H-M "C 2/M"
_symmetry_group_IT_number 12
_symmetry_cell_setting 'monoclinic'
loop_
_space_group_symop_operation_xyz
x,y,z
-x,y,-z
-x,-y,-z
x,-y,z
1/2+x,1/2+y,z
1/2-x,1/2+y,-z
1/2-x,1/2-y,-z
1/2+x,1/2-y,z
loop_
_atom_site_type_symbol
_atom_site_label
_atom_site_fract_x
_atom_site_fract_y
_atom_site_fract_z
Si Si1 0.760659 0.415265 0.957818
Si Si2 0.722781 0.202688 0.837467
Si Si3 0.314483 0.416647 0.284393
Si Si4 0.322417 0.181481 0.416156
O O1 0.923349 0.500000 0.882653
O O2 0.561259 0.418824 0.114562
O O3 0.500000 0.407341 0.000000
O O4 0.012526 0.344383 0.864530
O O5 0.040823 0.149742 0.725707
O O6 0.860278 0.283714 0.756899
O O7 0.500000 0.209477 0.000000
O O8 0.321418 0.500000 0.314674
O O9 0.952955 0.392273 0.403594
O O10 0.250000 0.250000 0.500000
O O11 0.000000 0.167826 0.500000
#
# Coordination Sequence:
#
# PCOD9215832 Si02
#       4
#     8   8   8   8
#     4   9  19  35  62  99 131 163 215 274 321 374
#     4  10  22  42  69  95 126 174 218 264 318 388
#     4  10  22  42  66  93 129 172 216 264 321 385
#     4  12  26  45  64  96 134 172 212 270 323 383
#
# _framework density 24.436615
#
# number of rings (size 3 to 8) (size 9 to 14) (size 15 to 20)
#    0.000    1.750    2.500    0.750    3.500    8.500 
#    0.000    3.750    0.000    0.000    0.000    0.000 
#    0.000    0.000    0.000    0.000    0.000    0.000 
#
# Total GULP energy -89623.453885 kJ/mol
# GULP energy per Si atom -5601.465868 kJ/mol
# Density = 2.438100 g / cm^3
# Si number density = 24.436615 Si / 1000 Ang^3
#
#
#
# Elastic Constant Matrix: (Units=GPa)
#
#
# Indices 1 2 3 4 5 6 
#
# 1 89.6955 9.7461 15.0727 -0.1844 -25.6155 0.3199
# 2 9.7461 98.2042 14.0735 -0.4523 -11.6691 0.4937
# 3 15.0727 14.0735 59.7462 -0.2125 -5.4993 -0.0247
# 4 -0.1844 -0.4523 -0.2125 -10.9145 0.0066 33.5853
# 5 -25.6155 -11.6691 -5.4993 0.0066 46.1395 -0.2573
# 6 0.3199 0.4937 -0.0247 33.5853 -0.2573 -13.6786
#
#
#
# Elastic Compliance Matrix: (Units=1/GPa)
#
#
# Indices 1 2 3 4 5 6 
#
# 1 0.013694 -0.000102 -0.002764 -0.000061 0.007247 0.000035
# 2 -0.000102 0.010807 -0.002299 -0.000102 0.002403 0.000097
# 3 -0.002764 -0.002299 0.017979 0.000117 0.000028 0.000105
# 4 -0.000061 -0.000102 0.000117 0.013980 0.000144 0.034317
# 5 0.007247 0.002403 0.000028 0.000144 0.026309 0.000114
# 6 0.000035 0.000097 0.000105 0.034317 0.000114 0.011154
#
#
# Mechanical properties :
#
#
# Convention : Reuss Voigt Hill
#
# Bulk Modulus (GPa) = 31.10395 36.15894 33.63145
# Shear Modulus (GPa) = 43.48966 18.22619 30.85793
#
# Velocity S-wave (km/s) = 4.22322 2.73400 3.55741
# Velocity P-wave (km/s) = 6.04457 4.97951 5.53770
#
# Compressibility (1/GPa) = 0.03215026
#
# Stress axis : x y z
#
# Youngs Moduli (GPa) = 73.02544 92.53215 55.61968
#
# Poissons Ratio (x) = 0.00946 0.15372
# Poissons Ratio (y) = 0.00747 0.12787
# Poissons Ratio (z) = 0.20182 0.21273
#
# Static dielectric constant tensor:
#      x y z
#    x 1.925760 0.000010 0.042800 
#    y 0.000010 1.894220 0.000010 
#    z 0.042800 0.000010 1.995660 
# 
# From -- ./inp_files/37538.got.cif
#   From: 2010.05.17/outbox.cif.g08.bks.cpg/sg12_19_cif.got.tgz:37538.got - 2010.06.03 13:09:07.
