data_PCOD9215277
_publ_section_title
;
Structure prediction by ZEFSAII (Michael W. Deem and Ramdas Pophale) SiO2 
 PCOD9215277
Probable space group: C 2/M
;
_chemical_formula_sum "Si O2"
_cell_formula_units_Z 56
_cell_length_a 18.959068
_cell_length_b 7.925444
_cell_length_c 16.779521
_cell_angle_alpha 90.000000
_cell_angle_beta 71.711219
_cell_angle_gamma 90.000000
_cell_volume 2393.917289
_symmetry_space_group_name_H-M "C 2/M"
_symmetry_group_IT_number 12
_symmetry_cell_setting 'monoclinic'
loop_
_space_group_symop_operation_xyz
x,y,z
-x,y,-z
-x,-y,-z
x,-y,z
1/2+x,1/2+y,z
1/2-x,1/2+y,-z
1/2-x,1/2-y,-z
1/2+x,1/2-y,z
loop_
_atom_site_type_symbol
_atom_site_label
_atom_site_fract_x
_atom_site_fract_y
_atom_site_fract_z
Si Si1 0.676477 0.694197 0.728229
Si Si2 0.714339 0.803897 0.888673
Si Si3 0.881414 0.798487 0.820760
Si Si4 0.069437 0.704837 0.029195
Si Si5 0.192768 0.807346 0.426520
Si Si6 0.563486 0.808774 0.369881
Si Si7 0.899454 0.795400 0.396931
O O1 0.661091 0.500000 0.754533
O O2 0.690629 0.791138 0.804598
O O3 0.750092 0.703633 0.647234
O O4 0.613928 0.759620 0.689432
O O5 0.797411 0.732790 0.867429
O O6 0.720229 0.000000 0.909161
O O7 0.647200 0.730529 0.964230
O O8 0.931956 0.762764 0.879262
O O9 0.911326 0.714607 0.730305
O O10 0.878037 0.000000 0.807709
O O11 0.069841 0.500000 0.027384
O O12 0.000000 0.760557 0.000000
O O13 0.115518 0.806623 0.405038
O O14 0.167956 0.740827 0.521750
O O15 0.219493 0.000000 0.422235
O O16 0.476998 0.766387 0.403174
O O17 0.576072 0.000000 0.391583
O O18 0.898803 0.000000 0.397210
#
# Coordination Sequence:
#
# PCOD9215277 Si02
#       7
#     8   8   8   8   8   8   8
#     4  11  23  39  63  94 126 164 213 261 307 370
#     4  10  22  41  64  90 125 170 208 248 310 371
#     4  11  23  41  65  91 124 167 211 253 307 374
#     4  10  23  42  65  96 130 160 202 257 310 369
#     4  11  22  41  65  89 125 168 210 260 318 374
#     4  12  25  40  63  93 125 165 214 264 313 370
#     4  10  24  42  61  90 128 168 209 261 320 373
#
# _framework density 23.392620000000001
#
# number of rings (size 3 to 8) (size 9 to 14) (size 15 to 20)
#    0.000    1.286    1.429    3.857    2.000    5.429 
#    0.000    0.000    0.000    0.000    0.000    0.000 
#    0.000    0.000    0.000    0.000    0.000    0.000 
#
# Total GULP energy -156705.144364 kJ/mol
# GULP energy per Si atom -5596.612299 kJ/mol
# Density = 2.333938 g / cm^3
# Si number density = 23.392620 Si / 1000 Ang^3
#
#
#
# Elastic Constant Matrix: (Units=GPa)
#
#
# Indices 1 2 3 4 5 6 
#
# 1 45.0685 3.4817 2.8131 0.0000 8.4697 0.0000
# 2 3.4817 50.6554 -6.6094 0.0000 -3.4481 0.0000
# 3 2.8131 -6.6094 78.9082 0.0000 6.7667 0.0000
# 4 0.0000 0.0000 0.0000 17.1070 0.0000 6.4964
# 5 8.4697 -3.4481 6.7667 0.0000 42.4502 0.0000
# 6 0.0000 0.0000 0.0000 6.4964 0.0000 19.5560
#
#
#
# Elastic Compliance Matrix: (Units=1/GPa)
#
#
# Indices 1 2 3 4 5 6 
#
# 1 0.023265 -0.001997 -0.000593 0.000000 -0.004710 0.000000
# 2 -0.001997 0.020210 0.001611 0.000000 0.001783 0.000000
# 3 -0.000593 0.001611 0.012985 0.000000 -0.001821 0.000000
# 4 0.000000 0.000000 0.000000 0.066895 0.000000 -0.022222
# 5 -0.004710 0.001783 -0.001821 0.000000 0.024932 0.000000
# 6 0.000000 0.000000 0.000000 -0.022222 0.000000 0.058517
#
#
# Mechanical properties :
#
#
# Convention : Reuss Voigt Hill
#
# Bulk Modulus (GPa) = 18.34772 19.33363 18.84068
# Shear Modulus (GPa) = 22.03338 27.48576 24.75957
#
# Velocity S-wave (km/s) = 3.07236 3.43151 3.25689
# Velocity P-wave (km/s) = 4.52175 4.89726 4.71325
#
# Compressibility (1/GPa) = 0.05450268
#
# Stress axis : x y z
#
# Youngs Moduli (GPa) = 42.98345 49.48019 77.01090
#
# Poissons Ratio (x) = 0.09881 0.04565
# Poissons Ratio (y) = 0.08584 -0.12407
# Poissons Ratio (z) = 0.02548 -0.07972
#
# Static dielectric constant tensor:
#      x y z
#    x 1.893800 0.000000 -0.008330 
#    y 0.000000 1.830890 0.000000 
#    z -0.008330 0.000000 1.858520 
# 
# From -- ./inp_files/275120.got.cif
#   From: 2010.05.17/outbox.cif.g08.bks.cpg/sg12_138_cif.got.tgz:275120.got - 2010.06.03 13:09:07.
