data_PCOD9215614
_publ_section_title
;
Structure prediction by ZEFSAII (Michael W. Deem and Ramdas Pophale) SiO2 
 PCOD9215614
Probable space group: C 2/M
;
_chemical_formula_sum "Si O2"
_cell_formula_units_Z 58
_cell_length_a 26.788233
_cell_length_b 17.354040
_cell_length_c 5.258504
_cell_angle_alpha 90.000000
_cell_angle_beta 100.047957
_cell_angle_gamma 90.000000
_cell_volume 2407.099687
_symmetry_space_group_name_H-M "C 2/M"
_symmetry_group_IT_number 12
_symmetry_cell_setting 'monoclinic'
loop_
_space_group_symop_operation_xyz
x,y,z
-x,y,-z
-x,-y,-z
x,-y,z
1/2+x,1/2+y,z
1/2-x,1/2+y,-z
1/2-x,1/2-y,-z
1/2+x,1/2-y,z
loop_
_atom_site_type_symbol
_atom_site_label
_atom_site_fract_x
_atom_site_fract_y
_atom_site_fract_z
Si Si1 0.413045 0.585735 0.874539
Si Si2 0.951579 0.774560 0.632124
Si Si3 0.000000 0.500000 0.500000
Si Si4 0.550293 0.891518 0.184976
Si Si5 0.156609 0.351942 0.122785
Si Si6 0.139232 0.198343 0.808018
Si Si7 0.207948 0.589620 0.665211
Si Si8 0.190992 0.085560 0.533378
O O1 0.432125 0.500000 0.933683
O O2 0.450647 0.645424 0.778758
O O3 0.363742 0.582604 0.648341
O O4 0.392269 0.626748 0.106476
O O5 0.953694 0.699946 0.806708
O O6 0.899385 0.765518 0.429204
O O7 0.000000 0.772227 0.500000
O O8 0.041819 0.432516 0.447800
O O9 0.500000 0.921846 0.000000
O O10 0.603969 0.900530 0.094318
O O11 0.149382 0.263098 0.028470
O O12 0.192151 0.386579 0.933574
O O13 0.180019 0.360494 0.423611
O O14 0.187561 0.157931 0.720384
O O15 0.194213 0.500000 0.614506
O O16 0.267040 0.596976 0.646162
O O17 0.200505 0.000000 0.660134
#
# Coordination Sequence:
#
# PCOD9215614 Si02
#       8
#     8   8   2   8   8   8   8   8
#     4  10  22  41  69 101 133 182 233 285 349 426
#     4  11  23  43  70  97 142 180 230 290 355 415
#     4  12  30  44  76 106 134 188 246 288 354 420
#     4  12  27  47  72 102 136 190 239 291 350 427
#     4  12  27  44  73 103 142 179 236 296 362 413
#     4  11  23  42  70  99 137 185 230 293 350 421
#     4  11  27  47  69 103 142 190 231 299 360 420
#     4   9  22  44  69  98 139 185 239 281 347 429
#
# _framework density 24.095386000000001
#
# number of rings (size 3 to 8) (size 9 to 14) (size 15 to 20)
#    0.000    1.103    2.069    2.690    7.724    1.931 
#    0.000    0.690    0.000    0.000    0.000    0.000 
#    0.000    0.000    0.000    0.000    0.000    0.000 
#
# Total GULP energy -162000.439183 kJ/mol
# GULP energy per Si atom -5586.222041 kJ/mol
# Density = 2.404054 g / cm^3
# Si number density = 24.095386 Si / 1000 Ang^3
#
#
#
# Elastic Constant Matrix: (Units=GPa)
#
#
# Indices 1 2 3 4 5 6 
#
# 1 84.8274 14.2161 7.1046 0.0000 -30.9443 0.0000
# 2 14.2161 120.1774 3.9909 0.0000 -0.9922 0.0000
# 3 7.1046 3.9909 42.7604 0.0000 -11.0847 0.0000
# 4 0.0000 0.0000 0.0000 59.8715 0.0000 -28.6098
# 5 -30.9443 -0.9922 -11.0847 0.0000 44.4104 0.0000
# 6 0.0000 0.0000 0.0000 -28.6098 0.0000 35.6708
#
#
#
# Elastic Compliance Matrix: (Units=1/GPa)
#
#
# Indices 1 2 3 4 5 6 
#
# 1 0.016203 -0.001837 0.000423 0.000000 0.011354 0.000000
# 2 -0.001837 0.008555 -0.000829 0.000000 -0.001296 0.000000
# 3 0.000423 -0.000829 0.025088 0.000000 0.006538 0.000000
# 4 0.000000 0.000000 0.000000 0.027082 0.000000 0.021721
# 5 0.011354 -0.001296 0.006538 0.000000 0.032032 0.000000
# 6 0.000000 0.000000 0.000000 0.021721 0.000000 0.045455
#
#
# Mechanical properties :
#
#
# Convention : Reuss Voigt Hill
#
# Bulk Modulus (GPa) = 22.04611 33.15426 27.60019
# Shear Modulus (GPa) = 28.73200 42.82080 35.77640
#
# Velocity S-wave (km/s) = 3.45690 4.22018 3.85747
# Velocity P-wave (km/s) = 5.01028 6.12667 5.59638
#
# Compressibility (1/GPa) = 0.04535947
#
# Stress axis : x y z
#
# Youngs Moduli (GPa) = 61.71653 116.88836 39.85960
#
# Poissons Ratio (x) = 0.21472 -0.01685
# Poissons Ratio (y) = 0.11337 0.03305
# Poissons Ratio (z) = -0.02609 0.09692
#
# Static dielectric constant tensor:
#      x y z
#    x 1.921950 0.000000 0.014860 
#    y 0.000000 1.900910 0.000000 
#    z 0.014860 0.000000 2.019860 
# 
# From -- ./inp_files/28794.got.cif
#   From: 2010.05.17/outbox.cif.g08.bks.cpg/sg12_15_cif.got.tgz:28794.got - 2010.06.03 13:09:07.
