data_PCOD9215743
_publ_section_title
;
Structure prediction by ZEFSAII (Michael W. Deem and Ramdas Pophale) SiO2 
 PCOD9215743
Probable space group: C 2/M
;
_chemical_formula_sum "Si O2"
_cell_formula_units_Z 48
_cell_length_a 15.509603
_cell_length_b 11.012796
_cell_length_c 25.212289
_cell_angle_alpha 90.000000
_cell_angle_beta 149.644568
_cell_angle_gamma 90.000000
_cell_volume 2176.274807
_symmetry_space_group_name_H-M "C 2/M"
_symmetry_group_IT_number 12
_symmetry_cell_setting 'monoclinic'
loop_
_space_group_symop_operation_xyz
x,y,z
-x,y,-z
-x,-y,-z
x,-y,z
1/2+x,1/2+y,z
1/2-x,1/2+y,-z
1/2-x,1/2-y,-z
1/2+x,1/2-y,z
loop_
_atom_site_type_symbol
_atom_site_label
_atom_site_fract_x
_atom_site_fract_y
_atom_site_fract_z
Si Si1 0.609986 0.500000 0.901995
Si Si2 0.511589 0.746407 0.151676
Si Si3 0.158876 0.000000 0.328682
Si Si4 0.508333 0.859290 0.264363
Si Si5 0.154205 0.000000 0.756259
Si Si6 0.026701 0.500000 0.931949
Si Si7 0.881243 0.736867 0.305375
Si Si8 0.142180 0.739814 0.533929
O O1 0.604049 0.631316 0.927622
O O2 0.433450 0.500000 0.776449
O O3 0.772233 0.500000 0.949001
O O4 0.480763 0.776601 0.197462
O O5 0.706563 0.708458 0.242810
O O6 0.489549 0.874266 0.109739
O O7 0.273432 0.116698 0.399912
O O8 0.995446 0.000000 0.280529
O O9 0.393384 0.822487 0.253657
O O10 0.702477 0.833881 0.386267
O O11 0.484572 0.000000 0.237872
O O12 0.122732 0.880701 0.705367
O O13 0.357120 0.000000 0.878581
O O14 0.045538 0.709721 0.428208
O O15 0.000000 0.783610 0.500000
#
# Coordination Sequence:
#
# PCOD9215743 Si02
#       8
#     4   8   4   8   4   4   8   8
#     4  12  22  42  71  94 128 176 225 278 349 395
#     4  11  23  45  67 101 136 171 220 282 339 407
#     4  12  23  39  59  91 129 168 225 284 318 389
#     4  12  25  41  65  94 136 179 222 272 328 395
#     4  10  22  42  64  92 129 170 229 280 323 397
#     4  10  24  43  69  98 125 175 224 283 342 407
#     4  11  24  40  65  96 138 180 221 264 335 401
#     4  12  24  39  60  95 132 181 222 267 321 398
#
# _framework density 22.056038000000001
#
# number of rings (size 3 to 8) (size 9 to 14) (size 15 to 20)
#    0.000    0.667    5.833    1.250    3.500    0.667 
#    0.000    0.000    0.000    4.000    0.000    0.000 
#    0.000    0.000    0.000    0.000    0.000    0.000 
#
# Total GULP energy -134034.336065 kJ/mol
# GULP energy per Si atom -5584.764003 kJ/mol
# Density = 2.200584 g / cm^3
# Si number density = 22.056038 Si / 1000 Ang^3
#
#
#
# Elastic Constant Matrix: (Units=GPa)
#
#
# Indices 1 2 3 4 5 6 
#
# 1 103.2120 32.6202 2.3386 0.0000 7.9277 0.0000
# 2 32.6202 122.1582 20.5214 0.0000 9.1623 0.0000
# 3 2.3386 20.5214 63.8643 0.0001 20.0459 0.0000
# 4 0.0000 0.0000 0.0001 22.0303 0.0000 13.2979
# 5 7.9277 9.1623 20.0459 0.0000 17.9902 0.0000
# 6 0.0000 0.0000 0.0000 13.2979 0.0000 106.5928
#
#
#
# Elastic Compliance Matrix: (Units=1/GPa)
#
#
# Indices 1 2 3 4 5 6 
#
# 1 0.011017 -0.002894 0.002442 0.000000 -0.006102 0.000000
# 2 -0.002894 0.009461 -0.002802 0.000000 -0.000421 0.000000
# 3 0.002442 -0.002802 0.025158 0.000000 -0.027682 0.000000
# 4 0.000000 0.000000 0.000000 0.049089 0.000000 -0.006124
# 5 -0.006102 -0.000421 -0.027682 0.000000 0.089334 0.000000
# 6 0.000000 0.000000 0.000000 -0.006124 0.000000 0.010145
#
#
# Mechanical properties :
#
#
# Convention : Reuss Voigt Hill
#
# Bulk Modulus (GPa) = 25.55802 44.46611 35.01207
# Shear Modulus (GPa) = 23.39122 44.90630 34.14876
#
# Velocity S-wave (km/s) = 3.26012 4.51711 3.93908
# Velocity P-wave (km/s) = 5.07780 6.88549 6.04955
#
# Compressibility (1/GPa) = 0.03912666
#
# Stress axis : x y z
#
# Youngs Moduli (GPa) = 90.76951 105.69372 39.74887
#
# Poissons Ratio (x) = 0.30592 -0.09706
# Poissons Ratio (y) = 0.26273 0.11138
# Poissons Ratio (z) = -0.22164 0.29617
#
# Static dielectric constant tensor:
#      x y z
#    x 1.812420 0.000000 -0.007510 
#    y 0.000000 1.815580 0.000000 
#    z -0.007510 0.000000 1.828900 
# 
# From -- ./inp_files/245894.got.cif
#   From: 2010.05.17/outbox.cif.g08.bks.cpg/sg12_123_cif.got.tgz:245894.got - 2010.06.03 13:09:07.
