data_PCOD9216073
_publ_section_title
;
Structure prediction by ZEFSAII (Michael W. Deem and Ramdas Pophale) SiO2 
 PCOD9216073
Probable space group: C 2/M
;
_chemical_formula_sum "Si O2"
_cell_formula_units_Z 50
_cell_length_a 16.412522
_cell_length_b 14.177803
_cell_length_c 9.878847
_cell_angle_alpha 90.000000
_cell_angle_beta 119.090652
_cell_angle_gamma 90.000000
_cell_volume 2008.760608
_symmetry_space_group_name_H-M "C 2/M"
_symmetry_group_IT_number 12
_symmetry_cell_setting 'monoclinic'
loop_
_space_group_symop_operation_xyz
x,y,z
-x,y,-z
-x,-y,-z
x,-y,z
1/2+x,1/2+y,z
1/2-x,1/2+y,-z
1/2-x,1/2-y,-z
1/2+x,1/2-y,z
loop_
_atom_site_type_symbol
_atom_site_label
_atom_site_fract_x
_atom_site_fract_y
_atom_site_fract_z
Si Si1 0.821363 0.604492 0.050592
Si Si2 0.872711 0.817537 0.024238
Si Si3 0.334356 0.644786 0.409799
Si Si4 0.870426 0.600110 0.684606
Si Si5 0.888652 0.652005 0.394961
Si Si6 0.078628 0.192156 0.236679
Si Si7 0.000000 0.000000 0.500000
O O1 0.837142 0.500000 0.002653
O O2 0.711101 0.626168 0.975842
O O3 0.863781 0.601350 0.236641
O O4 0.858992 0.703792 0.021461
O O5 0.879997 0.841802 0.871314
O O6 0.973168 0.842619 0.167287
O O7 0.229925 0.606549 0.324394
O O8 0.340338 0.746094 0.344632
O O9 0.358629 0.663172 0.587428
O O10 0.417264 0.580409 0.426334
O O11 0.916651 0.500000 0.751836
O O12 0.856799 0.606815 0.510731
O O13 0.925110 0.694052 0.767638
O O14 0.000000 0.664166 0.500000
#
# Coordination Sequence:
#
# PCOD9216073 Si02
#       7
#     8   8   8   8   8   8   2
#     4  11  23  41  63  94 126 167 218 273 318 382
#     4  10  23  43  63  87 125 174 219 262 316 378
#     4  11  22  42  63  98 131 166 206 275 333 392
#     4  11  22  37  62  95 126 166 214 268 332 395
#     4  11  22  38  65  94 133 172 213 266 336 387
#     4  10  22  43  63  85 126 173 210 260 323 385
#     4  12  24  40  68 106 132 162 216 268 340 390
#
# _framework density 24.890972000000001
#
# number of rings (size 3 to 8) (size 9 to 14) (size 15 to 20)
#    0.000    1.280    1.600    6.240    0.000    3.840 
#    2.880    2.400    0.000    0.000    0.000    0.000 
#    0.000    0.000    0.000    0.000    0.000    0.000 
#
# Total GULP energy -139815.325923 kJ/mol
# GULP energy per Si atom -5592.613037 kJ/mol
# Density = 2.483432 g / cm^3
# Si number density = 24.890972 Si / 1000 Ang^3
#
#
#
# Elastic Constant Matrix: (Units=GPa)
#
#
# Indices 1 2 3 4 5 6 
#
# 1 104.3635 0.9291 10.5030 0.0000 10.9415 0.0000
# 2 0.9291 83.0108 -8.8380 0.0000 -8.5496 0.0000
# 3 10.5030 -8.8380 69.0493 0.0000 -3.0490 0.0000
# 4 0.0000 0.0000 0.0000 1.7014 0.0000 45.5140
# 5 10.9415 -8.5496 -3.0490 0.0000 39.2220 0.0000
# 6 0.0000 0.0000 0.0000 45.5140 0.0000 338.8598
#
#
#
# Elastic Compliance Matrix: (Units=1/GPa)
#
#
# Indices 1 2 3 4 5 6 
#
# 1 0.010087 -0.000617 -0.001749 0.000000 -0.003084 0.000000
# 2 -0.000617 0.012564 0.001837 0.000000 0.003053 0.000000
# 3 -0.001749 0.001837 0.015075 0.000000 0.002060 0.000000
# 4 0.000000 0.000000 0.000000 -0.226665 0.000000 0.030445
# 5 -0.003084 0.003053 0.002060 0.000000 0.027182 0.000000
# 6 0.000000 0.000000 0.000000 0.030445 0.000000 -0.001138
#
#
# Mechanical properties :
#
#
# Convention : Reuss Voigt Hill
#
# Bulk Modulus (GPa) = 27.27328 29.06797 28.17063
# Shear Modulus (GPa) = -33.41910 92.87862 29.72976
#
# Velocity S-wave (km/s) = -3.66815 6.11516 3.45976
# Velocity P-wave (km/s) = 2.63810 7.84626 5.22514
#
# Compressibility (1/GPa) = 0.03666592
#
# Stress axis : x y z
#
# Youngs Moduli (GPa) = 99.13943 79.59520 66.33683
#
# Poissons Ratio (x) = 0.04910 0.11605
# Poissons Ratio (y) = 0.06115 -0.12184
# Poissons Ratio (z) = 0.17344 -0.14620
#
# Static dielectric constant tensor:
#      x y z
#    x 1.946300 0.000000 -0.046660 
#    y 0.000000 1.935790 0.000000 
#    z -0.046660 0.000000 1.958050 
# 
# From -- ./inp_files/156229.got.cif
#   From: 2010.05.17/outbox.cif.g08.bks.cpg/sg12_79_cif.got.tgz:156229.got - 2010.06.03 13:09:07.
