data_PCOD9216746
_publ_section_title
;
Structure prediction by ZEFSAII (Michael W. Deem and Ramdas Pophale) SiO2 
 PCOD9216746
Probable space group: C 2/M
;
_chemical_formula_sum "Si O2"
_cell_formula_units_Z 24
_cell_length_a 10.616845
_cell_length_b 8.245744
_cell_length_c 20.675121
_cell_angle_alpha 90.000000
_cell_angle_beta 144.639436
_cell_angle_gamma 90.000000
_cell_volume 1047.470667
_symmetry_space_group_name_H-M "C 2/M"
_symmetry_group_IT_number 12
_symmetry_cell_setting 'monoclinic'
loop_
_space_group_symop_operation_xyz
x,y,z
-x,y,-z
-x,-y,-z
x,-y,z
1/2+x,1/2+y,z
1/2-x,1/2+y,-z
1/2-x,1/2-y,-z
1/2+x,1/2-y,z
loop_
_atom_site_type_symbol
_atom_site_label
_atom_site_fract_x
_atom_site_fract_y
_atom_site_fract_z
Si Si1 0.840179 0.000000 0.674692
Si Si2 0.125709 0.500000 0.450186
Si Si3 0.548524 0.183512 0.732918
Si Si4 0.026654 0.193231 0.937427
O O1 0.798114 0.000000 0.579355
O O2 0.610066 0.000000 0.613910
O O3 0.965937 0.832690 0.740737
O O4 0.115801 0.648935 0.395275
O O5 0.788798 0.229389 0.808179
O O6 0.565618 0.000000 0.770741
O O7 0.042173 0.000000 0.944520
O O8 0.250000 0.250000 0.000000
O O9 0.000000 0.253021 0.000000
#
# Coordination Sequence:
#
# PCOD9216746 Si02
#       4
#     4   4   8   8
#     4  11  20  40  63  82 120 160 192 249 308 345
#     4   9  22  40  57  91 118 147 210 247 284 377
#     4   9  22  39  58  88 119 151 200 248 292 365
#     4  10  23  40  60  89 122 156 203 250 297 363
#
# _framework density 22.912337000000001
#
# number of rings (size 3 to 8) (size 9 to 14) (size 15 to 20)
#    1.000    1.333    0.000    1.000    7.000    0.667 
#    3.000    1.667    0.000    0.000    0.000    0.000 
#    0.000    0.000    0.000    0.000    0.000    0.000 
#
# Total GULP energy -66848.738730 kJ/mol
# GULP energy per Si atom -5570.728227 kJ/mol
# Density = 2.286019 g / cm^3
# Si number density = 22.912337 Si / 1000 Ang^3
#
#
#
# Elastic Constant Matrix: (Units=GPa)
#
#
# Indices 1 2 3 4 5 6 
#
# 1 65.0713 29.8024 -17.2625 0.0000 17.5173 0.0000
# 2 29.8024 124.7391 -0.0871 0.0000 27.1109 0.0000
# 3 -17.2625 -0.0871 48.8544 0.0000 2.7347 0.0000
# 4 0.0000 0.0000 0.0000 20.3147 0.0000 11.4053
# 5 17.5173 27.1109 2.7347 0.0000 31.4586 0.0000
# 6 0.0000 0.0000 0.0000 11.4053 0.0000 17.1939
#
#
#
# Elastic Compliance Matrix: (Units=1/GPa)
#
#
# Indices 1 2 3 4 5 6 
#
# 1 0.021651 -0.002943 0.008218 0.000000 -0.010234 0.000000
# 2 -0.002943 0.010276 -0.000620 0.000000 -0.007164 0.000000
# 3 0.008218 -0.000620 0.023713 0.000000 -0.006103 0.000000
# 4 0.000000 0.000000 0.000000 0.078436 0.000000 -0.052029
# 5 -0.010234 -0.007164 -0.006103 0.000000 0.044191 0.000000
# 6 0.000000 0.000000 0.000000 -0.052029 0.000000 0.092673
#
#
# Mechanical properties :
#
#
# Convention : Reuss Voigt Hill
#
# Bulk Modulus (GPa) = 15.39659 29.28560 22.34110
# Shear Modulus (GPa) = 17.65039 28.87425 23.26232
#
# Velocity S-wave (km/s) = 2.77852 3.55379 3.18979
# Velocity P-wave (km/s) = 4.12649 5.44505 4.83097
#
# Compressibility (1/GPa) = 0.06494943
#
# Stress axis : x y z
#
# Youngs Moduli (GPa) = 46.18801 97.31151 42.17064
#
# Poissons Ratio (x) = 0.28635 -0.34655
# Poissons Ratio (y) = 0.13592 0.02617
# Poissons Ratio (z) = -0.37956 0.06038
#
# Static dielectric constant tensor:
#      x y z
#    x 1.850610 0.000000 -0.074310 
#    y 0.000000 1.886590 0.000000 
#    z -0.074310 0.000000 1.899140 
# 
# From -- ./inp_files/126373.got.cif
#   From: 2010.05.17/outbox.cif.g08.bks.cpg/sg12_64_cif.got.tgz:126373.got - 2010.06.03 13:09:07.
