data_PCOD9216346
_publ_section_title
;
Structure prediction by ZEFSAII (Michael W. Deem and Ramdas Pophale) SiO2 
 PCOD9216346
Probable space group: C 2/M
;
_chemical_formula_sum "Si O2"
_cell_formula_units_Z 24
_cell_length_a 13.361431
_cell_length_b 15.135888
_cell_length_c 8.322628
_cell_angle_alpha 90.000000
_cell_angle_beta 38.198933
_cell_angle_gamma 90.000000
_cell_volume 1040.845960
_symmetry_space_group_name_H-M "C 2/M"
_symmetry_group_IT_number 12
_symmetry_cell_setting 'monoclinic'
loop_
_space_group_symop_operation_xyz
x,y,z
-x,y,-z
-x,-y,-z
x,-y,z
1/2+x,1/2+y,z
1/2-x,1/2+y,-z
1/2-x,1/2-y,-z
1/2+x,1/2-y,z
loop_
_atom_site_type_symbol
_atom_site_label
_atom_site_fract_x
_atom_site_fract_y
_atom_site_fract_z
Si Si1 0.191426 0.000000 0.319196
Si Si2 0.317864 0.308066 0.561927
Si Si3 0.324842 0.000000 0.803661
Si Si4 0.623318 0.324312 0.994446
O O1 0.222872 0.911495 0.380225
O O2 0.000000 0.000000 0.500000
O O3 0.309430 0.000000 0.016562
O O4 0.250000 0.250000 0.500000
O O5 0.509615 0.308228 0.291446
O O6 0.233697 0.259548 0.816247
O O7 0.500000 0.000000 0.500000
O O8 0.229391 0.088189 0.873598
O O9 0.500000 0.336861 0.000000
#
# Coordination Sequence:
#
# PCOD9216346 Si02
#       4
#     4   8   4   8
#     4  12  24  46  70 100 148 192 227 302 367 405
#     4  10  23  43  71 101 138 189 236 287 353 430
#     4  12  27  42  68 106 144 186 240 296 356 423
#     4  10  22  44  69  98 141 192 238 290 349 431
#
# _framework density 23.058168999999999
#
# number of rings (size 3 to 8) (size 9 to 14) (size 15 to 20)
#    0.000    1.333    3.333    0.500    4.667    6.667 
#    0.000    7.500    0.000    0.000    0.000    0.000 
#    0.000    0.000    0.000    0.000    0.000    0.000 
#
# Total GULP energy -67100.285651 kJ/mol
# GULP energy per Si atom -5591.690471 kJ/mol
# Density = 2.300569 g / cm^3
# Si number density = 23.058169 Si / 1000 Ang^3
#
#
#
# Elastic Constant Matrix: (Units=GPa)
#
#
# Indices 1 2 3 4 5 6 
#
# 1 82.1671 53.1914 20.5762 0.0000 -10.7632 0.0002
# 2 53.1914 254.2620 92.4137 0.0000 -15.6625 0.0001
# 3 20.5762 92.4137 243.5496 -0.0001 -21.3027 0.0004
# 4 0.0000 0.0000 -0.0001 50.4588 0.0001 -41.8069
# 5 -10.7632 -15.6625 -21.3027 0.0001 30.5899 -0.0003
# 6 0.0002 0.0001 0.0004 -41.8069 -0.0003 334.8307
#
#
#
# Elastic Compliance Matrix: (Units=1/GPa)
#
#
# Indices 1 2 3 4 5 6 
#
# 1 0.014469 -0.002866 0.000194 0.000000 0.003759 0.000000
# 2 -0.002866 0.005172 -0.001679 0.000000 0.000470 0.000000
# 3 0.000194 -0.001679 0.004960 0.000000 0.002662 0.000000
# 4 0.000000 0.000000 0.000000 0.022105 0.000000 0.002760
# 5 0.003759 0.000470 0.002662 0.000000 0.036108 0.000000
# 6 0.000000 0.000000 0.000000 0.002760 0.000000 0.003331
#
#
# Mechanical properties :
#
#
# Convention : Reuss Voigt Hill
#
# Bulk Modulus (GPa) = 62.90012 101.37124 82.13568
# Shear Modulus (GPa) = 49.92683 110.76238 80.34460
#
# Velocity S-wave (km/s) = 4.65828 6.93832 5.90931
# Velocity P-wave (km/s) = 7.50139 10.40413 9.06964
#
# Compressibility (1/GPa) = 0.01589822
#
# Stress axis : x y z
#
# Youngs Moduli (GPa) = 69.11143 193.35789 201.63027
#
# Poissons Ratio (x) = 0.55414 -0.03907
# Poissons Ratio (y) = 0.19806 0.33857
# Poissons Ratio (z) = -0.01339 0.32467
#
# Static dielectric constant tensor:
#      x y z
#    x 1.961700 0.000000 0.059300 
#    y 0.000000 1.819690 0.000000 
#    z 0.059300 0.000000 1.917160 
# 
# From -- ./inp_files/58125.got.cif
#   From: 2010.05.17/outbox.cif.g08.bks.cpg/sg12_30_cif.got.tgz:58125.got - 2010.06.03 13:09:07.
