data_PCOD9216135
_publ_section_title
;
Structure prediction by ZEFSAII (Michael W. Deem and Ramdas Pophale) SiO2 
 PCOD9216135
Probable space group: C 2/M
;
_chemical_formula_sum "Si O2"
_cell_formula_units_Z 56
_cell_length_a 9.804551
_cell_length_b 14.437969
_cell_length_c 22.541519
_cell_angle_alpha 90.000000
_cell_angle_beta 113.362251
_cell_angle_gamma 90.000000
_cell_volume 2929.323152
_symmetry_space_group_name_H-M "C 2/M"
_symmetry_group_IT_number 12
_symmetry_cell_setting 'monoclinic'
loop_
_space_group_symop_operation_xyz
x,y,z
-x,y,-z
-x,-y,-z
x,-y,z
1/2+x,1/2+y,z
1/2-x,1/2+y,-z
1/2-x,1/2-y,-z
1/2+x,1/2-y,z
loop_
_atom_site_type_symbol
_atom_site_label
_atom_site_fract_x
_atom_site_fract_y
_atom_site_fract_z
Si Si1 0.102498 0.305132 0.959392
Si Si2 0.577092 0.893308 0.342096
Si Si3 0.419820 0.735861 0.238854
Si Si4 0.910050 0.107318 0.351262
Si Si5 0.156206 0.500000 0.990446
Si Si6 0.902014 0.184994 0.843215
Si Si7 0.918902 0.261587 0.547529
Si Si8 0.007319 0.000000 0.928372
O O1 0.151932 0.407829 0.951838
O O2 0.006112 0.259460 0.892916
O O3 0.250000 0.250000 0.000000
O O4 0.000000 0.306640 0.000000
O O5 0.498111 0.825508 0.281527
O O6 0.751621 0.892243 0.356875
O O7 0.556072 0.845285 0.402165
O O8 0.525149 0.000000 0.330811
O O9 0.389957 0.661623 0.285817
O O10 0.265106 0.775236 0.185717
O O11 0.529742 0.685547 0.211256
O O12 0.022082 0.168886 0.409644
O O13 0.955634 0.000000 0.351203
O O14 0.312594 0.500000 0.053178
O O15 0.000000 0.500000 0.000000
O O16 0.932642 0.090186 0.885050
O O17 0.750000 0.250000 0.500000
O O18 0.000000 0.277701 0.500000
O O19 0.000000 0.000000 0.000000
#
# Coordination Sequence:
#
# PCOD9216135 Si02
#       8
#     8   8   8   8   4   8   8   4
#     4  11  22  42  63  87 121 160 200 258 325 388
#     4  10  22  43  66  94 137 175 218 276 321 371
#     4  11  25  45  63  98 125 175 221 272 320 385
#     4  10  22  43  67  92 134 180 219 272 321 382
#     4  10  24  42  62  88 124 160 200 246 330 394
#     4  12  26  43  67  93 128 166 217 266 328 402
#     4  11  22  39  66 102 136 173 221 266 321 385
#     4  12  28  46  66  98 132 164 206 275 347 401
#
# _framework density 19.117044
#
# number of rings (size 3 to 8) (size 9 to 14) (size 15 to 20)
#    0.000    1.143    4.286    1.286    6.000    1.143 
#    2.571    1.429    0.000    0.000    0.000    0.000 
#    0.000    0.000    0.000    0.000    0.000    0.000 
#
# Total GULP energy -156296.825943 kJ/mol
# GULP energy per Si atom -5582.029498 kJ/mol
# Density = 1.907353 g / cm^3
# Si number density = 19.117044 Si / 1000 Ang^3
#
#
#
# Elastic Constant Matrix: (Units=GPa)
#
#
# Indices 1 2 3 4 5 6 
#
# 1 90.6885 26.4135 25.2078 0.0000 -0.6111 0.0000
# 2 26.4135 176.9714 51.9999 0.0000 -1.6040 0.0000
# 3 25.2078 51.9999 90.0943 0.0000 4.0032 0.0000
# 4 0.0000 0.0000 0.0000 20.9602 0.0000 2.1415
# 5 -0.6111 -1.6040 4.0032 0.0000 43.6653 0.0000
# 6 0.0000 0.0000 0.0000 2.1415 0.0000 25.3022
#
#
#
# Elastic Compliance Matrix: (Units=1/GPa)
#
#
# Indices 1 2 3 4 5 6 
#
# 1 0.012102 -0.000966 -0.002846 0.000000 0.000395 0.000000
# 2 -0.000966 0.006898 -0.003737 0.000000 0.000582 0.000000
# 3 -0.002846 -0.003737 0.014118 0.000000 -0.001471 0.000000
# 4 0.000000 0.000000 0.000000 0.048126 0.000000 -0.004073
# 5 0.000395 0.000582 -0.001471 0.000000 0.023063 0.000000
# 6 0.000000 0.000000 0.000000 -0.004073 0.000000 0.039867
#
#
# Mechanical properties :
#
#
# Convention : Reuss Voigt Hill
#
# Bulk Modulus (GPa) = 55.49469 62.77738 59.13604
# Shear Modulus (GPa) = 30.25191 34.92774 32.58983
#
# Velocity S-wave (km/s) = 3.98233 4.27903 4.13334
# Velocity P-wave (km/s) = 7.08782 7.57121 7.33350
#
# Compressibility (1/GPa) = 0.01801974
#
# Stress axis : x y z
#
# Youngs Moduli (GPa) = 82.63150 144.96573 70.83196
#
# Poissons Ratio (x) = 0.14011 0.20157
# Poissons Ratio (y) = 0.07986 0.26469
# Poissons Ratio (z) = 0.23515 0.54172
#
# Static dielectric constant tensor:
#      x y z
#    x 1.574020 0.000000 -0.048410 
#    y 0.000000 1.688070 0.000000 
#    z -0.048410 0.000000 1.639870 
# 
# From -- ./inp_files/356207.got.cif
#   From: 2010.05.17/outbox.cif.g08.bks.cpg/sg12_179_cif.got.tgz:356207.got - 2010.06.03 13:09:07.
