data_PCOD9216374
_publ_section_title
;
Structure prediction by ZEFSAII (Michael W. Deem and Ramdas Pophale) SiO2 
 PCOD9216374
Probable space group: C 2/M
;
_chemical_formula_sum "Si O2"
_cell_formula_units_Z 26
_cell_length_a 19.444383
_cell_length_b 10.763876
_cell_length_c 6.383204
_cell_angle_alpha 90.000000
_cell_angle_beta 120.793958
_cell_angle_gamma 90.000000
_cell_volume 1147.629657
_symmetry_space_group_name_H-M "C 2/M"
_symmetry_group_IT_number 12
_symmetry_cell_setting 'monoclinic'
loop_
_space_group_symop_operation_xyz
x,y,z
-x,y,-z
-x,-y,-z
x,-y,z
1/2+x,1/2+y,z
1/2-x,1/2+y,-z
1/2-x,1/2-y,-z
1/2+x,1/2-y,z
loop_
_atom_site_type_symbol
_atom_site_label
_atom_site_fract_x
_atom_site_fract_y
_atom_site_fract_z
Si Si1 0.856760 0.363221 0.264423
Si Si2 0.064317 0.211417 0.280068
Si Si3 0.830688 0.862409 0.919721
Si Si4 0.500000 0.500000 0.500000
O O1 0.873535 0.500000 0.203098
O O2 0.911897 0.329811 0.546321
O O3 0.764580 0.362863 0.200148
O O4 0.862448 0.250976 0.108706
O O5 0.141438 0.159644 0.273305
O O6 0.032115 0.107871 0.385642
O O7 0.000000 0.236269 0.000000
O O8 0.861751 0.000000 0.041307
#
# Coordination Sequence:
#
# PCOD9216374 Si02
#       4
#     8   8   8   2
#     4  10  24  44  69 103 143 180 226 285 348 415
#     4  12  25  41  68 102 139 181 233 286 346 405
#     4  10  22  44  72 103 134 183 235 286 337 405
#     4  12  26  44  66 102 136 180 238 288 332 410
#
# _framework density 22.655390000000001
#
# number of rings (size 3 to 8) (size 9 to 14) (size 15 to 20)
#    0.000    1.231    1.538    3.231    6.462    1.846 
#    0.000    5.385    0.000    0.000    0.000    0.000 
#    0.000    0.000    0.000    0.000    0.000    0.000 
#
# Total GULP energy -72536.998371 kJ/mol
# GULP energy per Si atom -5579.769105 kJ/mol
# Density = 2.260383 g / cm^3
# Si number density = 22.655390 Si / 1000 Ang^3
#
#
#
# Elastic Constant Matrix: (Units=GPa)
#
#
# Indices 1 2 3 4 5 6 
#
# 1 104.1376 33.7165 17.1289 0.0000 -37.4387 0.0000
# 2 33.7165 181.9493 66.0437 0.0000 -3.2898 0.0000
# 3 17.1289 66.0437 90.3270 0.0000 -18.0514 0.0000
# 4 0.0000 0.0000 0.0000 32.5438 0.0000 5.6810
# 5 -37.4387 -3.2898 -18.0514 0.0000 31.7714 0.0000
# 6 0.0000 0.0000 0.0000 5.6810 0.0000 19.3785
#
#
#
# Elastic Compliance Matrix: (Units=1/GPa)
#
#
# Indices 1 2 3 4 5 6 
#
# 1 0.019471 -0.004960 0.004982 0.000000 0.025261 0.000000
# 2 -0.004960 0.008945 -0.007426 0.000000 -0.009138 0.000000
# 3 0.004982 -0.007426 0.018699 0.000000 0.015726 0.000000
# 4 0.000000 0.000000 0.000000 0.032385 0.000000 -0.009494
# 5 0.025261 -0.009138 0.015726 0.000000 0.069231 0.000000
# 6 0.000000 0.000000 0.000000 -0.009494 0.000000 0.054387
#
#
# Mechanical properties :
#
#
# Convention : Reuss Voigt Hill
#
# Bulk Modulus (GPa) = 30.95244 67.79911 49.37578
# Shear Modulus (GPa) = 21.86334 34.04040 27.95187
#
# Velocity S-wave (km/s) = 3.10988 3.88045 3.51634
# Velocity P-wave (km/s) = 5.15626 7.07591 6.19094
#
# Compressibility (1/GPa) = 0.03230763
#
# Stress axis : x y z
#
# Youngs Moduli (GPa) = 51.35946 111.78874 53.48009
#
# Poissons Ratio (x) = 0.55445 -0.26646
# Poissons Ratio (y) = 0.25473 0.39715
# Poissons Ratio (z) = -0.25590 0.83016
#
# Static dielectric constant tensor:
#      x y z
#    x 1.992170 0.000000 0.220250 
#    y 0.000000 1.820580 0.000000 
#    z 0.220250 0.000000 2.037270 
# 
# From -- ./inp_files/18885.got.cif
#   From: 2010.05.17/outbox.cif.g08.bks.cpg/sg12_10_cif.got.tgz:18885.got - 2010.06.03 13:09:07.
