data_PCOD9216113
_publ_section_title
;
Structure prediction by ZEFSAII (Michael W. Deem and Ramdas Pophale) SiO2 
 PCOD9216113
Probable space group: C 2/M
;
_chemical_formula_sum "Si O2"
_cell_formula_units_Z 42
_cell_length_a 23.324014
_cell_length_b 14.287068
_cell_length_c 4.970273
_cell_angle_alpha 90.000000
_cell_angle_beta 83.904427
_cell_angle_gamma 90.000000
_cell_volume 1646.888687
_symmetry_space_group_name_H-M "C 2/M"
_symmetry_group_IT_number 12
_symmetry_cell_setting 'monoclinic'
loop_
_space_group_symop_operation_xyz
x,y,z
-x,y,-z
-x,-y,-z
x,-y,z
1/2+x,1/2+y,z
1/2-x,1/2+y,-z
1/2-x,1/2-y,-z
1/2+x,1/2-y,z
loop_
_atom_site_type_symbol
_atom_site_label
_atom_site_fract_x
_atom_site_fract_y
_atom_site_fract_z
Si Si1 0.334104 0.305366 0.433066
Si Si2 0.500000 0.500000 0.000000
Si Si3 0.038342 0.634236 0.226411
Si Si4 0.663056 0.897426 0.354091
Si Si5 0.277671 0.389815 0.950046
Si Si6 0.054202 0.853290 0.295832
O O1 0.342113 0.193629 0.453634
O O2 0.320654 0.340081 0.141361
O O3 0.389359 0.353296 0.547593
O O4 0.283193 0.338961 0.660651
O O5 0.451161 0.419152 0.955585
O O6 0.102990 0.599450 0.223799
O O7 0.044028 0.746798 0.218075
O O8 0.000000 0.609644 0.500000
O O9 0.000000 0.603259 0.000000
O O10 0.715380 0.882053 0.120768
O O11 0.672226 0.000000 0.481738
O O12 0.290878 0.500000 0.914225
O O13 0.000000 0.888724 0.500000
#
# Coordination Sequence:
#
# PCOD9216113 Si02
#       6
#     8   2   8   8   8   8
#     4  11  25  44  70  95 137 178 223 273 331 398
#     4  12  22  36  60  90 130 168 222 264 330 386
#     4  10  22  43  65  93 127 168 212 265 327 394
#     4  10  24  45  70  99 134 174 225 279 333 389
#     4  11  25  44  68 100 133 175 222 274 333 400
#     4  10  24  37  59  90 129 168 213 266 327 388
#
# _framework density 25.502634
#
# number of rings (size 3 to 8) (size 9 to 14) (size 15 to 20)
#    0.000    1.524    0.952    2.000    5.333    6.857 
#    0.000    6.667    0.000    0.000    0.000    0.000 
#    0.000    0.000    0.000    0.000    0.000    0.000 
#
# Total GULP energy -117505.509046 kJ/mol
# GULP energy per Si atom -5595.500431 kJ/mol
# Density = 2.544459 g / cm^3
# Si number density = 25.502634 Si / 1000 Ang^3
#
#
#
# Elastic Constant Matrix: (Units=GPa)
#
#
# Indices 1 2 3 4 5 6 
#
# 1 152.9116 12.3401 14.1408 0.0000 11.0769 0.0000
# 2 12.3401 170.7205 30.5574 0.0000 6.7821 0.0000
# 3 14.1408 30.5574 101.5142 0.0000 22.5605 0.0000
# 4 0.0000 0.0000 0.0000 4.8871 0.0000 2.1642
# 5 11.0769 6.7821 22.5605 0.0000 33.9855 0.0000
# 6 0.0000 0.0000 0.0000 2.1642 0.0000 32.9025
#
#
#
# Elastic Compliance Matrix: (Units=1/GPa)
#
#
# Indices 1 2 3 4 5 6 
#
# 1 0.006740 -0.000337 -0.000427 0.000000 -0.001846 0.000000
# 2 -0.000337 0.006208 -0.001843 0.000000 0.000094 0.000000
# 3 -0.000427 -0.001843 0.012144 0.000000 -0.007555 0.000000
# 4 0.000000 0.000000 0.000000 0.210760 0.000000 -0.013863
# 5 -0.001846 0.000094 -0.007555 0.000000 0.035022 0.000000
# 6 0.000000 0.000000 0.000000 -0.013863 0.000000 0.031305
#
#
# Mechanical properties :
#
#
# Convention : Reuss Voigt Hill
#
# Bulk Modulus (GPa) = 50.30746 59.91366 55.11056
# Shear Modulus (GPa) = 15.92259 38.89555 27.40907
#
# Velocity S-wave (km/s) = 2.50141 3.90956 3.28190
# Velocity P-wave (km/s) = 5.30207 6.62750 6.00149
#
# Compressibility (1/GPa) = 0.01987777
#
# Stress axis : x y z
#
# Youngs Moduli (GPa) = 148.36417 161.08277 82.34565
#
# Poissons Ratio (x) = 0.05435 0.03517
# Poissons Ratio (y) = 0.05006 0.15174
# Poissons Ratio (z) = 0.06336 0.29682
#
# Static dielectric constant tensor:
#      x y z
#    x 2.017690 0.000000 -0.018270 
#    y 0.000000 1.985310 0.000000 
#    z -0.018270 0.000000 2.020230 
# 
# From -- ./inp_files/24269.got.cif
#   From: 2010.05.17/outbox.cif.g08.bks.cpg/sg12_13_cif.got.tgz:24269.got - 2010.06.03 13:09:07.
