data_PCOD9216684
_publ_section_title
;
Structure prediction by ZEFSAII (Michael W. Deem and Ramdas Pophale) SiO2 
 PCOD9216684
Probable space group: C 2/M
;
_chemical_formula_sum "Si O2"
_cell_formula_units_Z 44
_cell_length_a 24.914763
_cell_length_b 14.412518
_cell_length_c 18.825074
_cell_angle_alpha 90.000000
_cell_angle_beta 161.729592
_cell_angle_gamma 90.000000
_cell_volume 2119.208610
_symmetry_space_group_name_H-M "C 2/M"
_symmetry_group_IT_number 12
_symmetry_cell_setting 'monoclinic'
loop_
_space_group_symop_operation_xyz
x,y,z
-x,y,-z
-x,-y,-z
x,-y,z
1/2+x,1/2+y,z
1/2-x,1/2+y,-z
1/2-x,1/2-y,-z
1/2+x,1/2-y,z
loop_
_atom_site_type_symbol
_atom_site_label
_atom_site_fract_x
_atom_site_fract_y
_atom_site_fract_z
Si Si1 0.086026 0.000000 0.882431
Si Si2 0.965554 0.846633 0.624210
Si Si3 0.144008 0.606669 0.129176
Si Si4 0.581757 0.500000 0.181040
Si Si5 0.014692 0.500000 0.602331
Si Si6 0.209377 0.391672 0.054553
Si Si7 0.881600 0.362129 0.545613
O O1 0.006180 0.088945 0.742557
O O2 0.051262 0.000000 0.922204
O O3 0.288758 0.000000 0.126045
O O4 0.822578 0.892569 0.394804
O O5 0.889787 0.747614 0.550167
O O6 0.142092 0.838875 0.801561
O O7 0.087723 0.500000 0.044729
O O8 0.174884 0.647581 0.089900
O O9 0.000000 0.649298 0.000000
O O10 0.704422 0.410269 0.344204
O O11 0.500000 0.500000 0.000000
O O12 0.000000 0.500000 0.500000
O O13 0.927401 0.410409 0.528145
O O14 0.266777 0.500000 0.132005
O O15 0.032562 0.389543 0.789463
#
# Coordination Sequence:
#
# PCOD9216684 Si02
#       7
#     4   8   8   4   4   8   8
#     4  12  24  42  72  96 133 172 228 279 341 408
#     4  12  23  41  66 105 131 170 224 283 335 401
#     4  10  23  39  63  92 133 175 212 261 332 412
#     4  11  27  51  68  92 135 182 225 280 336 403
#     4  11  23  45  68  96 129 181 231 281 327 391
#     4  11  20  41  68  93 132 176 217 270 339 392
#     4  11  24  44  68  95 134 174 225 277 340 395
#
# _framework density 20.762466
#
# number of rings (size 3 to 8) (size 9 to 14) (size 15 to 20)
#    0.000    0.909    5.455    2.182    2.545    4.364 
#    3.273    0.000    0.000    0.000    0.000    0.000 
#    0.000    0.000    0.000    0.000    0.000    0.000 
#
# Total GULP energy -122960.349101 kJ/mol
# GULP energy per Si atom -5589.106777 kJ/mol
# Density = 2.071521 g / cm^3
# Si number density = 20.762466 Si / 1000 Ang^3
#
#
#
# Elastic Constant Matrix: (Units=GPa)
#
#
# Indices 1 2 3 4 5 6 
#
# 1 105.5047 2.8505 7.7071 -0.0019 -8.1198 -0.0004
# 2 2.8505 97.1248 -15.2066 -0.0008 2.4777 0.0001
# 3 7.7071 -15.2066 66.9447 -0.0020 -3.1781 -0.0010
# 4 -0.0019 -0.0008 -0.0020 -4.6397 -0.0005 -5.3052
# 5 -8.1198 2.4777 -3.1781 -0.0005 37.9829 0.0000
# 6 -0.0004 0.0001 -0.0010 -5.3052 0.0000 -2.7424
#
#
#
# Elastic Compliance Matrix: (Units=1/GPa)
#
#
# Indices 1 2 3 4 5 6 
#
# 1 0.009731 -0.000516 -0.001142 0.000002 0.002018 -0.000005
# 2 -0.000516 0.010712 0.002464 0.000002 -0.000603 -0.000004
# 3 -0.001142 0.002464 0.015672 0.000001 0.000907 -0.000007
# 4 0.000002 0.000002 0.000001 0.177832 0.000003 -0.344019
# 5 0.002018 -0.000603 0.000907 0.000003 0.026874 -0.000007
# 6 -0.000005 -0.000004 -0.000007 -0.344019 -0.000007 0.300865
#
#
# Mechanical properties :
#
#
# Convention : Reuss Voigt Hill
#
# Bulk Modulus (GPa) = 26.50519 28.91956 27.71238
# Shear Modulus (GPa) = 9.04734 24.40172 16.72453
#
# Velocity S-wave (km/s) = 2.08974 3.43196 2.84124
# Velocity P-wave (km/s) = 4.31466 5.44641 4.91323
#
# Compressibility (1/GPa) = 0.03772845
#
# Stress axis : x y z
#
# Youngs Moduli (GPa) = 102.76520 93.35019 63.80846
#
# Poissons Ratio (x) = 0.04815 0.07285
# Poissons Ratio (y) = 0.05301 -0.15723
# Poissons Ratio (z) = 0.11732 -0.23002
#
# Static dielectric constant tensor:
#      x y z
#    x 1.751410 0.000000 0.012130 
#    y 0.000000 1.759420 0.000000 
#    z 0.012130 0.000000 1.711300 
# 
# From -- ./inp_files/290204.got.cif
#   From: 2010.05.17/outbox.cif.g08.bks.cpg/sg12_146_cif.got.tgz:290204.got - 2010.06.03 13:09:07.
