data_PCOD9216953
_publ_section_title
;
Structure prediction by ZEFSAII (Michael W. Deem and Ramdas Pophale) SiO2 
 PCOD9216953
Probable space group: C 2/M
;
_chemical_formula_sum "Si O2"
_cell_formula_units_Z 48
_cell_length_a 25.129429
_cell_length_b 8.655141
_cell_length_c 12.743687
_cell_angle_alpha 90.000000
_cell_angle_beta 70.656927
_cell_angle_gamma 90.000000
_cell_volume 2615.277652
_symmetry_space_group_name_H-M "C 2/M"
_symmetry_group_IT_number 12
_symmetry_cell_setting 'monoclinic'
loop_
_space_group_symop_operation_xyz
x,y,z
-x,y,-z
-x,-y,-z
x,-y,z
1/2+x,1/2+y,z
1/2-x,1/2+y,-z
1/2-x,1/2-y,-z
1/2+x,1/2-y,z
loop_
_atom_site_type_symbol
_atom_site_label
_atom_site_fract_x
_atom_site_fract_y
_atom_site_fract_z
Si Si1 0.559334 0.183200 0.631896
Si Si2 0.935146 0.316244 0.013513
Si Si3 0.118524 0.185466 0.394403
Si Si4 0.560140 0.684067 0.217499
Si Si5 0.744106 0.314622 0.386157
Si Si6 0.640883 0.316694 0.754529
O O1 0.577404 0.231787 0.503522
O O2 0.502303 0.266291 0.705479
O O3 0.608803 0.237462 0.677813
O O4 0.551887 0.000000 0.644862
O O5 0.928556 0.500000 0.032187
O O6 0.893457 0.229594 0.119497
O O7 0.925591 0.268957 0.899765
O O8 0.000000 0.276538 0.000000
O O9 0.101468 0.222782 0.286793
O O10 0.182777 0.226140 0.380581
O O11 0.112000 0.000000 0.412602
O O12 0.561314 0.500000 0.199413
O O13 0.748664 0.500000 0.385808
O O14 0.750000 0.250000 0.500000
O O15 0.795451 0.244819 0.286455
O O16 0.640326 0.500000 0.739384
#
# Coordination Sequence:
#
# PCOD9216953 Si02
#       6
#     8   8   8   8   8   8
#     4  12  23  36  59  91 125 160 199 248 303 360
#     4  11  23  40  63  90 121 156 200 250 300 356
#     4  10  23  41  61  88 124 163 201 245 301 360
#     4  11  23  40  62  89 123 162 202 245 300 362
#     4  11  22  39  63  90 122 160 202 249 298 355
#     4  12  24  39  62  91 122 157 202 252 301 355
#
# _framework density 18.353691000000001
#
# number of rings (size 3 to 8) (size 9 to 14) (size 15 to 20)
#    0.000    0.833    3.333    5.000    0.000    4.667 
#    0.000    0.833    0.000    0.000    0.000    0.000 
#    0.000    0.000    0.000    0.000    0.000    0.000 
#
# Total GULP energy -134272.991480 kJ/mol
# GULP energy per Si atom -5594.707978 kJ/mol
# Density = 1.831192 g / cm^3
# Si number density = 18.353691 Si / 1000 Ang^3
#
#
#
# Elastic Constant Matrix: (Units=GPa)
#
#
# Indices 1 2 3 4 5 6 
#
# 1 48.5320 6.2780 13.6986 0.0000 1.2313 0.0000
# 2 6.2780 28.1570 7.1491 0.0000 1.3388 0.0000
# 3 13.6986 7.1491 83.5413 0.0000 2.4611 0.0000
# 4 0.0000 0.0000 0.0000 30.4402 0.0000 -6.8326
# 5 1.2313 1.3388 2.4611 0.0000 34.2065 0.0000
# 6 0.0000 0.0000 0.0000 -6.8326 0.0000 21.3372
#
#
#
# Elastic Compliance Matrix: (Units=1/GPa)
#
#
# Indices 1 2 3 4 5 6 
#
# 1 0.022061 -0.004073 -0.003257 0.000000 -0.000400 0.000000
# 2 -0.004073 0.037105 -0.002474 0.000000 -0.001128 0.000000
# 3 -0.003257 -0.002474 0.012737 0.000000 -0.000702 0.000000
# 4 0.000000 0.000000 0.000000 0.035395 0.000000 0.011334
# 5 -0.000400 -0.001128 -0.000702 0.000000 0.029343 0.000000
# 6 0.000000 0.000000 0.000000 0.011334 0.000000 0.050496
#
#
# Mechanical properties :
#
#
# Convention : Reuss Voigt Hill
#
# Bulk Modulus (GPa) = 19.12246 23.83132 21.47689
# Shear Modulus (GPa) = 22.30374 26.07043 24.18708
#
# Velocity S-wave (km/s) = 3.48978 3.77297 3.63413
# Velocity P-wave (km/s) = 5.16523 5.65624 5.41630
#
# Compressibility (1/GPa) = 0.05229453
#
# Stress axis : x y z
#
# Youngs Moduli (GPa) = 45.32819 26.95050 78.51359
#
# Poissons Ratio (x) = 0.10977 0.25573
# Poissons Ratio (y) = 0.18462 0.19426
# Poissons Ratio (z) = 0.14764 0.06668
#
# Static dielectric constant tensor:
#      x y z
#    x 1.618910 0.000000 0.004540 
#    y 0.000000 1.615290 0.000000 
#    z 0.004540 0.000000 1.608370 
# 
# From -- ./inp_files/172951.got.cif
#   From: 2010.05.17/outbox.cif.g08.bks.cpg/sg12_87_cif.got.tgz:172951.got - 2010.06.03 13:09:07.
