data_PCOD9216932
_publ_section_title
;
Structure prediction by ZEFSAII (Michael W. Deem and Ramdas Pophale) SiO2 
 PCOD9216932
Probable space group: C 2/M
;
_chemical_formula_sum "Si O2"
_cell_formula_units_Z 48
_cell_length_a 22.327330
_cell_length_b 8.252515
_cell_length_c 12.407870
_cell_angle_alpha 90.000000
_cell_angle_beta 99.660900
_cell_angle_gamma 90.000000
_cell_volume 2253.809417
_symmetry_space_group_name_H-M "C 2/M"
_symmetry_group_IT_number 12
_symmetry_cell_setting 'monoclinic'
loop_
_space_group_symop_operation_xyz
x,y,z
-x,y,-z
-x,-y,-z
x,-y,z
1/2+x,1/2+y,z
1/2-x,1/2+y,-z
1/2-x,1/2-y,-z
1/2+x,1/2-y,z
loop_
_atom_site_type_symbol
_atom_site_label
_atom_site_fract_x
_atom_site_fract_y
_atom_site_fract_z
Si Si1 0.562991 0.802870 0.572507
Si Si2 0.180523 0.312725 0.477821
Si Si3 0.928099 0.187508 0.981249
Si Si4 0.149944 0.811272 0.239052
Si Si5 0.883027 0.311289 0.191683
Si Si6 0.746193 0.312976 0.876300
O O1 0.500000 0.743886 0.500000
O O2 0.626139 0.743445 0.536512
O O3 0.568788 0.766472 0.701361
O O4 0.562483 0.000000 0.560635
O O5 0.185669 0.500000 0.509145
O O6 0.250000 0.250000 0.500000
O O7 0.156347 0.289036 0.349374
O O8 0.906085 0.285143 0.077779
O O9 0.906727 0.000000 0.987754
O O10 0.901697 0.245522 0.859594
O O11 0.000000 0.188666 0.000000
O O12 0.210875 0.790742 0.187587
O O13 0.140342 0.000000 0.263940
O O14 0.867038 0.500000 0.202257
O O15 0.822339 0.207153 0.184192
O O16 0.765406 0.500000 0.878723
O O17 0.750000 0.250000 0.000000
#
# Coordination Sequence:
#
# PCOD9216932 Si02
#       6
#     8   8   8   8   8   8
#     4   9  21  41  63  91 125 164 209 262 316 368
#     4  11  23  41  67  93 127 168 214 265 320 384
#     4  10  23  41  60  86 125 169 207 255 317 374
#     4  11  23  40  63  91 128 165 206 258 313 374
#     4  11  22  38  65  94 123 161 207 259 314 378
#     4  12  23  38  61  91 126 161 203 252 310 377
#
# _framework density 21.297274000000002
#
# number of rings (size 3 to 8) (size 9 to 14) (size 15 to 20)
#    0.000    1.333    1.667    4.000    2.333    2.333 
#    0.000    2.500    0.000    4.000    0.000    0.000 
#    0.000    0.000    0.000    0.000    0.000    0.000 
#
# Total GULP energy -134099.221672 kJ/mol
# GULP energy per Si atom -5587.467570 kJ/mol
# Density = 2.124880 g / cm^3
# Si number density = 21.297274 Si / 1000 Ang^3
#
#
#
# Elastic Constant Matrix: (Units=GPa)
#
#
# Indices 1 2 3 4 5 6 
#
# 1 86.6101 11.1869 24.4841 0.0000 24.6848 0.0000
# 2 11.1869 31.2155 2.5779 0.0000 7.5312 0.0000
# 3 24.4841 2.5779 94.1908 0.0000 25.2732 0.0000
# 4 0.0000 0.0000 0.0000 25.2383 0.0000 3.2392
# 5 24.6848 7.5312 25.2732 0.0000 38.0166 0.0000
# 6 0.0000 0.0000 0.0000 3.2392 0.0000 21.8181
#
#
#
# Elastic Compliance Matrix: (Units=1/GPa)
#
#
# Indices 1 2 3 4 5 6 
#
# 1 0.014643 -0.003235 -0.001629 0.000000 -0.007784 0.000000
# 2 -0.003235 0.034445 0.001419 0.000000 -0.005666 0.000000
# 3 -0.001629 0.001419 0.013136 0.000000 -0.007956 0.000000
# 4 0.000000 0.000000 0.000000 0.040392 0.000000 -0.005997
# 5 -0.007784 -0.005666 -0.007956 0.000000 0.037770 0.000000
# 6 0.000000 0.000000 0.000000 -0.005997 0.000000 0.046724
#
#
# Mechanical properties :
#
#
# Convention : Reuss Voigt Hill
#
# Bulk Modulus (GPa) = 18.07267 32.05711 25.06489
# Shear Modulus (GPa) = 23.53549 28.59911 26.06730
#
# Velocity S-wave (km/s) = 3.32790 3.66847 3.50233
# Velocity P-wave (km/s) = 4.82399 5.74704 5.30563
#
# Compressibility (1/GPa) = 0.05533217
#
# Stress axis : x y z
#
# Youngs Moduli (GPa) = 68.29241 29.03214 76.12575
#
# Poissons Ratio (x) = 0.09392 0.12402
# Poissons Ratio (y) = 0.22093 -0.10799
# Poissons Ratio (z) = 0.11126 -0.04118
#
# Static dielectric constant tensor:
#      x y z
#    x 1.794640 0.000000 0.009920 
#    y 0.000000 1.774450 0.000000 
#    z 0.009920 0.000000 1.769970 
# 
# From -- ./inp_files/172420.got.cif
#   From: 2010.05.17/outbox.cif.g08.bks.cpg/sg12_87_cif.got.tgz:172420.got - 2010.06.03 13:09:07.
