data_PCOD9216988
_publ_section_title
;
Structure prediction by ZEFSAII (Michael W. Deem and Ramdas Pophale) SiO2 
 PCOD9216988
Probable space group: C 2/M
;
_chemical_formula_sum "Si O2"
_cell_formula_units_Z 48
_cell_length_a 29.138430
_cell_length_b 14.918066
_cell_length_c 13.032077
_cell_angle_alpha 90.000000
_cell_angle_beta 27.394860
_cell_angle_gamma 90.000000
_cell_volume 2606.534935
_symmetry_space_group_name_H-M "C 2/M"
_symmetry_group_IT_number 12
_symmetry_cell_setting 'monoclinic'
loop_
_space_group_symop_operation_xyz
x,y,z
-x,y,-z
-x,-y,-z
x,-y,z
1/2+x,1/2+y,z
1/2-x,1/2+y,-z
1/2-x,1/2-y,-z
1/2+x,1/2-y,z
loop_
_atom_site_type_symbol
_atom_site_label
_atom_site_fract_x
_atom_site_fract_y
_atom_site_fract_z
Si Si1 0.287271 0.826386 0.851570
Si Si2 0.400692 0.777262 0.262662
Si Si3 0.585623 0.905595 0.243198
Si Si4 0.025942 0.737980 0.653029
Si Si5 0.701432 0.392167 0.635057
Si Si6 0.618694 0.395066 0.031522
O O1 0.319410 0.899132 0.872329
O O2 0.382461 0.784671 0.603626
O O3 0.250000 0.750000 0.000000
O O4 0.208007 0.862499 0.928014
O O5 0.433926 0.783272 0.314176
O O6 0.359768 0.676835 0.316445
O O7 0.312706 0.849282 0.416157
O O8 0.500000 0.793945 0.000000
O O9 0.500000 0.903368 0.500000
O O10 0.564005 0.825829 0.208009
O O11 0.580793 0.000000 0.196441
O O12 0.978670 0.836529 0.749513
O O13 0.699940 0.500000 0.613793
O O14 0.653663 0.381530 0.843930
O O15 0.600981 0.500000 0.081686
#
# Coordination Sequence:
#
# PCOD9216988 Si02
#       6
#     8   8   8   8   8   8
#     4  11  21  38  63  85 122 163 201 245 302 355
#     4  11  22  39  65  90 124 157 198 253 307 356
#     4   9  19  35  58  85 112 150 199 243 291 353
#     4  11  22  38  61  92 121 156 202 254 300 354
#     4  10  23  41  63  90 121 162 206 245 300 370
#     4  11  22  39  64  91 120 164 208 244 298 367
#
# _framework density 18.415254000000001
#
# number of rings (size 3 to 8) (size 9 to 14) (size 15 to 20)
#    0.000    1.500    5.000    0.500    0.000    2.667 
#    0.000    2.500    0.000    0.000    0.000    0.000 
#    0.000    0.000    0.000    0.000    0.000    0.000 
#
# Total GULP energy -133698.283126 kJ/mol
# GULP energy per Si atom -5570.761797 kJ/mol
# Density = 1.837334 g / cm^3
# Si number density = 18.415254 Si / 1000 Ang^3
#
#
#
# Elastic Constant Matrix: (Units=GPa)
#
#
# Indices 1 2 3 4 5 6 
#
# 1 82.5328 23.9090 38.2719 0.0000 10.4621 0.0000
# 2 23.9090 120.4474 41.6648 0.0000 16.1872 0.0000
# 3 38.2719 41.6648 62.3421 0.0000 5.4377 0.0000
# 4 0.0000 0.0000 0.0000 19.9614 0.0000 4.1945
# 5 10.4621 16.1872 5.4377 0.0000 18.3493 0.0000
# 6 0.0000 0.0000 0.0000 4.1945 0.0000 20.7178
#
#
#
# Elastic Compliance Matrix: (Units=1/GPa)
#
#
# Indices 1 2 3 4 5 6 
#
# 1 0.017964 0.001430 -0.011272 0.000000 -0.008164 0.000000
# 2 0.001430 0.012049 -0.008143 0.000000 -0.009032 0.000000
# 3 -0.011272 -0.008143 0.027938 0.000000 0.005331 0.000000
# 4 0.000000 0.000000 0.000000 0.052323 0.000000 -0.010593
# 5 -0.008164 -0.009032 0.005331 0.000000 0.065541 0.000000
# 6 0.000000 0.000000 0.000000 -0.010593 0.000000 0.050412
#
#
# Mechanical properties :
#
#
# Convention : Reuss Voigt Hill
#
# Bulk Modulus (GPa) = 45.49307 52.55710 49.02508
# Shear Modulus (GPa) = 18.55133 22.57081 20.56107
#
# Velocity S-wave (km/s) = 3.17738 3.50474 3.34507
# Velocity P-wave (km/s) = 6.18212 6.70668 6.44974
#
# Compressibility (1/GPa) = 0.02198137
#
# Stress axis : x y z
#
# Youngs Moduli (GPa) = 55.66717 82.99407 35.79404
#
# Poissons Ratio (x) = -0.11872 0.40347
# Poissons Ratio (y) = -0.07963 0.29147
# Poissons Ratio (z) = 0.62748 0.67583
#
# Static dielectric constant tensor:
#      x y z
#    x 1.652400 0.000000 -0.056130 
#    y 0.000000 2.778200 0.000000 
#    z -0.056130 0.000000 1.588730 
# 
# From -- ./inp_files/142997.got.cif
#   From: 2010.05.17/outbox.cif.g08.bks.cpg/sg12_72_cif.got.tgz:142997.got - 2010.06.03 13:09:07.
