data_PCOD9216947
_publ_section_title
;
Structure prediction by ZEFSAII (Michael W. Deem and Ramdas Pophale) SiO2 
 PCOD9216947
Probable space group: C 2/M
;
_chemical_formula_sum "Si O2"
_cell_formula_units_Z 40
_cell_length_a 27.365741
_cell_length_b 8.488266
_cell_length_c 10.386195
_cell_angle_alpha 90.000000
_cell_angle_beta 128.809292
_cell_angle_gamma 90.000000
_cell_volume 1879.974074
_symmetry_space_group_name_H-M "C 2/M"
_symmetry_group_IT_number 12
_symmetry_cell_setting 'monoclinic'
loop_
_space_group_symop_operation_xyz
x,y,z
-x,y,-z
-x,-y,-z
x,-y,z
1/2+x,1/2+y,z
1/2-x,1/2+y,-z
1/2-x,1/2-y,-z
1/2+x,1/2-y,z
loop_
_atom_site_type_symbol
_atom_site_label
_atom_site_fract_x
_atom_site_fract_y
_atom_site_fract_z
Si Si1 0.798695 0.311414 0.684635
Si Si2 0.402598 0.686765 0.423608
Si Si3 0.066119 0.685950 0.065341
Si Si4 0.765200 0.314362 0.167542
Si Si5 0.533255 0.687044 0.749038
O O1 0.799789 0.500000 0.681259
O O2 0.750000 0.250000 0.500000
O O3 0.868942 0.249389 0.772572
O O4 0.777434 0.260970 0.791892
O O5 0.390989 0.500000 0.423489
O O6 0.337342 0.776477 0.323393
O O7 0.460192 0.734590 0.611246
O O8 0.431460 0.706129 0.328216
O O9 0.064767 0.500000 0.092910
O O10 0.066403 0.713481 0.913202
O O11 0.000000 0.757932 0.000000
O O12 0.754609 0.500000 0.149443
O O13 0.750000 0.250000 0.000000
O O14 0.534999 0.500000 0.782152
#
# Coordination Sequence:
#
# PCOD9216947 Si02
#       5
#     8   8   8   8   8
#     4  11  25  45  67  95 133 173 215 265 322 386
#     4   9  19  37  60  90 125 158 199 256 315 376
#     4  10  23  41  61  87 123 162 205 257 309 368
#     4  12  25  41  64  93 127 169 217 267 322 381
#     4   9  19  36  60  90 123 158 201 254 311 373
#
# _framework density 21.276889000000001
#
# number of rings (size 3 to 8) (size 9 to 14) (size 15 to 20)
#    0.000    1.800    0.000    4.800    2.800    6.800 
#    0.000    2.000    0.000    0.000    0.000    0.000 
#    0.000    0.000    0.000    0.000    0.000    0.000 
#
# Total GULP energy -111783.722878 kJ/mol
# GULP energy per Si atom -5589.186144 kJ/mol
# Density = 2.122846 g / cm^3
# Si number density = 21.276889 Si / 1000 Ang^3
#
#
#
# Elastic Constant Matrix: (Units=GPa)
#
#
# Indices 1 2 3 4 5 6 
#
# 1 88.9388 21.5632 51.5554 0.0000 27.0423 0.0000
# 2 21.5632 40.6073 18.4296 0.0000 11.7211 0.0000
# 3 51.5554 18.4296 125.2086 0.0000 27.8809 0.0000
# 4 0.0000 0.0000 0.0000 30.5482 0.0000 -4.7573
# 5 27.0423 11.7211 27.8809 0.0000 38.5951 0.0000
# 6 0.0000 0.0000 0.0000 -4.7573 0.0000 24.9194
#
#
#
# Elastic Compliance Matrix: (Units=1/GPa)
#
#
# Indices 1 2 3 4 5 6 
#
# 1 0.017456 -0.004987 -0.004847 0.000000 -0.007215 0.000000
# 2 -0.004987 0.029123 -0.001242 0.000000 -0.004453 0.000000
# 3 -0.004847 -0.001242 0.011113 0.000000 -0.004254 0.000000
# 4 0.000000 0.000000 0.000000 0.033738 0.000000 0.006441
# 5 -0.007215 -0.004453 -0.004254 0.000000 0.035391 0.000000
# 6 0.000000 0.000000 0.000000 0.006441 0.000000 0.041359
#
#
# Mechanical properties :
#
#
# Convention : Reuss Voigt Hill
#
# Bulk Modulus (GPa) = 28.13685 48.65012 38.39349
# Shear Modulus (GPa) = 24.73055 29.69297 27.21176
#
# Velocity S-wave (km/s) = 3.41298 3.73976 3.58010
# Velocity P-wave (km/s) = 5.36508 6.44691 5.93071
#
# Compressibility (1/GPa) = 0.03554058
#
# Stress axis : x y z
#
# Youngs Moduli (GPa) = 57.28598 34.33676 89.98807
#
# Poissons Ratio (x) = 0.17124 0.43618
# Poissons Ratio (y) = 0.28570 0.11172
# Poissons Ratio (z) = 0.27767 0.04263
#
# Static dielectric constant tensor:
#      x y z
#    x 1.800030 0.000000 0.023550 
#    y 0.000000 1.744850 0.000000 
#    z 0.023550 0.000000 1.758530 
# 
# From -- ./inp_files/187006.got.cif
#   From: 2010.05.17/outbox.cif.g08.bks.cpg/sg12_94_cif.got.tgz:187006.got - 2010.06.03 13:09:07.
