data_PCOD9216624
_publ_section_title
;
Structure prediction by ZEFSAII (Michael W. Deem and Ramdas Pophale) SiO2 
 PCOD9216624
Probable space group: C 2/M
;
_chemical_formula_sum "Si O2"
_cell_formula_units_Z 28
_cell_length_a 8.934867
_cell_length_b 30.335910
_cell_length_c 5.494238
_cell_angle_alpha 90.000000
_cell_angle_beta 123.393290
_cell_angle_gamma 90.000000
_cell_volume 1243.350175
_symmetry_space_group_name_H-M "C 2/M"
_symmetry_group_IT_number 12
_symmetry_cell_setting 'monoclinic'
loop_
_space_group_symop_operation_xyz
x,y,z
-x,y,-z
-x,-y,-z
x,-y,z
1/2+x,1/2+y,z
1/2-x,1/2+y,-z
1/2-x,1/2-y,-z
1/2+x,1/2-y,z
loop_
_atom_site_type_symbol
_atom_site_label
_atom_site_fract_x
_atom_site_fract_y
_atom_site_fract_z
Si Si1 0.648433 0.950236 0.923321
Si Si2 0.191911 0.123450 0.285581
Si Si3 0.887722 0.290187 0.644536
Si Si4 0.500000 0.564085 0.500000
O O1 0.684224 0.907234 0.781486
O O2 0.601258 0.000000 0.789389
O O3 0.500000 0.940362 0.000000
O O4 0.848168 0.957110 0.203224
O O5 0.290799 0.163265 0.508194
O O6 0.122264 0.091301 0.428333
O O7 0.000000 0.139619 0.000000
O O8 0.750000 0.250000 0.500000
O O9 0.000000 0.284490 0.500000
O O10 0.000000 0.289913 0.000000
#
# Coordination Sequence:
#
# PCOD9216624 Si02
#       4
#     8   8   8   4
#     4  10  23  43  69 104 149 205 264 318 379 451
#     4  10  25  44  71 105 151 199 253 317 384 452
#     4  12  29  49  81 113 154 197 252 316 390 470
#     4  10  23  38  68  98 152 190 260 310 379 448
#
# _framework density 22.519801000000001
#
# number of rings (size 3 to 8) (size 9 to 14) (size 15 to 20)
#    0.000    1.429    0.000    2.143   14.000    6.286 
#    0.000    2.857    0.000    0.857    0.000    0.000 
#    0.000    0.000    0.000    0.000    0.000    0.000 
#
# Total GULP energy -77976.419936 kJ/mol
# GULP energy per Si atom -5569.744281 kJ/mol
# Density = 2.246854 g / cm^3
# Si number density = 22.519801 Si / 1000 Ang^3
#
#
#
# Elastic Constant Matrix: (Units=GPa)
#
#
# Indices 1 2 3 4 5 6 
#
# 1 172.9623 102.2981 73.4001 0.0000 -0.2933 0.0000
# 2 102.2981 159.0719 106.5665 0.0000 10.9545 0.0000
# 3 73.4001 106.5665 203.7358 0.0000 4.4750 0.0000
# 4 0.0000 0.0000 0.0000 221.7337 0.0000 227.9687
# 5 -0.2933 10.9545 4.4750 0.0000 26.8151 0.0000
# 6 0.0000 0.0000 0.0000 227.9687 0.0000 708.7384
#
#
#
# Elastic Compliance Matrix: (Units=1/GPa)
#
#
# Indices 1 2 3 4 5 6 
#
# 1 0.009525 -0.006112 -0.000293 0.000000 0.002650 0.000000
# 2 -0.006112 0.013867 -0.004943 0.000000 -0.004907 0.000000
# 3 -0.000293 -0.004943 0.007583 0.000000 0.000751 0.000000
# 4 0.000000 0.000000 0.000000 0.006738 0.000000 -0.002167
# 5 0.002650 -0.004907 0.000751 0.000000 0.039201 0.000000
# 6 0.000000 0.000000 0.000000 -0.002167 0.000000 0.002108
#
#
# Mechanical properties :
#
#
# Convention : Reuss Voigt Hill
#
# Bulk Modulus (GPa) = 120.79543 122.25547 121.52545
# Shear Modulus (GPa) = 47.85705 208.35779 128.10742
#
# Velocity S-wave (km/s) = 4.61489 9.62927 7.55050
# Velocity P-wave (km/s) = 9.06380 13.34303 11.40589
#
# Compressibility (1/GPa) = 0.00827846
#
# Stress axis : x y z
#
# Youngs Moduli (GPa) = 104.98383 72.11604 131.87242
#
# Poissons Ratio (x) = 0.44076 0.03864
# Poissons Ratio (y) = 0.64164 0.65190
# Poissons Ratio (z) = 0.03076 0.35650
#
# Static dielectric constant tensor:
#      x y z
#    x 1.646000 0.000000 0.027400 
#    y 0.000000 1.618210 0.000000 
#    z 0.027400 0.000000 1.928310 
# 
# From -- ./inp_files/3617.got.cif
#   From: 2010.05.17/outbox.cif.g08.bks.cpg/sg12_2_cif.got.tgz:3617.got - 2010.06.03 13:09:07.
