data_PCOD9216355
_publ_section_title
;
Structure prediction by ZEFSAII (Michael W. Deem and Ramdas Pophale) SiO2 
 PCOD9216355
Probable space group: C 2/M
;
_chemical_formula_sum "Si O2"
_cell_formula_units_Z 64
_cell_length_a 19.878836
_cell_length_b 8.781957
_cell_length_c 30.494178
_cell_angle_alpha 90.000000
_cell_angle_beta 37.952498
_cell_angle_gamma 90.000000
_cell_volume 3274.009373
_symmetry_space_group_name_H-M "C 2/M"
_symmetry_group_IT_number 12
_symmetry_cell_setting 'monoclinic'
loop_
_space_group_symop_operation_xyz
x,y,z
-x,y,-z
-x,-y,-z
x,-y,z
1/2+x,1/2+y,z
1/2-x,1/2+y,-z
1/2-x,1/2-y,-z
1/2+x,1/2-y,z
loop_
_atom_site_type_symbol
_atom_site_label
_atom_site_fract_x
_atom_site_fract_y
_atom_site_fract_z
Si Si1 0.671202 0.818948 0.003414
Si Si2 0.271227 0.680391 0.281431
Si Si3 0.866220 0.679772 0.319198
Si Si4 0.026329 0.682000 0.378519
Si Si5 0.695734 0.681938 0.484100
Si Si6 0.790319 0.817161 0.112240
Si Si7 0.563116 0.681314 0.883007
Si Si8 0.933518 0.819359 0.736981
O O1 0.701327 0.755220 0.939891
O O2 0.681062 0.000000 0.998873
O O3 0.750000 0.750000 0.000000
O O4 0.545661 0.768583 0.074847
O O5 0.279724 0.500000 0.287314
O O6 0.321423 0.776352 0.294869
O O7 0.144103 0.716091 0.338907
O O8 0.340200 0.706345 0.201695
O O9 0.890520 0.500000 0.309779
O O10 0.773524 0.716236 0.403002
O O11 0.974338 0.773488 0.275396
O O12 0.015957 0.500000 0.379036
O O13 0.025738 0.757058 0.330779
O O14 0.924441 0.746572 0.457862
O O15 0.687580 0.500000 0.492677
O O16 0.750000 0.750000 0.500000
O O17 0.890479 0.774836 0.093063
O O18 0.679415 0.761429 0.192249
O O19 0.789557 0.000000 0.109100
O O20 0.539043 0.500000 0.896342
O O21 0.918755 0.000000 0.742807
#
# Coordination Sequence:
#
# PCOD9216355 Si02
#       8
#     8   8   8   8   8   8   8   8
#     4  12  27  45  66  98 135 172 216 263 315 375
#     4  10  23  43  66  94 129 169 214 263 320 383
#     4  11  25  42  62  91 130 170 214 267 325 384
#     4  11  22  41  66  94 128 167 214 267 320 381
#     4  11  23  39  62  91 125 169 216 269 324 383
#     4  11  23  44  71  97 130 171 213 261 320 379
#     4  10  22  44  70  95 129 171 213 260 317 381
#     4  12  24  39  65  97 129 167 215 267 318 381
#
# _framework density 19.547896000000001
#
# number of rings (size 3 to 8) (size 9 to 14) (size 15 to 20)
#    0.000    1.000    2.500    4.125    1.750    6.000 
#    0.000    2.500    0.000    0.000    0.000    0.000 
#    0.000    0.000    0.000    0.000    0.000    0.000 
#
# Total GULP energy -179048.750791 kJ/mol
# GULP energy per Si atom -5595.273462 kJ/mol
# Density = 1.950340 g / cm^3
# Si number density = 19.547896 Si / 1000 Ang^3
#
#
#
# Elastic Constant Matrix: (Units=GPa)
#
#
# Indices 1 2 3 4 5 6 
#
# 1 127.4486 60.6286 32.5553 0.0000 -9.5611 -0.0011
# 2 60.6286 82.3488 35.6757 -0.0002 -9.5611 -0.0013
# 3 32.5553 35.6757 68.7882 0.0001 -19.6502 -0.0001
# 4 0.0000 -0.0002 0.0001 38.5679 0.0001 -1.2122
# 5 -9.5611 -9.5611 -19.6502 0.0001 35.4165 0.0000
# 6 -0.0011 -0.0013 -0.0001 -1.2122 0.0000 33.7504
#
#
#
# Elastic Compliance Matrix: (Units=1/GPa)
#
#
# Indices 1 2 3 4 5 6 
#
# 1 0.012187 -0.008353 -0.001355 0.000000 0.000283 0.000000
# 2 -0.008353 0.021391 -0.007291 0.000000 -0.000525 0.000001
# 3 -0.001355 -0.007291 0.021739 0.000000 0.009727 0.000000
# 4 0.000000 0.000000 0.000000 0.025958 0.000000 0.000932
# 5 0.000283 -0.000525 0.009727 0.000000 0.033567 0.000000
# 6 0.000000 0.000001 0.000000 0.000932 0.000000 0.029663
#
#
# Mechanical properties :
#
#
# Convention : Reuss Voigt Hill
#
# Bulk Modulus (GPa) = 46.90558 59.58942 53.24750
# Shear Modulus (GPa) = 26.93859 31.52870 29.23364
#
# Velocity S-wave (km/s) = 3.71628 4.02044 3.87135
# Velocity P-wave (km/s) = 6.51626 7.21817 6.87617
#
# Compressibility (1/GPa) = 0.02131943
#
# Stress axis : x y z
#
# Youngs Moduli (GPa) = 82.05352 46.74911 46.00130
#
# Poissons Ratio (x) = 0.39049 0.06232
# Poissons Ratio (y) = 0.68538 0.33539
# Poissons Ratio (z) = 0.11117 0.34084
#
# Static dielectric constant tensor:
#      x y z
#    x 1.660280 0.000000 -0.008670 
#    y 0.000000 1.653260 0.000000 
#    z -0.008670 0.000000 1.681340 
# 
# From -- ./inp_files/378086.got.cif
#   From: 2010.05.17/outbox.cif.g08.bks.cpg/sg12_190_cif.got.tgz:378086.got - 2010.06.03 13:09:07.
