data_PCOD9216812
_publ_section_title
;
Structure prediction by ZEFSAII (Michael W. Deem and Ramdas Pophale) SiO2 
 PCOD9216812
Probable space group: C 2/M
;
_chemical_formula_sum "Si O2"
_cell_formula_units_Z 24
_cell_length_a 10.451415
_cell_length_b 8.197735
_cell_length_c 22.982111
_cell_angle_alpha 90.000000
_cell_angle_beta 30.750878
_cell_angle_gamma 90.000000
_cell_volume 1006.792547
_symmetry_space_group_name_H-M "C 2/M"
_symmetry_group_IT_number 12
_symmetry_cell_setting 'monoclinic'
loop_
_space_group_symop_operation_xyz
x,y,z
-x,y,-z
-x,-y,-z
x,-y,z
1/2+x,1/2+y,z
1/2-x,1/2+y,-z
1/2-x,1/2-y,-z
1/2+x,1/2-y,z
loop_
_atom_site_type_symbol
_atom_site_label
_atom_site_fract_x
_atom_site_fract_y
_atom_site_fract_z
Si Si1 0.727677 0.821851 0.234361
Si Si2 0.492364 0.695410 0.570402
Si Si3 0.702921 0.500000 0.046094
Si Si4 0.276634 0.500000 0.822423
O O1 0.710997 0.781828 0.309001
O O2 0.616490 0.667326 0.245081
O O3 0.603267 0.000000 0.272439
O O4 0.014999 0.852484 0.102911
O O5 0.500000 0.742707 0.500000
O O6 0.463102 0.500000 0.585554
O O7 0.750000 0.750000 0.500000
O O8 0.717610 0.500000 0.110530
O O9 0.985021 0.500000 0.914751
#
# Coordination Sequence:
#
# PCOD9216812 Si02
#       4
#     8   8   4   4
#     4  10  23  40  64  95 124 167 212 262 324 383
#     4  11  25  43  66  95 131 173 218 271 327 389
#     4   9  24  40  65  96 122 174 214 257 330 385
#     4  11  20  46  63  89 138 161 212 275 312 383
#
# _framework density 23.838079
#
# number of rings (size 3 to 8) (size 9 to 14) (size 15 to 20)
#    1.000    0.667    1.667    2.000    4.667    2.667 
#    3.000    1.667    0.000    0.000    0.000    0.000 
#    0.000    0.000    0.000    0.000    0.000    0.000 
#
# Total GULP energy -66994.157550 kJ/mol
# GULP energy per Si atom -5582.846463 kJ/mol
# Density = 2.378382 g / cm^3
# Si number density = 23.838079 Si / 1000 Ang^3
#
#
#
# Elastic Constant Matrix: (Units=GPa)
#
#
# Indices 1 2 3 4 5 6 
#
# 1 84.3847 30.1299 -8.7167 0.0001 2.1004 -0.0001
# 2 30.1299 183.8067 9.1622 0.0001 21.8818 0.0000
# 3 -8.7167 9.1622 53.3585 -0.0002 -7.2354 0.0002
# 4 0.0001 0.0001 -0.0002 30.6537 0.0002 7.3498
# 5 2.1004 21.8818 -7.2354 0.0002 35.7163 -0.0001
# 6 -0.0001 0.0000 0.0002 7.3498 -0.0001 8.0088
#
#
#
# Elastic Compliance Matrix: (Units=1/GPa)
#
#
# Indices 1 2 3 4 5 6 
#
# 1 0.012958 -0.002409 0.002702 0.000000 0.001261 0.000000
# 2 -0.002409 0.006442 -0.002072 0.000000 -0.004225 0.000000
# 3 0.002702 -0.002072 0.020245 0.000000 0.005212 -0.000001
# 4 0.000000 0.000000 0.000000 0.041826 0.000000 -0.038384
# 5 0.001261 -0.004225 0.005212 0.000000 0.031568 0.000001
# 6 0.000000 0.000000 -0.000001 -0.038384 0.000001 0.160087
#
#
# Mechanical properties :
#
#
# Convention : Reuss Voigt Hill
#
# Bulk Modulus (GPa) = 27.71221 42.52232 35.11727
# Shear Modulus (GPa) = 17.31813 34.27405 25.79609
#
# Velocity S-wave (km/s) = 2.69827 3.79593 3.29316
# Velocity P-wave (km/s) = 4.62147 6.09006 5.40587
#
# Compressibility (1/GPa) = 0.03608517
#
# Stress axis : x y z
#
# Youngs Moduli (GPa) = 77.17077 155.24047 49.39466
#
# Poissons Ratio (x) = 0.37396 -0.13344
# Poissons Ratio (y) = 0.18590 0.10237
# Poissons Ratio (z) = -0.20848 0.32173
#
# Static dielectric constant tensor:
#      x y z
#    x 1.876210 0.000000 -0.063320 
#    y 0.000000 1.950480 0.000000 
#    z -0.063320 0.000000 1.928800 
# 
# From -- ./inp_files/126377.got.cif
#   From: 2010.05.17/outbox.cif.g08.bks.cpg/sg12_64_cif.got.tgz:126377.got - 2010.06.03 13:09:07.
