data_PCOD9216069
_publ_section_title
;
Structure prediction by ZEFSAII (Michael W. Deem and Ramdas Pophale) SiO2 
 PCOD9216069
Probable space group: C 2/M
;
_chemical_formula_sum "Si O2"
_cell_formula_units_Z 32
_cell_length_a 11.135312
_cell_length_b 20.778894
_cell_length_c 8.982258
_cell_angle_alpha 90.000000
_cell_angle_beta 55.244190
_cell_angle_gamma 90.000000
_cell_volume 1707.516975
_symmetry_space_group_name_H-M "C 2/M"
_symmetry_group_IT_number 12
_symmetry_cell_setting 'monoclinic'
loop_
_space_group_symop_operation_xyz
x,y,z
-x,y,-z
-x,-y,-z
x,-y,z
1/2+x,1/2+y,z
1/2-x,1/2+y,-z
1/2-x,1/2-y,-z
1/2+x,1/2-y,z
loop_
_atom_site_type_symbol
_atom_site_label
_atom_site_fract_x
_atom_site_fract_y
_atom_site_fract_z
Si Si1 0.608569 0.894583 0.050136
Si Si2 0.440654 0.375571 0.708530
Si Si3 0.427096 0.249088 0.891364
Si Si4 0.629054 0.000000 0.291462
Si Si5 0.562521 0.500000 0.790689
O O1 0.540836 0.826462 0.153043
O O2 0.628570 0.939926 0.177966
O O3 0.500000 0.920900 0.000000
O O4 0.765850 0.883148 0.859590
O O5 0.500000 0.379352 0.500000
O O6 0.481628 0.305354 0.744706
O O7 0.510418 0.435623 0.745971
O O8 0.500000 0.264533 0.000000
O O9 0.250000 0.250000 0.000000
O O10 0.500000 0.000000 0.500000
O O11 0.767133 0.000000 0.301404
O O12 0.500000 0.500000 0.000000
#
# Coordination Sequence:
#
# PCOD9216069 Si02
#       5
#     8   8   8   4   4
#     4  10  22  43  62  90 129 166 202 255 320 373
#     4  11  23  39  66  95 124 164 211 261 310 373
#     4   9  20  39  64  90 126 166 205 256 314 370
#     4  12  27  40  64  92 125 168 208 259 314 378
#     4  12  23  42  64  92 125 166 212 260 312 370
#
# _framework density 18.740663000000001
#
# number of rings (size 3 to 8) (size 9 to 14) (size 15 to 20)
#    0.000    1.500    2.500    1.500    7.000    1.000 
#    0.000   11.250    0.000    0.000    0.000    0.000 
#    0.000    0.000    0.000    0.000    0.000    0.000 
#
# Total GULP energy -89178.112926 kJ/mol
# GULP energy per Si atom -5573.632058 kJ/mol
# Density = 1.869801 g / cm^3
# Si number density = 18.740663 Si / 1000 Ang^3
#
#
#
# Elastic Constant Matrix: (Units=GPa)
#
#
# Indices 1 2 3 4 5 6 
#
# 1 130.5680 48.8381 46.3669 0.0000 3.2749 0.0000
# 2 48.8381 143.9941 69.2043 0.0000 23.8798 0.0000
# 3 46.3669 69.2043 145.1258 0.0000 12.5984 0.0000
# 4 0.0000 0.0000 0.0000 -8.6381 0.0000 -1.3658
# 5 3.2749 23.8798 12.5984 0.0000 33.3177 0.0000
# 6 0.0000 0.0000 0.0000 -1.3658 0.0000 165.6339
#
#
#
# Elastic Compliance Matrix: (Units=1/GPa)
#
#
# Indices 1 2 3 4 5 6 
#
# 1 0.009221 -0.002476 -0.001903 0.000000 0.001588 0.000000
# 2 -0.002476 0.010558 -0.003730 0.000000 -0.005913 0.000000
# 3 -0.001903 -0.003730 0.009335 0.000000 -0.000669 0.000000
# 4 0.000000 0.000000 0.000000 -0.115615 0.000000 -0.000953
# 5 0.001588 -0.005913 -0.000669 0.000000 0.034349 0.000000
# 6 0.000000 0.000000 0.000000 -0.000953 0.000000 0.006030
#
#
# Mechanical properties :
#
#
# Convention : Reuss Voigt Hill
#
# Bulk Modulus (GPa) = 77.54639 83.16741 80.35690
# Shear Modulus (GPa) = -195.28114 55.08126 -70.09994
#
# Velocity S-wave (km/s) = -10.21900 5.42726 -6.12262
# Velocity P-wave (km/s) = 9.88781 9.15139 2.64774
#
# Compressibility (1/GPa) = 0.01289551
#
# Stress axis : x y z
#
# Youngs Moduli (GPa) = 108.44751 94.71516 107.11803
#
# Poissons Ratio (x) = 0.23453 0.20386
# Poissons Ratio (y) = 0.26853 0.39957
# Poissons Ratio (z) = 0.20639 0.35331
#
# Static dielectric constant tensor:
#      x y z
#    x 1.520640 0.000000 0.053150 
#    y 0.000000 1.675490 0.000000 
#    z 0.053150 0.000000 1.573120 
# 
# From -- ./inp_files/48125.got.cif
#   From: 2010.05.17/outbox.cif.g08.bks.cpg/sg12_25_cif.got.tgz:48125.got - 2010.06.03 13:09:07.
