data_PCOD9216375
_publ_section_title
;
Structure prediction by ZEFSAII (Michael W. Deem and Ramdas Pophale) SiO2 
 PCOD9216375
Probable space group: C 2/M
;
_chemical_formula_sum "Si O2"
_cell_formula_units_Z 24
_cell_length_a 13.908218
_cell_length_b 18.871885
_cell_length_c 5.552998
_cell_angle_alpha 90.000000
_cell_angle_beta 138.684857
_cell_angle_gamma 90.000000
_cell_volume 962.254475
_symmetry_space_group_name_H-M "C 2/M"
_symmetry_group_IT_number 12
_symmetry_cell_setting 'monoclinic'
loop_
_space_group_symop_operation_xyz
x,y,z
-x,y,-z
-x,-y,-z
x,-y,z
1/2+x,1/2+y,z
1/2-x,1/2+y,-z
1/2-x,1/2-y,-z
1/2+x,1/2-y,z
loop_
_atom_site_type_symbol
_atom_site_label
_atom_site_fract_x
_atom_site_fract_y
_atom_site_fract_z
Si Si1 0.706132 0.788183 0.662941
Si Si2 0.448316 0.888554 0.151493
Si Si3 0.167490 0.083053 0.872256
O O1 0.750000 0.750000 0.500000
O O2 0.536242 0.812988 0.325840
O O3 0.750000 0.750000 0.000000
O O4 0.786332 0.864116 0.829814
O O5 0.500000 0.922445 0.500000
O O6 0.500000 0.920813 0.000000
O O7 0.275470 0.893755 0.858010
O O8 0.000000 0.095497 0.500000
O O9 0.186815 0.000000 0.959549
#
# Coordination Sequence:
#
# PCOD9216375 Si02
#       3
#     8   8   8
#     4  11  24  45  72 107 146 191 251 314 377 447
#     4  10  22  44  72 105 143 192 249 306 375 446
#     4  10  24  48  77 114 160 206 256 318 387 460
#
# _framework density 24.941428999999999
#
# number of rings (size 3 to 8) (size 9 to 14) (size 15 to 20)
#    0.000    1.667    0.000    4.000    0.000   13.333 
#    0.000   33.333    0.000   38.000    0.000    0.000 
#    0.000    0.000    0.000    0.000    0.000    0.000 
#
# Total GULP energy -66959.323565 kJ/mol
# GULP energy per Si atom -5579.943630 kJ/mol
# Density = 2.488466 g / cm^3
# Si number density = 24.941429 Si / 1000 Ang^3
#
#
#
# Elastic Constant Matrix: (Units=GPa)
#
#
# Indices 1 2 3 4 5 6 
#
# 1 243.2017 94.8833 122.3940 0.0000 -5.8437 0.0000
# 2 94.8833 152.3266 71.8263 0.0000 -5.0889 0.0000
# 3 122.3940 71.8263 147.8928 0.0000 -4.0478 0.0000
# 4 0.0000 0.0000 0.0000 32.6439 0.0000 16.8550
# 5 -5.8437 -5.0889 -4.0478 0.0000 76.7773 0.0000
# 6 0.0000 0.0000 0.0000 16.8550 0.0000 20.0010
#
#
#
# Elastic Compliance Matrix: (Units=1/GPa)
#
#
# Indices 1 2 3 4 5 6 
#
# 1 0.007623 -0.002296 -0.005189 0.000000 0.000154 0.000000
# 2 -0.002296 0.009216 -0.002567 0.000000 0.000301 0.000000
# 3 -0.005189 -0.002567 0.012305 0.000000 0.000084 0.000000
# 4 0.000000 0.000000 0.000000 0.054230 0.000000 -0.045700
# 5 0.000154 0.000301 0.000084 0.000000 0.013061 0.000000
# 6 0.000000 0.000000 0.000000 -0.045700 0.000000 0.088509
#
#
# Mechanical properties :
#
#
# Convention : Reuss Voigt Hill
#
# Bulk Modulus (GPa) = 110.63618 124.62539 117.63078
# Shear Modulus (GPa) = 24.03130 42.83894 33.43512
#
# Velocity S-wave (km/s) = 3.10741 4.14887 3.66532
# Velocity P-wave (km/s) = 7.57162 8.54555 8.07329
#
# Compressibility (1/GPa) = 0.00903863
#
# Stress axis : x y z
#
# Youngs Moduli (GPa) = 131.18368 108.51050 81.26644
#
# Poissons Ratio (x) = 0.24917 0.42171
# Poissons Ratio (y) = 0.30123 0.20862
# Poissons Ratio (z) = 0.68073 0.27856
#
# Static dielectric constant tensor:
#      x y z
#    x 2.021420 0.000000 0.060500 
#    y 0.000000 2.050010 0.000000 
#    z 0.060500 0.000000 2.092450 
# 
# From -- ./inp_files/10958.got.cif
#   From: 2010.05.17/outbox.cif.g08.bks.cpg/sg12_6_cif.got.tgz:10958.got - 2010.06.03 13:09:07.
