data_PCOD9216632
_publ_section_title
;
Structure prediction by ZEFSAII (Michael W. Deem and Ramdas Pophale) SiO2 
 PCOD9216632
Probable space group: C 2/M
;
_chemical_formula_sum "Si O2"
_cell_formula_units_Z 40
_cell_length_a 24.707529
_cell_length_b 8.675501
_cell_length_c 8.409452
_cell_angle_alpha 90.000000
_cell_angle_beta 96.654900
_cell_angle_gamma 90.000000
_cell_volume 1790.422276
_symmetry_space_group_name_H-M "C 2/M"
_symmetry_group_IT_number 12
_symmetry_cell_setting 'monoclinic'
loop_
_space_group_symop_operation_xyz
x,y,z
-x,y,-z
-x,-y,-z
x,-y,z
1/2+x,1/2+y,z
1/2-x,1/2+y,-z
1/2-x,1/2-y,-z
1/2+x,1/2-y,z
loop_
_atom_site_type_symbol
_atom_site_label
_atom_site_fract_x
_atom_site_fract_y
_atom_site_fract_z
Si Si1 0.776615 0.316813 0.667629
Si Si2 0.083391 0.184449 0.611893
Si Si3 0.180436 0.317379 0.813823
Si Si4 0.976799 0.182454 0.745485
Si Si5 0.620156 0.185413 0.115423
O O1 0.778166 0.500000 0.653676
O O2 0.750000 0.250000 0.500000
O O3 0.736186 0.269911 0.796900
O O4 0.837116 0.261656 0.733749
O O5 0.138414 0.276815 0.658265
O O6 0.056383 0.207396 0.430691
O O7 0.037765 0.236493 0.725339
O O8 0.092852 0.000000 0.633604
O O9 0.190475 0.500000 0.824903
O O10 0.148391 0.265870 0.960669
O O11 0.940085 0.254889 0.869688
O O12 0.980147 0.000000 0.773736
O O13 0.618586 0.000000 0.115328
#
# Coordination Sequence:
#
# PCOD9216632 Si02
#       5
#     8   8   8   8   8
#     4  11  23  40  61  84 110 144 184 228 275 328
#     4   9  19  37  58  83 112 145 186 231 275 324
#     4  11  23  38  56  82 114 148 184 226 274 327
#     4   9  19  36  59  83 110 145 187 230 274 325
#     4  10  23  39  55  80 115 148 182 225 277 330
#
# _framework density 22.341100000000001
#
# number of rings (size 3 to 8) (size 9 to 14) (size 15 to 20)
#    0.000    2.000    0.000    4.200    0.000    8.800 
#    0.000    6.000    0.000    0.000    0.000    0.000 
#    0.000    0.000    0.000    0.000    0.000    0.000 
#
# Total GULP energy -111830.567146 kJ/mol
# GULP energy per Si atom -5591.528357 kJ/mol
# Density = 2.229025 g / cm^3
# Si number density = 22.341100 Si / 1000 Ang^3
#
#
#
# Elastic Constant Matrix: (Units=GPa)
#
#
# Indices 1 2 3 4 5 6 
#
# 1 99.6651 3.7827 -2.3077 0.0000 -17.0686 0.0000
# 2 3.7827 10.4839 2.4035 0.0000 -0.8726 0.0000
# 3 -2.3077 2.4035 58.2664 0.0000 -15.0665 0.0000
# 4 0.0000 0.0000 0.0000 28.4832 0.0000 -10.1894
# 5 -17.0686 -0.8726 -15.0665 0.0000 39.9733 0.0000
# 6 0.0000 0.0000 0.0000 -10.1894 0.0000 16.3201
#
#
#
# Elastic Compliance Matrix: (Units=1/GPa)
#
#
# Indices 1 2 3 4 5 6 
#
# 1 0.011165 -0.004038 0.002015 0.000000 0.005439 0.000000
# 2 -0.004038 0.097772 -0.004528 0.000000 -0.001296 0.000000
# 3 0.002015 -0.004528 0.019529 0.000000 0.008123 0.000000
# 4 0.000000 0.000000 0.000000 0.045205 0.000000 0.028223
# 5 0.005439 -0.001296 0.008123 0.000000 0.030372 0.000000
# 6 0.000000 0.000000 0.000000 0.028223 0.000000 0.078895
#
#
# Mechanical properties :
#
#
# Convention : Reuss Voigt Hill
#
# Bulk Modulus (GPa) = 8.66819 19.57470 14.12144
# Shear Modulus (GPa) = 14.94791 27.92444 21.43617
#
# Velocity S-wave (km/s) = 2.58946 3.53925 3.10093
# Velocity P-wave (km/s) = 3.58172 5.04802 4.37671
#
# Compressibility (1/GPa) = 0.11536439
#
# Stress axis : x y z
#
# Youngs Moduli (GPa) = 89.56585 10.22792 51.20468
#
# Poissons Ratio (x) = 0.04130 -0.10318
# Poissons Ratio (y) = 0.36164 0.23186
# Poissons Ratio (z) = -0.18049 0.04631
#
# Static dielectric constant tensor:
#      x y z
#    x 1.820300 0.000000 -0.006420 
#    y 0.000000 1.746030 0.000000 
#    z -0.006420 0.000000 1.899630 
# 
# From -- ./inp_files/92773.got.cif
#   From: 2010.05.17/outbox.cif.g08.bks.cpg/sg12_47_cif.got.tgz:92773.got - 2010.06.03 13:09:07.
