data_PCOD9216851
_publ_section_title
;
Structure prediction by ZEFSAII (Michael W. Deem and Ramdas Pophale) SiO2 
 PCOD9216851
Probable space group: C 2/M
;
_chemical_formula_sum "Si O2"
_cell_formula_units_Z 52
_cell_length_a 15.580423
_cell_length_b 8.646710
_cell_length_c 32.006524
_cell_angle_alpha 90.000000
_cell_angle_beta 36.037566
_cell_angle_gamma 90.000000
_cell_volume 2536.757672
_symmetry_space_group_name_H-M "C 2/M"
_symmetry_group_IT_number 12
_symmetry_cell_setting 'monoclinic'
loop_
_space_group_symop_operation_xyz
x,y,z
-x,y,-z
-x,-y,-z
x,-y,z
1/2+x,1/2+y,z
1/2-x,1/2+y,-z
1/2-x,1/2-y,-z
1/2+x,1/2-y,z
loop_
_atom_site_type_symbol
_atom_site_label
_atom_site_fract_x
_atom_site_fract_y
_atom_site_fract_z
Si Si1 0.881655 0.322424 0.802741
Si Si2 0.834824 0.816972 0.580372
Si Si3 0.003350 0.500000 0.095736
Si Si4 0.043963 0.243441 0.823915
Si Si5 0.449614 0.683555 0.341146
Si Si6 0.354428 0.176370 0.664893
Si Si7 0.806336 0.000000 0.941901
Si Si8 0.287989 0.000000 0.114033
O O1 0.820486 0.500000 0.823936
O O2 0.976381 0.315038 0.808156
O O3 0.977799 0.286498 0.724145
O O4 0.784465 0.165221 0.844110
O O5 0.720452 0.727363 0.595923
O O6 0.826942 0.753266 0.630742
O O7 0.000000 0.796030 0.500000
O O8 0.800824 0.000000 0.593348
O O9 0.931165 0.361807 0.149201
O O10 0.944927 0.500000 0.072398
O O11 0.180079 0.500000 0.026395
O O12 0.197946 0.172720 0.750063
O O13 0.918097 0.140433 0.894438
O O14 0.469013 0.500000 0.325595
O O15 0.530162 0.730290 0.352266
O O16 0.404864 0.000000 0.639632
O O17 0.725072 0.000000 0.929969
#
# Coordination Sequence:
#
# PCOD9216851 Si02
#       8
#     8   8   4   8   8   8   4   4
#     4  11  21  40  64  96 133 176 225 285 344 400
#     4  11  26  47  71 102 142 182 224 282 346 412
#     4  12  23  40  64  97 131 171 229 283 347 407
#     4  11  23  39  66  96 127 176 227 279 339 405
#     4  12  25  41  68 102 139 180 234 284 341 407
#     4  12  25  43  70 103 135 179 233 286 343 410
#     4  10  23  44  64  89 134 180 219 282 348 415
#     4  10  23  40  66  94 130 175 229 283 348 410
#
# _framework density 20.498608000000001
#
# number of rings (size 3 to 8) (size 9 to 14) (size 15 to 20)
#    0.000    0.769    3.846    3.923    2.154    1.846 
#    1.385    0.000    0.000    1.846    0.000    0.000 
#    0.000    0.000    0.000    0.000    0.000    0.000 
#
# Total GULP energy -145009.431184 kJ/mol
# GULP energy per Si atom -5577.285815 kJ/mol
# Density = 2.045195 g / cm^3
# Si number density = 20.498608 Si / 1000 Ang^3
#
#
#
# Elastic Constant Matrix: (Units=GPa)
#
#
# Indices 1 2 3 4 5 6 
#
# 1 99.7144 32.8045 7.0061 0.0003 -14.8750 -0.0016
# 2 32.8045 138.9929 28.6221 -0.0009 -9.9209 0.0005
# 3 7.0061 28.6221 63.4290 0.0003 -12.4164 -0.0003
# 4 0.0003 -0.0009 0.0003 12.4886 0.0001 -12.6582
# 5 -14.8750 -9.9209 -12.4164 0.0001 21.5668 -0.0002
# 6 -0.0016 0.0005 -0.0003 -12.6582 -0.0002 -0.4717
#
#
#
# Elastic Compliance Matrix: (Units=1/GPa)
#
#
# Indices 1 2 3 4 5 6 
#
# 1 0.011939 -0.002538 0.001364 -0.000002 0.007852 -0.000001
# 2 -0.002538 0.008533 -0.003544 0.000001 0.000134 0.000000
# 3 0.001364 -0.003544 0.019248 -0.000001 0.010392 0.000000
# 4 -0.000002 0.000001 -0.000001 0.002839 -0.000002 -0.076199
# 5 0.007852 0.000134 0.010392 -0.000002 0.057828 -0.000001
# 6 -0.000001 0.000000 0.000000 -0.076199 -0.000001 -0.075178
#
#
# Mechanical properties :
#
#
# Convention : Reuss Voigt Hill
#
# Bulk Modulus (GPa) = 33.02073 48.77797 40.89935
# Shear Modulus (GPa) = 111.75333 22.29698 67.02515
#
# Velocity S-wave (km/s) = 7.39161 3.30166 5.72437
# Velocity P-wave (km/s) = 9.43353 6.19532 7.98040
#
# Compressibility (1/GPa) = 0.03028400
#
# Stress axis : x y z
#
# Youngs Moduli (GPa) = 83.75763 117.19178 51.95223
#
# Poissons Ratio (x) = 0.29746 -0.07085
# Poissons Ratio (y) = 0.21259 0.18411
# Poissons Ratio (z) = -0.11422 0.41531
#
# Static dielectric constant tensor:
#      x y z
#    x 1.710890 0.000000 -0.032400 
#    y 0.000000 1.647680 0.000000 
#    z -0.032400 0.000000 1.707810 
# 
# From -- ./inp_files/375356.got.cif
#   From: 2010.05.17/outbox.cif.g08.bks.cpg/sg12_188_cif.got.tgz:375356.got - 2010.06.03 13:09:07.
