data_PCOD9216317
_publ_section_title
;
Structure prediction by ZEFSAII (Michael W. Deem and Ramdas Pophale) SiO2 
 PCOD9216317
Probable space group: C 2/M
;
_chemical_formula_sum "Si O2"
_cell_formula_units_Z 58
_cell_length_a 24.461444
_cell_length_b 22.914004
_cell_length_c 8.437942
_cell_angle_alpha 90.000000
_cell_angle_beta 144.605936
_cell_angle_gamma 90.000000
_cell_volume 2739.338521
_symmetry_space_group_name_H-M "C 2/M"
_symmetry_group_IT_number 12
_symmetry_cell_setting 'monoclinic'
loop_
_space_group_symop_operation_xyz
x,y,z
-x,y,-z
-x,-y,-z
x,-y,z
1/2+x,1/2+y,z
1/2-x,1/2+y,-z
1/2-x,1/2-y,-z
1/2+x,1/2-y,z
loop_
_atom_site_type_symbol
_atom_site_label
_atom_site_fract_x
_atom_site_fract_y
_atom_site_fract_z
Si Si1 0.172663 0.562560 0.066586
Si Si2 0.954964 0.067414 0.218471
Si Si3 0.118188 0.743484 0.018362
Si Si4 0.606368 0.133094 0.210498
Si Si5 0.000000 0.500000 0.500000
Si Si6 0.744675 0.674370 0.870944
Si Si7 0.276484 0.350404 0.818245
Si Si8 0.959094 0.180645 0.727835
O O1 0.220810 0.500000 0.200064
O O2 0.148686 0.590263 0.178728
O O3 0.236309 0.606785 0.120987
O O4 0.074942 0.549610 0.744078
O O5 0.000000 0.067618 0.500000
O O6 0.015853 0.114161 0.261966
O O7 0.952689 0.000000 0.157141
O O8 0.851045 0.096811 0.984161
O O9 0.018030 0.775001 0.755746
O O10 0.108295 0.697216 0.135970
O O11 0.164754 0.707992 0.983798
O O12 0.186136 0.798978 0.208821
O O13 0.673236 0.131377 0.520228
O O14 0.500000 0.117079 0.000000
O O15 0.651076 0.692563 0.554553
O O16 0.726700 0.677239 0.014720
O O17 0.000000 0.189839 0.000000
#
# Coordination Sequence:
#
# PCOD9216317 Si02
#       8
#     8   8   8   8   2   8   8   8
#     4   9  23  43  69  94 134 172 221 277 330 389
#     4  10  22  44  67  96 135 173 220 275 335 398
#     4  10  25  44  64  94 138 175 216 281 331 396
#     4  11  25  42  66  99 132 176 225 272 340 395
#     4   8  20  48  70  88 134 178 216 284 326 384
#     4  11  24  44  68 102 128 179 232 265 341 400
#     4  11  24  42  66  97 136 173 225 277 328 406
#     4  11  25  42  70  98 135 176 223 278 333 407
#
# _framework density 21.172996000000001
#
# number of rings (size 3 to 8) (size 9 to 14) (size 15 to 20)
#    0.414    1.241    1.379    1.241   13.517    2.207 
#    2.483    0.000    0.000    0.000    0.000    0.000 
#    0.000    0.000    0.000    0.000    0.000    0.000 
#
# Total GULP energy -161716.995651 kJ/mol
# GULP energy per Si atom -5576.448126 kJ/mol
# Density = 2.112481 g / cm^3
# Si number density = 21.172996 Si / 1000 Ang^3
#
#
#
# Elastic Constant Matrix: (Units=GPa)
#
#
# Indices 1 2 3 4 5 6 
#
# 1 53.3993 13.2786 2.8307 0.0000 -4.9766 0.0000
# 2 13.2786 121.2743 2.7196 0.0000 2.0510 0.0000
# 3 2.8307 2.7196 74.8572 0.0000 -3.3343 0.0000
# 4 0.0000 0.0000 0.0000 8.0863 0.0000 2.6449
# 5 -4.9766 2.0510 -3.3343 0.0000 17.7051 0.0000
# 6 0.0000 0.0000 0.0000 2.6449 0.0000 19.6510
#
#
#
# Elastic Compliance Matrix: (Units=1/GPa)
#
#
# Indices 1 2 3 4 5 6 
#
# 1 0.019848 -0.002261 -0.000412 0.000000 0.005763 0.000000
# 2 -0.002261 0.008528 -0.000299 0.000000 -0.001680 0.000000
# 3 -0.000412 -0.000299 0.013495 0.000000 0.002460 0.000000
# 4 0.000000 0.000000 0.000000 0.129361 0.000000 -0.017411
# 5 0.005763 -0.001680 0.002460 0.000000 0.058759 0.000000
# 6 0.000000 0.000000 0.000000 -0.017411 0.000000 0.053231
#
#
# Mechanical properties :
#
#
# Convention : Reuss Voigt Hill
#
# Bulk Modulus (GPa) = 27.83433 31.90985 29.87209
# Shear Modulus (GPa) = 16.60341 24.46860 20.53600
#
# Velocity S-wave (km/s) = 2.80336 3.40317 3.11772
# Velocity P-wave (km/s) = 4.86344 5.52683 5.20572
#
# Compressibility (1/GPa) = 0.03592686
#
# Stress axis : x y z
#
# Youngs Moduli (GPa) = 50.38257 117.25393 74.10264
#
# Poissons Ratio (x) = 0.26516 0.03051
# Poissons Ratio (y) = 0.11394 0.02217
# Poissons Ratio (z) = 0.02074 0.03508
#
# Static dielectric constant tensor:
#      x y z
#    x 1.775450 0.000000 -0.001880 
#    y 0.000000 1.778480 0.000000 
#    z -0.001880 0.000000 1.742540 
# 
# From -- ./inp_files/106916.got.cif
#   From: 2010.05.17/outbox.cif.g08.bks.cpg/sg12_54_cif.got.tgz:106916.got - 2010.06.03 13:09:07.
