data_PCOD9216591
_publ_section_title
;
Structure prediction by ZEFSAII (Michael W. Deem and Ramdas Pophale) SiO2 
 PCOD9216591
Probable space group: C 2/M
;
_chemical_formula_sum "Si O2"
_cell_formula_units_Z 48
_cell_length_a 14.148162
_cell_length_b 18.996466
_cell_length_c 17.323481
_cell_angle_alpha 90.000000
_cell_angle_beta 148.459874
_cell_angle_gamma 90.000000
_cell_volume 2435.505093
_symmetry_space_group_name_H-M "C 2/M"
_symmetry_group_IT_number 12
_symmetry_cell_setting 'monoclinic'
loop_
_space_group_symop_operation_xyz
x,y,z
-x,y,-z
-x,-y,-z
x,-y,z
1/2+x,1/2+y,z
1/2-x,1/2+y,-z
1/2-x,1/2-y,-z
1/2+x,1/2-y,z
loop_
_atom_site_type_symbol
_atom_site_label
_atom_site_fract_x
_atom_site_fract_y
_atom_site_fract_z
Si Si1 0.712869 0.711051 0.164372
Si Si2 0.454066 0.580417 0.670496
Si Si3 0.896118 0.303709 0.136764
Si Si4 0.510485 0.301618 0.418542
Si Si5 0.714304 0.691709 0.344578
Si Si6 0.112632 0.418972 0.000754
O O1 0.812821 0.673953 0.161648
O O2 0.734347 0.683536 0.266634
O O3 0.818157 0.785187 0.245471
O O4 0.500000 0.717158 0.000000
O O5 0.400395 0.500000 0.620292
O O6 0.403741 0.634356 0.567332
O O7 0.355952 0.617980 0.673284
O O8 0.670875 0.581714 0.833890
O O9 0.926626 0.365922 0.096947
O O10 0.070406 0.253732 0.263186
O O11 0.750000 0.250000 0.000000
O O12 0.500000 0.322570 0.500000
O O13 0.612706 0.226272 0.493152
O O14 0.064196 0.500000 0.947005
O O15 0.000000 0.401622 0.000000
#
# Coordination Sequence:
#
# PCOD9216591 Si02
#       6
#     8   8   8   8   8   8
#     4  11  21  36  61  94 118 152 200 251 292 345
#     4  11  22  39  60  85 122 165 198 237 305 363
#     4  12  21  33  63  90 117 157 206 242 290 348
#     4  10  23  38  60  90 120 154 197 255 299 347
#     4  11  23  39  60  89 123 154 203 252 294 348
#     4  10  23  39  58  90 129 160 195 246 301 354
#
# _framework density 19.708437
#
# number of rings (size 3 to 8) (size 9 to 14) (size 15 to 20)
#    0.000    1.167    5.000    0.500    7.000    0.333 
#    0.000    1.667    0.000    7.500    0.000    0.000 
#    0.000    0.000    0.000    0.000    0.000    0.000 
#
# Total GULP energy -133886.021365 kJ/mol
# GULP energy per Si atom -5578.584224 kJ/mol
# Density = 1.966358 g / cm^3
# Si number density = 19.708437 Si / 1000 Ang^3
#
#
#
# Elastic Constant Matrix: (Units=GPa)
#
#
# Indices 1 2 3 4 5 6 
#
# 1 164.9737 61.7981 23.1539 -0.0027 -13.8946 -0.0014
# 2 61.7981 103.4230 20.4816 0.0063 -12.0002 0.0008
# 3 23.1539 20.4816 66.8065 0.0138 7.0447 -0.0002
# 4 -0.0027 0.0063 0.0138 17.9955 0.0025 -2.8366
# 5 -13.8946 -12.0002 7.0447 0.0025 27.2168 -0.0028
# 6 -0.0014 0.0008 -0.0002 -2.8366 -0.0028 27.9686
#
#
#
# Elastic Compliance Matrix: (Units=1/GPa)
#
#
# Indices 1 2 3 4 5 6 
#
# 1 0.008111 -0.004162 -0.001828 0.000004 0.002779 0.000001
# 2 -0.004162 0.013300 -0.003114 -0.000004 0.004545 -0.000001
# 3 -0.001828 -0.003114 0.017272 -0.000012 -0.006777 -0.000002
# 4 0.000004 -0.000004 -0.000012 0.056472 -0.000001 0.005727
# 5 0.002779 0.004545 -0.006777 -0.000001 0.041919 0.000004
# 6 0.000001 -0.000001 -0.000002 0.005727 0.000004 0.036335
#
#
# Mechanical properties :
#
#
# Convention : Reuss Voigt Hill
#
# Bulk Modulus (GPa) = 48.84339 60.67452 54.75895
# Shear Modulus (GPa) = 25.19604 29.95417 27.57510
#
# Velocity S-wave (km/s) = 3.57941 3.90277 3.74458
# Velocity P-wave (km/s) = 6.47454 7.15275 6.82207
#
# Compressibility (1/GPa) = 0.02047360
#
# Stress axis : x y z
#
# Youngs Moduli (GPa) = 123.28363 75.18649 57.89829
#
# Poissons Ratio (x) = 0.31295 0.10585
# Poissons Ratio (y) = 0.51314 0.18032
# Poissons Ratio (z) = 0.22539 0.23416
#
# Static dielectric constant tensor:
#      x y z
#    x 1.772250 0.000000 0.042090 
#    y 0.000000 1.667010 0.000000 
#    z 0.042090 0.000000 1.852360 
# 
# From -- ./inp_files/271790.got.cif
#   From: 2010.05.17/outbox.cif.g08.bks.cpg/sg12_136_cif.got.tgz:271790.got - 2010.06.03 13:09:07.
