data_PCOD9216177
_publ_section_title
;
Structure prediction by ZEFSAII (Michael W. Deem and Ramdas Pophale) SiO2 
 PCOD9216177
Probable space group: C 2/M
;
_chemical_formula_sum "Si O2"
_cell_formula_units_Z 40
_cell_length_a 8.524198
_cell_length_b 15.702963
_cell_length_c 12.983996
_cell_angle_alpha 90.000000
_cell_angle_beta 95.060525
_cell_angle_gamma 90.000000
_cell_volume 1731.200440
_symmetry_space_group_name_H-M "C 2/M"
_symmetry_group_IT_number 12
_symmetry_cell_setting 'monoclinic'
loop_
_space_group_symop_operation_xyz
x,y,z
-x,y,-z
-x,-y,-z
x,-y,z
1/2+x,1/2+y,z
1/2-x,1/2+y,-z
1/2-x,1/2-y,-z
1/2+x,1/2-y,z
loop_
_atom_site_type_symbol
_atom_site_label
_atom_site_fract_x
_atom_site_fract_y
_atom_site_fract_z
Si Si1 0.222817 0.293089 0.388297
Si Si2 0.408743 0.830915 0.272807
Si Si3 0.106522 0.280303 0.098648
Si Si4 0.348190 0.403851 0.227577
Si Si5 0.176048 0.090428 0.126063
O O1 0.250000 0.250000 0.500000
O O2 0.259733 0.213848 0.315560
O O3 0.050009 0.334203 0.363333
O O4 0.340732 0.361717 0.341939
O O5 0.487725 0.774000 0.188557
O O6 0.332015 0.907532 0.206086
O O7 0.233654 0.347727 0.147937
O O8 0.332829 0.315229 0.926026
O O9 0.000000 0.313721 0.000000
O O10 0.285019 0.500000 0.231541
O O11 0.519897 0.410049 0.187510
O O12 0.175180 0.000000 0.065702
#
# Coordination Sequence:
#
# PCOD9216177 Si02
#       5
#     8   8   8   8   8
#     4  11  21  39  69  96 127 169 217 270 334 392
#     4  11  21  40  63  95 129 171 213 275 325 389
#     4  11  23  42  68  97 133 184 224 272 335 394
#     4  10  22  43  67  97 138 177 218 275 333 395
#     4  11  22  40  65  96 136 177 220 270 329 389
#
# _framework density 23.105354999999999
#
# number of rings (size 3 to 8) (size 9 to 14) (size 15 to 20)
#    0.000    1.200    6.000    0.600    0.000    7.200 
#    0.000    3.000    0.000    9.600    0.000    0.000 
#    0.000    0.000    0.000    0.000    0.000    0.000 
#
# Total GULP energy -111439.027975 kJ/mol
# GULP energy per Si atom -5571.951399 kJ/mol
# Density = 2.305277 g / cm^3
# Si number density = 23.105355 Si / 1000 Ang^3
#
#
#
# Elastic Constant Matrix: (Units=GPa)
#
#
# Indices 1 2 3 4 5 6 
#
# 1 106.8657 1.6298 22.9434 0.0000 17.3643 0.0000
# 2 1.6298 136.3424 17.9187 0.0000 4.2832 0.0000
# 3 22.9434 17.9187 111.3712 0.0000 9.7374 0.0000
# 4 0.0000 0.0000 0.0000 17.5811 0.0000 -1.4938
# 5 17.3643 4.2832 9.7374 0.0000 28.1873 0.0000
# 6 0.0000 0.0000 0.0000 -1.4938 0.0000 16.9715
#
#
#
# Elastic Compliance Matrix: (Units=1/GPa)
#
#
# Indices 1 2 3 4 5 6 
#
# 1 0.010705 0.000288 -0.001723 0.000000 -0.006043 0.000000
# 2 0.000288 0.007516 -0.001189 0.000000 -0.000909 0.000000
# 3 -0.001723 -0.001189 0.009710 0.000000 -0.002112 0.000000
# 4 0.000000 0.000000 0.000000 0.057308 0.000000 0.005044
# 5 -0.006043 -0.000909 -0.002112 0.000000 0.040067 0.000000
# 6 0.000000 0.000000 0.000000 0.005044 0.000000 0.059366
#
#
# Mechanical properties :
#
#
# Convention : Reuss Voigt Hill
#
# Bulk Modulus (GPa) = 44.08668 48.84033 46.46351
# Shear Modulus (GPa) = 25.31880 33.35380 29.33630
#
# Velocity S-wave (km/s) = 3.31387 3.80353 3.56712
# Velocity P-wave (km/s) = 5.81072 6.36185 6.09252
#
# Compressibility (1/GPa) = 0.02268259
#
# Stress axis : x y z
#
# Youngs Moduli (GPa) = 93.41363 133.05180 102.98665
#
# Poissons Ratio (x) = -0.03837 0.17748
# Poissons Ratio (y) = -0.02694 0.12247
# Poissons Ratio (z) = 0.16099 0.15822
#
# Static dielectric constant tensor:
#      x y z
#    x 1.949530 0.000000 0.033300 
#    y 0.000000 1.915540 0.000000 
#    z 0.033300 0.000000 1.928260 
# 
# From -- ./inp_files/119036.got.cif
#   From: 2010.05.17/outbox.cif.g08.bks.cpg/sg12_60_cif.got.tgz:119036.got - 2010.06.03 13:09:07.
