data_PCOD9216996
_publ_section_title
;
Structure prediction by ZEFSAII (Michael W. Deem and Ramdas Pophale) SiO2 
 PCOD9216996
Probable space group: C 2/M
;
_chemical_formula_sum "Si O2"
_cell_formula_units_Z 56
_cell_length_a 19.160484
_cell_length_b 8.667974
_cell_length_c 25.361136
_cell_angle_alpha 90.000000
_cell_angle_beta 40.065008
_cell_angle_gamma 90.000000
_cell_volume 2711.108122
_symmetry_space_group_name_H-M "C 2/M"
_symmetry_group_IT_number 12
_symmetry_cell_setting 'monoclinic'
loop_
_space_group_symop_operation_xyz
x,y,z
-x,y,-z
-x,-y,-z
x,-y,z
1/2+x,1/2+y,z
1/2-x,1/2+y,-z
1/2-x,1/2-y,-z
1/2+x,1/2-y,z
loop_
_atom_site_type_symbol
_atom_site_label
_atom_site_fract_x
_atom_site_fract_y
_atom_site_fract_z
Si Si1 0.731656 0.812999 0.678843
Si Si2 0.922501 0.815758 0.995939
Si Si3 0.293939 0.180245 0.421186
Si Si4 0.315387 0.681992 0.856793
Si Si5 0.018809 0.315640 0.152142
Si Si6 0.006075 0.820274 0.329423
Si Si7 0.949491 0.683348 0.585856
O O1 0.753553 0.760318 0.605993
O O2 0.607153 0.775623 0.763765
O O3 0.822904 0.729284 0.659657
O O4 0.744040 0.000000 0.675625
O O5 0.797676 0.770968 0.078112
O O6 0.932128 0.000000 0.984310
O O7 0.955644 0.735924 0.922054
O O8 0.000000 0.768509 0.000000
O O9 0.250000 0.250000 0.500000
O O10 0.421150 0.216657 0.347011
O O11 0.274857 0.000000 0.433588
O O12 0.294655 0.500000 0.876531
O O13 0.397003 0.738136 0.855734
O O14 0.378104 0.701710 0.765043
O O15 0.029672 0.500000 0.151149
O O16 0.000554 0.771355 0.393309
O O17 0.976320 0.000000 0.340985
O O18 0.964288 0.500000 0.583658
O O19 0.000000 0.729174 0.500000
#
# Coordination Sequence:
#
# PCOD9216996 Si02
#       7
#     8   8   8   8   8   8   8
#     4  10  23  41  63  92 126 167 210 259 317 374
#     4  11  26  45  67  98 132 168 208 256 314 375
#     4  11  22  39  63  93 128 166 211 261 315 372
#     4  11  24  43  68  97 129 168 212 259 315 377
#     4  11  23  43  69  96 129 168 211 260 316 377
#     4  11  24  41  64  94 127 167 214 263 317 376
#     4  11  25  42  62  90 126 171 217 265 321 380
#
# _framework density 20.655761999999999
#
# number of rings (size 3 to 8) (size 9 to 14) (size 15 to 20)
#    0.000    1.143    1.429    3.857    2.000    8.571 
#    0.000    0.000    0.000    0.000    0.000    0.000 
#    0.000    0.000    0.000    0.000    0.000    0.000 
#
# Total GULP energy -156571.831709 kJ/mol
# GULP energy per Si atom -5591.851132 kJ/mol
# Density = 2.060875 g / cm^3
# Si number density = 20.655762 Si / 1000 Ang^3
#
#
#
# Elastic Constant Matrix: (Units=GPa)
#
#
# Indices 1 2 3 4 5 6 
#
# 1 76.9111 -2.5574 9.0687 0.0000 0.0666 0.0000
# 2 -2.5574 13.8631 2.9472 -0.0001 4.9106 -0.0001
# 3 9.0687 2.9472 75.4260 0.0000 2.0486 0.0000
# 4 0.0000 -0.0001 0.0000 33.6176 0.0000 -5.3704
# 5 0.0666 4.9106 2.0486 0.0000 37.8552 0.0000
# 6 0.0000 -0.0001 0.0000 -5.3704 0.0000 25.8738
#
#
#
# Elastic Compliance Matrix: (Units=1/GPa)
#
#
# Indices 1 2 3 4 5 6 
#
# 1 0.013301 0.002926 -0.001705 0.000000 -0.000311 0.000000
# 2 0.002926 0.076802 -0.003087 0.000000 -0.009801 0.000000
# 3 -0.001705 -0.003087 0.013593 0.000000 -0.000332 0.000000
# 4 0.000000 0.000000 0.000000 0.030766 0.000000 0.006386
# 5 -0.000311 -0.009801 -0.000332 0.000000 0.027706 0.000000
# 6 0.000000 0.000000 0.000000 0.006386 0.000000 0.039975
#
#
# Mechanical properties :
#
#
# Convention : Reuss Voigt Hill
#
# Bulk Modulus (GPa) = 10.00360 20.56859 15.28609
# Shear Modulus (GPa) = 20.90347 29.91877 25.41112
#
# Velocity S-wave (km/s) = 3.18463 3.80998 3.51125
# Velocity P-wave (km/s) = 4.28673 5.41608 4.88416
#
# Compressibility (1/GPa) = 0.09996405
#
# Stress axis : x y z
#
# Youngs Moduli (GPa) = 75.18432 13.02054 73.56908
#
# Poissons Ratio (x) = -0.03810 0.12544
# Poissons Ratio (y) = -0.22000 0.22708
# Poissons Ratio (z) = 0.12820 0.04019
#
# Static dielectric constant tensor:
#      x y z
#    x 1.766710 0.000000 -0.007680 
#    y 0.000000 1.695100 0.000000 
#    z -0.007680 0.000000 1.757840 
# 
# From -- ./inp_files/362980.got.cif
#   From: 2010.05.17/outbox.cif.g08.bks.cpg/sg12_182_cif.got.tgz:362980.got - 2010.06.03 13:09:07.
