data_PCOD9216673
_publ_section_title
;
Structure prediction by ZEFSAII (Michael W. Deem and Ramdas Pophale) SiO2 
 PCOD9216673
Probable space group: C 2/M
;
_chemical_formula_sum "Si O2"
_cell_formula_units_Z 56
_cell_length_a 17.425714
_cell_length_b 21.741426
_cell_length_c 8.358214
_cell_angle_alpha 90.000000
_cell_angle_beta 56.244566
_cell_angle_gamma 90.000000
_cell_volume 2632.758061
_symmetry_space_group_name_H-M "C 2/M"
_symmetry_group_IT_number 12
_symmetry_cell_setting 'monoclinic'
loop_
_space_group_symop_operation_xyz
x,y,z
-x,y,-z
-x,-y,-z
x,-y,z
1/2+x,1/2+y,z
1/2-x,1/2+y,-z
1/2-x,1/2-y,-z
1/2+x,1/2-y,z
loop_
_atom_site_type_symbol
_atom_site_label
_atom_site_fract_x
_atom_site_fract_y
_atom_site_fract_z
Si Si1 0.054537 0.868777 0.638915
Si Si2 0.370014 0.185076 0.273859
Si Si3 0.570150 0.824543 0.163433
Si Si4 0.765578 0.378007 0.898642
Si Si5 0.122734 0.808264 0.245716
Si Si6 0.942603 0.000000 0.308467
Si Si7 0.299689 0.324278 0.342379
Si Si8 0.347886 0.500000 0.072935
O O1 0.096655 0.821682 0.459783
O O2 0.069466 0.938730 0.573635
O O3 0.107406 0.862562 0.743330
O O4 0.949360 0.849675 0.771616
O O5 0.458798 0.174126 0.284606
O O6 0.336584 0.255597 0.322203
O O7 0.277447 0.152207 0.443103
O O8 0.400373 0.174098 0.057251
O O9 0.625726 0.878741 0.188309
O O10 0.604046 0.760687 0.207372
O O11 0.746794 0.332566 0.772720
O O12 0.712873 0.440865 0.914244
O O13 0.719661 0.339714 0.097428
O O14 0.873393 0.000000 0.234308
O O15 0.049311 0.000000 0.124000
#
# Coordination Sequence:
#
# PCOD9216673 Si02
#       8
#     8   8   8   8   8   4   8   4
#     4  11  23  37  60  89 136 165 210 251 316 379
#     4  10  23  39  62  89 128 168 206 257 325 387
#     4  11  23  41  62  92 131 167 209 259 325 376
#     4  12  24  39  65  89 129 164 217 267 310 376
#     4  11  23  36  57  96 130 168 204 255 320 385
#     4  11  22  42  63  89 133 177 211 261 316 387
#     4  11  22  37  60  93 124 163 212 257 319 382
#     4  11  24  41  64  94 123 173 225 261 317 373
#
# _framework density 21.270471000000001
#
# number of rings (size 3 to 8) (size 9 to 14) (size 15 to 20)
#    0.000    1.000    5.714    1.286    4.000    2.857 
#    0.000    0.000    0.000    4.286    0.000    0.000 
#    0.000    0.000    0.000    0.000    0.000    0.000 
#
# Total GULP energy -156200.664409 kJ/mol
# GULP energy per Si atom -5578.595157 kJ/mol
# Density = 2.122206 g / cm^3
# Si number density = 21.270471 Si / 1000 Ang^3
#
#
#
# Elastic Constant Matrix: (Units=GPa)
#
#
# Indices 1 2 3 4 5 6 
#
# 1 168.6367 34.2862 13.6103 0.0000 -11.3982 0.0000
# 2 34.2862 55.7689 -11.8728 0.0000 2.9028 0.0000
# 3 13.6103 -11.8728 41.4247 0.0000 0.5216 0.0000
# 4 0.0000 0.0000 0.0000 7.7938 0.0000 -3.1818
# 5 -11.3982 2.9028 0.5216 0.0000 26.1958 0.0000
# 6 0.0000 0.0000 0.0000 -3.1818 0.0000 27.9767
#
#
#
# Elastic Compliance Matrix: (Units=1/GPa)
#
#
# Indices 1 2 3 4 5 6 
#
# 1 0.007752 -0.005893 -0.004288 0.000000 0.004111 0.000000
# 2 -0.005893 0.023706 0.008798 0.000000 -0.005366 0.000000
# 3 -0.004288 0.008798 0.028113 0.000000 -0.003400 0.000000
# 4 0.000000 0.000000 0.000000 0.134554 0.000000 0.015303
# 5 0.004111 -0.005366 -0.003400 0.000000 0.040625 0.000000
# 6 0.000000 0.000000 0.000000 0.015303 0.000000 0.037485
#
#
# Mechanical properties :
#
#
# Convention : Reuss Voigt Hill
#
# Bulk Modulus (GPa) = 17.60337 37.54198 27.57267
# Shear Modulus (GPa) = 17.01054 27.71369 22.36211
#
# Velocity S-wave (km/s) = 2.83101 3.61351 3.24593
# Velocity P-wave (km/s) = 4.35661 5.92436 5.19991
#
# Compressibility (1/GPa) = 0.05680732
#
# Stress axis : x y z
#
# Youngs Moduli (GPa) = 129.00103 42.18306 35.57027
#
# Poissons Ratio (x) = 0.24857 0.15251
# Poissons Ratio (y) = 0.76015 -0.31295
# Poissons Ratio (z) = 0.55310 -0.37113
#
# Static dielectric constant tensor:
#      x y z
#    x 1.800320 0.000000 0.005020 
#    y 0.000000 1.772580 0.000000 
#    z 0.005020 0.000000 1.812670 
# 
# From -- ./inp_files/65803.got.cif
#   From: 2010.05.17/outbox.cif.g08.bks.cpg/sg12_33_cif.got.tgz:65803.got - 2010.06.03 13:09:07.
