data_PCOD9216397
_publ_section_title
;
Structure prediction by ZEFSAII (Michael W. Deem and Ramdas Pophale) SiO2 
 PCOD9216397
Probable space group: C 2/M
;
_chemical_formula_sum "Si O2"
_cell_formula_units_Z 40
_cell_length_a 12.777329
_cell_length_b 16.803663
_cell_length_c 8.983453
_cell_angle_alpha 90.000000
_cell_angle_beta 59.056476
_cell_angle_gamma 90.000000
_cell_volume 1654.283224
_symmetry_space_group_name_H-M "C 2/M"
_symmetry_group_IT_number 12
_symmetry_cell_setting 'monoclinic'
loop_
_space_group_symop_operation_xyz
x,y,z
-x,y,-z
-x,-y,-z
x,-y,z
1/2+x,1/2+y,z
1/2-x,1/2+y,-z
1/2-x,1/2-y,-z
1/2+x,1/2-y,z
loop_
_atom_site_type_symbol
_atom_site_label
_atom_site_fract_x
_atom_site_fract_y
_atom_site_fract_z
Si Si1 0.214749 0.092592 0.148490
Si Si2 0.153828 0.692355 0.149816
Si Si3 0.968250 0.095793 0.189807
Si Si4 0.208991 0.669667 0.444214
Si Si5 0.424910 0.133430 0.190621
O O1 0.293580 0.141504 0.209462
O O2 0.076649 0.119962 0.223270
O O3 0.216380 0.000000 0.190389
O O4 0.289148 0.106464 0.940564
O O5 0.151125 0.693516 0.328196
O O6 0.023990 0.700727 0.161415
O O7 0.250000 0.750000 0.000000
O O8 0.835126 0.124201 0.326986
O O9 0.972659 0.000000 0.185886
O O10 0.000000 0.123552 0.000000
O O11 0.250000 0.750000 0.500000
O O12 0.118631 0.614498 0.609970
O O13 0.500000 0.090236 0.000000
#
# Coordination Sequence:
#
# PCOD9216397 Si02
#       5
#     8   8   8   8   8
#     4  10  22  45  76 104 140 190 246 310 378 444
#     4  11  24  44  71  99 146 195 245 306 377 448
#     4  10  22  44  75 107 141 188 250 316 380 447
#     4  12  25  41  69 105 143 195 247 308 376 451
#     4  10  24  44  64  98 142 187 241 294 366 439
#
# _framework density 24.179658
#
# number of rings (size 3 to 8) (size 9 to 14) (size 15 to 20)
#    0.000    1.400    2.000    3.000    2.800    6.000 
#    3.600    2.000    0.000    7.200    0.000    0.000 
#    0.000    0.000    0.000    0.000    0.000    0.000 
#
# Total GULP energy -111456.018584 kJ/mol
# GULP energy per Si atom -5572.800929 kJ/mol
# Density = 2.412462 g / cm^3
# Si number density = 24.179658 Si / 1000 Ang^3
#
#
#
# Elastic Constant Matrix: (Units=GPa)
#
#
# Indices 1 2 3 4 5 6 
#
# 1 206.0632 48.0485 58.1561 0.0000 15.6355 0.0000
# 2 48.0485 42.9699 21.3895 0.0000 3.7754 0.0000
# 3 58.1561 21.3895 165.0487 0.0000 0.5947 0.0000
# 4 0.0000 0.0000 0.0000 11.6143 0.0000 -1.4781
# 5 15.6355 3.7754 0.5947 0.0000 53.8128 0.0000
# 6 0.0000 0.0000 0.0000 -1.4781 0.0000 20.6099
#
#
#
# Elastic Compliance Matrix: (Units=1/GPa)
#
#
# Indices 1 2 3 4 5 6 
#
# 1 0.007033 -0.006946 -0.001572 0.000000 -0.001539 0.000000
# 2 -0.006946 0.031896 -0.001685 0.000000 -0.000201 0.000000
# 3 -0.001572 -0.001685 0.006829 0.000000 0.000500 0.000000
# 4 0.000000 0.000000 0.000000 0.086894 0.000000 0.006232
# 5 -0.001539 -0.000201 0.000500 0.000000 0.019039 0.000000
# 6 0.000000 0.000000 0.000000 0.006232 0.000000 0.048967
#
#
# Mechanical properties :
#
#
# Convention : Reuss Voigt Hill
#
# Bulk Modulus (GPa) = 39.44690 74.36331 56.90511
# Shear Modulus (GPa) = 21.78488 36.30656 29.04572
#
# Velocity S-wave (km/s) = 3.00485 3.87917 3.46966
# Velocity P-wave (km/s) = 5.32807 7.13338 6.29577
#
# Compressibility (1/GPa) = 0.02535053
#
# Stress axis : x y z
#
# Youngs Moduli (GPa) = 142.18384 31.35177 146.42443
#
# Poissons Ratio (x) = 0.21778 0.23024
# Poissons Ratio (y) = 0.98768 0.24676
# Poissons Ratio (z) = 0.22357 0.05283
#
# Static dielectric constant tensor:
#      x y z
#    x 1.940770 0.000000 0.008420 
#    y 0.000000 2.014280 0.000000 
#    z 0.008420 0.000000 1.973040 
# 
# From -- ./inp_files/48504.got.cif
#   From: 2010.05.17/outbox.cif.g08.bks.cpg/sg12_25_cif.got.tgz:48504.got - 2010.06.03 13:09:07.
