data_PCOD9216870
_publ_section_title
;
Structure prediction by ZEFSAII (Michael W. Deem and Ramdas Pophale) SiO2 
 PCOD9216870
Probable space group: C 2/M
;
_chemical_formula_sum "Si O2"
_cell_formula_units_Z 44
_cell_length_a 8.366542
_cell_length_b 26.794594
_cell_length_c 12.312225
_cell_angle_alpha 90.000000
_cell_angle_beta 51.039233
_cell_angle_gamma 90.000000
_cell_volume 2146.213687
_symmetry_space_group_name_H-M "C 2/M"
_symmetry_group_IT_number 12
_symmetry_cell_setting 'monoclinic'
loop_
_space_group_symop_operation_xyz
x,y,z
-x,y,-z
-x,-y,-z
x,-y,z
1/2+x,1/2+y,z
1/2-x,1/2+y,-z
1/2-x,1/2-y,-z
1/2+x,1/2-y,z
loop_
_atom_site_type_symbol
_atom_site_label
_atom_site_fract_x
_atom_site_fract_y
_atom_site_fract_z
Si Si1 0.797689 0.769640 0.154078
Si Si2 0.996785 0.350801 0.293023
Si Si3 0.749720 0.056432 0.110833
Si Si4 0.000000 0.418271 0.000000
Si Si5 0.306409 0.657046 0.762306
Si Si6 0.242592 0.198654 0.575706
O O1 0.622841 0.805881 0.181861
O O2 0.753988 0.711369 0.165618
O O3 0.785495 0.782673 0.287853
O O4 0.000000 0.781604 0.000000
O O5 0.790456 0.354324 0.312764
O O6 0.924227 0.331937 0.439935
O O7 0.139492 0.399530 0.226223
O O8 0.611348 0.056226 0.057414
O O9 0.733039 0.000000 0.162676
O O10 0.000000 0.066541 0.000000
O O11 0.191993 0.383991 0.882028
O O12 0.548322 0.662080 0.647856
O O13 0.250000 0.250000 0.500000
#
# Coordination Sequence:
#
# PCOD9216870 Si02
#       6
#     8   8   8   4   8   8
#     4  12  24  37  59  91 135 178 226 269 324 402
#     4  11  24  39  63  93 129 175 225 269 335 404
#     4  10  23  46  73 100 133 174 231 295 350 403
#     4  10  23  40  68 106 132 174 221 282 354 404
#     4  11  22  36  59  90 135 175 218 268 321 403
#     4  12  24  39  60  88 138 188 220 262 332 405
#
# _framework density 20.50122
#
# number of rings (size 3 to 8) (size 9 to 14) (size 15 to 20)
#    0.000    0.909    4.545    1.909    7.636    1.455 
#    0.000    0.000    0.000   12.000    0.000    0.000 
#    0.000    0.000    0.000    0.000    0.000    0.000 
#
# Total GULP energy -122481.302588 kJ/mol
# GULP energy per Si atom -5567.331936 kJ/mol
# Density = 2.045456 g / cm^3
# Si number density = 20.501220 Si / 1000 Ang^3
#
#
#
# Elastic Constant Matrix: (Units=GPa)
#
#
# Indices 1 2 3 4 5 6 
#
# 1 36.3468 19.1448 21.0790 0.0000 -10.9331 0.0000
# 2 19.1448 116.0019 46.1873 0.0000 -11.4966 0.0000
# 3 21.0790 46.1873 131.7167 0.0000 -14.8263 0.0000
# 4 0.0000 0.0000 0.0000 12.5911 0.0000 -7.1788
# 5 -10.9331 -11.4966 -14.8263 0.0000 40.0480 0.0000
# 6 0.0000 0.0000 0.0000 -7.1788 0.0000 21.0339
#
#
#
# Elastic Compliance Matrix: (Units=1/GPa)
#
#
# Indices 1 2 3 4 5 6 
#
# 1 0.033356 -0.003495 -0.003340 0.000000 0.006866 0.000000
# 2 -0.003495 0.010490 -0.003013 0.000000 0.000942 0.000000
# 3 -0.003340 -0.003013 0.009374 0.000000 0.001694 0.000000
# 4 0.000000 0.000000 0.000000 0.098609 0.000000 0.033655
# 5 0.006866 0.000942 0.001694 0.000000 0.027742 0.000000
# 6 0.000000 0.000000 0.000000 0.033655 0.000000 0.059029
#
#
# Mechanical properties :
#
#
# Convention : Reuss Voigt Hill
#
# Bulk Modulus (GPa) = 29.82880 50.76530 40.29705
# Shear Modulus (GPa) = 18.55493 27.91154 23.23324
#
# Velocity S-wave (km/s) = 3.01169 3.69380 3.37005
# Velocity P-wave (km/s) = 5.16479 6.55805 5.90267
#
# Compressibility (1/GPa) = 0.03352465
#
# Stress axis : x y z
#
# Youngs Moduli (GPa) = 29.97979 95.32508 106.68092
#
# Poissons Ratio (x) = 0.33314 0.35628
# Poissons Ratio (y) = 0.10477 0.32146
# Poissons Ratio (z) = 0.10012 0.28724
#
# Static dielectric constant tensor:
#      x y z
#    x 1.724380 0.000000 0.115770 
#    y 0.000000 1.749850 0.000000 
#    z 0.115770 0.000000 1.703390 
# 
# From -- ./inp_files/124087.got.cif
#   From: 2010.05.17/outbox.cif.g08.bks.cpg/sg12_63_cif.got.tgz:124087.got - 2010.06.03 13:09:07.
