data_PCOD9216887
_publ_section_title
;
Structure prediction by ZEFSAII (Michael W. Deem and Ramdas Pophale) SiO2 
 PCOD9216887
Probable space group: C 2/M
;
_chemical_formula_sum "Si O2"
_cell_formula_units_Z 36
_cell_length_a 24.133656
_cell_length_b 16.143282
_cell_length_c 8.096802
_cell_angle_alpha 90.000000
_cell_angle_beta 29.119905
_cell_angle_gamma 90.000000
_cell_volume 1535.095144
_symmetry_space_group_name_H-M "C 2/M"
_symmetry_group_IT_number 12
_symmetry_cell_setting 'monoclinic'
loop_
_space_group_symop_operation_xyz
x,y,z
-x,y,-z
-x,-y,-z
x,-y,z
1/2+x,1/2+y,z
1/2-x,1/2+y,-z
1/2-x,1/2-y,-z
1/2+x,1/2-y,z
loop_
_atom_site_type_symbol
_atom_site_label
_atom_site_fract_x
_atom_site_fract_y
_atom_site_fract_z
Si Si1 0.431057 0.824862 0.351970
Si Si2 0.489804 0.354210 0.332209
Si Si3 0.825029 0.500000 0.262367
Si Si4 0.744902 0.661825 0.594761
Si Si5 0.373463 0.000000 0.540059
Si Si6 0.821539 0.000000 0.689802
O O1 0.457496 0.741986 0.383376
O O2 0.299032 0.828365 0.635820
O O3 0.445143 0.916839 0.392934
O O4 0.500000 0.817476 0.000000
O O5 0.500000 0.369391 0.500000
O O6 0.400989 0.418472 0.486196
O O7 0.616174 0.370203 0.933047
O O8 0.817854 0.600355 0.294169
O O9 0.852856 0.500000 0.396844
O O10 0.762181 0.500000 0.246095
O O11 0.750000 0.750000 0.500000
O O12 0.256895 0.000000 0.942534
#
# Coordination Sequence:
#
# PCOD9216887 Si02
#       6
#     8   8   4   8   4   4
#     4  11  23  45  71  97 138 188 231 287 348 415
#     4  12  26  43  69 107 142 181 231 295 350 414
#     4  10  23  40  72  96 132 185 225 280 346 404
#     4  11  22  41  66 100 136 176 234 277 341 417
#     4  10  25  48  70 104 142 186 234 290 344 422
#     4  12  26  46  72 106 142 181 235 296 353 411
#
# _framework density 23.451314
#
# number of rings (size 3 to 8) (size 9 to 14) (size 15 to 20)
#    0.000    0.889    2.222    5.333    0.000    6.222 
#    0.000    0.556    0.000    0.000    0.000    0.000 
#    0.000    0.000    0.000    0.000    0.000    0.000 
#
# Total GULP energy -100219.251805 kJ/mol
# GULP energy per Si atom -5567.736211 kJ/mol
# Density = 2.339794 g / cm^3
# Si number density = 23.451314 Si / 1000 Ang^3
#
#
#
# Elastic Constant Matrix: (Units=GPa)
#
#
# Indices 1 2 3 4 5 6 
#
# 1 106.8746 0.4959 11.7417 0.0000 -19.2344 0.0000
# 2 0.4959 137.9435 -0.9689 0.0000 1.8094 0.0000
# 3 11.7417 -0.9689 109.4323 0.0000 -26.5490 0.0000
# 4 0.0000 0.0000 0.0000 17.3148 0.0000 10.7238
# 5 -19.2344 1.8094 -26.5490 0.0000 28.0998 0.0000
# 6 0.0000 0.0000 0.0000 10.7238 0.0000 22.1256
#
#
#
# Elastic Compliance Matrix: (Units=1/GPa)
#
#
# Indices 1 2 3 4 5 6 
#
# 1 0.010730 -0.000139 0.000819 0.000000 0.008128 0.000000
# 2 -0.000139 0.007258 -0.000074 0.000000 -0.000633 0.000000
# 3 0.000819 -0.000074 0.011919 0.000000 0.011827 0.000000
# 4 0.000000 0.000000 0.000000 0.082527 0.000000 -0.039999
# 5 0.008128 -0.000633 0.011827 0.000000 0.052366 0.000000
# 6 0.000000 0.000000 0.000000 -0.039999 0.000000 0.064583
#
#
# Mechanical properties :
#
#
# Convention : Reuss Voigt Hill
#
# Bulk Modulus (GPa) = 32.13606 41.86529 37.00068
# Shear Modulus (GPa) = 20.96050 36.37349 28.66699
#
# Velocity S-wave (km/s) = 2.99287 3.94257 3.50008
# Velocity P-wave (km/s) = 5.06716 6.21417 5.66975
#
# Compressibility (1/GPa) = 0.03111769
#
# Stress axis : x y z
#
# Youngs Moduli (GPa) = 93.19493 137.78609 83.90162
#
# Poissons Ratio (x) = 0.01921 -0.06875
# Poissons Ratio (y) = 0.01299 0.00624
# Poissons Ratio (z) = -0.07636 0.01025
#
# Static dielectric constant tensor:
#      x y z
#    x 1.903790 0.000000 -0.084330 
#    y 0.000000 1.920960 0.000000 
#    z -0.084330 0.000000 1.988880 
# 
# From -- ./inp_files/47274.got.cif
#   From: 2010.05.17/outbox.cif.g08.bks.cpg/sg12_24_cif.got.tgz:47274.got - 2010.06.03 13:09:07.
