data_PCOD9216579
_publ_section_title
;
Structure prediction by ZEFSAII (Michael W. Deem and Ramdas Pophale) SiO2 
 PCOD9216579
Probable space group: C 2/M
;
_chemical_formula_sum "Si O2"
_cell_formula_units_Z 56
_cell_length_a 14.903700
_cell_length_b 29.587631
_cell_length_c 14.230719
_cell_angle_alpha 90.000000
_cell_angle_beta 150.793203
_cell_angle_gamma 90.000000
_cell_volume 3062.091874
_symmetry_space_group_name_H-M "C 2/M"
_symmetry_group_IT_number 12
_symmetry_cell_setting 'monoclinic'
loop_
_space_group_symop_operation_xyz
x,y,z
-x,y,-z
-x,-y,-z
x,-y,z
1/2+x,1/2+y,z
1/2-x,1/2+y,-z
1/2-x,1/2-y,-z
1/2+x,1/2-y,z
loop_
_atom_site_type_symbol
_atom_site_label
_atom_site_fract_x
_atom_site_fract_y
_atom_site_fract_z
Si Si1 0.758644 0.621730 0.059455
Si Si2 0.283961 0.299496 0.490332
Si Si3 0.483707 0.052333 0.598213
Si Si4 0.031700 0.659496 0.928315
Si Si5 0.631397 0.716474 0.698923
Si Si6 0.178664 0.876979 0.327400
Si Si7 0.785010 0.813089 0.814763
O O1 0.858167 0.581056 0.205575
O O2 0.863657 0.631033 0.057279
O O3 0.771459 0.666384 0.136600
O O4 0.538263 0.614292 0.856409
O O5 0.250000 0.250000 0.500000
O O6 0.499103 0.293637 0.664821
O O7 0.260804 0.338606 0.544749
O O8 0.145897 0.315440 0.280352
O O9 0.500000 0.054094 0.500000
O O10 0.294302 0.077964 0.447858
O O11 0.486538 0.000000 0.629218
O O12 0.174844 0.697008 0.094157
O O13 0.000000 0.634181 0.000000
O O14 0.500000 0.694357 0.500000
O O15 0.671360 0.767307 0.700861
O O16 0.231406 0.853728 0.275765
O O17 0.000000 0.800985 0.000000
#
# Coordination Sequence:
#
# PCOD9216579 Si02
#       7
#     8   8   8   8   8   8   8
#     4  11  23  41  64  89 125 166 214 261 324 385
#     4  12  25  37  59  89 124 173 223 260 313 375
#     4  11  24  42  69 101 130 165 209 263 329 395
#     4  12  25  41  59  88 126 167 219 272 310 366
#     4  12  24  37  55  85 126 172 219 265 305 361
#     4  11  23  42  63  95 129 175 211 260 324 388
#     4  10  23  38  57  87 129 173 213 257 314 378
#
# _framework density 18.288150999999999
#
# number of rings (size 3 to 8) (size 9 to 14) (size 15 to 20)
#    0.000    0.714    5.714    2.143    6.000    1.714 
#    0.000    1.429    0.000    0.429    0.000    1.000 
#    0.000    0.000    0.000    0.000    0.000    0.000 
#
# Total GULP energy -156064.607816 kJ/mol
# GULP energy per Si atom -5573.735993 kJ/mol
# Density = 1.824653 g / cm^3
# Si number density = 18.288151 Si / 1000 Ang^3
#
#
#
# Elastic Constant Matrix: (Units=GPa)
#
#
# Indices 1 2 3 4 5 6 
#
# 1 110.9634 35.9565 27.6599 0.0000 -3.3053 0.0000
# 2 35.9565 93.3950 51.6404 0.0000 4.1817 0.0000
# 3 27.6599 51.6404 115.6690 -0.0001 -0.0180 0.0001
# 4 0.0000 0.0000 -0.0001 9.8897 0.0000 15.1884
# 5 -3.3053 4.1817 -0.0180 0.0000 27.0381 0.0000
# 6 0.0000 0.0000 0.0001 15.1884 0.0000 -7.7862
#
#
#
# Elastic Compliance Matrix: (Units=1/GPa)
#
#
# Indices 1 2 3 4 5 6 
#
# 1 0.010460 -0.003620 -0.000885 0.000000 0.001838 0.000000
# 2 -0.003620 0.015602 -0.006100 0.000000 -0.002860 0.000000
# 3 -0.000885 -0.006100 0.011581 0.000000 0.000843 0.000000
# 4 0.000000 0.000000 0.000000 0.025305 0.000000 0.049363
# 5 0.001838 -0.002860 0.000843 0.000000 0.037652 0.000000
# 6 0.000000 0.000000 0.000000 0.049363 0.000000 -0.032142
#
#
# Mechanical properties :
#
#
# Convention : Reuss Voigt Hill
#
# Bulk Modulus (GPa) = 60.85587 61.17122 61.01355
# Shear Modulus (GPa) = 52.55025 19.47969 36.01497
#
# Velocity S-wave (km/s) = 5.36628 3.26721 4.44250
# Velocity P-wave (km/s) = 8.47020 6.91043 7.72976
#
# Compressibility (1/GPa) = 0.01643227
#
# Stress axis : x y z
#
# Youngs Moduli (GPa) = 95.59872 64.09439 86.35171
#
# Poissons Ratio (x) = 0.23204 0.07641
# Poissons Ratio (y) = 0.34609 0.52677
# Poissons Ratio (z) = 0.08459 0.39099
#
# Static dielectric constant tensor:
#      x y z
#    x 1.821680 0.000000 0.026190 
#    y 0.000000 1.589820 0.000000 
#    z 0.026190 0.000000 1.668110 
# 
# From -- ./inp_files/219376.got.cif
#   From: 2010.05.17/outbox.cif.g08.bks.cpg/sg12_110_cif.got.tgz:219376.got - 2010.06.03 13:09:07.
