data_PCOD9216372
_publ_section_title
;
Structure prediction by ZEFSAII (Michael W. Deem and Ramdas Pophale) SiO2 
 PCOD9216372
Probable space group: C 2/M
;
_chemical_formula_sum "Si O2"
_cell_formula_units_Z 40
_cell_length_a 20.770957
_cell_length_b 16.216631
_cell_length_c 16.676266
_cell_angle_alpha 90.000000
_cell_angle_beta 162.626327
_cell_angle_gamma 90.000000
_cell_volume 1677.293621
_symmetry_space_group_name_H-M "C 2/M"
_symmetry_group_IT_number 12
_symmetry_cell_setting 'monoclinic'
loop_
_space_group_symop_operation_xyz
x,y,z
-x,y,-z
-x,-y,-z
x,-y,z
1/2+x,1/2+y,z
1/2-x,1/2+y,-z
1/2-x,1/2-y,-z
1/2+x,1/2-y,z
loop_
_atom_site_type_symbol
_atom_site_label
_atom_site_fract_x
_atom_site_fract_y
_atom_site_fract_z
Si Si1 0.937503 0.592211 0.561047
Si Si2 0.828241 0.590724 0.867417
Si Si3 0.283160 0.904617 0.556599
Si Si4 0.853467 0.818049 0.064486
Si Si5 0.287903 0.733092 0.803333
O O1 0.892220 0.500000 0.477123
O O2 0.810433 0.604047 0.493591
O O3 0.864876 0.663717 0.415071
O O4 0.191203 0.604622 0.877980
O O5 0.728260 0.500000 0.756624
O O6 0.981265 0.608084 0.125638
O O7 0.699018 0.673475 0.694765
O O8 0.000000 0.584228 0.000000
O O9 0.099865 0.844627 0.373040
O O10 0.224149 0.000000 0.503989
O O11 0.750000 0.750000 0.000000
O O12 0.844956 0.788447 0.962372
O O13 0.500000 0.731952 0.000000
#
# Coordination Sequence:
#
# PCOD9216372 Si02
#       5
#     8   8   8   8   8
#     4  11  25  45  71 102 141 186 231 285 347 416
#     4   9  20  39  68  96 127 177 231 283 341 403
#     4  10  22  44  71  99 135 182 230 285 350 413
#     4  12  26  40  67 103 139 183 230 286 344 413
#     4  11  23  42  69  99 139 182 228 280 347 413
#
# _framework density 23.847942
#
# number of rings (size 3 to 8) (size 9 to 14) (size 15 to 20)
#    0.000    1.400    2.000    2.400    5.600    4.400 
#    0.000    1.000    0.000    2.400    0.000    0.000 
#    0.000    0.000    0.000    0.000    0.000    0.000 
#
# Total GULP energy -111881.678623 kJ/mol
# GULP energy per Si atom -5594.083931 kJ/mol
# Density = 2.379366 g / cm^3
# Si number density = 23.847942 Si / 1000 Ang^3
#
#
#
# Elastic Constant Matrix: (Units=GPa)
#
#
# Indices 1 2 3 4 5 6 
#
# 1 121.6838 43.9359 33.1607 -0.0001 2.6409 0.0003
# 2 43.9359 200.7374 45.8540 0.0052 -4.5626 0.0027
# 3 33.1607 45.8540 47.8513 0.0063 27.3921 0.0036
# 4 -0.0001 0.0052 0.0063 18.3741 0.0020 -17.4562
# 5 2.6409 -4.5626 27.3921 0.0020 43.3804 0.0008
# 6 0.0003 0.0027 0.0036 -17.4562 0.0008 15.2044
#
#
#
# Elastic Compliance Matrix: (Units=1/GPa)
#
#
# Indices 1 2 3 4 5 6 
#
# 1 0.011265 0.000553 -0.012494 -0.000061 0.007261 -0.000068
# 2 0.000553 0.008189 -0.013631 -0.000028 0.009435 -0.000031
# 3 -0.012494 -0.013631 0.067347 0.000275 -0.043199 0.000305
# 4 -0.000061 -0.000028 0.000275 -0.599702 -0.000133 -0.688521
# 5 0.007261 0.009435 -0.043199 -0.000133 0.050880 -0.000147
# 6 -0.000068 -0.000031 0.000305 -0.688521 -0.000147 -0.724725
#
#
# Mechanical properties :
#
#
# Convention : Reuss Voigt Hill
#
# Bulk Modulus (GPa) = 28.04435 68.46376 48.25406
# Shear Modulus (GPa) = -4.44952 31.87991 13.71519
#
# Velocity S-wave (km/s) = -1.36742 3.66019 2.40075
# Velocity P-wave (km/s) = 3.04829 6.82887 5.28798
#
# Compressibility (1/GPa) = 0.03565780
#
# Stress axis : x y z
#
# Youngs Moduli (GPa) = 88.76741 122.11864 14.84839
#
# Poissons Ratio (x) = -0.06757 0.18551
# Poissons Ratio (y) = -0.04911 0.20240
# Poissons Ratio (z) = 1.10904 1.66464
#
# Static dielectric constant tensor:
#      x y z
#    x 1.940490 0.000000 -0.058350 
#    y 0.000000 1.932190 0.000000 
#    z -0.058350 0.000000 1.950930 
# 
# From -- ./inp_files/284642.got.cif
#   From: 2010.05.17/outbox.cif.g08.bks.cpg/sg12_143_cif.got.tgz:284642.got - 2010.06.03 13:09:07.
