data_PCOD9216059
_publ_section_title
;
Structure prediction by ZEFSAII (Michael W. Deem and Ramdas Pophale) SiO2 
 PCOD9216059
Probable space group: C 2/M
;
_chemical_formula_sum "Si O2"
_cell_formula_units_Z 48
_cell_length_a 14.619618
_cell_length_b 25.213628
_cell_length_c 8.151472
_cell_angle_alpha 90.000000
_cell_angle_beta 39.490981
_cell_angle_gamma 90.000000
_cell_volume 1910.886923
_symmetry_space_group_name_H-M "C 2/M"
_symmetry_group_IT_number 12
_symmetry_cell_setting 'monoclinic'
loop_
_space_group_symop_operation_xyz
x,y,z
-x,y,-z
-x,-y,-z
x,-y,z
1/2+x,1/2+y,z
1/2-x,1/2+y,-z
1/2-x,1/2-y,-z
1/2+x,1/2-y,z
loop_
_atom_site_type_symbol
_atom_site_label
_atom_site_fract_x
_atom_site_fract_y
_atom_site_fract_z
Si Si1 0.400195 0.292075 0.852524
Si Si2 0.146029 0.943576 0.402638
Si Si3 0.156863 0.361227 0.717914
Si Si4 0.054413 0.096915 0.096091
Si Si5 0.299228 0.739462 0.639613
Si Si6 0.137403 0.437665 0.427769
O O1 0.536353 0.252328 0.646291
O O2 0.313990 0.286810 0.802134
O O3 0.455321 0.351950 0.775953
O O4 0.309092 0.284776 0.146179
O O5 0.260688 0.897495 0.261278
O O6 0.000000 0.937970 0.500000
O O7 0.214161 0.000000 0.265633
O O8 0.070283 0.943906 0.685139
O O9 0.234171 0.304008 0.606093
O O10 0.143705 0.396365 0.571052
O O11 0.000000 0.350040 0.000000
O O12 0.212627 0.072668 0.875844
O O13 0.000000 0.118330 0.000000
O O14 0.131138 0.500000 0.487466
O O15 0.000000 0.427590 0.500000
#
# Coordination Sequence:
#
# PCOD9216059 Si02
#       6
#     8   8   8   8   8   8
#     4  10  22  42  74 102 144 181 237 294 364 427
#     4  11  24  42  70 101 135 183 235 290 354 424
#     4  12  26  44  70 105 146 187 236 297 360 432
#     4  12  23  43  71 100 134 183 236 296 350 427
#     4  10  22  45  70 107 139 187 233 299 358 437
#     4  11  27  47  68 101 146 193 241 296 359 423
#
# _framework density 25.119226000000001
#
# number of rings (size 3 to 8) (size 9 to 14) (size 15 to 20)
#    0.000    1.000    3.333    2.000    4.667    4.000 
#    3.000    2.500    0.000    0.000    0.000    0.000 
#    0.000    0.000    0.000    0.000    0.000    0.000 
#
# Total GULP energy -134065.603125 kJ/mol
# GULP energy per Si atom -5586.066797 kJ/mol
# Density = 2.506205 g / cm^3
# Si number density = 25.119226 Si / 1000 Ang^3
#
#
#
# Elastic Constant Matrix: (Units=GPa)
#
#
# Indices 1 2 3 4 5 6 
#
# 1 100.7097 14.8624 1.9567 0.0000 -9.6226 0.0000
# 2 14.8624 82.7096 -2.2874 0.0000 -3.7193 0.0000
# 3 1.9567 -2.2874 97.9839 0.0000 -16.3770 0.0000
# 4 0.0000 0.0000 0.0000 33.2458 0.0000 -4.9204
# 5 -9.6226 -3.7193 -16.3770 0.0000 44.7139 0.0000
# 6 0.0000 0.0000 0.0000 -4.9204 0.0000 48.0863
#
#
#
# Elastic Compliance Matrix: (Units=1/GPa)
#
#
# Indices 1 2 3 4 5 6 
#
# 1 0.010392 -0.001769 0.000107 0.000000 0.002128 0.000000
# 2 -0.001769 0.012458 0.000464 0.000000 0.000826 0.000000
# 3 0.000107 0.000464 0.010891 0.000000 0.004051 0.000000
# 4 0.000000 0.000000 0.000000 0.030542 0.000000 0.003125
# 5 0.002128 0.000826 0.004051 0.000000 0.024375 0.000000
# 6 0.000000 0.000000 0.000000 0.003125 0.000000 0.021116
#
#
# Mechanical properties :
#
#
# Convention : Reuss Voigt Hill
#
# Bulk Modulus (GPa) = 31.90158 34.49630 33.19894
# Shear Modulus (GPa) = 40.77716 43.00062 41.88889
#
# Velocity S-wave (km/s) = 4.03345 4.14195 4.08806
# Velocity P-wave (km/s) = 5.86679 6.05287 5.96055
#
# Compressibility (1/GPa) = 0.03134641
#
# Stress axis : x y z
#
# Youngs Moduli (GPa) = 96.22936 80.26794 91.81477
#
# Poissons Ratio (x) = 0.14197 -0.00982
# Poissons Ratio (y) = 0.17020 -0.04262
# Poissons Ratio (z) = -0.01029 -0.03726
#
# Static dielectric constant tensor:
#      x y z
#    x 2.299440 0.000000 0.128540 
#    y 0.000000 1.960900 0.000000 
#    z 0.128540 0.000000 2.094740 
# 
# From -- ./inp_files/67315.got.cif
#   From: 2010.05.17/outbox.cif.g08.bks.cpg/sg12_34_cif.got.tgz:67315.got - 2010.06.03 13:09:07.
