data_PCOD9216744
_publ_section_title
;
Structure prediction by ZEFSAII (Michael W. Deem and Ramdas Pophale) SiO2 
 PCOD9216744
Probable space group: C 2/M
;
_chemical_formula_sum "Si O2"
_cell_formula_units_Z 40
_cell_length_a 30.832676
_cell_length_b 10.765684
_cell_length_c 24.231510
_cell_angle_alpha 90.000000
_cell_angle_beta 165.670281
_cell_angle_gamma 90.000000
_cell_volume 1990.725322
_symmetry_space_group_name_H-M "C 2/M"
_symmetry_group_IT_number 12
_symmetry_cell_setting 'monoclinic'
loop_
_space_group_symop_operation_xyz
x,y,z
-x,y,-z
-x,-y,-z
x,-y,z
1/2+x,1/2+y,z
1/2-x,1/2+y,-z
1/2-x,1/2-y,-z
1/2+x,1/2-y,z
loop_
_atom_site_type_symbol
_atom_site_label
_atom_site_fract_x
_atom_site_fract_y
_atom_site_fract_z
Si Si1 0.180927 0.648650 0.749305
Si Si2 0.810628 0.863822 0.795254
Si Si3 0.697532 0.352901 0.980370
Si Si4 0.190779 0.366196 0.264151
Si Si5 0.211830 0.139228 0.494629
O O1 0.166312 0.500000 0.736802
O O2 0.321341 0.667311 0.873263
O O3 0.000000 0.696452 0.500000
O O4 0.226918 0.690343 0.866969
O O5 0.715178 0.752642 0.646086
O O6 0.725261 0.000000 0.684994
O O7 0.000000 0.873484 0.000000
O O8 0.746589 0.500000 0.029652
O O9 0.487930 0.353336 0.730571
O O10 0.750000 0.250000 0.000000
O O11 0.277662 0.500000 0.361311
O O12 0.174512 0.350767 0.309484
O O13 0.000000 0.370999 0.000000
O O14 0.250000 0.250000 0.500000
O O15 0.237345 0.000000 0.502031
#
# Coordination Sequence:
#
# PCOD9216744 Si02
#       5
#     8   8   8   8   8
#     4   9  19  36  57  83 113 147 190 239 285 335
#     4   9  18  31  55  86 110 139 187 237 283 334
#     4  10  23  42  61  84 121 159 195 243 295 350
#     4   9  19  35  54  79 115 150 182 227 286 342
#     4  10  23  40  60  87 119 155 195 244 298 349
#
# _framework density 20.093178999999999
#
# number of rings (size 3 to 8) (size 9 to 14) (size 15 to 20)
#    0.000    2.600    0.000    0.000    8.400    1.600 
#    0.000    1.000    0.000    1.200    0.000    0.000 
#    0.000    0.000    0.000    0.000    0.000    0.000 
#
# Total GULP energy -111362.869664 kJ/mol
# GULP energy per Si atom -5568.143483 kJ/mol
# Density = 2.004745 g / cm^3
# Si number density = 20.093179 Si / 1000 Ang^3
#
#
#
# Elastic Constant Matrix: (Units=GPa)
#
#
# Indices 1 2 3 4 5 6 
#
# 1 168.2005 86.1547 45.7924 -0.0002 -10.7248 -0.0001
# 2 86.1547 190.4887 7.8718 -0.0006 -2.1936 -0.0002
# 3 45.7924 7.8718 68.6996 -0.0003 -8.2443 -0.0003
# 4 -0.0002 -0.0006 -0.0003 11.6116 -0.0003 -2.4661
# 5 -10.7248 -2.1936 -8.2443 -0.0003 32.7169 0.0000
# 6 -0.0001 -0.0002 -0.0003 -2.4661 0.0000 42.7014
#
#
#
# Elastic Compliance Matrix: (Units=1/GPa)
#
#
# Indices 1 2 3 4 5 6 
#
# 1 0.009761 -0.004156 -0.005856 0.000000 0.001445 0.000000
# 2 -0.004156 0.007045 0.001914 0.000000 -0.000408 0.000000
# 3 -0.005856 0.001914 0.018588 0.000001 0.002892 0.000000
# 4 0.000000 0.000000 0.000001 0.087190 0.000001 0.005036
# 5 0.001445 -0.000408 0.002892 0.000001 0.031741 0.000000
# 6 0.000000 0.000000 0.000000 0.005036 0.000000 0.023709
#
#
# Mechanical properties :
#
#
# Convention : Reuss Voigt Hill
#
# Bulk Modulus (GPa) = 52.09160 78.55852 65.32506
# Shear Modulus (GPa) = 24.92162 36.57730 30.74946
#
# Velocity S-wave (km/s) = 3.52561 4.27122 3.91620
# Velocity P-wave (km/s) = 6.52339 7.96909 7.28221
#
# Compressibility (1/GPa) = 0.01919695
#
# Stress axis : x y z
#
# Youngs Moduli (GPa) = 102.45363 141.93467 53.79952
#
# Poissons Ratio (x) = 0.58986 0.31507
# Poissons Ratio (y) = 0.42578 -0.10297
# Poissons Ratio (z) = 0.60000 -0.27165
#
# Static dielectric constant tensor:
#      x y z
#    x 1.719530 0.000000 -0.016620 
#    y 0.000000 1.814930 -0.000010 
#    z -0.016620 -0.000010 1.653210 
# 
# From -- ./inp_files/325204.got.cif
#   From: 2010.05.17/outbox.cif.g08.bks.cpg/sg12_163_cif.got.tgz:325204.got - 2010.06.03 13:09:07.
