data_PCOD9216089
_publ_section_title
;
Structure prediction by ZEFSAII (Michael W. Deem and Ramdas Pophale) SiO2 
 PCOD9216089
Probable space group: C 2/M
;
_chemical_formula_sum "Si O2"
_cell_formula_units_Z 26
_cell_length_a 10.563143
_cell_length_b 18.172585
_cell_length_c 7.679254
_cell_angle_alpha 90.000000
_cell_angle_beta 41.829869
_cell_angle_gamma 90.000000
_cell_volume 983.112679
_symmetry_space_group_name_H-M "C 2/M"
_symmetry_group_IT_number 12
_symmetry_cell_setting 'monoclinic'
loop_
_space_group_symop_operation_xyz
x,y,z
-x,y,-z
-x,-y,-z
x,-y,z
1/2+x,1/2+y,z
1/2-x,1/2+y,-z
1/2-x,1/2-y,-z
1/2+x,1/2-y,z
loop_
_atom_site_type_symbol
_atom_site_label
_atom_site_fract_x
_atom_site_fract_y
_atom_site_fract_z
Si Si1 0.529754 0.757877 0.170271
Si Si2 0.500000 0.500000 0.000000
Si Si3 0.515537 0.395753 0.286226
Si Si4 0.537685 0.080442 0.256161
O O1 0.446107 0.688787 0.358984
O O2 0.462368 0.841183 0.268217
O O3 0.500000 0.740689 0.000000
O O4 0.750000 0.750000 0.000000
O O5 0.421753 0.437128 0.219842
O O6 0.500000 0.421910 0.500000
O O7 0.736253 0.411720 0.010068
O O8 0.500000 0.078110 0.500000
O O9 0.480747 0.000000 0.240507
#
# Coordination Sequence:
#
# PCOD9216089 Si02
#       4
#     8   2   8   8
#     4  10  22  44  67 100 137 182 233 287 346 415
#     4  12  22  40  70 104 134 172 234 294 340 398
#     4  11  23  44  70 100 134 179 233 288 343 407
#     4  10  22  43  64  95 138 180 221 277 347 414
#
# _framework density 26.446611999999998
#
# number of rings (size 3 to 8) (size 9 to 14) (size 15 to 20)
#    0.000    1.538    3.077    1.385    0.000    0.615 
#   11.077    9.231    0.000    0.000    0.000    0.000 
#    0.000    0.000    0.000    0.000    0.000    0.000 
#
# Total GULP energy -72396.311205 kJ/mol
# GULP energy per Si atom -5568.947016 kJ/mol
# Density = 2.638642 g / cm^3
# Si number density = 26.446612 Si / 1000 Ang^3
#
#
#
# Elastic Constant Matrix: (Units=GPa)
#
#
# Indices 1 2 3 4 5 6 
#
# 1 118.1162 13.4509 46.3654 0.0000 -0.2083 0.0000
# 2 13.4509 296.2007 30.8029 0.0000 22.0882 0.0000
# 3 46.3654 30.8029 182.6413 0.0000 26.1231 0.0000
# 4 0.0000 0.0000 0.0000 72.1248 0.0000 39.6763
# 5 -0.2083 22.0882 26.1231 0.0000 63.9525 0.0000
# 6 0.0000 0.0000 0.0000 39.6763 0.0000 7.9471
#
#
#
# Elastic Compliance Matrix: (Units=1/GPa)
#
#
# Indices 1 2 3 4 5 6 
#
# 1 0.009491 -0.000254 -0.002531 0.000000 0.001153 0.000000
# 2 -0.000254 0.003506 -0.000375 0.000000 -0.001058 0.000000
# 3 -0.002531 -0.000375 0.006546 0.000000 -0.002553 0.000000
# 4 0.000000 0.000000 0.000000 -0.007939 0.000000 0.039636
# 5 0.001153 -0.001058 -0.002553 0.000000 0.017049 0.000000
# 6 0.000000 0.000000 0.000000 0.039636 0.000000 -0.072051
#
#
# Mechanical properties :
#
#
# Convention : Reuss Voigt Hill
#
# Bulk Modulus (GPa) = 75.63421 86.46630 81.05026
# Shear Modulus (GPa) = -153.04079 62.56084 -45.23998
#
# Velocity S-wave (km/s) = -7.61534 4.86897 -4.14045
# Velocity P-wave (km/s) = 6.97594 8.02339 2.80278
#
# Compressibility (1/GPa) = 0.01322153
#
# Stress axis : x y z
#
# Youngs Moduli (GPa) = 105.36474 285.26038 152.75918
#
# Poissons Ratio (x) = 0.07237 0.38670
# Poissons Ratio (y) = 0.02673 0.05736
# Poissons Ratio (z) = 0.26672 0.10710
#
# Static dielectric constant tensor:
#      x y z
#    x 2.275240 0.000000 -0.081320 
#    y 0.000000 2.193670 0.000000 
#    z -0.081320 0.000000 1.971410 
# 
# From -- ./inp_files/5898.got.cif
#   From: 2010.05.17/outbox.cif.g08.bks.cpg/sg12_3_cif.got.tgz:5898.got - 2010.06.03 13:09:07.
