data_PCOD9216142
_publ_section_title
;
Structure prediction by ZEFSAII (Michael W. Deem and Ramdas Pophale) SiO2 
 PCOD9216142
Probable space group: C 2/M
;
_chemical_formula_sum "Si O2"
_cell_formula_units_Z 48
_cell_length_a 12.701901
_cell_length_b 26.673602
_cell_length_c 10.959192
_cell_angle_alpha 90.000000
_cell_angle_beta 35.112354
_cell_angle_gamma 90.000000
_cell_volume 2135.669008
_symmetry_space_group_name_H-M "C 2/M"
_symmetry_group_IT_number 12
_symmetry_cell_setting 'monoclinic'
loop_
_space_group_symop_operation_xyz
x,y,z
-x,y,-z
-x,-y,-z
x,-y,z
1/2+x,1/2+y,z
1/2-x,1/2+y,-z
1/2-x,1/2-y,-z
1/2+x,1/2-y,z
loop_
_atom_site_type_symbol
_atom_site_label
_atom_site_fract_x
_atom_site_fract_y
_atom_site_fract_z
Si Si1 0.340093 0.101460 0.742825
Si Si2 0.395662 0.500000 0.466100
Si Si3 0.000000 0.838155 0.000000
Si Si4 0.935122 0.197088 0.318598
Si Si5 0.500000 0.163761 0.000000
Si Si6 0.492333 0.198457 0.744625
Si Si7 0.160263 0.105599 0.440847
Si Si8 0.365352 0.500000 0.005716
O O1 0.500000 0.086656 0.500000
O O2 0.415163 0.148178 0.754480
O O3 0.255536 0.051038 0.879567
O O4 0.176415 0.127041 0.822827
O O5 0.500000 0.500000 0.500000
O O6 0.282474 0.551658 0.562268
O O7 0.526652 0.500000 0.224411
O O8 0.990412 0.805919 0.888041
O O9 0.713892 0.199741 0.527493
O O10 0.037847 0.245181 0.279662
O O11 0.948356 0.142826 0.365737
O O12 0.440533 0.194321 0.936330
O O13 0.669058 0.131525 0.787434
O O14 0.000000 0.095274 0.500000
O O15 0.500000 0.500000 0.000000
#
# Coordination Sequence:
#
# PCOD9216142 Si02
#       8
#     8   4   4   8   4   8   8   4
#     4  12  26  46  72 106 144 189 243 303 369 441
#     4  10  24  44  71 103 136 186 242 297 361 442
#     4  12  23  41  70 100 144 183 244 291 366 438
#     4  10  22  43  67 101 140 187 233 302 356 436
#     4  10  23  41  68 102 134 183 238 293 356 446
#     4  10  23  44  68 101 146 182 242 296 363 438
#     4  10  23  43  67  95 140 178 234 292 360 423
#     4  12  27  47  79 107 148 195 250 310 373 438
#
# _framework density 22.475391999999999
#
# number of rings (size 3 to 8) (size 9 to 14) (size 15 to 20)
#    0.000    1.333    2.500    1.750    7.000    1.667 
#    3.000    3.333    0.000    0.000    0.000    0.000 
#    0.000    0.000    0.000    0.000    0.000    0.000 
#
# Total GULP energy -133738.382193 kJ/mol
# GULP energy per Si atom -5572.432591 kJ/mol
# Density = 2.242424 g / cm^3
# Si number density = 22.475392 Si / 1000 Ang^3
#
#
#
# Elastic Constant Matrix: (Units=GPa)
#
#
# Indices 1 2 3 4 5 6 
#
# 1 37.6089 32.4966 19.8801 0.0000 -2.6759 0.0000
# 2 32.4966 204.0568 44.2010 0.0000 4.0351 0.0000
# 3 19.8801 44.2010 130.3336 0.0000 10.7001 0.0000
# 4 0.0000 0.0000 0.0000 -30.5576 0.0000 2.4285
# 5 -2.6759 4.0351 10.7001 0.0000 35.9861 0.0000
# 6 0.0000 0.0000 0.0000 2.4285 0.0000 2.5958
#
#
#
# Elastic Compliance Matrix: (Units=1/GPa)
#
#
# Indices 1 2 3 4 5 6 
#
# 1 0.032759 -0.004471 -0.003815 0.000000 0.004072 0.000000
# 2 -0.004471 0.005900 -0.001268 0.000000 -0.000617 0.000000
# 3 -0.003815 -0.001268 0.008914 0.000000 -0.002792 0.000000
# 4 0.000000 0.000000 0.000000 -0.030460 0.000000 0.028497
# 5 0.004072 -0.000617 -0.002792 0.000000 0.028991 0.000000
# 6 0.000000 0.000000 0.000000 0.028497 0.000000 0.358580
#
#
# Mechanical properties :
#
#
# Convention : Reuss Voigt Hill
#
# Bulk Modulus (GPa) = 35.13174 62.79497 48.96335
# Shear Modulus (GPa) = 11.53993 19.96629 15.75311
#
# Velocity S-wave (km/s) = 2.26840 2.98377 2.65033
# Velocity P-wave (km/s) = 4.74615 6.31432 5.58554
#
# Compressibility (1/GPa) = 0.02846429
#
# Stress axis : x y z
#
# Youngs Moduli (GPa) = 30.52596 169.50508 112.18615
#
# Poissons Ratio (x) = 0.75788 0.42796
# Poissons Ratio (y) = 0.13649 0.14226
# Poissons Ratio (z) = 0.11645 0.21495
#
# Static dielectric constant tensor:
#      x y z
#    x 1.885240 0.000000 -0.025890 
#    y 0.000000 2.127850 0.000000 
#    z -0.025890 0.000000 1.818980 
# 
# From -- ./inp_files/149705.got.cif
#   From: 2010.05.17/outbox.cif.g08.bks.cpg/sg12_75_cif.got.tgz:149705.got - 2010.06.03 13:09:07.
