data_PCOD9216195
_publ_section_title
;
Structure prediction by ZEFSAII (Michael W. Deem and Ramdas Pophale) SiO2 
 PCOD9216195
Probable space group: C 2/M
;
_chemical_formula_sum "Si O2"
_cell_formula_units_Z 40
_cell_length_a 12.248073
_cell_length_b 21.068910
_cell_length_c 12.696953
_cell_angle_alpha 90.000000
_cell_angle_beta 146.019887
_cell_angle_gamma 90.000000
_cell_volume 1831.249129
_symmetry_space_group_name_H-M "C 2/M"
_symmetry_group_IT_number 12
_symmetry_cell_setting 'monoclinic'
loop_
_space_group_symop_operation_xyz
x,y,z
-x,y,-z
-x,-y,-z
x,-y,z
1/2+x,1/2+y,z
1/2-x,1/2+y,-z
1/2-x,1/2-y,-z
1/2+x,1/2-y,z
loop_
_atom_site_type_symbol
_atom_site_label
_atom_site_fract_x
_atom_site_fract_y
_atom_site_fract_z
Si Si1 0.705916 0.323712 0.228671
Si Si2 0.249785 0.569816 0.382334
Si Si3 0.232301 0.317573 0.204271
Si Si4 0.476768 0.618020 0.226522
Si Si5 0.650065 0.071554 0.806907
O O1 0.783397 0.252346 0.286226
O O2 0.644804 0.346692 0.294912
O O3 0.836455 0.374979 0.271860
O O4 0.500000 0.322445 0.000000
O O5 0.250991 0.500000 0.332134
O O6 0.275548 0.626876 0.321748
O O7 0.417361 0.574146 0.604032
O O8 0.043505 0.577556 0.277392
O O9 0.344753 0.332635 0.186340
O O10 0.000000 0.319791 0.000000
O O11 0.335497 0.582013 0.032325
O O12 0.656680 0.000000 0.767977
#
# Coordination Sequence:
#
# PCOD9216195 Si02
#       5
#     8   8   8   8   8
#     4   9  23  40  67  97 128 169 212 261 313 381
#     4  11  25  42  65  98 128 165 216 263 312 379
#     4  11  23  42  67  93 130 171 212 261 316 378
#     4  11  23  42  65  94 127 169 210 264 316 374
#     4  10  22  43  68  95 130 168 208 260 320 376
#
# _framework density 21.843014
#
# number of rings (size 3 to 8) (size 9 to 14) (size 15 to 20)
#    0.000    1.600    2.000    1.200    2.800   11.200 
#    3.600    2.000    0.000    0.000    0.000    0.000 
#    0.000    0.000    0.000    0.000    0.000    0.000 
#
# Total GULP energy -111891.200962 kJ/mol
# GULP energy per Si atom -5594.560048 kJ/mol
# Density = 2.179330 g / cm^3
# Si number density = 21.843014 Si / 1000 Ang^3
#
#
#
# Elastic Constant Matrix: (Units=GPa)
#
#
# Indices 1 2 3 4 5 6 
#
# 1 118.4862 87.8114 10.5786 0.0000 -5.0640 0.0000
# 2 87.8114 206.5525 23.6361 0.0000 -11.0945 0.0000
# 3 10.5786 23.6361 78.4201 -0.0001 6.4195 0.0000
# 4 0.0000 0.0000 -0.0001 -113.8568 0.0000 -12.3412
# 5 -5.0640 -11.0945 6.4195 0.0000 27.4947 -0.0001
# 6 0.0000 0.0000 0.0000 -12.3412 -0.0001 11.1139
#
#
#
# Elastic Compliance Matrix: (Units=1/GPa)
#
#
# Indices 1 2 3 4 5 6 
#
# 1 0.012324 -0.005217 -0.000106 0.000000 0.000189 0.000000
# 2 -0.005217 0.007386 -0.001721 0.000000 0.002421 0.000000
# 3 -0.000106 -0.001721 0.013603 0.000000 -0.003890 0.000000
# 4 0.000000 0.000000 0.000000 -0.007839 0.000000 -0.008705
# 5 0.000189 0.002421 -0.003890 0.000000 0.038291 0.000000
# 6 0.000000 0.000000 0.000000 -0.008705 0.000000 0.080311
#
#
# Mechanical properties :
#
#
# Convention : Reuss Voigt Hill
#
# Bulk Modulus (GPa) = 52.01097 71.94566 61.97831
# Shear Modulus (GPa) = 30.38215 3.71256 17.04735
#
# Velocity S-wave (km/s) = 3.73357 1.30512 2.79668
# Velocity P-wave (km/s) = 6.51529 5.93972 6.23415
#
# Compressibility (1/GPa) = 0.01922671
#
# Stress axis : x y z
#
# Youngs Moduli (GPa) = 81.14520 135.38806 73.51253
#
# Poissons Ratio (x) = 0.70630 0.00776
# Poissons Ratio (y) = 0.42332 0.12649
# Poissons Ratio (z) = 0.00856 0.23296
#
# Static dielectric constant tensor:
#      x y z
#    x 1.773890 0.000000 0.014620 
#    y 0.000000 1.774730 0.000000 
#    z 0.014620 0.000000 1.801550 
# 
# From -- ./inp_files/48617.got.cif
#   From: 2010.05.17/outbox.cif.g08.bks.cpg/sg12_25_cif.got.tgz:48617.got - 2010.06.03 13:09:07.
