data_PCOD9216178
_publ_section_title
;
Structure prediction by ZEFSAII (Michael W. Deem and Ramdas Pophale) SiO2 
 PCOD9216178
Probable space group: C 2/M
;
_chemical_formula_sum "Si O2"
_cell_formula_units_Z 40
_cell_length_a 9.760793
_cell_length_b 9.683177
_cell_length_c 22.889808
_cell_angle_alpha 90.000000
_cell_angle_beta 114.131626
_cell_angle_gamma 90.000000
_cell_volume 1974.375273
_symmetry_space_group_name_H-M "C 2/M"
_symmetry_group_IT_number 12
_symmetry_cell_setting 'monoclinic'
loop_
_space_group_symop_operation_xyz
x,y,z
-x,y,-z
-x,-y,-z
x,-y,z
1/2+x,1/2+y,z
1/2-x,1/2+y,-z
1/2-x,1/2-y,-z
1/2+x,1/2-y,z
loop_
_atom_site_type_symbol
_atom_site_label
_atom_site_fract_x
_atom_site_fract_y
_atom_site_fract_z
Si Si1 0.370561 0.257642 0.848579
Si Si2 0.468146 0.000000 0.062908
Si Si3 0.502158 0.338893 0.430971
Si Si4 0.153471 0.336460 0.361540
Si Si5 0.347468 0.500000 0.937063
Si Si6 0.959872 0.159421 0.237685
O O1 0.338802 0.368546 0.893238
O O2 0.213455 0.203688 0.795272
O O3 0.469658 0.323553 0.814465
O O4 0.459261 0.132086 0.893315
O O5 0.291508 0.000000 0.043461
O O6 0.500000 0.000000 0.000000
O O7 0.500000 0.314924 0.500000
O O8 0.544482 0.500000 0.428802
O O9 0.330375 0.319431 0.379888
O O10 0.609785 0.236575 0.414826
O O11 0.122174 0.500000 0.358033
O O12 0.053274 0.259433 0.296095
O O13 0.500000 0.500000 0.000000
O O14 0.972568 0.000000 0.258868
#
# Coordination Sequence:
#
# PCOD9216178 Si02
#       6
#     8   4   8   8   4   8
#     4  12  26  45  69  99 131 176 219 273 336 395
#     4  12  28  46  72 100 136 172 217 274 332 400
#     4  10  22  43  67  97 139 181 222 273 333 396
#     4  11  25  40  66 102 133 175 227 279 330 391
#     4  12  28  46  72 102 136 168 221 274 330 404
#     4  12  26  44  68  95 133 176 223 275 333 395
#
# _framework density 20.259573
#
# number of rings (size 3 to 8) (size 9 to 14) (size 15 to 20)
#    0.000    0.600    4.000    3.000    5.600    6.800 
#    0.000    0.000    0.000    0.000    0.000    0.000 
#    0.000    0.000    0.000    0.000    0.000    0.000 
#
# Total GULP energy -111989.678715 kJ/mol
# GULP energy per Si atom -5599.483936 kJ/mol
# Density = 2.021346 g / cm^3
# Si number density = 20.259573 Si / 1000 Ang^3
#
#
#
# Elastic Constant Matrix: (Units=GPa)
#
#
# Indices 1 2 3 4 5 6 
#
# 1 77.1563 22.7884 -2.8169 0.0000 7.1843 0.0000
# 2 22.7884 117.9477 11.7350 0.0000 0.8873 0.0000
# 3 -2.8169 11.7350 60.3035 0.0000 9.1276 0.0000
# 4 0.0000 0.0000 0.0000 51.8614 0.0000 -4.5325
# 5 7.1843 0.8873 9.1276 0.0000 38.4390 0.0000
# 6 0.0000 0.0000 0.0000 -4.5325 0.0000 29.2700
#
#
#
# Elastic Compliance Matrix: (Units=1/GPa)
#
#
# Indices 1 2 3 4 5 6 
#
# 1 0.014149 -0.002878 0.001671 0.000000 -0.002975 0.000000
# 2 -0.002878 0.009233 -0.002054 0.000000 0.000812 0.000000
# 3 0.001671 -0.002054 0.017738 0.000000 -0.004477 0.000000
# 4 0.000000 0.000000 0.000000 0.019547 0.000000 0.003027
# 5 -0.002975 0.000812 -0.004477 0.000000 0.027616 0.000000
# 6 0.000000 0.000000 0.000000 0.003027 0.000000 0.034633
#
#
# Mechanical properties :
#
#
# Convention : Reuss Voigt Hill
#
# Bulk Modulus (GPa) = 28.90292 35.42447 32.16370
# Shear Modulus (GPa) = 35.46889 38.82748 37.14819
#
# Velocity S-wave (km/s) = 4.18870 4.38253 4.28671
# Velocity P-wave (km/s) = 6.13929 6.56750 6.35700
#
# Compressibility (1/GPa) = 0.03459858
#
# Stress axis : x y z
#
# Youngs Moduli (GPa) = 70.67841 108.31260 56.37546
#
# Poissons Ratio (x) = 0.31167 -0.09421
# Poissons Ratio (y) = 0.20338 0.11580
# Poissons Ratio (z) = -0.11811 0.22248
#
# Static dielectric constant tensor:
#      x y z
#    x 1.684590 0.000000 -0.006010 
#    y 0.000000 1.675860 0.000000 
#    z -0.006010 0.000000 1.706380 
# 
# From -- ./inp_files/331766.got.cif
#   From: 2010.05.17/outbox.cif.g08.bks.cpg/sg12_166_cif.got.tgz:331766.got - 2010.06.03 13:09:07.
