data_PCOD9216201
_publ_section_title
;
Structure prediction by ZEFSAII (Michael W. Deem and Ramdas Pophale) SiO2 
 PCOD9216201
Probable space group: C 2/M
;
_chemical_formula_sum "Si O2"
_cell_formula_units_Z 40
_cell_length_a 19.646994
_cell_length_b 18.622498
_cell_length_c 14.046396
_cell_angle_alpha 90.000000
_cell_angle_beta 21.449426
_cell_angle_gamma 90.000000
_cell_volume 1879.316609
_symmetry_space_group_name_H-M "C 2/M"
_symmetry_group_IT_number 12
_symmetry_cell_setting 'monoclinic'
loop_
_space_group_symop_operation_xyz
x,y,z
-x,y,-z
-x,-y,-z
x,-y,z
1/2+x,1/2+y,z
1/2-x,1/2+y,-z
1/2-x,1/2-y,-z
1/2+x,1/2-y,z
loop_
_atom_site_type_symbol
_atom_site_label
_atom_site_fract_x
_atom_site_fract_y
_atom_site_fract_z
Si Si1 0.771953 0.156877 0.176186
Si Si2 0.038314 0.584324 0.314608
Si Si3 0.158291 0.174622 0.587518
Si Si4 0.473405 0.084106 0.890427
Si Si5 0.653168 0.681153 0.378081
O O1 0.670607 0.129366 0.211996
O O2 0.671413 0.110552 0.388929
O O3 0.721350 0.239358 0.261570
O O4 0.991431 0.152827 0.874483
O O5 0.055566 0.500000 0.314230
O O6 0.084618 0.594870 0.144402
O O7 0.250000 0.250000 0.500000
O O8 0.320801 0.116278 0.371934
O O9 0.082291 0.183147 0.578687
O O10 0.469840 0.000000 0.917114
O O11 0.328779 0.128390 0.141548
O O12 0.500000 0.658951 0.500000
#
# Coordination Sequence:
#
# PCOD9216201 Si02
#       5
#     8   8   8   8   8
#     4  11  22  39  69  96 134 166 217 273 329 384
#     4  10  22  43  68  99 131 170 218 269 328 392
#     4  12  26  41  65  99 134 171 220 267 328 390
#     4  11  26  45  66  94 136 176 216 269 328 387
#     4  12  25  42  68  97 129 174 222 271 321 387
#
# _framework density 21.284333
#
# number of rings (size 3 to 8) (size 9 to 14) (size 15 to 20)
#    0.000    0.800    4.000    4.200    0.000    7.600 
#    0.000    2.000    0.000    0.000    0.000    0.000 
#    0.000    0.000    0.000    0.000    0.000    0.000 
#
# Total GULP energy -111930.857952 kJ/mol
# GULP energy per Si atom -5596.542898 kJ/mol
# Density = 2.123589 g / cm^3
# Si number density = 21.284333 Si / 1000 Ang^3
#
#
#
# Elastic Constant Matrix: (Units=GPa)
#
#
# Indices 1 2 3 4 5 6 
#
# 1 60.5967 6.0410 -15.2007 -0.0039 11.0157 0.0028
# 2 6.0410 115.6858 18.8468 -0.0069 5.2980 0.0061
# 3 -15.2007 18.8468 90.3763 -0.0130 3.8296 0.0142
# 4 -0.0039 -0.0069 -0.0130 37.5815 0.0050 1.8930
# 5 11.0157 5.2980 3.8296 0.0050 31.9187 -0.0028
# 6 0.0028 0.0061 0.0142 1.8930 -0.0028 25.8655
#
#
#
# Elastic Compliance Matrix: (Units=1/GPa)
#
#
# Indices 1 2 3 4 5 6 
#
# 1 0.018781 -0.001278 0.003710 0.000004 -0.006715 -0.000005
# 2 -0.001278 0.009086 -0.002075 0.000001 -0.000818 -0.000001
# 3 0.003710 -0.002075 0.012223 0.000005 -0.002402 -0.000007
# 4 0.000004 0.000001 0.000005 0.026707 -0.000007 -0.001955
# 5 -0.006715 -0.000818 -0.002402 -0.000007 0.034071 0.000006
# 6 -0.000005 -0.000001 -0.000007 -0.001955 0.000006 0.038805
#
#
# Mechanical properties :
#
#
# Convention : Reuss Voigt Hill
#
# Bulk Modulus (GPa) = 24.50666 31.78144 28.14405
# Shear Modulus (GPa) = 32.77372 36.20457 34.48915
#
# Velocity S-wave (km/s) = 3.92829 4.12879 4.02979
# Velocity P-wave (km/s) = 5.66694 6.13950 5.90795
#
# Compressibility (1/GPa) = 0.04080523
#
# Stress axis : x y z
#
# Youngs Moduli (GPa) = 53.24481 110.05522 81.81066
#
# Poissons Ratio (x) = 0.14061 -0.30350
# Poissons Ratio (y) = 0.06803 0.16976
# Poissons Ratio (z) = -0.19753 0.22837
#
# Static dielectric constant tensor:
#      x y z
#    x 1.817050 0.000000 0.007540 
#    y 0.000000 1.712420 0.000000 
#    z 0.007540 0.000000 1.754400 
# 
# From -- ./inp_files/47046.got.cif
#   From: 2010.05.17/outbox.cif.g08.bks.cpg/sg12_24_cif.got.tgz:47046.got - 2010.06.03 13:09:07.
