data_PCOD9216669
_publ_section_title
;
Structure prediction by ZEFSAII (Michael W. Deem and Ramdas Pophale) SiO2 
 PCOD9216669
Probable space group: C 2/M
;
_chemical_formula_sum "Si O2"
_cell_formula_units_Z 38
_cell_length_a 12.945290
_cell_length_b 13.882530
_cell_length_c 14.399375
_cell_angle_alpha 90.000000
_cell_angle_beta 128.142581
_cell_angle_gamma 90.000000
_cell_volume 2035.211986
_symmetry_space_group_name_H-M "C 2/M"
_symmetry_group_IT_number 12
_symmetry_cell_setting 'monoclinic'
loop_
_space_group_symop_operation_xyz
x,y,z
-x,y,-z
-x,-y,-z
x,-y,z
1/2+x,1/2+y,z
1/2-x,1/2+y,-z
1/2-x,1/2-y,-z
1/2+x,1/2-y,z
loop_
_atom_site_type_symbol
_atom_site_label
_atom_site_fract_x
_atom_site_fract_y
_atom_site_fract_z
Si Si1 0.289126 0.327352 0.349592
Si Si2 0.653692 0.192469 0.076953
Si Si3 0.500000 0.834791 0.500000
Si Si4 0.767050 0.612814 0.074557
Si Si5 0.950898 0.391984 0.677156
Si Si6 0.000000 0.000000 0.500000
O O1 0.227822 0.332762 0.212865
O O2 0.375830 0.232009 0.407268
O O3 0.166907 0.326090 0.352726
O O4 0.386192 0.415586 0.424235
O O5 0.671495 0.306491 0.064210
O O6 0.283125 0.135413 0.974377
O O7 0.500000 0.169070 0.000000
O O8 0.466433 0.890227 0.575322
O O9 0.734372 0.500000 0.072159
O O10 0.909714 0.633086 0.199498
O O11 0.918600 0.500000 0.691210
#
# Coordination Sequence:
#
# PCOD9216669 Si02
#       6
#     8   8   4   8   8   2
#     4  11  22  40  63  91 123 162 207 255 312 362
#     4  11  22  40  67  92 122 165 209 256 313 368
#     4  11  23  39  61  84 124 162 203 255 305 373
#     4  10  23  39  61  93 128 161 203 261 312 367
#     4  11  21  39  61  89 120 159 207 251 308 370
#     4  10  24  40  60  94 134 154 200 264 300 370
#
# _framework density 18.671274
#
# number of rings (size 3 to 8) (size 9 to 14) (size 15 to 20)
#    0.000    1.263    5.263    0.947    1.474    0.842 
#    0.000    0.000    0.000    0.000    0.000    0.000 
#    0.000    0.000    0.000    0.000    0.000    0.000 
#
# Total GULP energy -105800.400130 kJ/mol
# GULP energy per Si atom -5568.442112 kJ/mol
# Density = 1.862878 g / cm^3
# Si number density = 18.671274 Si / 1000 Ang^3
#
#
#
# Elastic Constant Matrix: (Units=GPa)
#
#
# Indices 1 2 3 4 5 6 
#
# 1 52.7741 -3.6454 21.6815 0.0000 -14.2135 0.0000
# 2 -3.6454 52.9204 -10.7336 0.0000 1.2617 0.0000
# 3 21.6815 -10.7336 97.5913 0.0000 -10.2154 0.0000
# 4 0.0000 0.0000 0.0000 -12.0975 0.0000 -15.8503
# 5 -14.2135 1.2617 -10.2154 0.0000 29.3374 0.0000
# 6 0.0000 0.0000 0.0000 -15.8503 0.0000 4.3181
#
#
#
# Elastic Compliance Matrix: (Units=1/GPa)
#
#
# Indices 1 2 3 4 5 6 
#
# 1 0.023319 0.000542 -0.004090 0.000000 0.009850 0.000000
# 2 0.000542 0.019340 0.002021 0.000000 0.000134 0.000000
# 3 -0.004090 0.002021 0.011583 0.000000 0.001965 0.000000
# 4 0.000000 0.000000 0.000000 -0.014229 0.000000 -0.052230
# 5 0.009850 0.000134 0.001965 0.000000 0.039537 0.000000
# 6 0.000000 0.000000 0.000000 -0.052230 0.000000 0.039864
#
#
# Mechanical properties :
#
#
# Convention : Reuss Voigt Hill
#
# Bulk Modulus (GPa) = 19.53562 24.21008 21.87285
# Shear Modulus (GPa) = 35.83389 17.37715 26.60552
#
# Velocity S-wave (km/s) = 4.38562 3.05403 3.77894
# Velocity P-wave (km/s) = 6.01087 5.04289 5.54803
#
# Compressibility (1/GPa) = 0.05118856
#
# Stress axis : x y z
#
# Youngs Moduli (GPa) = 42.88261 51.70550 86.33019
#
# Poissons Ratio (x) = -0.02802 0.35310
# Poissons Ratio (y) = -0.02324 -0.17446
# Poissons Ratio (z) = 0.17539 -0.10449
#
# Static dielectric constant tensor:
#      x y z
#    x 1.646360 0.000000 -0.011860 
#    y 0.000000 1.632330 0.000000 
#    z -0.011860 0.000000 1.624400 
# 
# From -- ./inp_files/194698.got.cif
#   From: 2010.05.17/outbox.cif.g08.bks.cpg/sg12_98_cif.got.tgz:194698.got - 2010.06.03 13:09:07.
