data_PCOD9216149
_publ_section_title
;
Structure prediction by ZEFSAII (Michael W. Deem and Ramdas Pophale) SiO2 
 PCOD9216149
Probable space group: C 2/M
;
_chemical_formula_sum "Si O2"
_cell_formula_units_Z 60
_cell_length_a 16.629401
_cell_length_b 24.666741
_cell_length_c 11.611954
_cell_angle_alpha 90.000000
_cell_angle_beta 44.675401
_cell_angle_gamma 90.000000
_cell_volume 3348.916189
_symmetry_space_group_name_H-M "C 2/M"
_symmetry_group_IT_number 12
_symmetry_cell_setting 'monoclinic'
loop_
_space_group_symop_operation_xyz
x,y,z
-x,y,-z
-x,-y,-z
x,-y,z
1/2+x,1/2+y,z
1/2-x,1/2+y,-z
1/2-x,1/2-y,-z
1/2+x,1/2-y,z
loop_
_atom_site_type_symbol
_atom_site_label
_atom_site_fract_x
_atom_site_fract_y
_atom_site_fract_z
Si Si1 0.500000 0.682721 0.000000
Si Si2 0.762895 0.690364 0.754626
Si Si3 0.360662 0.850941 0.868175
Si Si4 0.259168 0.632932 0.641420
Si Si5 0.827496 0.799097 0.790485
Si Si6 0.618194 0.936405 0.945943
Si Si7 0.053721 0.173375 0.696087
Si Si8 0.387716 0.801128 0.385871
O O1 0.628071 0.707603 0.892921
O O2 0.525465 0.654952 0.853460
O O3 0.795649 0.642071 0.810890
O O4 0.835061 0.738518 0.738249
O O5 0.809207 0.685501 0.577421
O O6 0.487458 0.827113 0.723083
O O7 0.282460 0.808251 0.017815
O O8 0.367716 0.901435 0.951036
O O9 0.309972 0.667548 0.693187
O O10 0.210589 0.580666 0.754903
O O11 0.360860 0.630588 0.446847
O O12 0.163423 0.668843 0.673922
O O13 0.937587 0.819933 0.744289
O O14 0.621730 0.000000 0.967970
O O15 0.500000 0.923292 0.000000
O O16 0.104216 0.235759 0.641835
#
# Coordination Sequence:
#
# PCOD9216149 Si02
#       8
#     4   8   8   8   8   8   8   8
#     4  12  24  34  54  76 113 170 209 236 274 348
#     4  12  22  38  51  83 123 168 199 236 290 357
#     4  11  22  36  59  86 116 154 201 245 299 359
#     4  11  22  36  58  88 116 157 198 247 296 351
#     4  11  22  35  54  79 121 166 199 236 287 346
#     4  10  22  43  67  89 116 151 199 262 317 352
#     4  12  22  38  51  82 126 168 202 234 282 359
#     4  12  22  35  54  83 126 164 197 235 290 358
#
# _framework density 17.916243999999999
#
# number of rings (size 3 to 8) (size 9 to 14) (size 15 to 20)
#    0.000    0.667    6.667    3.200    0.000    1.067 
#    0.000    0.000    0.000    8.800    0.000    0.933 
#    0.000    0.000    0.000    0.000    0.000    0.000 
#
# Total GULP energy -167163.574913 kJ/mol
# GULP energy per Si atom -5572.119164 kJ/mol
# Density = 1.787547 g / cm^3
# Si number density = 17.916244 Si / 1000 Ang^3
#
#
#
# Elastic Constant Matrix: (Units=GPa)
#
#
# Indices 1 2 3 4 5 6 
#
# 1 126.5329 21.7501 26.2933 0.0000 6.7181 0.0000
# 2 21.7501 42.6453 15.3363 0.0000 6.0825 0.0000
# 3 26.2933 15.3363 117.4457 0.0000 6.1129 0.0000
# 4 0.0000 0.0000 0.0000 6.5396 0.0000 -2.5087
# 5 6.7181 6.0825 6.1129 0.0000 38.9194 0.0000
# 6 0.0000 0.0000 0.0000 -2.5087 0.0000 14.6938
#
#
#
# Elastic Compliance Matrix: (Units=1/GPa)
#
#
# Indices 1 2 3 4 5 6 
#
# 1 0.008916 -0.003927 -0.001447 0.000000 -0.000698 0.000000
# 2 -0.003927 0.026781 -0.002455 0.000000 -0.003122 0.000000
# 3 -0.001447 -0.002455 0.009201 0.000000 -0.000812 0.000000
# 4 0.000000 0.000000 0.000000 0.163631 0.000000 0.027937
# 5 -0.000698 -0.003122 -0.000812 0.000000 0.026430 0.000000
# 6 0.000000 0.000000 0.000000 0.027937 0.000000 0.072826
#
#
# Mechanical properties :
#
#
# Convention : Reuss Voigt Hill
#
# Bulk Modulus (GPa) = 34.20139 45.93147 40.06643
# Shear Modulus (GPa) = 15.00645 26.91351 20.95998
#
# Velocity S-wave (km/s) = 2.89725 3.88001 3.42407
# Velocity P-wave (km/s) = 5.50664 6.76499 6.16799
#
# Compressibility (1/GPa) = 0.02923858
#
# Stress axis : x y z
#
# Youngs Moduli (GPa) = 112.15925 37.34053 108.67954
#
# Poissons Ratio (x) = 0.14665 0.15725
# Poissons Ratio (y) = 0.44050 0.26684
# Poissons Ratio (z) = 0.16228 0.09168
#
# Static dielectric constant tensor:
#      x y z
#    x 1.683710 0.000000 -0.004190 
#    y 0.000000 1.596690 0.000000 
#    z -0.004190 0.000000 1.697200 
# 
# From -- ./inp_files/160723.got.cif
#   From: 2010.05.17/outbox.cif.g08.bks.cpg/sg12_81_cif.got.tgz:160723.got - 2010.06.03 13:09:07.
