data_PCOD9216735
_publ_section_title
;
Structure prediction by ZEFSAII (Michael W. Deem and Ramdas Pophale) SiO2 
 PCOD9216735
Probable space group: C 2/M
;
_chemical_formula_sum "Si O2"
_cell_formula_units_Z 40
_cell_length_a 21.811477
_cell_length_b 13.533054
_cell_length_c 22.766032
_cell_angle_alpha 90.000000
_cell_angle_beta 162.025004
_cell_angle_gamma 90.000000
_cell_volume 2073.799945
_symmetry_space_group_name_H-M "C 2/M"
_symmetry_group_IT_number 12
_symmetry_cell_setting 'monoclinic'
loop_
_space_group_symop_operation_xyz
x,y,z
-x,y,-z
-x,-y,-z
x,-y,z
1/2+x,1/2+y,z
1/2-x,1/2+y,-z
1/2-x,1/2-y,-z
1/2+x,1/2-y,z
loop_
_atom_site_type_symbol
_atom_site_label
_atom_site_fract_x
_atom_site_fract_y
_atom_site_fract_z
Si Si1 0.598801 0.000000 0.341454
Si Si2 0.633744 0.792033 0.040229
Si Si3 0.215614 0.198294 0.690349
Si Si4 0.158756 0.000000 0.561202
Si Si5 0.731681 0.163552 0.935778
Si Si6 0.992574 0.000000 0.774095
Si Si7 0.765178 0.000000 0.126165
O O1 0.702583 0.000000 0.371392
O O2 0.769803 0.000000 0.547133
O O3 0.456909 0.094776 0.221985
O O4 0.710932 0.812181 0.175926
O O5 0.640351 0.900339 0.017284
O O6 0.407589 0.753150 0.834811
O O7 0.772120 0.717851 0.130339
O O8 0.184870 0.096221 0.626201
O O9 0.000000 0.247724 0.500000
O O10 0.935970 0.000000 0.331511
O O11 0.928152 0.095553 0.119394
O O12 0.750000 0.250000 0.000000
O O13 0.123586 0.000000 0.834041
#
# Coordination Sequence:
#
# PCOD9216735 Si02
#       7
#     4   8   8   4   8   4   4
#     4  10  25  41  64  95 126 166 205 254 312 374
#     4  11  23  36  59  87 125 164 204 245 297 375
#     4  11  22  36  54  88 123 162 197 247 307 366
#     4  11  20  36  58  89 131 163 193 242 315 388
#     4  11  22  40  63  89 124 167 211 254 307 366
#     4  10  23  40  58  90 125 165 206 252 308 355
#     4  11  19  36  57  90 128 164 195 239 309 375
#
# _framework density 19.288264000000002
#
# number of rings (size 3 to 8) (size 9 to 14) (size 15 to 20)
#    0.000    1.200    4.000    2.700    2.800    4.000 
#    0.000    0.000    0.000    9.600    0.000   11.200 
#    0.000    0.000    0.000    0.000    0.000    0.000 
#
# Total GULP energy -111556.828234 kJ/mol
# GULP energy per Si atom -5577.841412 kJ/mol
# Density = 1.924436 g / cm^3
# Si number density = 19.288264 Si / 1000 Ang^3
#
#
#
# Elastic Constant Matrix: (Units=GPa)
#
#
# Indices 1 2 3 4 5 6 
#
# 1 98.1683 37.3273 28.6579 0.0084 8.5165 -0.0063
# 2 37.3273 88.0236 25.6835 -0.0343 4.3774 0.0008
# 3 28.6579 25.6835 114.2572 -0.0242 16.0458 -0.0122
# 4 0.0084 -0.0343 -0.0242 3.8995 -0.0272 18.6725
# 5 8.5165 4.3774 16.0458 -0.0272 40.2111 0.0154
# 6 -0.0063 0.0008 -0.0122 18.6725 0.0154 1.9600
#
#
#
# Elastic Compliance Matrix: (Units=1/GPa)
#
#
# Indices 1 2 3 4 5 6 
#
# 1 0.012671 -0.004745 -0.001915 0.000006 -0.001403 -0.000020
# 2 -0.004745 0.013937 -0.001982 -0.000007 0.000279 0.000027
# 3 -0.001915 -0.001982 0.010160 0.000009 -0.003433 0.000004
# 4 0.000006 -0.000007 0.000009 -0.005747 -0.000029 0.054755
# 5 -0.001403 0.000279 -0.003433 -0.000029 0.026506 0.000041
# 6 -0.000020 0.000027 0.000004 0.054755 0.000041 -0.011435
#
#
# Mechanical properties :
#
#
# Convention : Reuss Voigt Hill
#
# Bulk Modulus (GPa) = 51.31965 53.75404 52.53685
# Shear Modulus (GPa) = 71.56104 23.13280 47.34692
#
# Velocity S-wave (km/s) = 6.09765 3.46688 4.95987
# Velocity P-wave (km/s) = 8.73153 6.62985 7.75224
#
# Compressibility (1/GPa) = 0.01948571
#
# Stress axis : x y z
#
# Youngs Moduli (GPa) = 78.91734 71.75045 98.42511
#
# Poissons Ratio (x) = 0.34046 0.18844
# Poissons Ratio (y) = 0.37447 0.19507
# Poissons Ratio (z) = 0.15109 0.14220
#
# Static dielectric constant tensor:
#      x y z
#    x 1.691200 0.000000 0.010940 
#    y 0.000000 1.645210 0.000000 
#    z 0.010940 0.000000 1.733850 
# 
# From -- ./inp_files/322180.got.cif
#   From: 2010.05.17/outbox.cif.g08.bks.cpg/sg12_162_cif.got.tgz:322180.got - 2010.06.03 13:09:07.
