data_PCOD9216928
_publ_section_title
;
Structure prediction by ZEFSAII (Michael W. Deem and Ramdas Pophale) SiO2 
 PCOD9216928
Probable space group: C 2/M
;
_chemical_formula_sum "Si O2"
_cell_formula_units_Z 48
_cell_length_a 25.100682
_cell_length_b 8.810826
_cell_length_c 20.647387
_cell_angle_alpha 90.000000
_cell_angle_beta 144.243194
_cell_angle_gamma 90.000000
_cell_volume 2668.316667
_symmetry_space_group_name_H-M "C 2/M"
_symmetry_group_IT_number 12
_symmetry_cell_setting 'monoclinic'
loop_
_space_group_symop_operation_xyz
x,y,z
-x,y,-z
-x,-y,-z
x,-y,z
1/2+x,1/2+y,z
1/2-x,1/2+y,-z
1/2-x,1/2-y,-z
1/2+x,1/2-y,z
loop_
_atom_site_type_symbol
_atom_site_label
_atom_site_fract_x
_atom_site_fract_y
_atom_site_fract_z
Si Si1 0.188519 0.681321 0.996823
Si Si2 0.299795 0.318047 0.612132
Si Si3 0.983071 0.681685 0.752163
Si Si4 0.503624 0.680839 0.630603
Si Si5 0.169264 0.318618 0.603300
Si Si6 0.803254 0.318667 0.221925
O O1 0.199261 0.500000 0.006927
O O2 0.225489 0.747997 0.100325
O O3 0.250000 0.750000 0.000000
O O4 0.082833 0.716623 0.878953
O O5 0.303849 0.500000 0.610157
O O6 0.250000 0.250000 0.500000
O O7 0.400831 0.249350 0.712706
O O8 0.241115 0.280422 0.617898
O O9 0.973468 0.500000 0.737241
O O10 0.977511 0.753788 0.675249
O O11 0.510231 0.500000 0.639700
O O12 0.424667 0.732590 0.503695
O O13 0.600172 0.751750 0.706060
O O14 0.151236 0.500000 0.582013
O O15 0.205989 0.284960 0.711080
O O16 0.804685 0.500000 0.214389
#
# Coordination Sequence:
#
# PCOD9216928 Si02
#       6
#     8   8   8   8   8   8
#     4  11  23  39  62  88 118 157 199 246 297 353
#     4  11  22  38  62  89 118 156 201 246 293 352
#     4  11  23  39  60  88 121 155 196 246 299 353
#     4  12  23  35  59  91 122 156 196 246 299 357
#     4  10  23  41  60  85 122 162 198 240 301 359
#     4  11  23  40  61  86 121 162 198 244 299 356
#
# _framework density 17.988871
#
# number of rings (size 3 to 8) (size 9 to 14) (size 15 to 20)
#    0.000    1.000    3.333    4.000    0.000    6.000 
#    0.000    0.833    0.000    5.000    0.000    0.000 
#    0.000    0.000    0.000    0.000    0.000    0.000 
#
# Total GULP energy -134226.591671 kJ/mol
# GULP energy per Si atom -5592.774653 kJ/mol
# Density = 1.794793 g / cm^3
# Si number density = 17.988871 Si / 1000 Ang^3
#
#
#
# Elastic Constant Matrix: (Units=GPa)
#
#
# Indices 1 2 3 4 5 6 
#
# 1 54.5104 24.0738 29.2312 0.0000 1.7034 0.0000
# 2 24.0738 59.9091 54.3958 0.0000 1.4583 0.0000
# 3 29.2312 54.3958 127.8248 0.0000 -2.6495 0.0000
# 4 0.0000 0.0000 0.0000 35.8899 0.0000 1.6262
# 5 1.7034 1.4583 -2.6495 0.0000 33.1688 0.0000
# 6 0.0000 0.0000 0.0000 1.6262 0.0000 27.8648
#
#
#
# Elastic Compliance Matrix: (Units=1/GPa)
#
#
# Indices 1 2 3 4 5 6 
#
# 1 0.022688 -0.007108 -0.002185 0.000000 -0.001027 0.000000
# 2 -0.007108 0.029580 -0.011000 0.000000 -0.001814 0.000000
# 3 -0.002185 -0.011000 0.013038 0.000000 0.001637 0.000000
# 4 0.000000 0.000000 0.000000 0.027937 0.000000 -0.001630
# 5 -0.001027 -0.001814 0.001637 0.000000 0.030412 0.000000
# 6 0.000000 0.000000 0.000000 -0.001630 0.000000 0.035983
#
#
# Mechanical properties :
#
#
# Convention : Reuss Voigt Hill
#
# Bulk Modulus (GPa) = 40.45279 50.84952 45.65115
# Shear Modulus (GPa) = 23.98504 28.35427 26.16966
#
# Velocity S-wave (km/s) = 3.65544 3.97446 3.81828
# Velocity P-wave (km/s) = 6.35238 7.02783 6.69862
#
# Compressibility (1/GPa) = 0.02472017
#
# Stress axis : x y z
#
# Youngs Moduli (GPa) = 44.07604 33.80658 76.70056
#
# Poissons Ratio (x) = 0.24031 0.16757
# Poissons Ratio (y) = 0.31331 0.84369
# Poissons Ratio (z) = 0.09629 0.37187
#
# Static dielectric constant tensor:
#      x y z
#    x 1.600040 0.000000 -0.002840 
#    y 0.000000 1.602590 0.000000 
#    z -0.002840 0.000000 1.600700 
# 
# From -- ./inp_files/179749.got.cif
#   From: 2010.05.17/outbox.cif.g08.bks.cpg/sg12_90_cif.got.tgz:179749.got - 2010.06.03 13:09:07.
