data_PCOD9216622
_publ_section_title
;
Structure prediction by ZEFSAII (Michael W. Deem and Ramdas Pophale) SiO2 
 PCOD9216622
Probable space group: C 2/M
;
_chemical_formula_sum "Si O2"
_cell_formula_units_Z 28
_cell_length_a 5.100786
_cell_length_b 26.281403
_cell_length_c 11.395383
_cell_angle_alpha 90.000000
_cell_angle_beta 53.290209
_cell_angle_gamma 90.000000
_cell_volume 1224.650340
_symmetry_space_group_name_H-M "C 2/M"
_symmetry_group_IT_number 12
_symmetry_cell_setting 'monoclinic'
loop_
_space_group_symop_operation_xyz
x,y,z
-x,y,-z
-x,-y,-z
x,-y,z
1/2+x,1/2+y,z
1/2-x,1/2+y,-z
1/2-x,1/2-y,-z
1/2+x,1/2-y,z
loop_
_atom_site_type_symbol
_atom_site_label
_atom_site_fract_x
_atom_site_fract_y
_atom_site_fract_z
Si Si1 0.129227 0.059368 0.649584
Si Si2 0.900760 0.213267 0.341171
Si Si3 0.000000 0.867640 0.500000
Si Si4 0.379751 0.630691 0.901309
O O1 0.500000 0.065197 0.500000
O O2 0.888910 0.092003 0.628742
O O3 0.089505 0.085705 0.785536
O O4 0.050324 0.000000 0.670139
O O5 0.142319 0.251621 0.343498
O O6 0.070902 0.179675 0.195145
O O7 0.807069 0.171784 0.467820
O O8 0.500000 0.641215 0.000000
O O9 0.000000 0.616475 0.000000
#
# Coordination Sequence:
#
# PCOD9216622 Si02
#       4
#     8   8   4   8
#     4  10  24  44  72 101 133 178 229 283 341 406
#     4  11  24  40  67  99 134 180 227 276 332 400
#     4  10  23  38  68  96 140 170 225 284 340 396
#     4  11  26  45  69 100 141 182 224 280 339 404
#
# _framework density 22.863669000000002
#
# number of rings (size 3 to 8) (size 9 to 14) (size 15 to 20)
#    0.000    1.429    0.000    3.000   16.000    4.571 
#    0.000    0.000    0.000    0.000    0.000    0.000 
#    0.000    0.000    0.000    0.000    0.000    0.000 
#
# Total GULP energy -78122.601094 kJ/mol
# GULP energy per Si atom -5580.185792 kJ/mol
# Density = 2.281163 g / cm^3
# Si number density = 22.863669 Si / 1000 Ang^3
#
#
#
# Elastic Constant Matrix: (Units=GPa)
#
#
# Indices 1 2 3 4 5 6 
#
# 1 161.8176 68.5882 58.2678 0.0000 23.2722 0.0000
# 2 68.5882 212.2645 71.8562 0.0000 11.7630 0.0000
# 3 58.2678 71.8562 128.3577 0.0000 26.4128 0.0000
# 4 0.0000 0.0000 0.0000 21.1477 0.0000 -7.7603
# 5 23.2722 11.7630 26.4128 0.0000 48.7724 0.0000
# 6 0.0000 0.0000 0.0000 -7.7603 0.0000 10.1105
#
#
#
# Elastic Compliance Matrix: (Units=1/GPa)
#
#
# Indices 1 2 3 4 5 6 
#
# 1 0.008028 -0.001717 -0.002228 0.000000 -0.002210 0.000000
# 2 -0.001717 0.006187 -0.002865 0.000000 0.000879 0.000000
# 3 -0.002228 -0.002865 0.011305 0.000000 -0.004368 0.000000
# 4 0.000000 0.000000 0.000000 0.065827 0.000000 0.050525
# 5 -0.002210 0.000879 -0.004368 0.000000 0.023711 0.000000
# 6 0.000000 0.000000 0.000000 0.050525 0.000000 0.137687
#
#
# Mechanical properties :
#
#
# Convention : Reuss Voigt Hill
#
# Bulk Modulus (GPa) = 84.03978 99.98491 92.01235
# Shear Modulus (GPa) = 18.49578 36.25463 27.37521
#
# Velocity S-wave (km/s) = 2.84731 3.98639 3.46399
# Velocity P-wave (km/s) = 6.90263 8.06314 7.50535
#
# Compressibility (1/GPa) = 0.01189913
#
# Stress axis : x y z
#
# Youngs Moduli (GPa) = 124.56727 161.62579 88.45779
#
# Poissons Ratio (x) = 0.27755 0.19710
# Poissons Ratio (y) = 0.21391 0.25342
# Poissons Ratio (z) = 0.27756 0.46304
#
# Static dielectric constant tensor:
#      x y z
#    x 1.918030 0.000000 -0.038130 
#    y 0.000000 1.828220 0.000000 
#    z -0.038130 0.000000 1.886890 
# 
# From -- ./inp_files/33909.got.cif
#   From: 2010.05.17/outbox.cif.g08.bks.cpg/sg12_17_cif.got.tgz:33909.got - 2010.06.03 13:09:07.
