data_PCOD9216740
_publ_section_title
;
Structure prediction by ZEFSAII (Michael W. Deem and Ramdas Pophale) SiO2 
 PCOD9216740
Probable space group: C 2/M
;
_chemical_formula_sum "Si O2"
_cell_formula_units_Z 48
_cell_length_a 12.174704
_cell_length_b 13.541806
_cell_length_c 19.292083
_cell_angle_alpha 90.000000
_cell_angle_beta 44.246251
_cell_angle_gamma 90.000000
_cell_volume 2219.269147
_symmetry_space_group_name_H-M "C 2/M"
_symmetry_group_IT_number 12
_symmetry_cell_setting 'monoclinic'
loop_
_space_group_symop_operation_xyz
x,y,z
-x,y,-z
-x,-y,-z
x,-y,z
1/2+x,1/2+y,z
1/2-x,1/2+y,-z
1/2-x,1/2-y,-z
1/2+x,1/2-y,z
loop_
_atom_site_type_symbol
_atom_site_label
_atom_site_fract_x
_atom_site_fract_y
_atom_site_fract_z
Si Si1 0.743849 0.880604 0.087556
Si Si2 0.356364 0.617655 0.763477
Si Si3 0.287583 0.881400 0.737304
Si Si4 0.899696 0.728052 0.385686
Si Si5 0.557712 0.379949 0.129342
Si Si6 0.112778 0.380947 0.753788
O O1 0.747831 0.853591 0.166384
O O2 0.566557 0.857634 0.143883
O O3 0.760045 0.000000 0.080934
O O4 0.871922 0.843621 0.975130
O O5 0.367980 0.500000 0.756339
O O6 0.518291 0.668653 0.669424
O O7 0.332917 0.646249 0.854631
O O8 0.227959 0.646177 0.764384
O O9 0.455408 0.832753 0.644180
O O10 0.124232 0.853019 0.774165
O O11 0.305659 0.000000 0.724696
O O12 0.750000 0.750000 0.500000
O O13 0.857003 0.669642 0.334200
O O14 0.556179 0.500000 0.125676
O O15 0.122100 0.500000 0.739599
#
# Coordination Sequence:
#
# PCOD9216740 Si02
#       6
#     8   8   8   8   8   8
#     4   8  14  29  59  91 118 158 200 235 288 360
#     4  10  23  40  59  87 125 161 196 247 301 358
#     4   9  18  35  60  91 124 155 197 253 302 354
#     4  11  24  40  63  85 112 154 210 257 306 356
#     4   9  17  32  58  90 124 158 192 238 301 361
#     4   9  20  41  64  89 123 159 200 245 295 361
#
# _framework density 21.628741000000002
#
# number of rings (size 3 to 8) (size 9 to 14) (size 15 to 20)
#    0.000    2.667    0.000    2.000    2.333    4.667 
#    0.000    8.333    7.333    3.000    0.000    0.000 
#    0.000    0.000    0.000    0.000    0.000    0.000 
#
# Total GULP energy -134007.728855 kJ/mol
# GULP energy per Si atom -5583.655369 kJ/mol
# Density = 2.157951 g / cm^3
# Si number density = 21.628741 Si / 1000 Ang^3
#
#
#
# Elastic Constant Matrix: (Units=GPa)
#
#
# Indices 1 2 3 4 5 6 
#
# 1 131.6695 23.3436 37.6506 0.0000 -20.4785 0.0000
# 2 23.3436 77.0012 15.6034 0.0000 -1.7408 0.0000
# 3 37.6506 15.6034 107.8168 0.0000 -18.4722 0.0000
# 4 0.0000 0.0000 0.0000 31.2216 0.0000 -4.3287
# 5 -20.4785 -1.7408 -18.4722 0.0000 13.0044 0.0000
# 6 0.0000 0.0000 0.0000 -4.3287 0.0000 32.8922
#
#
#
# Elastic Compliance Matrix: (Units=1/GPa)
#
#
# Indices 1 2 3 4 5 6 
#
# 1 0.010687 -0.002752 -0.000679 0.000000 0.015497 0.000000
# 2 -0.002752 0.014104 -0.001981 0.000000 -0.005260 0.000000
# 3 -0.000679 -0.001981 0.012648 0.000000 0.016633 0.000000
# 4 0.000000 0.000000 0.000000 0.032624 0.000000 0.004293
# 5 0.015497 -0.005260 0.016633 0.000000 0.124222 0.000000
# 6 0.000000 0.000000 0.000000 0.004293 0.000000 0.030967
#
#
# Mechanical properties :
#
#
# Convention : Reuss Voigt Hill
#
# Bulk Modulus (GPa) = 37.57267 52.18695 44.87981
# Shear Modulus (GPa) = 20.41251 31.41631 25.91441
#
# Velocity S-wave (km/s) = 3.07541 3.81534 3.46518
# Velocity P-wave (km/s) = 5.47907 6.60227 6.06672
#
# Compressibility (1/GPa) = 0.02661509
#
# Stress axis : x y z
#
# Youngs Moduli (GPa) = 93.57232 70.90358 79.06165
#
# Poissons Ratio (x) = 0.19513 0.05366
# Poissons Ratio (y) = 0.25751 0.15664
# Poissons Ratio (z) = 0.06350 0.14048
#
# Static dielectric constant tensor:
#      x y z
#    x 1.828640 0.000000 -0.003650 
#    y 0.000000 1.874860 0.000000 
#    z -0.003650 0.000000 1.720360 
# 
# From -- ./inp_files/305642.got.cif
#   From: 2010.05.17/outbox.cif.g08.bks.cpg/sg12_153_cif.got.tgz:305642.got - 2010.06.03 13:09:07.
