data_PCOD9216136
_publ_section_title
;
Structure prediction by ZEFSAII (Michael W. Deem and Ramdas Pophale) SiO2 
 PCOD9216136
Probable space group: C 2/M
;
_chemical_formula_sum "Si O2"
_cell_formula_units_Z 56
_cell_length_a 13.386806
_cell_length_b 21.673797
_cell_length_c 9.579187
_cell_angle_alpha 90.000000
_cell_angle_beta 88.234237
_cell_angle_gamma 90.000000
_cell_volume 2778.013484
_symmetry_space_group_name_H-M "C 2/M"
_symmetry_group_IT_number 12
_symmetry_cell_setting 'monoclinic'
loop_
_space_group_symop_operation_xyz
x,y,z
-x,y,-z
-x,-y,-z
x,-y,z
1/2+x,1/2+y,z
1/2-x,1/2+y,-z
1/2-x,1/2-y,-z
1/2+x,1/2-y,z
loop_
_atom_site_type_symbol
_atom_site_label
_atom_site_fract_x
_atom_site_fract_y
_atom_site_fract_z
Si Si1 0.262393 0.823664 0.025905
Si Si2 0.608859 0.840698 0.242914
Si Si3 0.875302 0.669714 0.305406
Si Si4 0.395765 0.595266 0.583258
Si Si5 0.882819 0.760006 0.539484
Si Si6 0.103970 0.929196 0.081804
Si Si7 0.182451 0.568887 0.473328
O O1 0.304445 0.833136 0.177634
O O2 0.169484 0.871445 0.022070
O O3 0.250000 0.750000 0.000000
O O4 0.344503 0.843907 0.910202
O O5 0.489591 0.831955 0.248811
O O6 0.644670 0.780143 0.325618
O O7 0.651260 0.897176 0.332455
O O8 0.840423 0.727831 0.402419
O O9 0.865057 0.610875 0.404807
O O10 0.500000 0.581113 0.500000
O O11 0.374156 0.668266 0.567018
O O12 0.404539 0.579119 0.748051
O O13 0.300387 0.567291 0.506937
O O14 0.000000 0.749221 0.500000
O O15 0.143853 0.000000 0.058947
O O16 0.000000 0.926692 0.000000
O O17 0.143422 0.500000 0.475844
#
# Coordination Sequence:
#
# PCOD9216136 Si02
#       7
#     8   8   8   8   8   8   8
#     4  12  26  41  70 102 137 179 223 280 335 405
#     4  10  23  40  64  98 130 171 216 266 328 397
#     4  10  22  43  66  95 136 173 213 270 337 398
#     4  11  23  40  69  99 125 168 224 281 336 397
#     4   8  18  37  63  93 129 163 205 266 330 392
#     4  11  27  49  67  92 139 186 225 278 345 411
#     4  11  24  41  66  96 129 170 223 275 330 397
#
# _framework density 20.158290000000001
#
# number of rings (size 3 to 8) (size 9 to 14) (size 15 to 20)
#    0.000    1.571    1.429    3.000    4.000    7.429 
#    0.000    0.000    0.000    2.571    0.000    0.000 
#    0.000    0.000    0.000    0.000    0.000    0.000 
#
# Total GULP energy -156255.247588 kJ/mol
# GULP energy per Si atom -5580.544557 kJ/mol
# Density = 2.011241 g / cm^3
# Si number density = 20.158290 Si / 1000 Ang^3
#
#
#
# Elastic Constant Matrix: (Units=GPa)
#
#
# Indices 1 2 3 4 5 6 
#
# 1 70.5061 10.7605 -7.0854 0.0000 -2.1293 0.0000
# 2 10.7605 128.3350 18.1376 0.0000 -3.9506 0.0000
# 3 -7.0854 18.1376 67.9961 0.0000 -4.0817 0.0000
# 4 0.0000 0.0000 0.0000 -3.3738 0.0000 2.9584
# 5 -2.1293 -3.9506 -4.0817 0.0000 37.2227 0.0000
# 6 0.0000 0.0000 0.0000 2.9584 0.0000 20.1812
#
#
#
# Elastic Compliance Matrix: (Units=1/GPa)
#
#
# Indices 1 2 3 4 5 6 
#
# 1 0.014634 -0.001478 0.001973 0.000000 0.000897 0.000000
# 2 -0.001478 0.008261 -0.002325 0.000000 0.000537 0.000000
# 3 0.001973 -0.002325 0.015627 0.000000 0.001580 0.000000
# 4 0.000000 0.000000 0.000000 -0.262642 0.000000 0.038501
# 5 0.000897 0.000537 0.001580 0.000000 0.027147 0.000000
# 6 0.000000 0.000000 0.000000 0.038501 0.000000 0.043907
#
#
# Mechanical properties :
#
#
# Convention : Reuss Voigt Hill
#
# Bulk Modulus (GPa) = 28.68491 34.49586 31.59039
# Shear Modulus (GPa) = -36.28891 27.14100 -4.57396
#
# Velocity S-wave (km/s) = -4.24748 3.67330 -1.50796
# Velocity P-wave (km/s) = 3.12954 5.92794 3.55995
#
# Compressibility (1/GPa) = 0.03486153
#
# Stress axis : x y z
#
# Youngs Moduli (GPa) = 68.33335 121.04708 63.98997
#
# Poissons Ratio (x) = 0.17894 -0.12626
# Poissons Ratio (y) = 0.10102 0.14880
# Poissons Ratio (z) = -0.13483 0.28149
#
# Static dielectric constant tensor:
#      x y z
#    x 1.772810 0.000000 0.003900 
#    y 0.000000 1.833600 0.000000 
#    z 0.003900 0.000000 1.686380 
# 
# From -- ./inp_files/64090.got.cif
#   From: 2010.05.17/outbox.cif.g08.bks.cpg/sg12_33_cif.got.tgz:64090.got - 2010.06.03 13:09:07.
