data_PCOD9216205
_publ_section_title
;
Structure prediction by ZEFSAII (Michael W. Deem and Ramdas Pophale) SiO2 
 PCOD9216205
Probable space group: C 2/M
;
_chemical_formula_sum "Si O2"
_cell_formula_units_Z 32
_cell_length_a 14.811386
_cell_length_b 16.943224
_cell_length_c 8.947313
_cell_angle_alpha 90.000000
_cell_angle_beta 31.958464
_cell_angle_gamma 90.000000
_cell_volume 1188.474421
_symmetry_space_group_name_H-M "C 2/M"
_symmetry_group_IT_number 12
_symmetry_cell_setting 'monoclinic'
loop_
_space_group_symop_operation_xyz
x,y,z
-x,y,-z
-x,-y,-z
x,-y,z
1/2+x,1/2+y,z
1/2-x,1/2+y,-z
1/2-x,1/2-y,-z
1/2+x,1/2-y,z
loop_
_atom_site_type_symbol
_atom_site_label
_atom_site_fract_x
_atom_site_fract_y
_atom_site_fract_z
Si Si1 0.566192 0.239809 0.576666
Si Si2 0.984448 0.414009 0.843589
Si Si3 0.186445 0.115294 0.796238
Si Si4 0.501277 0.585653 0.319393
O O1 0.500000 0.240349 0.500000
O O2 0.447818 0.174533 0.829144
O O3 0.757266 0.205603 0.301605
O O4 0.574710 0.329571 0.620496
O O5 0.893526 0.500000 0.944402
O O6 0.165941 0.422893 0.506928
O O7 0.000000 0.407007 0.000000
O O8 0.180648 0.090549 0.978267
O O9 0.000000 0.095814 0.000000
O O10 0.500000 0.587629 0.500000
O O11 0.425292 0.500000 0.386849
#
# Coordination Sequence:
#
# PCOD9216205 Si02
#       4
#     8   8   8   8
#     4   9  22  43  69 103 142 180 236 285 350 412
#     4   9  20  42  68 101 143 188 234 286 351 423
#     4  10  23  44  71 101 141 182 233 290 353 411
#     4  10  22  43  69 101 140 185 234 286 348 418
#
# _framework density 26.925276
#
# number of rings (size 3 to 8) (size 9 to 14) (size 15 to 20)
#    1.500    1.000    0.000    0.750    0.000    8.500 
#    9.000    0.000    0.000    0.750    0.000    0.000 
#    0.000    0.000    0.000    0.000    0.000    0.000 
#
# Total GULP energy -89132.044777 kJ/mol
# GULP energy per Si atom -5570.752799 kJ/mol
# Density = 2.686399 g / cm^3
# Si number density = 26.925276 Si / 1000 Ang^3
#
#
#
# Elastic Constant Matrix: (Units=GPa)
#
#
# Indices 1 2 3 4 5 6 
#
# 1 43.9748 29.6118 21.5028 -0.0012 20.6078 -0.0010
# 2 29.6118 311.4715 44.7959 0.0005 19.7766 -0.0012
# 3 21.5028 44.7959 203.2766 0.0000 37.5454 -0.0006
# 4 -0.0012 0.0005 0.0000 61.3312 0.0008 2.2588
# 5 20.6078 19.7766 37.5454 0.0008 44.7706 0.0001
# 6 -0.0010 -0.0012 -0.0006 2.2588 0.0001 28.7590
#
#
#
# Elastic Compliance Matrix: (Units=1/GPa)
#
#
# Indices 1 2 3 4 5 6 
#
# 1 0.030240 -0.002010 -0.000413 0.000001 -0.012685 0.000001
# 2 -0.002010 0.003488 -0.000523 0.000000 -0.000177 0.000000
# 3 -0.000413 -0.000523 0.005917 0.000000 -0.004541 0.000000
# 4 0.000001 0.000000 0.000000 0.016352 -0.000001 -0.001284
# 5 -0.012685 -0.000177 -0.004541 -0.000001 0.032061 -0.000001
# 6 0.000001 0.000000 0.000000 -0.001284 -0.000001 0.034873
#
#
# Mechanical properties :
#
#
# Convention : Reuss Voigt Hill
#
# Bulk Modulus (GPa) = 29.62712 83.39377 56.51045
# Shear Modulus (GPa) = 35.69497 57.82632 46.76065
#
# Velocity S-wave (km/s) = 3.64497 4.63931 4.17187
# Velocity P-wave (km/s) = 5.36114 7.72898 6.65128
#
# Compressibility (1/GPa) = 0.03375286
#
# Stress axis : x y z
#
# Youngs Moduli (GPa) = 33.06826 286.68356 169.00029
#
# Poissons Ratio (x) = 0.57628 0.06978
# Poissons Ratio (y) = 0.06647 0.08846
# Poissons Ratio (z) = 0.01365 0.15006
#
# Static dielectric constant tensor:
#      x y z
#    x 2.210980 0.000000 0.027930 
#    y 0.000000 2.154980 0.000000 
#    z 0.027930 0.000000 2.114920 
# 
# From -- ./inp_files/87592.got.cif
#   From: 2010.05.17/outbox.cif.g08.bks.cpg/sg12_44_cif.got.tgz:87592.got - 2010.06.03 13:09:07.
