data_PCOD9216969
_publ_section_title
;
Structure prediction by ZEFSAII (Michael W. Deem and Ramdas Pophale) SiO2 
 PCOD9216969
Probable space group: C 2/M
;
_chemical_formula_sum "Si O2"
_cell_formula_units_Z 48
_cell_length_a 10.217308
_cell_length_b 25.606762
_cell_length_c 7.869774
_cell_angle_alpha 90.000000
_cell_angle_beta 105.530098
_cell_angle_gamma 90.000000
_cell_volume 1983.812372
_symmetry_space_group_name_H-M "C 2/M"
_symmetry_group_IT_number 12
_symmetry_cell_setting 'monoclinic'
loop_
_space_group_symop_operation_xyz
x,y,z
-x,y,-z
-x,-y,-z
x,-y,z
1/2+x,1/2+y,z
1/2-x,1/2+y,-z
1/2-x,1/2-y,-z
1/2+x,1/2-y,z
loop_
_atom_site_type_symbol
_atom_site_label
_atom_site_fract_x
_atom_site_fract_y
_atom_site_fract_z
Si Si1 0.508287 0.897452 0.805054
Si Si2 0.115001 0.296831 0.659796
Si Si3 0.702823 0.594991 0.035131
Si Si4 0.895587 0.201920 0.118408
Si Si5 0.286926 0.441286 0.335307
Si Si6 0.377298 0.362774 0.650109
O O1 0.528901 0.844331 0.710928
O O2 0.374882 0.929048 0.710658
O O3 0.500000 0.884261 0.000000
O O4 0.653220 0.925967 0.844687
O O5 0.161197 0.252893 0.809926
O O6 0.246343 0.324135 0.621264
O O7 0.000000 0.272055 0.500000
O O8 0.707508 0.656537 0.978074
O O9 0.673291 0.565813 0.849412
O O10 0.615171 0.601187 0.175048
O O11 0.990301 0.172294 0.287933
O O12 0.000000 0.214845 0.000000
O O13 0.316012 0.500000 0.398935
O O14 0.354679 0.399985 0.483868
#
# Coordination Sequence:
#
# PCOD9216969 Si02
#       6
#     8   8   8   8   8   8
#     4   9  19  37  59  86 125 154 198 254 301 357
#     4  11  21  35  60  94 123 163 201 246 301 364
#     4   9  22  40  61  89 124 159 202 250 298 365
#     4  10  23  41  62  90 125 169 203 242 303 369
#     4  11  23  41  66  92 119 158 209 261 316 358
#     4  10  23  42  62  90 129 160 204 255 302 362
#
# _framework density 24.195837000000001
#
# number of rings (size 3 to 8) (size 9 to 14) (size 15 to 20)
#    0.000    2.000    1.667    0.500    2.333   13.000 
#    0.000    7.500    0.000    3.000    0.000    0.000 
#    0.000    0.000    0.000    0.000    0.000    0.000 
#
# Total GULP energy -134116.835879 kJ/mol
# GULP energy per Si atom -5588.201495 kJ/mol
# Density = 2.414077 g / cm^3
# Si number density = 24.195837 Si / 1000 Ang^3
#
#
#
# Elastic Constant Matrix: (Units=GPa)
#
#
# Indices 1 2 3 4 5 6 
#
# 1 79.4342 44.9142 1.5539 0.0000 18.5719 0.0000
# 2 44.9142 105.3080 46.6805 0.0000 -4.9976 0.0000
# 3 1.5539 46.6805 116.4032 0.0000 8.0039 0.0000
# 4 0.0000 0.0000 0.0000 23.2520 0.0000 -10.3503
# 5 18.5719 -4.9976 8.0039 0.0000 30.1103 0.0000
# 6 0.0000 0.0000 0.0000 -10.3503 0.0000 5.5141
#
#
#
# Elastic Compliance Matrix: (Units=1/GPa)
#
#
# Indices 1 2 3 4 5 6 
#
# 1 0.025699 -0.015063 0.007089 0.000000 -0.020235 0.000000
# 2 -0.015063 0.020690 -0.009138 0.000000 0.015154 0.000000
# 3 0.007089 -0.009138 0.012800 0.000000 -0.009292 0.000000
# 4 0.000000 0.000000 0.000000 0.261521 0.000000 0.490894
# 5 -0.020235 0.015154 -0.009292 0.000000 0.050677 0.000000
# 6 0.000000 0.000000 0.000000 0.490894 0.000000 1.102798
#
#
# Mechanical properties :
#
#
# Convention : Reuss Voigt Hill
#
# Bulk Modulus (GPa) = 40.05798 54.16031 47.10915
# Shear Modulus (GPa) = 3.29656 25.64172 14.46914
#
# Velocity S-wave (km/s) = 1.16851 3.25892 2.44806
# Velocity P-wave (km/s) = 4.29095 6.04926 5.24432
#
# Compressibility (1/GPa) = 0.02496381
#
# Stress axis : x y z
#
# Youngs Moduli (GPa) = 38.91268 48.33158 78.12649
#
# Poissons Ratio (x) = 0.72803 -0.55384
# Poissons Ratio (y) = 0.58615 0.71394
# Poissons Ratio (z) = -0.27585 0.44167
#
# Static dielectric constant tensor:
#      x y z
#    x 2.084970 0.000000 -0.034490 
#    y 0.000000 1.874230 0.000000 
#    z -0.034490 0.000000 1.999400 
# 
# From -- ./inp_files/52758.got.cif
#   From: 2010.05.17/outbox.cif.g08.bks.cpg/sg12_27_cif.got.tgz:52758.got - 2010.06.03 13:09:07.
