data_PCOD9216443
_publ_section_title
;
Structure prediction by ZEFSAII (Michael W. Deem and Ramdas Pophale) SiO2 
 PCOD9216443
Probable space group: C 2/M
;
_chemical_formula_sum "Si O2"
_cell_formula_units_Z 44
_cell_length_a 28.556303
_cell_length_b 9.363011
_cell_length_c 8.345899
_cell_angle_alpha 90.000000
_cell_angle_beta 108.255995
_cell_angle_gamma 90.000000
_cell_volume 2119.149964
_symmetry_space_group_name_H-M "C 2/M"
_symmetry_group_IT_number 12
_symmetry_cell_setting 'monoclinic'
loop_
_space_group_symop_operation_xyz
x,y,z
-x,y,-z
-x,-y,-z
x,-y,z
1/2+x,1/2+y,z
1/2-x,1/2+y,-z
1/2-x,1/2-y,-z
1/2+x,1/2-y,z
loop_
_atom_site_type_symbol
_atom_site_label
_atom_site_fract_x
_atom_site_fract_y
_atom_site_fract_z
Si Si1 0.415265 0.834488 0.765011
Si Si2 0.757421 0.000000 0.439685
Si Si3 0.392726 0.670009 0.061261
Si Si4 0.518379 0.836162 0.701147
Si Si5 0.298806 0.162736 0.095381
Si Si6 0.682701 0.213181 0.515569
O O1 0.470624 0.814686 0.761282
O O2 0.374712 0.809489 0.583758
O O3 0.410873 0.000000 0.814236
O O4 0.402992 0.726478 0.893726
O O5 0.714472 0.123572 0.421758
O O6 0.799621 0.124992 0.473027
O O7 0.386543 0.500000 0.061159
O O8 0.439020 0.725214 0.213659
O O9 0.344525 0.751393 0.072670
O O10 0.500000 0.824747 0.500000
O O11 0.536483 0.000000 0.745245
O O12 0.304336 0.158486 0.292997
O O13 0.295742 0.000000 0.029343
O O14 0.250000 0.250000 0.000000
#
# Coordination Sequence:
#
# PCOD9216443 Si02
#       6
#     8   4   8   8   8   8
#     4  11  23  42  71  98 130 174 223 273 331 393
#     4  10  24  40  70  94 134 170 224 268 328 384
#     4  12  28  44  64  99 137 175 220 273 331 392
#     4  10  22  45  74  99 129 171 220 274 334 397
#     4  12  27  45  68  97 135 176 223 273 330 394
#     4  11  24  43  67  97 131 173 221 271 327 396
#
# _framework density 20.763044000000001
#
# number of rings (size 3 to 8) (size 9 to 14) (size 15 to 20)
#    0.000    0.909    1.818    3.818    8.909    4.727 
#    0.000    0.000    0.000    0.000    0.000    0.000 
#    0.000    0.000    0.000    0.000    0.000    0.000 
#
# Total GULP energy -122606.549095 kJ/mol
# GULP energy per Si atom -5573.024959 kJ/mol
# Density = 2.071579 g / cm^3
# Si number density = 20.763044 Si / 1000 Ang^3
#
#
#
# Elastic Constant Matrix: (Units=GPa)
#
#
# Indices 1 2 3 4 5 6 
#
# 1 110.3450 83.6559 27.5212 0.0000 24.6951 0.0000
# 2 83.6559 215.9023 27.4330 0.0000 13.8575 0.0000
# 3 27.5212 27.4330 78.3584 0.0000 15.5188 0.0000
# 4 0.0000 0.0000 0.0000 28.7838 0.0000 4.5435
# 5 24.6951 13.8575 15.5188 0.0000 16.9089 0.0000
# 6 0.0000 0.0000 0.0000 4.5435 0.0000 31.0396
#
#
#
# Elastic Compliance Matrix: (Units=1/GPa)
#
#
# Indices 1 2 3 4 5 6 
#
# 1 0.018310 -0.005671 -0.000085 0.000000 -0.022016 0.000000
# 2 -0.005671 0.006727 -0.001114 0.000000 0.003792 0.000000
# 3 -0.000085 -0.001114 0.015859 0.000000 -0.013517 0.000000
# 4 0.000000 0.000000 0.000000 0.035564 0.000000 -0.005206
# 5 -0.022016 0.003792 -0.013517 0.000000 0.100592 0.000000
# 6 0.000000 0.000000 0.000000 -0.005206 0.000000 0.032979
#
#
# Mechanical properties :
#
#
# Convention : Reuss Voigt Hill
#
# Bulk Modulus (GPa) = 36.82526 75.75845 56.29185
# Shear Modulus (GPa) = 21.47547 33.07950 27.27748
#
# Velocity S-wave (km/s) = 3.21956 3.99581 3.62850
# Velocity P-wave (km/s) = 5.62096 7.60625 6.68769
#
# Compressibility (1/GPa) = 0.02715527
#
# Stress axis : x y z
#
# Youngs Moduli (GPa) = 54.61501 148.65041 63.05530
#
# Poissons Ratio (x) = 0.84295 0.00539
# Poissons Ratio (y) = 0.30970 0.07027
# Poissons Ratio (z) = 0.00466 0.16566
#
# Static dielectric constant tensor:
#      x y z
#    x 1.728630 0.000000 -0.023580 
#    y 0.000000 1.727380 0.000000 
#    z -0.023580 0.000000 1.776830 
# 
# From -- ./inp_files/108918.got.cif
#   From: 2010.05.17/outbox.cif.g08.bks.cpg/sg12_55_cif.got.tgz:108918.got - 2010.06.03 13:09:07.
