data_PCOD9216763
_publ_section_title
;
Structure prediction by ZEFSAII (Michael W. Deem and Ramdas Pophale) SiO2 
 PCOD9216763
Probable space group: C 2/M
;
_chemical_formula_sum "Si O2"
_cell_formula_units_Z 56
_cell_length_a 26.251921
_cell_length_b 14.460202
_cell_length_c 9.264971
_cell_angle_alpha 90.000000
_cell_angle_beta 61.056198
_cell_angle_gamma 90.000000
_cell_volume 3077.759067
_symmetry_space_group_name_H-M "C 2/M"
_symmetry_group_IT_number 12
_symmetry_cell_setting 'monoclinic'
loop_
_space_group_symop_operation_xyz
x,y,z
-x,y,-z
-x,-y,-z
x,-y,z
1/2+x,1/2+y,z
1/2-x,1/2+y,-z
1/2-x,1/2-y,-z
1/2+x,1/2-y,z
loop_
_atom_site_type_symbol
_atom_site_label
_atom_site_fract_x
_atom_site_fract_y
_atom_site_fract_z
Si Si1 0.590082 0.500000 0.290942
Si Si2 0.596080 0.704789 0.212489
Si Si3 0.124000 0.738285 0.490210
Si Si4 0.038433 0.000000 0.675283
Si Si5 0.722850 0.393454 0.377458
Si Si6 0.789343 0.741115 0.088655
Si Si7 0.269374 0.106185 0.639669
Si Si8 0.521581 0.698427 0.808942
O O1 0.616594 0.597525 0.205446
O O2 0.578777 0.500000 0.478174
O O3 0.526420 0.500000 0.303035
O O4 0.594745 0.747522 0.374115
O O5 0.533601 0.707103 0.222267
O O6 0.644182 0.755797 0.050904
O O7 0.167083 0.826248 0.451100
O O8 0.166657 0.650736 0.433463
O O9 0.074582 0.739399 0.679473
O O10 0.044220 0.092624 0.760151
O O11 0.709751 0.500000 0.360886
O O12 0.768517 0.348994 0.203370
O O13 0.749846 0.389183 0.500151
O O14 0.773465 0.828413 0.210744
O O15 0.750000 0.750000 0.000000
O O16 0.267584 0.000000 0.689824
O O17 0.500000 0.715656 0.000000
#
# Coordination Sequence:
#
# PCOD9216763 Si02
#       8
#     4   8   8   4   8   8   8   8
#     4   9  18  32  54  76 116 166 182 225 283 347
#     4  11  22  36  56  86 121 159 191 237 289 347
#     4  11  21  39  61  85 117 158 197 233 292 354
#     4   9  17  36  50  74 120 152 198 222 277 348
#     4  10  23  40  62  87 119 158 193 240 298 351
#     4  11  21  37  60  92 118 151 197 244 288 349
#     4  10  23  42  62  86 118 155 197 248 295 341
#     4  11  24  35  56  86 118 156 193 243 290 343
#
# _framework density 18.195056000000001
#
# number of rings (size 3 to 8) (size 9 to 14) (size 15 to 20)
#    0.000    1.571    4.286    2.357    7.000    0.571 
#    0.000    0.000    0.000    3.000    0.000    0.000 
#    0.000    0.000    0.000    0.000    0.000    0.000 
#
# Total GULP energy -156381.048812 kJ/mol
# GULP energy per Si atom -5585.037458 kJ/mol
# Density = 1.815364 g / cm^3
# Si number density = 18.195056 Si / 1000 Ang^3
#
#
#
# Elastic Constant Matrix: (Units=GPa)
#
#
# Indices 1 2 3 4 5 6 
#
# 1 44.7786 9.7084 8.0323 0.0000 1.9875 0.0000
# 2 9.7084 61.5152 14.9114 0.0000 7.5085 0.0000
# 3 8.0323 14.9114 102.7093 0.0000 -2.9673 0.0000
# 4 0.0000 0.0000 0.0000 19.0121 0.0000 4.7256
# 5 1.9875 7.5085 -2.9673 0.0000 31.3081 0.0000
# 6 0.0000 0.0000 0.0000 4.7256 0.0000 19.3949
#
#
#
# Elastic Compliance Matrix: (Units=1/GPa)
#
#
# Indices 1 2 3 4 5 6 
#
# 1 0.023320 -0.003245 -0.001377 0.000000 -0.000833 0.000000
# 2 -0.003245 0.017894 -0.002469 0.000000 -0.004319 0.000000
# 3 -0.001377 -0.002469 0.010250 0.000000 0.001651 0.000000
# 4 0.000000 0.000000 0.000000 0.055989 0.000000 -0.013642
# 5 -0.000833 -0.004319 0.001651 0.000000 0.033186 0.000000
# 6 0.000000 0.000000 0.000000 -0.013642 0.000000 0.054884
#
#
# Mechanical properties :
#
#
# Convention : Reuss Voigt Hill
#
# Bulk Modulus (GPa) = 26.82221 30.47856 28.65039
# Shear Modulus (GPa) = 22.50931 25.69978 24.10454
#
# Velocity S-wave (km/s) = 3.52107 3.76235 3.64371
# Velocity P-wave (km/s) = 5.59501 5.97169 5.78641
#
# Compressibility (1/GPa) = 0.03728254
#
# Stress axis : x y z
#
# Youngs Moduli (GPa) = 42.88248 55.88480 97.56098
#
# Poissons Ratio (x) = 0.18135 0.13430
# Poissons Ratio (y) = 0.13915 0.24086
# Poissons Ratio (z) = 0.05903 0.13797
#
# Static dielectric constant tensor:
#      x y z
#    x 1.630020 0.000000 0.004180 
#    y 0.000000 1.625800 0.000000 
#    z 0.004180 0.000000 1.643140 
# 
# From -- ./inp_files/104470.got.cif
#   From: 2010.05.17/outbox.cif.g08.bks.cpg/sg12_53_cif.got.tgz:104470.got - 2010.06.03 13:09:07.
