data_PCOD9216049
_publ_section_title
;
Structure prediction by ZEFSAII (Michael W. Deem and Ramdas Pophale) SiO2 
 PCOD9216049
Probable space group: C 2/M
;
_chemical_formula_sum "Si O2"
_cell_formula_units_Z 34
_cell_length_a 9.532195
_cell_length_b 16.662186
_cell_length_c 14.828802
_cell_angle_alpha 90.000000
_cell_angle_beta 136.506028
_cell_angle_gamma 90.000000
_cell_volume 1621.044782
_symmetry_space_group_name_H-M "C 2/M"
_symmetry_group_IT_number 12
_symmetry_cell_setting 'monoclinic'
loop_
_space_group_symop_operation_xyz
x,y,z
-x,y,-z
-x,-y,-z
x,-y,z
1/2+x,1/2+y,z
1/2-x,1/2+y,-z
1/2-x,1/2-y,-z
1/2+x,1/2-y,z
loop_
_atom_site_type_symbol
_atom_site_label
_atom_site_fract_x
_atom_site_fract_y
_atom_site_fract_z
Si Si1 0.559496 0.196277 0.627538
Si Si2 0.705546 0.152484 0.329679
Si Si3 0.057486 0.093302 0.132207
Si Si4 0.500000 0.500000 0.500000
Si Si5 0.881401 0.595585 0.037343
O O1 0.500000 0.165870 0.500000
O O2 0.378856 0.188165 0.615662
O O3 0.645025 0.285545 0.650970
O O4 0.747840 0.144422 0.752294
O O5 0.508578 0.137105 0.175191
O O6 0.826264 0.070527 0.402170
O O7 0.094403 0.000000 0.173023
O O8 0.000000 0.097023 0.000000
O O9 0.850722 0.123537 0.082923
O O10 0.869788 0.500000 0.052839
O O11 0.000000 0.605906 0.000000
#
# Coordination Sequence:
#
# PCOD9216049 Si02
#       5
#     8   8   8   2   8
#     4  12  28  47  73 110 150 189 245 307 367 434
#     4  12  27  50  75 106 148 193 244 304 370 436
#     4  10  22  44  72 104 148 193 237 296 361 427
#     4  12  28  48  84  94 150 202 234 302 376 438
#     4  10  22  42  72 105 141 192 250 293 350 437
#
# _framework density 20.974128
#
# number of rings (size 3 to 8) (size 9 to 14) (size 15 to 20)
#    0.000    0.941    4.706    0.706    4.941    2.353 
#    4.235    0.000    0.000    0.000    0.000    0.000 
#    0.000    0.000    0.000    0.000    0.000    0.000 
#
# Total GULP energy -94829.412527 kJ/mol
# GULP energy per Si atom -5578.200737 kJ/mol
# Density = 2.092639 g / cm^3
# Si number density = 20.974128 Si / 1000 Ang^3
#
#
#
# Elastic Constant Matrix: (Units=GPa)
#
#
# Indices 1 2 3 4 5 6 
#
# 1 87.6363 65.5835 16.2093 0.0000 9.1582 0.0000
# 2 65.5835 135.0118 54.6695 0.0000 12.1288 0.0000
# 3 16.2093 54.6695 93.7145 0.0000 5.3655 0.0000
# 4 0.0000 0.0000 0.0000 29.5969 0.0000 10.8284
# 5 9.1582 12.1288 5.3655 0.0000 34.6856 0.0000
# 6 0.0000 0.0000 0.0000 10.8284 0.0000 16.1025
#
#
#
# Elastic Compliance Matrix: (Units=1/GPa)
#
#
# Indices 1 2 3 4 5 6 
#
# 1 0.018535 -0.009928 0.002691 0.000000 -0.001838 0.000000
# 2 -0.009928 0.015242 -0.007082 0.000000 -0.001613 0.000000
# 3 0.002691 -0.007082 0.014363 0.000000 -0.000456 0.000000
# 4 0.000000 0.000000 0.000000 0.044812 0.000000 -0.030135
# 5 -0.001838 -0.001613 -0.000456 0.000000 0.029950 0.000000
# 6 0.000000 0.000000 0.000000 -0.030135 0.000000 0.082367
#
#
# Mechanical properties :
#
#
# Convention : Reuss Voigt Hill
#
# Bulk Modulus (GPa) = 51.27804 65.47635 58.37719
# Shear Modulus (GPa) = 20.79799 28.07037 24.43418
#
# Velocity S-wave (km/s) = 3.15239 3.66229 3.41686
# Velocity P-wave (km/s) = 6.14421 7.01203 6.59242
#
# Compressibility (1/GPa) = 0.01950153
#
# Stress axis : x y z
#
# Youngs Moduli (GPa) = 53.95215 65.60806 69.62444
#
# Poissons Ratio (x) = 0.65136 -0.18736
# Poissons Ratio (y) = 0.53564 0.49309
# Poissons Ratio (z) = -0.14519 0.46464
#
# Static dielectric constant tensor:
#      x y z
#    x 1.804360 0.000000 0.009000 
#    y 0.000000 1.732920 0.000000 
#    z 0.009000 0.000000 1.738020 
# 
# From -- ./inp_files/195249.got.cif
#   From: 2010.05.17/outbox.cif.g08.bks.cpg/sg12_98_cif.got.tgz:195249.got - 2010.06.03 13:09:07.
