data_PCOD9216989
_publ_section_title
;
Structure prediction by ZEFSAII (Michael W. Deem and Ramdas Pophale) SiO2 
 PCOD9216989
Probable space group: C 2/M
;
_chemical_formula_sum "Si O2"
_cell_formula_units_Z 48
_cell_length_a 6.191800
_cell_length_b 25.615774
_cell_length_c 14.235026
_cell_angle_alpha 90.000000
_cell_angle_beta 100.826202
_cell_angle_gamma 90.000000
_cell_volume 2217.600145
_symmetry_space_group_name_H-M "C 2/M"
_symmetry_group_IT_number 12
_symmetry_cell_setting 'monoclinic'
loop_
_space_group_symop_operation_xyz
x,y,z
-x,y,-z
-x,-y,-z
x,-y,z
1/2+x,1/2+y,z
1/2-x,1/2+y,-z
1/2-x,1/2-y,-z
1/2+x,1/2-y,z
loop_
_atom_site_type_symbol
_atom_site_label
_atom_site_fract_x
_atom_site_fract_y
_atom_site_fract_z
Si Si1 0.773446 0.240746 0.230676
Si Si2 0.312398 0.119461 0.772064
Si Si3 0.811311 0.556216 0.260846
Si Si4 0.896498 0.058946 0.088686
Si Si5 0.708647 0.201876 0.567809
Si Si6 0.952357 0.905237 0.599306
O O1 0.507118 0.253313 0.189832
O O2 0.754178 0.178942 0.239778
O O3 0.822464 0.272646 0.331640
O O4 0.556620 0.106479 0.761419
O O5 0.273350 0.096102 0.872429
O O6 0.163750 0.090130 0.682964
O O7 0.926042 0.500000 0.257181
O O8 0.597062 0.555113 0.178089
O O9 0.738885 0.565021 0.361372
O O10 0.808853 0.000000 0.065514
O O11 0.000000 0.078345 0.000000
O O12 0.500000 0.175379 0.500000
O O13 0.750000 0.250000 0.500000
O O14 0.887082 0.156239 0.588201
O O15 0.000000 0.924632 0.500000
#
# Coordination Sequence:
#
# PCOD9216989 Si02
#       6
#     8   8   8   8   8   8
#     4  12  24  38  60  92 130 174 218 269 330 387
#     4  11  22  39  63  92 130 168 214 265 331 394
#     4  10  23  41  63  90 124 167 214 265 329 399
#     4   9  20  41  69 100 127 154 204 274 340 399
#     4  12  21  34  56  85 117 159 221 281 325 370
#     4  11  24  38  56  86 125 173 217 271 321 378
#
# _framework density 21.645022000000001
#
# number of rings (size 3 to 8) (size 9 to 14) (size 15 to 20)
#    0.000    1.167    3.333    3.000    4.667    1.667 
#    0.000    3.333    0.000    1.000    0.000    0.000 
#    0.000    0.000    0.000    0.000    0.000    0.000 
#
# Total GULP energy -133770.170894 kJ/mol
# GULP energy per Si atom -5573.757121 kJ/mol
# Density = 2.159576 g / cm^3
# Si number density = 21.645022 Si / 1000 Ang^3
#
#
#
# Elastic Constant Matrix: (Units=GPa)
#
#
# Indices 1 2 3 4 5 6 
#
# 1 78.4558 11.8239 7.5572 0.0000 -13.4610 0.0000
# 2 11.8239 42.3890 15.5849 0.0000 -3.7489 0.0000
# 3 7.5572 15.5849 92.0832 0.0000 -35.4999 0.0000
# 4 0.0000 0.0000 0.0000 0.8153 0.0000 -13.2697
# 5 -13.4610 -3.7489 -35.4999 0.0000 21.3639 0.0000
# 6 0.0000 0.0000 0.0000 -13.2697 0.0000 25.3321
#
#
#
# Elastic Compliance Matrix: (Units=1/GPa)
#
#
# Indices 1 2 3 4 5 6 
#
# 1 0.017071 -0.005961 0.009325 0.000000 0.025205 0.000000
# 2 -0.005961 0.027666 -0.010489 0.000000 -0.016330 0.000000
# 3 0.009325 -0.010489 0.037355 0.000000 0.066107 0.000000
# 4 0.000000 0.000000 0.000000 -0.162979 0.000000 -0.085373
# 5 0.025205 -0.016330 0.066107 0.000000 0.169673 0.000000
# 6 0.000000 0.000000 0.000000 -0.085373 0.000000 -0.005245
#
#
# Mechanical properties :
#
#
# Convention : Reuss Voigt Hill
#
# Bulk Modulus (GPa) = 14.74012 31.42890 23.08451
# Shear Modulus (GPa) = 41.52672 21.36639 31.44655
#
# Velocity S-wave (km/s) = 4.38486 3.14527 3.81574
# Velocity P-wave (km/s) = 5.69743 5.26706 5.48647
#
# Compressibility (1/GPa) = 0.06784207
#
# Stress axis : x y z
#
# Youngs Moduli (GPa) = 58.58002 36.14567 26.76995
#
# Poissons Ratio (x) = 0.21546 -0.24962
# Poissons Ratio (y) = 0.34919 0.28078
# Poissons Ratio (z) = -0.54625 0.37912
#
# Static dielectric constant tensor:
#      x y z
#    x 1.925590 0.000000 -0.013740 
#    y 0.000000 1.788670 0.000000 
#    z -0.013740 0.000000 1.755990 
# 
# From -- ./inp_files/192072.got.cif
#   From: 2010.05.17/outbox.cif.g08.bks.cpg/sg12_97_cif.got.tgz:192072.got - 2010.06.03 13:09:07.
