data_PCOD9216192
_publ_section_title
;
Structure prediction by ZEFSAII (Michael W. Deem and Ramdas Pophale) SiO2 
 PCOD9216192
Probable space group: C 2/M
;
_chemical_formula_sum "Si O2"
_cell_formula_units_Z 56
_cell_length_a 9.055848
_cell_length_b 28.850521
_cell_length_c 15.801764
_cell_angle_alpha 90.000000
_cell_angle_beta 44.053934
_cell_angle_gamma 90.000000
_cell_volume 2870.665359
_symmetry_space_group_name_H-M "C 2/M"
_symmetry_group_IT_number 12
_symmetry_cell_setting 'monoclinic'
loop_
_space_group_symop_operation_xyz
x,y,z
-x,y,-z
-x,-y,-z
x,-y,z
1/2+x,1/2+y,z
1/2-x,1/2+y,-z
1/2-x,1/2-y,-z
1/2+x,1/2-y,z
loop_
_atom_site_type_symbol
_atom_site_label
_atom_site_fract_x
_atom_site_fract_y
_atom_site_fract_z
Si Si1 0.012134 0.189567 0.303621
Si Si2 0.188981 0.130572 0.482259
Si Si3 0.232374 0.366396 0.940549
Si Si4 0.735413 0.291732 0.939401
Si Si5 0.174389 0.720949 0.675116
Si Si6 0.479237 0.053450 0.611192
Si Si7 0.980823 0.945779 0.109242
O O1 0.144341 0.170397 0.169957
O O2 0.176535 0.212060 0.304347
O O3 0.908859 0.144101 0.387522
O O4 0.827156 0.226369 0.357248
O O5 0.260908 0.180491 0.415557
O O6 0.369331 0.092651 0.413279
O O7 0.000000 0.113646 0.500000
O O8 0.362872 0.412618 0.903483
O O9 0.214430 0.339868 0.036356
O O10 0.000000 0.375165 0.000000
O O11 0.924925 0.284537 0.796438
O O12 0.500000 0.291943 0.000000
O O13 0.750000 0.250000 0.000000
O O14 0.500000 0.058273 0.500000
O O15 0.249930 0.059812 0.750937
O O16 0.543374 0.000000 0.603135
O O17 0.037466 0.000000 0.093411
O O18 0.000000 0.934619 0.000000
#
# Coordination Sequence:
#
# PCOD9216192 Si02
#       7
#     8   8   8   8   8   8   8
#     4  11  23  40  57  88 122 164 208 256 300 362
#     4  10  24  40  60  89 123 160 209 253 309 370
#     4  12  24  39  62  91 125 159 207 254 311 372
#     4  12  23  37  58  88 121 164 204 251 305 362
#     4  11  23  39  58  83 127 163 206 254 299 365
#     4  10  22  43  68  94 124 159 206 259 313 378
#     4  10  24  44  67  96 126 161 207 259 318 381
#
# _framework density 19.507673
#
# number of rings (size 3 to 8) (size 9 to 14) (size 15 to 20)
#    0.000    1.143    2.857    3.000    4.000    1.714 
#    0.000    0.000    0.000    6.000    0.000    0.000 
#    0.000    0.000    0.000    0.000    0.000    0.000 
#
# Total GULP energy -156332.249575 kJ/mol
# GULP energy per Si atom -5583.294628 kJ/mol
# Density = 1.946327 g / cm^3
# Si number density = 19.507673 Si / 1000 Ang^3
#
#
#
# Elastic Constant Matrix: (Units=GPa)
#
#
# Indices 1 2 3 4 5 6 
#
# 1 91.5670 66.8199 24.9556 0.0000 -15.6582 0.0000
# 2 66.8199 113.3621 27.9855 0.0000 -16.5880 0.0000
# 3 24.9556 27.9855 76.1153 0.0000 1.8724 0.0000
# 4 0.0000 0.0000 0.0000 27.7997 0.0000 -13.5168
# 5 -15.6582 -16.5880 1.8724 0.0000 31.0798 0.0000
# 6 0.0000 0.0000 0.0000 -13.5168 0.0000 20.1422
#
#
#
# Elastic Compliance Matrix: (Units=1/GPa)
#
#
# Indices 1 2 3 4 5 6 
#
# 1 0.020164 -0.010483 -0.002873 0.000000 0.004737 0.000000
# 2 -0.010483 0.016150 -0.002587 0.000000 0.003494 0.000000
# 3 -0.002873 -0.002587 0.015123 0.000000 -0.003739 0.000000
# 4 0.000000 0.000000 0.000000 0.053393 0.000000 0.035830
# 5 0.004737 0.003494 -0.003739 0.000000 0.036652 0.000000
# 6 0.000000 0.000000 0.000000 0.035830 0.000000 0.073691
#
#
# Mechanical properties :
#
#
# Convention : Reuss Voigt Hill
#
# Bulk Modulus (GPa) = 51.14842 57.84071 54.49457
# Shear Modulus (GPa) = 19.71790 26.55657 23.13724
#
# Velocity S-wave (km/s) = 3.18272 3.69364 3.44766
# Velocity P-wave (km/s) = 6.30736 6.92136 6.62148
#
# Compressibility (1/GPa) = 0.01955094
#
# Stress axis : x y z
#
# Youngs Moduli (GPa) = 49.59391 61.91867 66.12372
#
# Poissons Ratio (x) = 0.64908 0.18999
# Poissons Ratio (y) = 0.51988 0.17106
# Poissons Ratio (z) = 0.14250 0.16018
#
# Static dielectric constant tensor:
#      x y z
#    x 1.670460 0.000000 0.027490 
#    y 0.000000 1.682110 0.000000 
#    z 0.027490 0.000000 1.682570 
# 
# From -- ./inp_files/124364.got.cif
#   From: 2010.05.17/outbox.cif.g08.bks.cpg/sg12_63_cif.got.tgz:124364.got - 2010.06.03 13:09:07.
