data_PCOD9216359
_publ_section_title
;
Structure prediction by ZEFSAII (Michael W. Deem and Ramdas Pophale) SiO2 
 PCOD9216359
Probable space group: C 2/M
;
_chemical_formula_sum "Si O2"
_cell_formula_units_Z 36
_cell_length_a 24.484924
_cell_length_b 7.773912
_cell_length_c 28.071275
_cell_angle_alpha 90.000000
_cell_angle_beta 16.897980
_cell_angle_gamma 90.000000
_cell_volume 1553.096459
_symmetry_space_group_name_H-M "C 2/M"
_symmetry_group_IT_number 12
_symmetry_cell_setting 'monoclinic'
loop_
_space_group_symop_operation_xyz
x,y,z
-x,y,-z
-x,-y,-z
x,-y,z
1/2+x,1/2+y,z
1/2-x,1/2+y,-z
1/2-x,1/2-y,-z
1/2+x,1/2-y,z
loop_
_atom_site_type_symbol
_atom_site_label
_atom_site_fract_x
_atom_site_fract_y
_atom_site_fract_z
Si Si1 0.593476 0.799121 0.274089
Si Si2 0.000138 0.791610 0.100437
Si Si3 0.029534 0.793223 0.182294
Si Si4 0.750000 0.750000 0.500000
Si Si5 0.859241 0.201948 0.657859
O O1 0.411533 0.708628 0.405251
O O2 0.611884 0.787543 0.315416
O O3 0.564263 0.000000 0.285629
O O4 0.789257 0.735964 0.088621
O O5 0.956221 0.738991 0.191311
O O6 0.849230 0.725851 0.188834
O O7 0.998886 0.000000 0.099624
O O8 0.916694 0.719959 0.320770
O O9 0.004255 0.000000 0.207023
O O10 0.250000 0.750000 0.000000
O O11 0.000000 0.271138 0.500000
O O12 0.897267 0.000000 0.632497
#
# Coordination Sequence:
#
# PCOD9216359 Si02
#       5
#     8   8   8   4   8
#     4  11  24  43  69  98 133 178 229 282 338 409
#     4  10  22  44  70  98 131 175 228 280 339 408
#     4  11  24  43  69 100 139 183 229 285 344 410
#     4  12  24  42  70 104 138 180 232 284 340 406
#     4  11  25  43  64  96 135 175 223 282 344 406
#
# _framework density 23.179500999999998
#
# number of rings (size 3 to 8) (size 9 to 14) (size 15 to 20)
#    0.000    1.111    2.222    3.333    0.000   10.667 
#    0.000    0.000    0.000    0.000    0.000    0.000 
#    0.000    0.000    0.000    0.000    0.000    0.000 
#
# Total GULP energy -100263.826226 kJ/mol
# GULP energy per Si atom -5570.212568 kJ/mol
# Density = 2.312674 g / cm^3
# Si number density = 23.179501 Si / 1000 Ang^3
#
#
#
# Elastic Constant Matrix: (Units=GPa)
#
#
# Indices 1 2 3 4 5 6 
#
# 1 183.6555 6.3999 64.6411 -0.0073 3.6721 0.0003
# 2 6.3999 46.6985 2.1851 -0.0437 3.5644 0.0314
# 3 64.6411 2.1851 174.5743 -0.0362 6.5395 -0.0088
# 4 -0.0073 -0.0437 -0.0362 -16.0562 0.0249 35.4743
# 5 3.6721 3.5644 6.5395 0.0249 55.4923 0.0004
# 6 0.0003 0.0314 -0.0088 35.4743 0.0004 -38.2730
#
#
#
# Elastic Compliance Matrix: (Units=1/GPa)
#
#
# Indices 1 2 3 4 5 6 
#
# 1 0.006288 -0.000746 -0.002315 -0.000004 -0.000095 -0.000004
# 2 -0.000746 0.021616 0.000056 0.000021 -0.001346 0.000037
# 3 -0.002315 0.000056 0.006608 0.000017 -0.000629 0.000015
# 4 -0.000004 0.000021 0.000017 0.059439 -0.000030 0.055092
# 5 -0.000095 -0.001346 -0.000629 -0.000030 0.018187 -0.000029
# 6 -0.000004 0.000037 0.000015 0.055092 -0.000029 0.024936
#
#
# Mechanical properties :
#
#
# Convention : Reuss Voigt Hill
#
# Bulk Modulus (GPa) = 35.08543 61.26451 48.17497
# Shear Modulus (GPa) = 32.76844 22.34610 27.55727
#
# Velocity S-wave (km/s) = 3.76398 3.10828 3.45173
# Velocity P-wave (km/s) = 5.83603 6.27453 6.05925
#
# Compressibility (1/GPa) = 0.02850186
#
# Stress axis : x y z
#
# Youngs Moduli (GPa) = 159.03790 46.26138 151.32235
#
# Poissons Ratio (x) = 0.03452 0.35036
# Poissons Ratio (y) = 0.11866 -0.00849
# Poissons Ratio (z) = 0.36823 -0.00260
#
# Static dielectric constant tensor:
#      x y z
#    x 1.818500 -0.000010 0.002630 
#    y -0.000010 1.937410 0.000020 
#    z 0.002630 0.000020 1.830630 
# 
# From -- ./inp_files/367268.got.cif
#   From: 2010.05.17/outbox.cif.g08.bks.cpg/sg12_184_cif.got.tgz:367268.got - 2010.06.03 13:09:07.
