data_PCOD9216001
_publ_section_title
;
Structure prediction by ZEFSAII (Michael W. Deem and Ramdas Pophale) SiO2 
 PCOD9216001
Probable space group: C 2/M
;
_chemical_formula_sum "Si O2"
_cell_formula_units_Z 60
_cell_length_a 8.904950
_cell_length_b 20.573253
_cell_length_c 25.863018
_cell_angle_alpha 90.000000
_cell_angle_beta 35.943520
_cell_angle_gamma 90.000000
_cell_volume 2781.265726
_symmetry_space_group_name_H-M "C 2/M"
_symmetry_group_IT_number 12
_symmetry_cell_setting 'monoclinic'
loop_
_space_group_symop_operation_xyz
x,y,z
-x,y,-z
-x,-y,-z
x,-y,z
1/2+x,1/2+y,z
1/2-x,1/2+y,-z
1/2-x,1/2-y,-z
1/2+x,1/2-y,z
loop_
_atom_site_type_symbol
_atom_site_label
_atom_site_fract_x
_atom_site_fract_y
_atom_site_fract_z
Si Si1 0.085248 0.574686 0.338010
Si Si2 0.494675 0.211353 0.087273
Si Si3 0.168276 0.338823 0.409142
Si Si4 0.469290 0.205410 0.809303
Si Si5 0.955291 0.787325 0.609108
Si Si6 0.000000 0.883503 0.500000
Si Si7 0.242120 0.575584 0.177171
Si Si8 0.848264 0.429855 0.988706
O O1 0.157390 0.500000 0.324623
O O2 0.219035 0.616161 0.345925
O O3 0.172687 0.593671 0.255793
O O4 0.775016 0.580935 0.427979
O O5 0.402156 0.216715 0.171749
O O6 0.268448 0.245683 0.119922
O O7 0.750000 0.250000 0.000000
O O8 0.550642 0.135519 0.064759
O O9 0.994291 0.281383 0.432939
O O10 0.391618 0.307271 0.381686
O O11 0.000000 0.374838 0.500000
O O12 0.663643 0.220531 0.709494
O O13 0.377015 0.131257 0.825830
O O14 0.973711 0.840838 0.559282
O O15 0.158153 0.500000 0.192084
O O16 0.546774 0.577082 0.083866
O O17 0.886180 0.500000 0.950833
O O18 0.000000 0.433184 0.000000
#
# Coordination Sequence:
#
# PCOD9216001 Si02
#       8
#     8   8   8   8   8   4   8   8
#     4  11  25  44  69 100 140 182 226 280 338 404
#     4  12  25  41  67 100 135 174 221 278 344 407
#     4  12  24  42  65  96 132 175 231 281 337 401
#     4  12  26  43  65 100 137 173 221 282 341 399
#     4  12  25  42  68 101 132 178 230 288 341 400
#     4  12  21  44  72 100 137 182 232 276 340 402
#     4  10  23  43  68  96 132 179 225 276 339 405
#     4  10  22  42  69  97 131 176 224 272 335 411
#
# _framework density 21.572911000000001
#
# number of rings (size 3 to 8) (size 9 to 14) (size 15 to 20)
#    0.000    0.667    4.667    3.400    1.867    1.867 
#    0.000    2.000    0.000    0.000    0.000    0.000 
#    0.000    0.000    0.000    0.000    0.000    0.000 
#
# Total GULP energy -167521.147562 kJ/mol
# GULP energy per Si atom -5584.038252 kJ/mol
# Density = 2.152381 g / cm^3
# Si number density = 21.572911 Si / 1000 Ang^3
#
#
#
# Elastic Constant Matrix: (Units=GPa)
#
#
# Indices 1 2 3 4 5 6 
#
# 1 85.1274 20.2247 4.8366 -0.0171 9.6016 0.0034
# 2 20.2247 88.5812 14.9384 -0.0114 13.1464 0.0190
# 3 4.8366 14.9384 64.3298 -0.0254 1.8826 0.0169
# 4 -0.0171 -0.0114 -0.0254 34.7944 0.0281 11.1293
# 5 9.6016 13.1464 1.8826 0.0281 30.0552 -0.0120
# 6 0.0034 0.0190 0.0169 11.1293 -0.0120 31.3795
#
#
#
# Elastic Compliance Matrix: (Units=1/GPa)
#
#
# Indices 1 2 3 4 5 6 
#
# 1 0.012671 -0.002399 -0.000308 0.000009 -0.002979 -0.000004
# 2 -0.002399 0.012997 -0.002699 0.000008 -0.004750 -0.000011
# 3 -0.000308 -0.002699 0.016187 0.000014 0.000265 -0.000012
# 4 0.000009 0.000008 0.000014 0.032418 -0.000042 -0.011498
# 5 -0.002979 -0.004750 0.000265 -0.000042 0.036285 0.000032
# 6 -0.000004 -0.000011 -0.000012 -0.011498 0.000032 0.035946
#
#
# Mechanical properties :
#
#
# Convention : Reuss Voigt Hill
#
# Bulk Modulus (GPa) = 32.21380 35.33754 33.77567
# Shear Modulus (GPa) = 29.82187 32.44840 31.13514
#
# Velocity S-wave (km/s) = 3.72207 3.88252 3.80314
# Velocity P-wave (km/s) = 5.78244 6.04273 5.91402
#
# Compressibility (1/GPa) = 0.03104260
#
# Stress axis : x y z
#
# Youngs Moduli (GPa) = 78.92318 76.94232 61.77793
#
# Poissons Ratio (x) = 0.18457 0.01905
# Poissons Ratio (y) = 0.18932 0.16672
# Poissons Ratio (z) = 0.02434 0.20764
#
# Static dielectric constant tensor:
#      x y z
#    x 1.761940 -0.000150 0.000130 
#    y -0.000150 2.056790 -0.000100 
#    z 0.000130 -0.000100 1.732300 
# 
# From -- ./inp_files/333851.got.cif
#   From: 2010.05.17/outbox.cif.g08.bks.cpg/sg12_167_cif.got.tgz:333851.got - 2010.06.03 13:09:07.
