data_PCOD9216593
_publ_section_title
;
Structure prediction by ZEFSAII (Michael W. Deem and Ramdas Pophale) SiO2 
 PCOD9216593
Probable space group: C 2/M
;
_chemical_formula_sum "Si O2"
_cell_formula_units_Z 48
_cell_length_a 28.582722
_cell_length_b 15.117513
_cell_length_c 7.156264
_cell_angle_alpha 90.000000
_cell_angle_beta 46.759127
_cell_angle_gamma 90.000000
_cell_volume 2252.620265
_symmetry_space_group_name_H-M "C 2/M"
_symmetry_group_IT_number 12
_symmetry_cell_setting 'monoclinic'
loop_
_space_group_symop_operation_xyz
x,y,z
-x,y,-z
-x,-y,-z
x,-y,z
1/2+x,1/2+y,z
1/2-x,1/2+y,-z
1/2-x,1/2-y,-z
1/2+x,1/2-y,z
loop_
_atom_site_type_symbol
_atom_site_label
_atom_site_fract_x
_atom_site_fract_y
_atom_site_fract_z
Si Si1 0.598961 0.897808 0.594924
Si Si2 0.547428 0.896738 0.141969
Si Si3 0.617005 0.261884 0.078681
Si Si4 0.655069 0.403417 0.287534
Si Si5 0.711593 0.168686 0.023646
Si Si6 0.429403 0.603249 0.112346
O O1 0.565487 0.817340 0.229250
O O2 0.526929 0.891647 0.711082
O O3 0.652611 0.850462 0.325112
O O4 0.617638 0.000000 0.536535
O O5 0.559980 0.000000 0.166512
O O6 0.589378 0.876433 0.840155
O O7 0.628987 0.328319 0.219008
O O8 0.595744 0.326710 0.970402
O O9 0.682177 0.201651 0.907299
O O10 0.639366 0.500000 0.249518
O O11 0.731223 0.401467 0.125464
O O12 0.618401 0.393055 0.582276
O O13 0.750000 0.250000 0.000000
O O14 0.431992 0.500000 0.038718
O O15 0.500000 0.626122 0.000000
#
# Coordination Sequence:
#
# PCOD9216593 Si02
#       6
#     8   8   8   8   8   8
#     4   9  19  40  63  87 129 173 211 262 328 389
#     4   9  21  38  62  97 130 167 217 269 323 392
#     4  11  24  39  68  96 132 163 221 266 333 384
#     4  10  23  45  65  91 131 173 220 269 325 394
#     4  10  23  38  60  92 127 168 212 265 324 387
#     4  10  24  44  67  94 127 170 218 272 329 389
#
# _framework density 21.308517999999999
#
# number of rings (size 3 to 8) (size 9 to 14) (size 15 to 20)
#    0.000    2.167    0.000    2.000    7.000    4.667 
#    3.000    4.167    0.000    0.000    0.000    0.000 
#    0.000    0.000    0.000    0.000    0.000    0.000 
#
# Total GULP energy -133714.776914 kJ/mol
# GULP energy per Si atom -5571.449038 kJ/mol
# Density = 2.126002 g / cm^3
# Si number density = 21.308518 Si / 1000 Ang^3
#
#
#
# Elastic Constant Matrix: (Units=GPa)
#
#
# Indices 1 2 3 4 5 6 
#
# 1 123.5142 80.6895 49.8413 0.0000 -4.8142 0.0000
# 2 80.6895 146.8955 52.3350 0.0000 4.2465 0.0000
# 3 49.8413 52.3350 123.3331 0.0000 -18.7688 0.0000
# 4 0.0000 0.0000 0.0000 43.1164 0.0000 -0.8770
# 5 -4.8142 4.2465 -18.7688 0.0000 22.1737 0.0000
# 6 0.0000 0.0000 0.0000 -0.8770 0.0000 43.6177
#
#
#
# Elastic Compliance Matrix: (Units=1/GPa)
#
#
# Indices 1 2 3 4 5 6 
#
# 1 0.013436 -0.006638 -0.002268 0.000000 0.002269 0.000000
# 2 -0.006638 0.011829 -0.003330 0.000000 -0.006525 0.000000
# 3 -0.002268 -0.003330 0.012006 0.000000 0.010308 0.000000
# 4 0.000000 0.000000 0.000000 0.023202 0.000000 0.000466
# 5 0.002269 -0.006525 0.010308 0.000000 0.055566 0.000000
# 6 0.000000 0.000000 0.000000 0.000466 0.000000 0.022936
#
#
# Mechanical properties :
#
#
# Convention : Reuss Voigt Hill
#
# Bulk Modulus (GPa) = 78.12577 84.38606 81.25591
# Shear Modulus (GPa) = 29.81269 35.84003 32.82636
#
# Velocity S-wave (km/s) = 3.74451 4.10562 3.92921
# Velocity P-wave (km/s) = 7.44573 7.88434 7.66817
#
# Compressibility (1/GPa) = 0.01279987
#
# Stress axis : x y z
#
# Youngs Moduli (GPa) = 74.42449 84.53870 83.29044
#
# Poissons Ratio (x) = 0.56119 0.18888
# Poissons Ratio (y) = 0.49405 0.27734
# Poissons Ratio (z) = 0.16878 0.28150
#
# Static dielectric constant tensor:
#      x y z
#    x 1.898100 0.000000 0.016380 
#    y 0.000000 1.856040 0.000000 
#    z 0.016380 0.000000 1.802860 
# 
# From -- ./inp_files/105313.got.cif
#   From: 2010.05.17/outbox.cif.g08.bks.cpg/sg12_53_cif.got.tgz:105313.got - 2010.06.03 13:09:07.
