data_PCOD9216490
_publ_section_title
;
Structure prediction by ZEFSAII (Michael W. Deem and Ramdas Pophale) SiO2 
 PCOD9216490
Probable space group: C 2/M
;
_chemical_formula_sum "Si O2"
_cell_formula_units_Z 48
_cell_length_a 32.365823
_cell_length_b 14.509485
_cell_length_c 15.377535
_cell_angle_alpha 90.000000
_cell_angle_beta 162.865197
_cell_angle_gamma 90.000000
_cell_volume 2127.594447
_symmetry_space_group_name_H-M "C 2/M"
_symmetry_group_IT_number 12
_symmetry_cell_setting 'monoclinic'
loop_
_space_group_symop_operation_xyz
x,y,z
-x,y,-z
-x,-y,-z
x,-y,z
1/2+x,1/2+y,z
1/2-x,1/2+y,-z
1/2-x,1/2-y,-z
1/2+x,1/2-y,z
loop_
_atom_site_type_symbol
_atom_site_label
_atom_site_fract_x
_atom_site_fract_y
_atom_site_fract_z
Si Si1 0.733643 0.710606 0.603022
Si Si2 0.514270 0.751573 0.776130
Si Si3 0.794598 0.848910 0.127230
Si Si4 0.912793 0.898411 0.194960
Si Si5 0.166339 0.391951 0.358571
Si Si6 0.016874 0.604932 0.637290
O O1 0.610891 0.699836 0.426618
O O2 0.739555 0.639257 0.535047
O O3 0.708070 0.814350 0.513653
O O4 0.884751 0.700481 0.951802
O O5 0.615545 0.677397 0.933352
O O6 0.461742 0.823372 0.597066
O O7 0.803532 0.903208 0.054209
O O8 0.945052 0.860186 0.474169
O O9 0.750000 0.750000 0.000000
O O10 0.685448 0.884972 0.978057
O O11 0.934675 0.000000 0.203783
O O12 0.188301 0.500000 0.425559
O O13 0.000000 0.381433 0.000000
O O14 0.975664 0.500000 0.571159
O O15 0.000000 0.626789 0.500000
#
# Coordination Sequence:
#
# PCOD9216490 Si02
#       6
#     8   8   8   8   8   8
#     4  11  25  44  70 109 139 171 219 278 339 412
#     4  12  25  41  65  99 143 178 225 286 339 396
#     4  11  20  39  62  82 118 170 236 278 334 389
#     4  11  24  39  60  88 126 173 221 281 337 386
#     4  10  22  47  79 104 136 178 214 262 341 427
#     4  11  24  40  61  91 130 183 240 286 329 388
#
# _framework density 22.560690000000001
#
# number of rings (size 3 to 8) (size 9 to 14) (size 15 to 20)
#    0.000    1.000    3.333    4.000    2.333    2.667 
#    0.000    0.833    0.000    0.000    0.000    0.000 
#    0.000    0.000    0.000    0.000    0.000    0.000 
#
# Total GULP energy -134013.411802 kJ/mol
# GULP energy per Si atom -5583.892158 kJ/mol
# Density = 2.250934 g / cm^3
# Si number density = 22.560690 Si / 1000 Ang^3
#
#
#
# Elastic Constant Matrix: (Units=GPa)
#
#
# Indices 1 2 3 4 5 6 
#
# 1 89.3509 22.5666 5.8176 0.0000 15.4754 0.0000
# 2 22.5666 143.1461 -3.8687 0.0000 -5.8531 0.0000
# 3 5.8176 -3.8687 44.3889 0.0000 13.1975 0.0000
# 4 0.0000 0.0000 0.0000 22.4326 0.0000 0.8609
# 5 15.4754 -5.8531 13.1975 0.0000 42.5735 0.0000
# 6 0.0000 0.0000 0.0000 0.8609 0.0000 14.5016
#
#
#
# Elastic Compliance Matrix: (Units=1/GPa)
#
#
# Indices 1 2 3 4 5 6 
#
# 1 0.012595 -0.002191 -0.000431 0.000000 -0.004746 0.000000
# 2 -0.002191 0.007412 0.000433 0.000000 0.001681 0.000000
# 3 -0.000431 0.000433 0.024848 0.000000 -0.007487 0.000000
# 4 0.000000 0.000000 0.000000 0.044680 0.000000 -0.002653
# 5 -0.004746 0.001681 -0.007487 0.000000 0.027766 0.000000
# 6 0.000000 0.000000 0.000000 -0.002653 0.000000 0.069115
#
#
# Mechanical properties :
#
#
# Convention : Reuss Voigt Hill
#
# Bulk Modulus (GPa) = 24.70469 36.21299 30.45884
# Shear Modulus (GPa) = 24.47545 32.72624 28.60084
#
# Velocity S-wave (km/s) = 3.29731 3.81279 3.56438
# Velocity P-wave (km/s) = 5.04683 5.95562 5.51996
#
# Compressibility (1/GPa) = 0.04047814
#
# Stress axis : x y z
#
# Youngs Moduli (GPa) = 79.39442 134.92039 40.24424
#
# Poissons Ratio (x) = 0.29565 0.01733
# Poissons Ratio (y) = 0.17398 -0.01744
# Poissons Ratio (z) = 0.03419 -0.05846
#
# Static dielectric constant tensor:
#      x y z
#    x 1.905910 0.000000 0.016080 
#    y 0.000000 1.827060 0.000000 
#    z 0.016080 0.000000 1.921510 
# 
# From -- ./inp_files/251506.got.cif
#   From: 2010.05.17/outbox.cif.g08.bks.cpg/sg12_126_cif.got.tgz:251506.got - 2010.06.03 13:09:07.
