data_PCOD9216074
_publ_section_title
;
Structure prediction by ZEFSAII (Michael W. Deem and Ramdas Pophale) SiO2 
 PCOD9216074
Probable space group: C 2/M
;
_chemical_formula_sum "Si O2"
_cell_formula_units_Z 28
_cell_length_a 14.958793
_cell_length_b 20.123691
_cell_length_c 5.301447
_cell_angle_alpha 90.000000
_cell_angle_beta 115.263365
_cell_angle_gamma 90.000000
_cell_volume 1443.237675
_symmetry_space_group_name_H-M "C 2/M"
_symmetry_group_IT_number 12
_symmetry_cell_setting 'monoclinic'
loop_
_space_group_symop_operation_xyz
x,y,z
-x,y,-z
-x,-y,-z
x,-y,z
1/2+x,1/2+y,z
1/2-x,1/2+y,-z
1/2-x,1/2-y,-z
1/2+x,1/2-y,z
loop_
_atom_site_type_symbol
_atom_site_label
_atom_site_fract_x
_atom_site_fract_y
_atom_site_fract_z
Si Si1 0.702542 0.686299 0.579576
Si Si2 0.828308 0.421919 0.525875
Si Si3 0.880606 0.354251 0.083360
Si Si4 0.500000 0.744509 0.500000
O O1 0.750000 0.750000 0.500000
O O2 0.727986 0.621015 0.445136
O O3 0.589610 0.701545 0.499384
O O4 0.769470 0.674869 0.909068
O O5 0.813719 0.500000 0.528283
O O6 0.876776 0.401853 0.320184
O O7 0.893143 0.393759 0.837024
O O8 0.952789 0.293748 0.234106
#
# Coordination Sequence:
#
# PCOD9216074 Si02
#       4
#     8   8   8   4
#     4  10  23  40  64  95 127 161 212 257 315 366
#     4  10  22  43  63  87 131 169 202 257 314 369
#     4  10  23  39  63  96 122 167 205 257 315 365
#     4  12  20  40  66  98 124 160 212 264 314 368
#
# _framework density 19.400825000000001
#
# number of rings (size 3 to 8) (size 9 to 14) (size 15 to 20)
#    1.714    0.000    2.857    1.714    0.000    4.571 
#    0.000    5.000    0.000    1.714    0.000    0.000 
#    0.000    0.000    0.000    0.000    0.000    0.000 
#
# Total GULP energy -78059.137125 kJ/mol
# GULP energy per Si atom -5575.652652 kJ/mol
# Density = 1.935667 g / cm^3
# Si number density = 19.400825 Si / 1000 Ang^3
#
#
#
# Elastic Constant Matrix: (Units=GPa)
#
#
# Indices 1 2 3 4 5 6 
#
# 1 78.9157 18.7063 35.4873 0.0000 23.0656 0.0000
# 2 18.7063 97.6264 27.9799 0.0000 9.9140 0.0000
# 3 35.4873 27.9799 102.8422 0.0000 -15.4803 0.0000
# 4 0.0000 0.0000 0.0000 15.1057 0.0000 -2.1520
# 5 23.0656 9.9140 -15.4803 0.0000 39.8251 0.0000
# 6 0.0000 0.0000 0.0000 -2.1520 0.0000 21.5582
#
#
#
# Elastic Compliance Matrix: (Units=1/GPa)
#
#
# Indices 1 2 3 4 5 6 
#
# 1 0.022165 0.000432 -0.010318 0.000000 -0.016956 0.000000
# 2 0.000432 0.011816 -0.004083 0.000000 -0.004779 0.000000
# 3 -0.010318 -0.004083 0.016407 0.000000 0.013370 0.000000
# 4 0.000000 0.000000 0.000000 0.067155 0.000000 0.006704
# 5 -0.016956 -0.004779 0.013370 0.000000 0.041317 0.000000
# 6 0.000000 0.000000 0.000000 0.006704 0.000000 0.047055
#
#
# Mechanical properties :
#
#
# Convention : Reuss Voigt Hill
#
# Bulk Modulus (GPa) = 44.54360 49.30346 46.92353
# Shear Modulus (GPa) = 20.71788 28.44520 24.58154
#
# Velocity S-wave (km/s) = 3.27140 3.83323 3.56341
# Velocity P-wave (km/s) = 6.10564 6.71266 6.41633
#
# Compressibility (1/GPa) = 0.02244991
#
# Stress axis : x y z
#
# Youngs Moduli (GPa) = 45.11590 84.63205 60.94781
#
# Poissons Ratio (x) = -0.03656 0.62887
# Poissons Ratio (y) = -0.01949 0.24885
# Poissons Ratio (z) = 0.46551 0.34556
#
# Static dielectric constant tensor:
#      x y z
#    x 1.723330 0.000000 -0.003760 
#    y 0.000000 1.661340 0.000000 
#    z -0.003760 0.000000 1.717660 
# 
# From -- ./inp_files/5609.got.cif
#   From: 2010.05.17/outbox.cif.g08.bks.cpg/sg12_3_cif.got.tgz:5609.got - 2010.06.03 13:09:07.
