data_PCOD9216038
_publ_section_title
;
Structure prediction by ZEFSAII (Michael W. Deem and Ramdas Pophale) SiO2 
 PCOD9216038
Probable space group: C 2/M
;
_chemical_formula_sum "Si O2"
_cell_formula_units_Z 42
_cell_length_a 15.882283
_cell_length_b 19.962966
_cell_length_c 5.546785
_cell_angle_alpha 90.000000
_cell_angle_beta 96.731636
_cell_angle_gamma 90.000000
_cell_volume 1746.525656
_symmetry_space_group_name_H-M "C 2/M"
_symmetry_group_IT_number 12
_symmetry_cell_setting 'monoclinic'
loop_
_space_group_symop_operation_xyz
x,y,z
-x,y,-z
-x,-y,-z
x,-y,z
1/2+x,1/2+y,z
1/2-x,1/2+y,-z
1/2-x,1/2-y,-z
1/2+x,1/2-y,z
loop_
_atom_site_type_symbol
_atom_site_label
_atom_site_fract_x
_atom_site_fract_y
_atom_site_fract_z
Si Si1 0.500000 0.500000 0.000000
Si Si2 0.777108 0.000000 0.405799
Si Si3 0.674666 0.000000 0.868865
Si Si4 0.131803 0.229093 0.880667
Si Si5 0.200372 0.702454 0.299973
Si Si6 0.096429 0.371260 0.617409
Si Si7 0.921228 0.904468 0.308396
O O1 0.567503 0.442317 0.939016
O O2 0.737154 0.000000 0.657555
O O3 0.838187 0.065158 0.403482
O O4 0.716869 0.000000 0.147511
O O5 0.620971 0.067652 0.799367
O O6 0.225405 0.193798 0.873994
O O7 0.113208 0.299924 0.749443
O O8 0.074111 0.173276 0.745193
O O9 0.128639 0.250246 0.157668
O O10 0.250000 0.750000 0.500000
O O11 0.158899 0.637844 0.406677
O O12 0.000000 0.377901 0.500000
O O13 0.000000 0.926087 0.500000
#
# Coordination Sequence:
#
# PCOD9216038 Si02
#       7
#     2   4   4   8   8   8   8
#     4  10  24  40  60  98 144 186 240 272 366 436
#     4  11  28  48  78 101 148 197 253 295 371 447
#     4  12  29  49  75 105 140 203 253 306 369 441
#     4  10  22  42  71 103 136 185 244 297 368 439
#     4   9  21  40  67  98 140 179 236 297 361 439
#     4  11  25  45  69 103 143 184 240 308 373 433
#     4  11  25  43  69 103 148 192 239 305 371 444
#
# _framework density 24.047744000000002
#
# number of rings (size 3 to 8) (size 9 to 14) (size 15 to 20)
#    0.000    1.524    0.000    3.143   16.000    5.333 
#    0.000    0.952    0.000    0.000    0.000    0.000 
#    0.000    0.000    0.000    0.000    0.000    0.000 
#
# Total GULP energy -116998.225461 kJ/mol
# GULP energy per Si atom -5571.344070 kJ/mol
# Density = 2.399301 g / cm^3
# Si number density = 24.047744 Si / 1000 Ang^3
#
#
#
# Elastic Constant Matrix: (Units=GPa)
#
#
# Indices 1 2 3 4 5 6 
#
# 1 77.8611 17.2258 26.2574 0.0000 21.7111 0.0000
# 2 17.2258 172.1448 32.9031 0.0000 24.2308 0.0000
# 3 26.2574 32.9031 101.0350 0.0000 28.4354 0.0000
# 4 0.0000 0.0000 0.0000 7.8376 0.0000 16.3661
# 5 21.7111 24.2308 28.4354 0.0000 39.7417 0.0000
# 6 0.0000 0.0000 0.0000 16.3661 0.0000 42.3700
#
#
#
# Elastic Compliance Matrix: (Units=1/GPa)
#
#
# Indices 1 2 3 4 5 6 
#
# 1 0.015492 -0.000193 -0.002022 0.000000 -0.006899 0.000000
# 2 -0.000193 0.006480 -0.001225 0.000000 -0.002970 0.000000
# 3 -0.002022 -0.001225 0.012898 0.000000 -0.007378 0.000000
# 4 0.000000 0.000000 0.000000 0.659686 0.000000 -0.254815
# 5 -0.006899 -0.002970 -0.007378 0.000000 0.036021 0.000000
# 6 0.000000 0.000000 0.000000 -0.254815 0.000000 0.122028
#
#
# Mechanical properties :
#
#
# Convention : Reuss Voigt Hill
#
# Bulk Modulus (GPa) = 35.72374 55.97930 45.85152
# Shear Modulus (GPa) = 5.75497 36.30016 21.02757
#
# Velocity S-wave (km/s) = 1.54866 3.88945 2.96025
# Velocity P-wave (km/s) = 4.25269 6.59540 5.54909
#
# Compressibility (1/GPa) = 0.02799259
#
# Stress axis : x y z
#
# Youngs Moduli (GPa) = 64.55132 154.31124 77.53078
#
# Poissons Ratio (x) = 0.02973 0.15673
# Poissons Ratio (y) = 0.01244 0.09494
# Poissons Ratio (z) = 0.13049 0.18896
#
# Static dielectric constant tensor:
#      x y z
#    x 2.077260 0.000000 -0.072770 
#    y 0.000000 1.952190 0.000000 
#    z -0.072770 0.000000 2.088010 
# 
# From -- ./inp_files/16228.got.cif
#   From: 2010.05.17/outbox.cif.g08.bks.cpg/sg12_9_cif.got.tgz:16228.got - 2010.06.03 13:09:07.
