data_PCOD9216152
_publ_section_title
;
Structure prediction by ZEFSAII (Michael W. Deem and Ramdas Pophale) SiO2 
 PCOD9216152
Probable space group: C 2/M
;
_chemical_formula_sum "Si O2"
_cell_formula_units_Z 64
_cell_length_a 9.232630
_cell_length_b 25.701627
_cell_length_c 14.650178
_cell_angle_alpha 90.000000
_cell_angle_beta 67.331749
_cell_angle_gamma 90.000000
_cell_volume 3207.848466
_symmetry_space_group_name_H-M "C 2/M"
_symmetry_group_IT_number 12
_symmetry_cell_setting 'monoclinic'
loop_
_space_group_symop_operation_xyz
x,y,z
-x,y,-z
-x,-y,-z
x,-y,z
1/2+x,1/2+y,z
1/2-x,1/2+y,-z
1/2-x,1/2-y,-z
1/2+x,1/2-y,z
loop_
_atom_site_type_symbol
_atom_site_label
_atom_site_fract_x
_atom_site_fract_y
_atom_site_fract_z
Si Si1 0.637390 0.728626 0.264649
Si Si2 0.244874 0.196937 0.441351
Si Si3 0.969864 0.059193 0.783573
Si Si4 0.287990 0.057875 0.819923
Si Si5 0.315674 0.796683 0.043362
Si Si6 0.083789 0.345072 0.311290
Si Si7 0.114289 0.849688 0.640960
Si Si8 0.184026 0.414268 0.981674
O O1 0.686434 0.713080 0.355375
O O2 0.750674 0.705316 0.161630
O O3 0.630585 0.790405 0.252860
O O4 0.468278 0.701251 0.294990
O O5 0.250000 0.250000 0.500000
O O6 0.412110 0.168514 0.390606
O O7 0.136521 0.159788 0.528801
O O8 0.804025 0.067076 0.874460
O O9 0.113024 0.066349 0.821520
O O10 0.007393 0.101981 0.697553
O O11 0.978872 0.000000 0.747246
O O12 0.398410 0.104716 0.757528
O O13 0.339339 0.000000 0.776813
O O14 0.284479 0.058875 0.929756
O O15 0.279162 0.853306 0.012891
O O16 0.500000 0.790862 0.000000
O O17 0.250000 0.750000 0.000000
O O18 0.212284 0.354520 0.358880
O O19 0.000000 0.420170 0.000000
#
# Coordination Sequence:
#
# PCOD9216152 Si02
#       8
#     8   8   8   8   8   8   8   8
#     4  12  23  40  64  93 129 167 205 258 315 381
#     4  12  24  39  64  95 127 165 211 258 314 382
#     4  10  22  43  67  91 125 169 218 267 317 379
#     4  10  23  41  64  93 124 168 219 263 318 387
#     4  11  27  41  59  93 136 172 209 253 320 385
#     4  11  23  38  65  90 128 162 206 262 317 374
#     4  11  23  40  61  96 124 160 211 261 313 369
#     4  11  23  40  63  94 127 166 216 267 318 384
#
# _framework density 19.951067999999999
#
# number of rings (size 3 to 8) (size 9 to 14) (size 15 to 20)
#    0.000    1.000    3.750    2.250    7.000    3.000 
#    0.000    0.625    0.000    4.500    0.000    0.000 
#    0.000    0.000    0.000    0.000    0.000    0.000 
#
# Total GULP energy -178800.171550 kJ/mol
# GULP energy per Si atom -5587.505361 kJ/mol
# Density = 1.990566 g / cm^3
# Si number density = 19.951068 Si / 1000 Ang^3
#
#
#
# Elastic Constant Matrix: (Units=GPa)
#
#
# Indices 1 2 3 4 5 6 
#
# 1 47.6223 39.5475 44.6937 0.0000 -19.4508 0.0000
# 2 39.5475 145.1279 53.1884 0.0000 -9.6316 0.0000
# 3 44.6937 53.1884 125.3996 0.0000 -14.6640 0.0000
# 4 0.0000 0.0000 0.0000 12.6169 0.0000 3.8127
# 5 -19.4508 -9.6316 -14.6640 0.0000 36.7130 0.0000
# 6 0.0000 0.0000 0.0000 3.8127 0.0000 22.5222
#
#
#
# Elastic Compliance Matrix: (Units=1/GPa)
#
#
# Indices 1 2 3 4 5 6 
#
# 1 0.043678 -0.006862 -0.010659 0.000000 0.017083 0.000000
# 2 -0.006862 0.009259 -0.001702 0.000000 -0.001886 0.000000
# 3 -0.010659 -0.001702 0.012360 0.000000 -0.001157 0.000000
# 4 0.000000 0.000000 0.000000 0.083532 0.000000 -0.014141
# 5 0.017083 -0.001886 -0.001157 0.000000 0.035332 0.000000
# 6 0.000000 0.000000 0.000000 -0.014141 0.000000 0.046795
#
#
# Mechanical properties :
#
#
# Convention : Reuss Voigt Hill
#
# Bulk Modulus (GPa) = 37.24279 65.88988 51.56633
# Shear Modulus (GPa) = 17.96280 26.41843 22.19062
#
# Velocity S-wave (km/s) = 3.00383 3.64285 3.33866
# Velocity P-wave (km/s) = 5.54421 7.12680 6.38473
#
# Compressibility (1/GPa) = 0.02685084
#
# Stress axis : x y z
#
# Youngs Moduli (GPa) = 22.89464 108.00278 80.90490
#
# Poissons Ratio (x) = 0.74113 0.86238
# Poissons Ratio (y) = 0.15711 0.13771
# Poissons Ratio (z) = 0.24404 0.18383
#
# Static dielectric constant tensor:
#      x y z
#    x 1.728880 0.000000 -0.002590 
#    y 0.000000 1.221130 0.000000 
#    z -0.002590 0.000000 1.682360 
# 
# From -- ./inp_files/199747.got.cif
#   From: 2010.05.17/outbox.cif.g08.bks.cpg/sg12_100_cif.got.tgz:199747.got - 2010.06.03 13:09:07.
