data_PCOD9216019
_publ_section_title
;
Structure prediction by ZEFSAII (Michael W. Deem and Ramdas Pophale) SiO2 
 PCOD9216019
Probable space group: C 2/M
;
_chemical_formula_sum "Si O2"
_cell_formula_units_Z 34
_cell_length_a 14.182866
_cell_length_b 18.744567
_cell_length_c 11.057607
_cell_angle_alpha 90.000000
_cell_angle_beta 149.223943
_cell_angle_gamma 90.000000
_cell_volume 1504.188602
_symmetry_space_group_name_H-M "C 2/M"
_symmetry_group_IT_number 12
_symmetry_cell_setting 'monoclinic'
loop_
_space_group_symop_operation_xyz
x,y,z
-x,y,-z
-x,-y,-z
x,-y,z
1/2+x,1/2+y,z
1/2-x,1/2+y,-z
1/2-x,1/2-y,-z
1/2+x,1/2-y,z
loop_
_atom_site_type_symbol
_atom_site_label
_atom_site_fract_x
_atom_site_fract_y
_atom_site_fract_z
Si Si1 0.125600 0.141496 0.822558
Si Si2 0.500000 0.000000 0.000000
Si Si3 0.216599 0.500000 0.881155
Si Si4 0.552521 0.229453 0.921360
Si Si5 0.271997 0.000000 0.383903
Si Si6 0.729795 0.888548 0.417131
O O1 0.094630 0.199136 0.894955
O O2 0.919404 0.123928 0.554705
O O3 0.217587 0.069619 0.974442
O O4 0.266295 0.179972 0.887818
O O5 0.400946 0.938469 0.806627
O O6 0.288052 0.500000 0.821572
O O7 0.995423 0.500000 0.631204
O O8 0.385178 0.182708 0.681748
O O9 0.500000 0.245239 0.000000
O O10 0.217067 0.069124 0.401689
#
# Coordination Sequence:
#
# PCOD9216019 Si02
#       6
#     8   2   4   8   4   8
#     4  11  26  45  75 105 137 188 242 284 358 431
#     4  10  22  42  70 102 146 180 230 294 344 420
#     4  11  22  45  70 106 139 181 238 293 350 414
#     4  11  25  48  68 103 147 181 234 299 347 422
#     4  10  23  39  71 102 144 184 224 299 350 405
#     4  11  22  45  68 103 142 185 232 289 352 417
#
# _framework density 22.603549000000001
#
# number of rings (size 3 to 8) (size 9 to 14) (size 15 to 20)
#    0.000    1.176    3.529    2.118    3.294    1.882 
#    0.000    1.176    0.000    0.000    0.000    0.000 
#    0.000    0.000    0.000    0.000    0.000    0.000 
#
# Total GULP energy -94928.069742 kJ/mol
# GULP energy per Si atom -5584.004102 kJ/mol
# Density = 2.255210 g / cm^3
# Si number density = 22.603549 Si / 1000 Ang^3
#
#
#
# Elastic Constant Matrix: (Units=GPa)
#
#
# Indices 1 2 3 4 5 6 
#
# 1 89.2192 10.1433 28.3071 0.0000 9.2188 0.0000
# 2 10.1433 132.2255 29.5512 0.0000 -1.0837 0.0000
# 3 28.3071 29.5512 50.9921 0.0000 6.4190 0.0000
# 4 0.0000 0.0000 0.0000 14.6273 0.0000 1.8583
# 5 9.2188 -1.0837 6.4190 0.0000 41.4022 0.0000
# 6 0.0000 0.0000 0.0000 1.8583 0.0000 31.1496
#
#
#
# Elastic Compliance Matrix: (Units=1/GPa)
#
#
# Indices 1 2 3 4 5 6 
#
# 1 0.013804 0.000674 -0.007821 0.000000 -0.001843 0.000000
# 2 0.000674 0.008764 -0.005572 0.000000 0.000943 0.000000
# 3 -0.007821 -0.005572 0.027518 0.000000 -0.002671 0.000000
# 4 0.000000 0.000000 0.000000 0.068888 0.000000 -0.004110
# 5 -0.001843 0.000943 -0.002671 0.000000 0.025002 0.000000
# 6 0.000000 0.000000 0.000000 -0.004110 0.000000 0.032348
#
#
# Mechanical properties :
#
#
# Convention : Reuss Voigt Hill
#
# Bulk Modulus (GPa) = 40.57248 45.38223 42.97735
# Shear Modulus (GPa) = 23.81196 31.06483 27.43839
#
# Velocity S-wave (km/s) = 3.24923 3.71122 3.48788
# Velocity P-wave (km/s) = 5.66262 6.20365 5.93930
#
# Compressibility (1/GPa) = 0.02464725
#
# Stress axis : x y z
#
# Youngs Moduli (GPa) = 72.44430 114.10138 36.33988
#
# Poissons Ratio (x) = -0.07690 0.28423
# Poissons Ratio (y) = -0.04883 0.20248
# Poissons Ratio (z) = 0.56661 0.63576
#
# Static dielectric constant tensor:
#      x y z
#    x 1.865940 0.000000 0.026500 
#    y 0.000000 1.795930 0.000000 
#    z 0.026500 0.000000 1.846810 
# 
# From -- ./inp_files/147461.got.cif
#   From: 2010.05.17/outbox.cif.g08.bks.cpg/sg12_74_cif.got.tgz:147461.got - 2010.06.03 13:09:07.
