data_PCOD9216721
_publ_section_title
;
Structure prediction by ZEFSAII (Michael W. Deem and Ramdas Pophale) SiO2 
 PCOD9216721
Probable space group: C 2/M
;
_chemical_formula_sum "Si O2"
_cell_formula_units_Z 48
_cell_length_a 22.580025
_cell_length_b 7.667792
_cell_length_c 22.296674
_cell_angle_alpha 90.000000
_cell_angle_beta 147.099929
_cell_angle_gamma 90.000000
_cell_volume 2096.886826
_symmetry_space_group_name_H-M "C 2/M"
_symmetry_group_IT_number 12
_symmetry_cell_setting 'monoclinic'
loop_
_space_group_symop_operation_xyz
x,y,z
-x,y,-z
-x,-y,-z
x,-y,z
1/2+x,1/2+y,z
1/2-x,1/2+y,-z
1/2-x,1/2-y,-z
1/2+x,1/2-y,z
loop_
_atom_site_type_symbol
_atom_site_label
_atom_site_fract_x
_atom_site_fract_y
_atom_site_fract_z
Si Si1 0.679918 0.211191 0.034242
Si Si2 0.592070 0.712603 0.623105
Si Si3 0.053864 0.797255 0.177119
Si Si4 0.359523 0.289921 0.628979
Si Si5 0.671662 0.795343 0.163427
Si Si6 0.579327 0.712444 0.752101
O O1 0.662322 0.276161 0.088292
O O2 0.802413 0.268458 0.121558
O O3 0.677260 0.000000 0.029496
O O4 0.571500 0.274765 0.909126
O O5 0.500000 0.778470 0.500000
O O6 0.588293 0.500000 0.617362
O O7 0.714784 0.769845 0.711624
O O8 0.575098 0.760251 0.678152
O O9 0.132310 0.724094 0.295643
O O10 0.077002 0.721177 0.131315
O O11 0.075979 0.000000 0.188986
O O12 0.367512 0.500000 0.638442
O O13 0.250000 0.250000 0.500000
O O14 0.469208 0.225380 0.689581
O O15 0.686278 0.000000 0.165299
O O16 0.579974 0.500000 0.755060
#
# Coordination Sequence:
#
# PCOD9216721 Si02
#       6
#     8   8   8   8   8   8
#     4   9  18  35  58  83 106 133 179 229 268 309
#     4   8  14  25  48  81 103 124 170 225 267 302
#     4  11  23  35  50  78 114 147 177 211 261 324
#     4  10  23  40  56  77 107 143 181 219 262 315
#     4   9  18  32  53  82 109 135 176 224 264 311
#     4   8  16  33  54  76 105 135 170 225 271 302
#
# _framework density 22.891078
#
# number of rings (size 3 to 8) (size 9 to 14) (size 15 to 20)
#    0.000    2.833    0.000    3.000    2.333    4.667 
#    0.000    0.833    0.000    1.500    0.000    0.000 
#    0.000    0.000    0.000    0.000    0.000    0.000 
#
# Total GULP energy -133903.789024 kJ/mol
# GULP energy per Si atom -5579.324543 kJ/mol
# Density = 2.283898 g / cm^3
# Si number density = 22.891078 Si / 1000 Ang^3
#
#
#
# Elastic Constant Matrix: (Units=GPa)
#
#
# Indices 1 2 3 4 5 6 
#
# 1 70.5875 -7.7682 14.5796 0.0000 19.5015 0.0000
# 2 -7.7682 35.6685 -8.8766 0.0000 -5.1954 0.0000
# 3 14.5796 -8.8766 124.0436 0.0000 8.4136 0.0000
# 4 0.0000 0.0000 0.0000 15.6286 0.0000 4.8463
# 5 19.5015 -5.1954 8.4136 0.0000 27.2766 0.0000
# 6 0.0000 0.0000 0.0000 4.8463 0.0000 1.4408
#
#
#
# Elastic Compliance Matrix: (Units=1/GPa)
#
#
# Indices 1 2 3 4 5 6 
#
# 1 0.017961 0.001857 -0.001155 0.000000 -0.012131 0.000000
# 2 0.001857 0.029395 0.001630 0.000000 0.003768 0.000001
# 3 -0.001155 0.001630 0.008413 0.000000 -0.001459 0.000000
# 4 0.000000 0.000000 0.000000 -1.486770 0.000000 5.000895
# 5 -0.012131 0.003768 -0.001459 0.000000 0.046503 0.000000
# 6 0.000000 0.000001 0.000000 5.000895 0.000000-16.126952
#
#
# Mechanical properties :
#
#
# Convention : Reuss Voigt Hill
#
# Bulk Modulus (GPa) = 16.54744 25.12992 20.83868
# Shear Modulus (GPa) = -0.28578 24.36017 12.03720
#
# Velocity S-wave (km/s) = -0.35372 3.26571 2.29562
# Velocity P-wave (km/s) = 2.66038 5.02212 4.01867
#
# Compressibility (1/GPa) = 0.06043231
#
# Stress axis : x y z
#
# Youngs Moduli (GPa) = 55.67475 34.01956 118.86330
#
# Poissons Ratio (x) = -0.06318 0.13733
# Poissons Ratio (y) = -0.10340 -0.19370
# Poissons Ratio (z) = 0.06432 -0.05544
#
# Static dielectric constant tensor:
#      x y z
#    x 1.869600 0.000000 -0.004420 
#    y 0.000000 1.845390 0.000000 
#    z -0.004420 0.000000 1.875700 
# 
# From -- ./inp_files/172855.got.cif
#   From: 2010.05.17/outbox.cif.g08.bks.cpg/sg12_87_cif.got.tgz:172855.got - 2010.06.03 13:09:07.
