data_PCOD9216344
_publ_section_title
;
Structure prediction by ZEFSAII (Michael W. Deem and Ramdas Pophale) SiO2 
 PCOD9216344
Probable space group: C 2/M
;
_chemical_formula_sum "Si O2"
_cell_formula_units_Z 60
_cell_length_a 8.870644
_cell_length_b 19.445460
_cell_length_c 17.383619
_cell_angle_alpha 90.000000
_cell_angle_beta 80.338987
_cell_angle_gamma 90.000000
_cell_volume 2956.039694
_symmetry_space_group_name_H-M "C 2/M"
_symmetry_group_IT_number 12
_symmetry_cell_setting 'monoclinic'
loop_
_space_group_symop_operation_xyz
x,y,z
-x,y,-z
-x,-y,-z
x,-y,z
1/2+x,1/2+y,z
1/2-x,1/2+y,-z
1/2-x,1/2-y,-z
1/2+x,1/2-y,z
loop_
_atom_site_type_symbol
_atom_site_label
_atom_site_fract_x
_atom_site_fract_y
_atom_site_fract_z
Si Si1 0.120490 0.077729 0.657951
Si Si2 0.099608 0.323867 0.346960
Si Si3 0.941176 0.690462 0.197612
Si Si4 0.143312 0.922220 0.042294
Si Si5 0.500000 0.604708 0.500000
Si Si6 0.085557 0.836985 0.201774
Si Si7 0.916862 0.578214 0.926432
Si Si8 0.260471 0.205310 0.423354
O O1 0.287050 0.113364 0.645986
O O2 0.070630 0.073648 0.572411
O O3 0.008495 0.124143 0.721912
O O4 0.122508 0.000000 0.688722
O O5 0.198909 0.256509 0.362085
O O6 0.038599 0.326444 0.265617
O O7 0.935311 0.319112 0.403042
O O8 0.757199 0.682382 0.215450
O O9 0.990361 0.769914 0.182125
O O10 0.996954 0.633031 0.132757
O O11 0.110403 0.883899 0.124231
O O12 0.197657 0.000000 0.056907
O O13 0.260689 0.889436 0.971459
O O14 0.000000 0.928660 0.000000
O O15 0.638836 0.646379 0.449126
O O16 0.898199 0.500000 0.894660
O O17 0.000000 0.570429 0.000000
O O18 0.250000 0.250000 0.500000
#
# Coordination Sequence:
#
# PCOD9216344 Si02
#       8
#     8   8   8   8   4   8   8   8
#     4  12  28  47  68  97 139 187 231 285 350 419
#     4  12  24  43  67 105 136 173 228 281 346 416
#     4  12  26  42  70 104 136 179 226 298 351 407
#     4  10  23  43  69  97 132 186 236 281 340 419
#     4  12  23  44  74 102 135 176 228 284 339 420
#     4  12  26  46  67  99 142 179 233 291 354 414
#     4  10  22  44  69  98 137 183 233 280 343 419
#     4  12  21  41  75 104 134 175 222 283 348 410
#
# _framework density 20.297428
#
# number of rings (size 3 to 8) (size 9 to 14) (size 15 to 20)
#    0.000    0.533    4.000    4.600    3.733    2.133 
#    0.000    3.333    0.000    0.000    0.000    0.000 
#    0.000    0.000    0.000    0.000    0.000    0.000 
#
# Total GULP energy -167198.439456 kJ/mol
# GULP energy per Si atom -5573.281315 kJ/mol
# Density = 2.025123 g / cm^3
# Si number density = 20.297428 Si / 1000 Ang^3
#
#
#
# Elastic Constant Matrix: (Units=GPa)
#
#
# Indices 1 2 3 4 5 6 
#
# 1 161.6457 60.0625 51.9054 0.0000 -9.5560 0.0000
# 2 60.0625 130.4184 70.5965 0.0000 -10.6469 0.0000
# 3 51.9054 70.5965 114.4101 0.0000 -4.5926 0.0000
# 4 0.0000 0.0000 0.0000 10.8275 0.0000 -15.7607
# 5 -9.5560 -10.6469 -4.5926 0.0000 35.7154 0.0000
# 6 0.0000 0.0000 0.0000 -15.7607 0.0000 4.6588
#
#
#
# Elastic Compliance Matrix: (Units=1/GPa)
#
#
# Indices 1 2 3 4 5 6 
#
# 1 0.007791 -0.002415 -0.002000 0.000000 0.001108 0.000000
# 2 -0.002415 0.012494 -0.006524 0.000000 0.002239 0.000000
# 3 -0.002000 -0.006524 0.013644 0.000000 -0.000725 0.000000
# 4 0.000000 0.000000 0.000000 -0.023534 0.000000 -0.079617
# 5 0.001108 0.002239 -0.000725 0.000000 0.028870 0.000000
# 6 0.000000 0.000000 0.000000 -0.079617 0.000000 -0.054696
#
#
# Mechanical properties :
#
#
# Convention : Reuss Voigt Hill
#
# Bulk Modulus (GPa) = 82.97623 85.73368 84.35496
# Shear Modulus (GPa) = 477.80571 25.16767 251.48669
#
# Velocity S-wave (km/s) = 15.35946 3.52510 11.14315
# Velocity P-wave (km/s) = 18.85523 7.67456 14.39477
#
# Compressibility (1/GPa) = 0.01205164
#
# Stress axis : x y z
#
# Youngs Moduli (GPa) = 128.34510 80.03730 73.29063
#
# Poissons Ratio (x) = 0.19331 0.14659
# Poissons Ratio (y) = 0.30998 0.47814
# Poissons Ratio (z) = 0.25670 0.52215
#
# Static dielectric constant tensor:
#      x y z
#    x 1.612510 0.000000 0.018810 
#    y 0.000000 1.695390 0.000000 
#    z 0.018810 0.000000 1.725450 
# 
# From -- ./inp_files/258064.got.cif
#   From: 2010.05.17/outbox.cif.g08.bks.cpg/sg12_130_cif.got.tgz:258064.got - 2010.06.03 13:09:07.
