data_PCOD9216116
_publ_section_title
;
Structure prediction by ZEFSAII (Michael W. Deem and Ramdas Pophale) SiO2 
 PCOD9216116
Probable space group: C 2/M
;
_chemical_formula_sum "Si O2"
_cell_formula_units_Z 42
_cell_length_a 17.894150
_cell_length_b 11.177622
_cell_length_c 12.585009
_cell_angle_alpha 90.000000
_cell_angle_beta 49.066912
_cell_angle_gamma 90.000000
_cell_volume 1901.666056
_symmetry_space_group_name_H-M "C 2/M"
_symmetry_group_IT_number 12
_symmetry_cell_setting 'monoclinic'
loop_
_space_group_symop_operation_xyz
x,y,z
-x,y,-z
-x,-y,-z
x,-y,z
1/2+x,1/2+y,z
1/2-x,1/2+y,-z
1/2-x,1/2-y,-z
1/2+x,1/2-y,z
loop_
_atom_site_type_symbol
_atom_site_label
_atom_site_fract_x
_atom_site_fract_y
_atom_site_fract_z
Si Si1 0.123954 0.367198 0.306182
Si Si2 0.501997 0.256572 0.254899
Si Si3 0.639115 0.863592 0.783340
Si Si4 0.133401 0.134983 0.447737
Si Si5 0.846664 0.184810 0.050742
Si Si6 0.500000 0.500000 0.000000
O O1 0.115742 0.500000 0.363464
O O2 0.114590 0.249725 0.389674
O O3 0.041422 0.348894 0.293370
O O4 0.233911 0.356956 0.154651
O O5 0.434532 0.209163 0.222583
O O6 0.437419 0.346628 0.385654
O O7 0.599448 0.314794 0.112525
O O8 0.750422 0.856592 0.632398
O O9 0.607258 0.000000 0.815944
O O10 0.648094 0.811741 0.893890
O O11 0.118571 0.000000 0.416342
O O12 0.914629 0.101576 0.060226
#
# Coordination Sequence:
#
# PCOD9216116 Si02
#       6
#     8   8   8   8   8   2
#     4  11  25  44  65  93 133 169 211 263 321 383
#     4  12  23  39  65  99 127 166 209 263 324 379
#     4  10  22  43  65  94 128 165 212 261 318 379
#     4  10  25  45  66  92 127 171 217 264 313 377
#     4  11  24  42  66  97 124 170 212 266 313 377
#     4  12  20  44  66  92 128 168 222 256 320 360
#
# _framework density 22.085896999999999
#
# number of rings (size 3 to 8) (size 9 to 14) (size 15 to 20)
#    0.000    1.143    2.857    2.286    1.333    6.095 
#    0.000    3.810    0.000    0.000    0.000    0.000 
#    0.000    0.000    0.000    0.000    0.000    0.000 
#
# Total GULP energy -117054.314898 kJ/mol
# GULP energy per Si atom -5574.014995 kJ/mol
# Density = 2.203563 g / cm^3
# Si number density = 22.085897 Si / 1000 Ang^3
#
#
#
# Elastic Constant Matrix: (Units=GPa)
#
#
# Indices 1 2 3 4 5 6 
#
# 1 68.8198 7.5061 4.6128 0.0000 -15.8518 0.0000
# 2 7.5061 141.1865 35.2880 0.0000 6.9466 0.0000
# 3 4.6128 35.2880 129.6588 0.0000 -29.0273 0.0000
# 4 0.0000 0.0000 0.0000 -43.7445 0.0000 -79.1796
# 5 -15.8518 6.9466 -29.0273 0.0000 33.6184 0.0000
# 6 0.0000 0.0000 0.0000 -79.1796 0.0000 -80.6577
#
#
#
# Elastic Compliance Matrix: (Units=1/GPa)
#
#
# Indices 1 2 3 4 5 6 
#
# 1 0.016982 -0.001976 0.002253 0.000000 0.010361 0.000000
# 2 -0.001976 0.008330 -0.003459 0.000000 -0.005640 0.000000
# 3 0.002253 -0.003459 0.011122 0.000000 0.011380 0.000000
# 4 0.000000 0.000000 0.000000 0.029425 0.000000 -0.028886
# 5 0.010361 -0.005640 0.011380 0.000000 0.045622 0.000000
# 6 0.000000 0.000000 0.000000 -0.028886 0.000000 0.015959
#
#
# Mechanical properties :
#
#
# Convention : Reuss Voigt Hill
#
# Bulk Modulus (GPa) = 33.25661 48.27543 40.76602
# Shear Modulus (GPa) = 34.76401 1.32713 18.04557
#
# Velocity S-wave (km/s) = 3.97172 0.77601 2.86153
# Velocity P-wave (km/s) = 6.01026 4.76534 5.42364
#
# Compressibility (1/GPa) = 0.03006921
#
# Stress axis : x y z
#
# Youngs Moduli (GPa) = 58.88698 120.04799 89.91506
#
# Poissons Ratio (x) = 0.23718 -0.20259
# Poissons Ratio (y) = 0.11634 0.31105
# Poissons Ratio (z) = -0.13268 0.41530
#
# Static dielectric constant tensor:
#      x y z
#    x 1.792890 0.000000 0.012830 
#    y 0.000000 1.811270 0.000000 
#    z 0.012830 0.000000 1.855850 
# 
# From -- ./inp_files/164624.got.cif
#   From: 2010.05.17/outbox.cif.g08.bks.cpg/sg12_83_cif.got.tgz:164624.got - 2010.06.03 13:09:07.
