data_PCOD9216998
_publ_section_title
;
Structure prediction by ZEFSAII (Michael W. Deem and Ramdas Pophale) SiO2 
 PCOD9216998
Probable space group: C 2/M
;
_chemical_formula_sum "Si O2"
_cell_formula_units_Z 64
_cell_length_a 19.335037
_cell_length_b 16.775886
_cell_length_c 12.015579
_cell_angle_alpha 90.000000
_cell_angle_beta 121.902913
_cell_angle_gamma 90.000000
_cell_volume 3308.679035
_symmetry_space_group_name_H-M "C 2/M"
_symmetry_group_IT_number 12
_symmetry_cell_setting 'monoclinic'
loop_
_space_group_symop_operation_xyz
x,y,z
-x,y,-z
-x,-y,-z
x,-y,z
1/2+x,1/2+y,z
1/2-x,1/2+y,-z
1/2-x,1/2-y,-z
1/2+x,1/2-y,z
loop_
_atom_site_type_symbol
_atom_site_label
_atom_site_fract_x
_atom_site_fract_y
_atom_site_fract_z
Si Si1 0.881935 0.910210 0.180807
Si Si2 0.909735 0.092706 0.881583
Si Si3 0.693894 0.161225 0.190811
Si Si4 0.522268 0.185010 0.147091
Si Si5 0.142993 0.093804 0.582004
Si Si6 0.781837 0.172696 0.925098
Si Si7 0.137113 0.591565 0.919687
Si Si8 0.949983 0.841888 0.703082
O O1 0.889869 0.903266 0.320013
O O2 0.973305 0.900308 0.215401
O O3 0.850427 0.000000 0.129040
O O4 0.829082 0.838099 0.083833
O O5 0.837120 0.110719 0.903858
O O6 0.888267 0.136211 0.748845
O O7 0.915287 0.000000 0.867103
O O8 0.000000 0.119299 0.000000
O O9 0.614984 0.159513 0.203252
O O10 0.769762 0.135092 0.329063
O O11 0.706366 0.245460 0.134219
O O12 0.680649 0.099799 0.077561
O O13 0.453781 0.123405 0.130740
O O14 0.520721 0.254609 0.237145
O O15 0.500000 0.209470 0.000000
O O16 0.088779 0.141838 0.448506
O O17 0.147427 0.000000 0.553441
O O18 0.690717 0.144275 0.878479
O O19 0.136448 0.500000 0.883414
#
# Coordination Sequence:
#
# PCOD9216998 Si02
#       8
#     8   8   8   8   8   8   8   8
#     4  11  21  36  59  90 127 157 196 255 312 369
#     4  11  21  34  59  90 125 165 201 253 320 373
#     4  11  23  40  62  91 128 160 206 261 314 372
#     4  10  23  41  63  93 123 159 211 266 311 364
#     4  11  25  40  60  90 125 165 206 251 309 378
#     4  12  22  38  62  96 128 159 205 260 317 371
#     4  11  23  39  64  94 125 162 209 262 316 369
#     4  12  22  39  59  87 127 166 208 245 306 381
#
# _framework density 19.343067999999999
#
# number of rings (size 3 to 8) (size 9 to 14) (size 15 to 20)
#    0.000    0.875    3.750    5.250    1.750    4.250 
#    0.000    0.000    0.000    0.000    0.000    0.875 
#    0.000    0.000    0.000    0.000    0.000    0.000 
#
# Total GULP energy -178426.970561 kJ/mol
# GULP energy per Si atom -5575.842830 kJ/mol
# Density = 1.929904 g / cm^3
# Si number density = 19.343068 Si / 1000 Ang^3
#
#
#
# Elastic Constant Matrix: (Units=GPa)
#
#
# Indices 1 2 3 4 5 6 
#
# 1 131.9185 29.4842 21.8324 0.0000 3.9473 0.0000
# 2 29.4842 74.8124 29.5795 0.0000 7.0228 0.0000
# 3 21.8324 29.5795 61.8340 0.0000 -0.4143 0.0000
# 4 0.0000 0.0000 0.0000 17.1532 0.0000 -5.0991
# 5 3.9473 7.0228 -0.4143 0.0000 21.5655 0.0000
# 6 0.0000 0.0000 0.0000 -5.0991 0.0000 23.5747
#
#
#
# Elastic Compliance Matrix: (Units=1/GPa)
#
#
# Indices 1 2 3 4 5 6 
#
# 1 0.008469 -0.002569 -0.001766 0.000000 -0.000747 0.000000
# 2 -0.002569 0.017949 -0.007716 0.000000 -0.005523 0.000000
# 3 -0.001766 -0.007716 0.020509 0.000000 0.003230 0.000000
# 4 0.000000 0.000000 0.000000 0.062304 0.000000 0.013476
# 5 -0.000747 -0.005523 0.003230 0.000000 0.048368 0.000000
# 6 0.000000 0.000000 0.000000 0.013476 0.000000 0.045333
#
#
# Mechanical properties :
#
#
# Convention : Reuss Voigt Hill
#
# Bulk Modulus (GPa) = 43.81431 47.81745 45.81588
# Shear Modulus (GPa) = 21.30900 24.96991 23.13946
#
# Velocity S-wave (km/s) = 3.32269 3.59680 3.46246
# Velocity P-wave (km/s) = 6.11725 6.48257 6.30256
#
# Compressibility (1/GPa) = 0.02282359
#
# Stress axis : x y z
#
# Youngs Moduli (GPa) = 118.07244 55.71488 48.75993
#
# Poissons Ratio (x) = 0.14315 0.08612
# Poissons Ratio (y) = 0.30337 0.37622
# Poissons Ratio (z) = 0.20855 0.42989
#
# Static dielectric constant tensor:
#      x y z
#    x 1.763460 0.000000 -0.037730 
#    y 0.000000 1.694960 0.000000 
#    z -0.037730 0.000000 1.698090 
# 
# From -- ./inp_files/168485.got.cif
#   From: 2010.05.17/outbox.cif.g08.bks.cpg/sg12_85_cif.got.tgz:168485.got - 2010.06.03 13:09:07.
