data_PCOD9216709
_publ_section_title
;
Structure prediction by ZEFSAII (Michael W. Deem and Ramdas Pophale) SiO2 
 PCOD9216709
Probable space group: C 2/M
;
_chemical_formula_sum "Si O2"
_cell_formula_units_Z 44
_cell_length_a 10.205547
_cell_length_b 20.862527
_cell_length_c 10.975269
_cell_angle_alpha 90.000000
_cell_angle_beta 64.995292
_cell_angle_gamma 90.000000
_cell_volume 2117.763414
_symmetry_space_group_name_H-M "C 2/M"
_symmetry_group_IT_number 12
_symmetry_cell_setting 'monoclinic'
loop_
_space_group_symop_operation_xyz
x,y,z
-x,y,-z
-x,-y,-z
x,-y,z
1/2+x,1/2+y,z
1/2-x,1/2+y,-z
1/2-x,1/2-y,-z
1/2+x,1/2-y,z
loop_
_atom_site_type_symbol
_atom_site_label
_atom_site_fract_x
_atom_site_fract_y
_atom_site_fract_z
Si Si1 0.265153 0.257280 0.847196
Si Si2 0.009900 0.427720 0.823730
Si Si3 0.112350 0.639286 0.353852
Si Si4 0.162210 0.887430 0.299029
Si Si5 0.000000 0.677149 0.000000
Si Si6 0.151670 0.926469 0.572697
O O1 0.323913 0.196799 0.752123
O O2 0.348259 0.320422 0.768370
O O3 0.250000 0.250000 0.000000
O O4 0.100527 0.277632 0.879680
O O5 0.965643 0.500000 0.867538
O O6 0.180497 0.418710 0.785577
O O7 0.975560 0.409105 0.698869
O O8 0.928653 0.373759 0.935554
O O9 0.242472 0.601910 0.368289
O O10 0.000000 0.663443 0.500000
O O11 0.161904 0.883435 0.446604
O O12 0.016952 0.925469 0.323823
O O13 0.191101 0.000000 0.525651
#
# Coordination Sequence:
#
# PCOD9216709 Si02
#       6
#     8   8   8   8   4   8
#     4  11  25  45  67  93 136 171 224 268 325 387
#     4  11  21  41  67  97 129 168 219 266 324 388
#     4  12  26  40  67 100 134 171 213 273 332 383
#     4  10  23  39  67  94 128 176 215 263 323 384
#     4  10  23  44  68  94 125 180 220 270 318 386
#     4  11  23  42  65  98 134 170 216 269 330 390
#
# _framework density 20.776636
#
# number of rings (size 3 to 8) (size 9 to 14) (size 15 to 20)
#    0.000    1.091    3.636    3.000    5.091    1.455 
#    0.000    0.000    0.000    1.091    0.000    0.000 
#    0.000    0.000    0.000    0.000    0.000    0.000 
#
# Total GULP energy -122671.208285 kJ/mol
# GULP energy per Si atom -5575.964013 kJ/mol
# Density = 2.072935 g / cm^3
# Si number density = 20.776636 Si / 1000 Ang^3
#
#
#
# Elastic Constant Matrix: (Units=GPa)
#
#
# Indices 1 2 3 4 5 6 
#
# 1 102.1701 41.7903 46.8104 0.0000 3.1348 0.0000
# 2 41.7903 127.3309 59.4139 0.0000 8.0969 0.0000
# 3 46.8104 59.4139 115.0136 0.0000 9.8352 0.0000
# 4 0.0000 0.0000 0.0000 -1.7735 0.0000 -12.7750
# 5 3.1348 8.0969 9.8352 0.0000 35.5227 0.0000
# 6 0.0000 0.0000 0.0000 -12.7750 0.0000 18.9265
#
#
#
# Elastic Compliance Matrix: (Units=1/GPa)
#
#
# Indices 1 2 3 4 5 6 
#
# 1 0.012523 -0.002298 -0.003954 0.000000 0.000513 0.000000
# 2 -0.002298 0.010798 -0.004557 0.000000 -0.000997 0.000000
# 3 -0.003954 -0.004557 0.012843 0.000000 -0.002168 0.000000
# 4 0.000000 0.000000 0.000000 -0.096188 0.000000 -0.064925
# 5 0.000513 -0.000997 -0.002168 0.000000 0.028933 0.000000
# 6 0.000000 0.000000 0.000000 -0.064925 0.000000 0.009013
#
#
# Mechanical properties :
#
#
# Convention : Reuss Voigt Hill
#
# Bulk Modulus (GPa) = 68.74652 71.17151 69.95902
# Shear Modulus (GPa) = 1139.15479 23.63516 581.39497
#
# Velocity S-wave (km/s) = 23.44092 3.37647 16.74630
# Velocity P-wave (km/s) = 27.67302 7.03780 20.19067
#
# Compressibility (1/GPa) = 0.01454619
#
# Stress axis : x y z
#
# Youngs Moduli (GPa) = 79.85165 92.61295 77.86056
#
# Poissons Ratio (x) = 0.21282 0.30784
# Poissons Ratio (y) = 0.18349 0.35484
# Poissons Ratio (z) = 0.31571 0.42207
#
# Static dielectric constant tensor:
#      x y z
#    x 1.830590 0.000000 -0.028090 
#    y 0.000000 1.741940 0.000000 
#    z -0.028090 0.000000 1.814900 
# 
# From -- ./inp_files/131592.got.cif
#   From: 2010.05.17/outbox.cif.g08.bks.cpg/sg12_66_cif.got.tgz:131592.got - 2010.06.03 13:09:07.
