data_PCOD9216933
_publ_section_title
;
Structure prediction by ZEFSAII (Michael W. Deem and Ramdas Pophale) SiO2 
 PCOD9216933
Probable space group: C 2/M
;
_chemical_formula_sum "Si O2"
_cell_formula_units_Z 32
_cell_length_a 17.129315
_cell_length_b 12.775364
_cell_length_c 9.383136
_cell_angle_alpha 90.000000
_cell_angle_beta 138.098083
_cell_angle_gamma 90.000000
_cell_volume 1371.339768
_symmetry_space_group_name_H-M "C 2/M"
_symmetry_group_IT_number 12
_symmetry_cell_setting 'monoclinic'
loop_
_space_group_symop_operation_xyz
x,y,z
-x,y,-z
-x,-y,-z
x,-y,z
1/2+x,1/2+y,z
1/2-x,1/2+y,-z
1/2-x,1/2-y,-z
1/2+x,1/2-y,z
loop_
_atom_site_type_symbol
_atom_site_label
_atom_site_fract_x
_atom_site_fract_y
_atom_site_fract_z
Si Si1 0.210767 0.884522 0.300311
Si Si2 0.701281 0.195629 0.077407
Si Si3 0.518975 0.157148 0.364092
Si Si4 0.595012 0.385520 0.453912
O O1 0.171986 0.790059 0.146861
O O2 0.148628 0.625862 0.493483
O O3 0.152260 0.877611 0.374918
O O4 0.184071 0.000000 0.203727
O O5 0.801622 0.129615 0.291190
O O6 0.750000 0.250000 0.000000
O O7 0.587928 0.128884 0.882054
O O8 0.500000 0.120869 0.500000
O O9 0.515349 0.284089 0.361574
O O10 0.539974 0.500000 0.392938
#
# Coordination Sequence:
#
# PCOD9216933 Si02
#       4
#     8   8   8   8
#     4  10  23  41  60  87 121 154 192 240 292 348
#     4  11  21  39  60  89 118 153 195 240 293 341
#     4  11  21  39  60  89 118 153 195 240 293 341
#     4  10  23  41  60  87 121 154 192 240 292 348
#
# _framework density 23.334845000000001
#
# number of rings (size 3 to 8) (size 9 to 14) (size 15 to 20)
#    0.000    1.500    5.000    3.000    0.000    8.000 
#    0.000    5.000    0.000    0.000    0.000    0.000 
#    0.000    0.000    0.000    0.000    0.000    0.000 
#
# Total GULP energy -89545.699117 kJ/mol
# GULP energy per Si atom -5596.606195 kJ/mol
# Density = 2.328173 g / cm^3
# Si number density = 23.334845 Si / 1000 Ang^3
#
#
#
# Elastic Constant Matrix: (Units=GPa)
#
#
# Indices 1 2 3 4 5 6 
#
# 1 92.7770 3.8120 8.9376 0.0000 -18.2133 0.0000
# 2 3.8120 123.7385 0.1470 0.0000 -13.1403 0.0000
# 3 8.9376 0.1470 110.9898 0.0000 4.1194 0.0000
# 4 0.0000 0.0000 0.0000 -10.3527 0.0000 9.3112
# 5 -18.2133 -13.1403 4.1194 0.0000 33.5288 0.0000
# 6 0.0000 0.0000 0.0000 9.3112 0.0000 -41.8670
#
#
#
# Elastic Compliance Matrix: (Units=1/GPa)
#
#
# Indices 1 2 3 4 5 6 
#
# 1 0.012247 0.000362 -0.001245 0.000000 0.006948 0.000000
# 2 0.000362 0.008445 -0.000171 0.000000 0.003527 0.000000
# 3 -0.001245 -0.000171 0.009180 0.000000 -0.001871 0.000000
# 4 0.000000 0.000000 0.000000 -0.120746 0.000000 -0.026854
# 5 0.006948 0.003527 -0.001871 0.000000 0.035212 0.000000
# 6 0.000000 0.000000 0.000000 -0.026854 0.000000 -0.029857
#
#
# Mechanical properties :
#
#
# Convention : Reuss Voigt Hill
#
# Bulk Modulus (GPa) = 36.01695 39.25540 37.63617
# Shear Modulus (GPa) = -67.42471 17.23573 -25.09449
#
# Velocity S-wave (km/s) = -5.38119 2.72072 -3.28290
# Velocity P-wave (km/s) = 4.81053 5.17000 1.33935
#
# Compressibility (1/GPa) = 0.02776471
#
# Stress axis : x y z
#
# Youngs Moduli (GPa) = 81.64934 118.41039 108.93570
#
# Poissons Ratio (x) = -0.04286 0.13558
# Poissons Ratio (y) = -0.02956 0.01866
# Poissons Ratio (z) = 0.10162 0.02028
#
# Static dielectric constant tensor:
#      x y z
#    x 1.832910 0.000000 0.003380 
#    y 0.000000 1.910000 0.000000 
#    z 0.003380 0.000000 1.871640 
# 
# From -- ./inp_files/58717.got.cif
#   From: 2010.05.17/outbox.cif.g08.bks.cpg/sg12_30_cif.got.tgz:58717.got - 2010.06.03 13:09:07.
