data_PCOD9216353
_publ_section_title
;
Structure prediction by ZEFSAII (Michael W. Deem and Ramdas Pophale) SiO2 
 PCOD9216353
Probable space group: C 2/M
;
_chemical_formula_sum "Si O2"
_cell_formula_units_Z 26
_cell_length_a 9.502314
_cell_length_b 14.525905
_cell_length_c 13.206472
_cell_angle_alpha 90.000000
_cell_angle_beta 39.654195
_cell_angle_gamma 90.000000
_cell_volume 1163.278977
_symmetry_space_group_name_H-M "C 2/M"
_symmetry_group_IT_number 12
_symmetry_cell_setting 'monoclinic'
loop_
_space_group_symop_operation_xyz
x,y,z
-x,y,-z
-x,-y,-z
x,-y,z
1/2+x,1/2+y,z
1/2-x,1/2+y,-z
1/2-x,1/2-y,-z
1/2+x,1/2-y,z
loop_
_atom_site_type_symbol
_atom_site_label
_atom_site_fract_x
_atom_site_fract_y
_atom_site_fract_z
Si Si1 0.383272 0.500000 0.674951
Si Si2 0.337375 0.000000 0.494828
Si Si3 0.869364 0.307872 0.176661
Si Si4 0.392632 0.848576 0.755904
Si Si5 0.000000 0.000000 0.000000
O O1 0.500000 0.500000 0.500000
O O2 0.575492 0.500000 0.654094
O O3 0.238651 0.408770 0.764646
O O4 0.500000 0.000000 0.500000
O O5 0.403424 0.091135 0.397049
O O6 0.685488 0.228666 0.279274
O O7 0.030426 0.302193 0.182746
O O8 0.000000 0.294872 0.000000
O O9 0.193339 0.919700 0.883953
#
# Coordination Sequence:
#
# PCOD9216353 Si02
#       5
#     4   4   8   8   2
#     4  12  25  49  69  96 150 182 234 288 345 414
#     4  11  27  46  69 103 137 198 226 286 352 420
#     4  12  26  45  73 106 136 186 234 290 350 413
#     4  11  25  45  71 104 140 178 241 285 349 414
#     4  10  22  44  70  90 152 166 224 292 344 400
#
# _framework density 22.350614
#
# number of rings (size 3 to 8) (size 9 to 14) (size 15 to 20)
#    0.000    0.615    4.615    2.308    4.308    4.923 
#    0.000    0.000    0.000    0.000    0.000    0.000 
#    0.000    0.000    0.000    0.000    0.000    0.000 
#
# Total GULP energy -72533.906860 kJ/mol
# GULP energy per Si atom -5579.531297 kJ/mol
# Density = 2.229974 g / cm^3
# Si number density = 22.350614 Si / 1000 Ang^3
#
#
#
# Elastic Constant Matrix: (Units=GPa)
#
#
# Indices 1 2 3 4 5 6 
#
# 1 122.6060 28.2818 -7.1643 -0.0008 -13.0162 -0.0001
# 2 28.2818 153.1465 2.1608 -0.0044 -20.4941 0.0011
# 3 -7.1643 2.1608 23.7876 -0.0072 -12.3405 0.0022
# 4 -0.0008 -0.0044 -0.0072 5.4366 0.0027 -2.4143
# 5 -13.0162 -20.4941 -12.3405 0.0027 40.9792 -0.0003
# 6 -0.0001 0.0011 0.0022 -2.4143 -0.0003 19.6712
#
#
#
# Elastic Compliance Matrix: (Units=1/GPa)
#
#
# Indices 1 2 3 4 5 6 
#
# 1 0.009119 -0.001255 0.004785 0.000005 0.003710 0.000000
# 2 -0.001255 0.007210 0.000748 0.000005 0.003432 0.000000
# 3 0.004785 0.000748 0.052614 0.000063 0.017738 0.000002
# 4 0.000005 0.000005 0.000063 0.194541 0.000011 0.023877
# 5 0.003710 0.003432 0.017738 0.000011 0.032639 0.000000
# 6 0.000000 0.000000 0.000002 0.023877 0.000000 0.053766
#
#
# Mechanical properties :
#
#
# Convention : Reuss Voigt Hill
#
# Bulk Modulus (GPa) = 12.90344 38.45520 25.67932
# Shear Modulus (GPa) = 13.61778 31.63486 22.62632
#
# Velocity S-wave (km/s) = 2.47104 3.76625 3.18517
# Velocity P-wave (km/s) = 3.73190 6.01296 5.00413
#
# Compressibility (1/GPa) = 0.07749870
#
# Stress axis : x y z
#
# Youngs Moduli (GPa) = 109.65897 138.69126 19.00634
#
# Poissons Ratio (x) = 0.17407 -0.09095
# Poissons Ratio (y) = 0.13764 -0.01421
# Poissons Ratio (z) = -0.52473 -0.10370
#
# Static dielectric constant tensor:
#      x y z
#    x 1.871920 0.000000 0.038340 
#    y 0.000000 1.771870 0.000000 
#    z 0.038340 0.000000 1.812260 
# 
# From -- ./inp_files/74256.got.cif
#   From: 2010.05.17/outbox.cif.g08.bks.cpg/sg12_38_cif.got.tgz:74256.got - 2010.06.03 13:09:07.
