data_PCOD9216458
_publ_section_title
;
Structure prediction by ZEFSAII (Michael W. Deem and Ramdas Pophale) SiO2 
 PCOD9216458
Probable space group: C 2/M
;
_chemical_formula_sum "Si O2"
_cell_formula_units_Z 42
_cell_length_a 19.264547
_cell_length_b 13.686140
_cell_length_c 15.342441
_cell_angle_alpha 90.000000
_cell_angle_beta 142.788443
_cell_angle_gamma 90.000000
_cell_volume 2446.341786
_symmetry_space_group_name_H-M "C 2/M"
_symmetry_group_IT_number 12
_symmetry_cell_setting 'monoclinic'
loop_
_space_group_symop_operation_xyz
x,y,z
-x,y,-z
-x,-y,-z
x,-y,z
1/2+x,1/2+y,z
1/2-x,1/2+y,-z
1/2-x,1/2-y,-z
1/2+x,1/2-y,z
loop_
_atom_site_type_symbol
_atom_site_label
_atom_site_fract_x
_atom_site_fract_y
_atom_site_fract_z
Si Si1 1.000000 0.613863 0.395366
Si Si2 0.500000 0.000000 0.000000
Si Si3 0.363011 0.500000 0.760321
Si Si4 0.255688 0.197158 0.413210
Si Si5 0.627995 0.201284 0.127995
Si Si6 0.863012 0.000000 0.965702
Si Si7 0.244313 0.302841 0.901835
O O1 0.999999 0.500000 0.366035
O O2 0.886334 0.668294 0.249877
O O3 0.000000 0.613096 0.500000
O O4 0.113665 0.668294 0.477207
O O5 0.402065 0.087292 0.902065
O O6 0.313999 0.595813 0.664661
O O7 0.500000 0.500000 0.896081
O O8 0.324805 0.500000 0.824805
O O9 0.250000 0.250000 0.500000
O O10 0.198730 0.265500 0.282775
O O11 0.698729 0.234499 0.114684
O O12 0.500000 0.251087 0.000000
O O13 0.814000 0.904186 0.963339
O O14 0.250000 0.250000 0.000000
#
# Coordination Sequence:
#
# PCOD9216458 Si02
#       7
#     8   2   4   8   8   4   8
#     4  11  22  43  67  96 136 174 211 277 341 392
#     4   8  24  40  76  84 132 178 228 264 338 394
#     4  11  22  42  69  97 129 172 223 286 320 381
#     4  12  25  40  68 100 134 172 224 271 333 398
#     4  10  22  46  66  92 126 178 222 271 324 397
#     4  11  22  42  69  97 129 172 223 286 320 381
#     4  12  25  40  68 100 134 172 224 271 333 398
#
# _framework density 17.168493000000002
#
# number of rings (size 3 to 8) (size 9 to 14) (size 15 to 20)
#    0.571    0.381    5.714    1.143    5.333    1.524 
#    3.429    0.000    0.000    1.143    0.000    0.000 
#    0.000    0.000    0.000    0.000    0.000    0.000 
#
# Total GULP energy -116981.683595 kJ/mol
# GULP energy per Si atom -5570.556362 kJ/mol
# Density = 1.712942 g / cm^3
# Si number density = 17.168493 Si / 1000 Ang^3
#
#
#
# Elastic Constant Matrix: (Units=GPa)
#
#
# Indices 1 2 3 4 5 6 
#
# 1 136.3551 85.5649 98.5792 0.0000 -6.3604 0.0000
# 2 85.5649 177.7785 82.7416 0.0000 -4.9115 0.0000
# 3 98.5792 82.7416 137.3701 0.0000 8.1274 0.0000
# 4 0.0000 0.0000 0.0000 25.4214 0.0000 -2.2372
# 5 -6.3604 -4.9115 8.1274 0.0000 42.2562 0.0000
# 6 0.0000 0.0000 0.0000 -2.2372 0.0000 26.7074
#
#
#
# Elastic Compliance Matrix: (Units=1/GPa)
#
#
# Indices 1 2 3 4 5 6 
#
# 1 0.017324 -0.003216 -0.010749 0.000000 0.004301 0.000000
# 2 -0.003216 0.008556 -0.002909 0.000000 0.001070 0.000000
# 3 -0.010749 -0.002909 0.017055 0.000000 -0.005236 0.000000
# 4 0.000000 0.000000 0.000000 0.039629 0.000000 0.003320
# 5 0.004301 0.001070 -0.005236 0.000000 0.025444 0.000000
# 6 0.000000 0.000000 0.000000 0.003320 0.000000 0.037721
#
#
# Mechanical properties :
#
#
# Convention : Reuss Voigt Hill
#
# Bulk Modulus (GPa) = 108.85173 109.47498 109.16336
# Shear Modulus (GPa) = 27.39113 31.18489 29.28801
#
# Velocity S-wave (km/s) = 3.99862 4.26655 4.13475
# Velocity P-wave (km/s) = 9.21185 9.39014 9.30142
#
# Compressibility (1/GPa) = 0.00918681
#
# Stress axis : x y z
#
# Youngs Moduli (GPa) = 57.72372 116.87087 58.63266
#
# Poissons Ratio (x) = 0.37589 0.63025
# Poissons Ratio (y) = 0.18566 0.17056
# Poissons Ratio (z) = 0.62048 0.33998
#
# Static dielectric constant tensor:
#      x y z
#    x 1.569010 0.000000 0.009110 
#    y 0.000000 1.572760 0.000000 
#    z 0.009110 0.000000 1.574250 
# 
# From -- ./inp_files/224984.got.cif
#   From: 2010.05.17/outbox.cif.g08.bks.cpg/sg12_113_cif.got.tgz:224984.got - 2010.06.03 13:09:07.
