data_PCOD9216582
_publ_section_title
;
Structure prediction by ZEFSAII (Michael W. Deem and Ramdas Pophale) SiO2 
 PCOD9216582
Probable space group: C 2/M
;
_chemical_formula_sum "Si O2"
_cell_formula_units_Z 38
_cell_length_a 5.487853
_cell_length_b 28.230439
_cell_length_c 11.532383
_cell_angle_alpha 90.000000
_cell_angle_beta 100.950341
_cell_angle_gamma 90.000000
_cell_volume 1754.117706
_symmetry_space_group_name_H-M "C 2/M"
_symmetry_group_IT_number 12
_symmetry_cell_setting 'monoclinic'
loop_
_space_group_symop_operation_xyz
x,y,z
-x,y,-z
-x,-y,-z
x,-y,z
1/2+x,1/2+y,z
1/2-x,1/2+y,-z
1/2-x,1/2-y,-z
1/2+x,1/2-y,z
loop_
_atom_site_type_symbol
_atom_site_label
_atom_site_fract_x
_atom_site_fract_y
_atom_site_fract_z
Si Si1 0.000000 0.500000 0.500000
Si Si2 0.576817 0.222338 0.140945
Si Si3 0.000000 0.112156 0.000000
Si Si4 0.868022 0.633869 0.218281
Si Si5 0.216839 0.555468 0.167853
Si Si6 0.372826 0.584948 0.606583
O O1 0.805918 0.541659 0.440670
O O2 0.846901 0.246172 0.167407
O O3 0.570685 0.173510 0.211986
O O4 0.500000 0.212524 0.000000
O O5 0.818494 0.079515 0.060189
O O6 0.147418 0.143298 0.106641
O O7 0.769194 0.626421 0.337750
O O8 0.975747 0.582959 0.190186
O O9 0.174216 0.500000 0.149986
O O10 0.421247 0.565058 0.285527
O O11 0.500000 0.601381 0.500000
#
# Coordination Sequence:
#
# PCOD9216582 Si02
#       6
#     2   8   4   8   8   8
#     4  12  22  44  64  96 120 176 232 282 324 406
#     4  10  23  41  71 102 136 178 227 286 347 412
#     4  10  23  38  58  90 140 172 216 264 327 410
#     4  11  25  40  65  95 135 174 223 276 337 403
#     4  11  23  39  60  92 130 179 215 265 330 402
#     4  11  25  40  65  91 130 170 229 282 331 387
#
# _framework density 21.663314
#
# number of rings (size 3 to 8) (size 9 to 14) (size 15 to 20)
#    0.000    1.263    1.053    3.789   14.737    2.526 
#    0.000    0.000    0.000    1.263    0.000    0.000 
#    0.000    0.000    0.000    0.000    0.000    0.000 
#
# Total GULP energy -106087.198605 kJ/mol
# GULP energy per Si atom -5583.536769 kJ/mol
# Density = 2.161401 g / cm^3
# Si number density = 21.663314 Si / 1000 Ang^3
#
#
#
# Elastic Constant Matrix: (Units=GPa)
#
#
# Indices 1 2 3 4 5 6 
#
# 1 81.8998 21.0665 49.4284 0.0000 -11.4649 0.0000
# 2 21.0665 75.8089 24.5838 0.0000 -33.9656 0.0000
# 3 49.4284 24.5838 118.3363 0.0000 -34.8177 0.0000
# 4 0.0000 0.0000 0.0000 -32.7064 0.0000 37.9942
# 5 -11.4649 -33.9656 -34.8177 0.0000 41.1757 0.0000
# 6 0.0000 0.0000 0.0000 37.9942 0.0000 -29.3787
#
#
#
# Elastic Compliance Matrix: (Units=1/GPa)
#
#
# Indices 1 2 3 4 5 6 
#
# 1 0.017500 -0.004948 -0.008052 0.000000 -0.006018 0.000000
# 2 -0.004948 0.022408 0.003255 0.000000 0.019859 0.000000
# 3 -0.008052 0.003255 0.015000 0.000000 0.013126 0.000000
# 4 0.000000 0.000000 0.000000 0.060865 0.000000 0.078714
# 5 -0.006018 0.019859 0.013126 0.000000 0.050091 0.000000
# 6 0.000000 0.000000 0.000000 0.078714 0.000000 0.067759
#
#
# Mechanical properties :
#
#
# Convention : Reuss Voigt Hill
#
# Bulk Modulus (GPa) = 28.23558 51.80027 40.01793
# Shear Modulus (GPa) = 18.87351 7.88253 13.37802
#
# Velocity S-wave (km/s) = 2.95485 1.90959 2.48774
# Velocity P-wave (km/s) = 4.97027 5.36894 5.17345
#
# Compressibility (1/GPa) = 0.03541631
#
# Stress axis : x y z
#
# Youngs Moduli (GPa) = 57.14218 44.62644 66.66693
#
# Poissons Ratio (x) = 0.22082 0.53683
# Poissons Ratio (y) = 0.28275 -0.21697
# Poissons Ratio (z) = 0.46013 -0.14524
#
# Static dielectric constant tensor:
#      x y z
#    x 1.841970 0.000000 -0.004630 
#    y 0.000000 1.768430 0.000000 
#    z -0.004630 0.000000 1.798100 
# 
# From -- ./inp_files/115468.got.cif
#   From: 2010.05.17/outbox.cif.g08.bks.cpg/sg12_58_cif.got.tgz:115468.got - 2010.06.03 13:09:07.
