data_PCOD9216361
_publ_section_title
;
Structure prediction by ZEFSAII (Michael W. Deem and Ramdas Pophale) SiO2 
 PCOD9216361
Probable space group: C 2/M
;
_chemical_formula_sum "Si O2"
_cell_formula_units_Z 48
_cell_length_a 9.564402
_cell_length_b 17.376899
_cell_length_c 11.924138
_cell_angle_alpha 90.000000
_cell_angle_beta 91.694422
_cell_angle_gamma 90.000000
_cell_volume 1980.920983
_symmetry_space_group_name_H-M "C 2/M"
_symmetry_group_IT_number 12
_symmetry_cell_setting 'monoclinic'
loop_
_space_group_symop_operation_xyz
x,y,z
-x,y,-z
-x,-y,-z
x,-y,z
1/2+x,1/2+y,z
1/2-x,1/2+y,-z
1/2-x,1/2-y,-z
1/2+x,1/2-y,z
loop_
_atom_site_type_symbol
_atom_site_label
_atom_site_fract_x
_atom_site_fract_y
_atom_site_fract_z
Si Si1 0.684273 0.287067 0.798522
Si Si2 0.603356 0.910865 0.166412
Si Si3 0.804786 0.371990 0.085685
Si Si4 0.512048 0.582054 0.162141
Si Si5 0.141529 0.298478 0.571320
Si Si6 0.614015 0.413176 0.417863
O O1 0.810427 0.344870 0.766034
O O2 0.722850 0.216541 0.880247
O O3 0.577453 0.342380 0.861339
O O4 0.619764 0.248060 0.686355
O O5 0.436801 0.899025 0.163729
O O6 0.634244 0.000000 0.195183
O O7 0.648898 0.890777 0.039538
O O8 0.661417 0.414049 0.108246
O O9 0.443580 0.500000 0.133094
O O10 0.540393 0.584542 0.295666
O O11 0.250000 0.250000 0.500000
O O12 0.237073 0.373248 0.594793
O O13 0.000000 0.313115 0.500000
O O14 0.500000 0.376420 0.500000
O O15 0.638649 0.500000 0.459532
#
# Coordination Sequence:
#
# PCOD9216361 Si02
#       6
#     8   8   8   8   8   8
#     4  12  25  42  68 103 136 182 232 281 341 417
#     4  11  25  46  70 101 137 180 229 286 351 419
#     4  11  23  43  70  98 139 176 225 286 350 414
#     4  11  22  40  66  97 135 180 225 281 343 407
#     4  12  26  43  69  99 140 185 235 292 345 409
#     4  10  22  44  70  99 139 183 230 287 349 410
#
# _framework density 24.231152000000002
#
# number of rings (size 3 to 8) (size 9 to 14) (size 15 to 20)
#    0.000    0.833    1.667    6.500    2.333    2.333 
#    0.000    2.500    0.000    1.500    0.000    0.000 
#    0.000    0.000    0.000    0.000    0.000    0.000 
#
# Total GULP energy -134355.353434 kJ/mol
# GULP energy per Si atom -5598.139726 kJ/mol
# Density = 2.417600 g / cm^3
# Si number density = 24.231152 Si / 1000 Ang^3
#
#
#
# Elastic Constant Matrix: (Units=GPa)
#
#
# Indices 1 2 3 4 5 6 
#
# 1 130.8285 44.6788 6.9629 0.0000 1.9832 0.0000
# 2 44.6788 173.7773 11.6476 0.0000 6.0762 0.0000
# 3 6.9629 11.6476 85.4560 0.0000 -2.9152 0.0000
# 4 0.0000 0.0000 0.0000 1.4697 0.0000 9.0624
# 5 1.9832 6.0762 -2.9152 0.0000 36.9655 0.0000
# 6 0.0000 0.0000 0.0000 9.0624 0.0000 101.1603
#
#
#
# Elastic Compliance Matrix: (Units=1/GPa)
#
#
# Indices 1 2 3 4 5 6 
#
# 1 0.008393 -0.002127 -0.000399 0.000000 -0.000132 0.000000
# 2 -0.002127 0.006385 -0.000731 0.000000 -0.000993 0.000000
# 3 -0.000399 -0.000731 0.011871 0.000000 0.001078 0.000000
# 4 0.000000 0.000000 0.000000 1.520059 0.000000 -0.136173
# 5 -0.000132 -0.000993 0.001078 0.000000 0.027308 0.000000
# 6 0.000000 0.000000 0.000000 -0.136173 0.000000 0.022084
#
#
# Mechanical properties :
#
#
# Convention : Reuss Voigt Hill
#
# Bulk Modulus (GPa) = 49.66012 57.40449 53.53230
# Shear Modulus (GPa) = 3.10690 49.70393 26.40541
#
# Velocity S-wave (km/s) = 1.13357 4.53398 3.30469
# Velocity P-wave (km/s) = 4.71722 7.15200 6.05818
#
# Compressibility (1/GPa) = 0.02013688
#
# Stress axis : x y z
#
# Youngs Moduli (GPa) = 119.14634 156.61839 84.24041
#
# Poissons Ratio (x) = 0.33306 0.03357
# Poissons Ratio (y) = 0.25337 0.06157
# Poissons Ratio (z) = 0.04748 0.11447
#
# Static dielectric constant tensor:
#      x y z
#    x 1.943870 0.000000 0.031050 
#    y 0.000000 1.944130 0.000000 
#    z 0.031050 0.000000 1.945760 
# 
# From -- ./inp_files/195929.got.cif
#   From: 2010.05.17/outbox.cif.g08.bks.cpg/sg12_98_cif.got.tgz:195929.got - 2010.06.03 13:09:07.
