data_PCOD9216706
_publ_section_title
;
Structure prediction by ZEFSAII (Michael W. Deem and Ramdas Pophale) SiO2 
 PCOD9216706
Probable space group: C 2/M
;
_chemical_formula_sum "Si O2"
_cell_formula_units_Z 44
_cell_length_a 17.472097
_cell_length_b 24.384966
_cell_length_c 13.590388
_cell_angle_alpha 90.000000
_cell_angle_beta 21.578871
_cell_angle_gamma 90.000000
_cell_volume 2129.556187
_symmetry_space_group_name_H-M "C 2/M"
_symmetry_group_IT_number 12
_symmetry_cell_setting 'monoclinic'
loop_
_space_group_symop_operation_xyz
x,y,z
-x,y,-z
-x,-y,-z
x,-y,z
1/2+x,1/2+y,z
1/2-x,1/2+y,-z
1/2-x,1/2-y,-z
1/2+x,1/2-y,z
loop_
_atom_site_type_symbol
_atom_site_label
_atom_site_fract_x
_atom_site_fract_y
_atom_site_fract_z
Si Si1 0.704063 0.500000 0.186789
Si Si2 0.983397 0.079386 0.136207
Si Si3 0.489998 0.311776 0.236011
Si Si4 0.623576 0.000000 0.628294
Si Si5 0.486660 0.796804 0.132119
Si Si6 0.666812 0.000000 0.215230
Si Si7 0.667207 0.625915 0.211820
O O1 0.500000 0.500000 0.500000
O O2 0.677564 0.561377 0.174072
O O3 0.951957 0.500000 0.920879
O O4 0.986513 0.143336 0.153885
O O5 0.779064 0.051366 0.429044
O O6 0.182001 0.051352 0.949015
O O7 0.000000 0.067344 0.000000
O O8 0.570976 0.254663 0.095009
O O9 0.608039 0.338607 0.187103
O O10 0.253703 0.303505 0.553422
O O11 0.465554 0.000000 0.725281
O O12 0.500000 0.786080 0.000000
O O13 0.616613 0.850631 0.005115
O O14 0.500000 0.000000 0.500000
O O15 0.500000 0.633272 0.500000
#
# Coordination Sequence:
#
# PCOD9216706 Si02
#       7
#     4   8   8   4   8   4   8
#     4  10  23  39  66  98 127 173 222 258 320 388
#     4  11  22  37  60  94 129 169 220 266 324 395
#     4  11  24  40  66  94 124 170 212 265 328 381
#     4  11  20  39  61  88 132 174 211 274 330 378
#     4  11  23  44  67  91 127 167 213 271 325 383
#     4  11  19  37  61  85 131 176 208 267 333 383
#     4  11  22  44  66  92 131 169 212 271 322 382
#
# _framework density 20.661583
#
# number of rings (size 3 to 8) (size 9 to 14) (size 15 to 20)
#    0.000    1.091    3.636    3.818    0.000    0.727 
#    0.000    2.273    0.000    0.000    0.000    0.000 
#    0.000    0.000    0.000    0.000    0.000    0.000 
#
# Total GULP energy -122757.903843 kJ/mol
# GULP energy per Si atom -5579.904720 kJ/mol
# Density = 2.061456 g / cm^3
# Si number density = 20.661583 Si / 1000 Ang^3
#
#
#
# Elastic Constant Matrix: (Units=GPa)
#
#
# Indices 1 2 3 4 5 6 
#
# 1 97.7700 43.3917 26.2321 0.0110 1.4687 -0.0434
# 2 43.3917 124.8179 23.0396 0.0321 1.5047 -0.0206
# 3 26.2321 23.0396 118.1376 0.0759 5.1627 0.0220
# 4 0.0110 0.0321 0.0759 5.3839 0.0029 21.8299
# 5 1.4687 1.5047 5.1627 0.0029 28.9577 0.0126
# 6 -0.0434 -0.0206 0.0220 21.8299 0.0126 -6.3261
#
#
#
# Elastic Compliance Matrix: (Units=1/GPa)
#
#
# Indices 1 2 3 4 5 6 
#
# 1 0.012536 -0.003988 -0.002003 0.000023 -0.000072 0.000001
# 2 -0.003988 0.009580 -0.000978 0.000000 -0.000121 -0.000009
# 3 -0.002003 -0.000978 0.009165 -0.000020 -0.001482 -0.000024
# 4 0.000023 0.000000 -0.000020 0.012389 -0.000017 0.042753
# 5 -0.000072 -0.000121 -0.001482 -0.000017 0.034807 0.000005
# 6 0.000001 -0.000009 -0.000024 0.042753 0.000005 -0.010544
#
#
# Mechanical properties :
#
#
# Convention : Reuss Voigt Hill
#
# Bulk Modulus (GPa) = 57.65361 58.45026 58.05194
# Shear Modulus (GPa) = 57.04435 22.14058 39.59247
#
# Velocity S-wave (km/s) = 5.26012 3.27705 4.38223
# Velocity P-wave (km/s) = 8.05333 6.53219 7.33231
#
# Compressibility (1/GPa) = 0.01734497
#
# Stress axis : x y z
#
# Youngs Moduli (GPa) = 79.76859 104.38617 109.11258
#
# Poissons Ratio (x) = 0.41625 0.21854
# Poissons Ratio (y) = 0.31808 0.10666
# Poissons Ratio (z) = 0.15977 0.10204
#
# Static dielectric constant tensor:
#      x y z
#    x 1.797550 -0.000020 0.072960 
#    y -0.000020 1.735840 0.000040 
#    z 0.072960 0.000040 1.776160 
# 
# From -- ./inp_files/228081.got.cif
#   From: 2010.05.17/outbox.cif.g08.bks.cpg/sg12_115_cif.got.tgz:228081.got - 2010.06.03 13:09:07.
