data_PCOD9216549
_publ_section_title
;
Structure prediction by ZEFSAII (Michael W. Deem and Ramdas Pophale) SiO2 
 PCOD9216549
Probable space group: C 2/M
;
_chemical_formula_sum "Si O2"
_cell_formula_units_Z 36
_cell_length_a 14.348002
_cell_length_b 23.346885
_cell_length_c 5.116832
_cell_angle_alpha 90.000000
_cell_angle_beta 69.062110
_cell_angle_gamma 90.000000
_cell_volume 1600.861254
_symmetry_space_group_name_H-M "C 2/M"
_symmetry_group_IT_number 12
_symmetry_cell_setting 'monoclinic'
loop_
_space_group_symop_operation_xyz
x,y,z
-x,y,-z
-x,-y,-z
x,-y,z
1/2+x,1/2+y,z
1/2-x,1/2+y,-z
1/2-x,1/2-y,-z
1/2+x,1/2-y,z
loop_
_atom_site_type_symbol
_atom_site_label
_atom_site_fract_x
_atom_site_fract_y
_atom_site_fract_z
Si Si1 0.000000 0.337601 0.000000
Si Si2 0.733563 0.380529 0.721170
Si Si3 0.112388 0.147076 0.328078
Si Si4 0.405807 0.937746 0.789095
Si Si5 0.648529 0.228341 0.464947
O O1 0.060674 0.296706 0.738545
O O2 0.921062 0.383878 0.965289
O O3 0.688265 0.374711 0.477663
O O4 0.806207 0.432240 0.715889
O O5 0.806428 0.327001 0.717260
O O6 0.645034 0.375696 0.016004
O O7 0.115583 0.216790 0.332363
O O8 0.000000 0.129494 0.500000
O O9 0.500000 0.934571 0.500000
O O10 0.405377 0.000000 0.922510
O O11 0.750000 0.250000 0.500000
#
# Coordination Sequence:
#
# PCOD9216549 Si02
#       5
#     4   8   8   8   8
#     4  12  23  42  64  98 140 178 223 272 326 400
#     4  11  23  45  62  97 132 174 225 276 328 389
#     4  11  25  41  68  95 133 178 222 269 326 400
#     4  11  24  42  67  96 130 176 226 280 339 391
#     4  10  23  37  61  93 134 179 216 260 321 399
#
# _framework density 22.487895000000002
#
# number of rings (size 3 to 8) (size 9 to 14) (size 15 to 20)
#    0.000    1.111    2.222    4.333    9.333    0.000 
#    0.000    0.000    0.000    4.000    0.000    0.000 
#    0.000    0.000    0.000    0.000    0.000    0.000 
#
# Total GULP energy -100530.119087 kJ/mol
# GULP energy per Si atom -5585.006616 kJ/mol
# Density = 2.243671 g / cm^3
# Si number density = 22.487895 Si / 1000 Ang^3
#
#
#
# Elastic Constant Matrix: (Units=GPa)
#
#
# Indices 1 2 3 4 5 6 
#
# 1 76.4865 24.5287 -13.0426 0.0000 -0.7625 0.0000
# 2 24.5287 80.8843 -3.3789 0.0000 5.2275 0.0000
# 3 -13.0426 -3.3789 62.9989 0.0000 -25.7759 0.0000
# 4 0.0000 0.0000 0.0000 -0.3476 0.0000 12.1648
# 5 -0.7625 5.2275 -25.7759 0.0000 49.3027 0.0000
# 6 0.0000 0.0000 0.0000 12.1648 0.0000 11.0962
#
#
#
# Elastic Compliance Matrix: (Units=1/GPa)
#
#
# Indices 1 2 3 4 5 6 
#
# 1 0.015292 -0.004652 0.004090 0.000000 0.002868 0.000000
# 2 -0.004652 0.013865 -0.001082 0.000000 -0.002108 0.000000
# 3 0.004090 -0.001082 0.021289 0.000000 0.011308 0.000000
# 4 0.000000 0.000000 0.000000 -0.073078 0.000000 0.080116
# 5 0.002868 -0.002108 0.011308 0.000000 0.026463 0.000000
# 6 0.000000 0.000000 0.000000 0.080116 0.000000 0.002289
#
#
# Mechanical properties :
#
#
# Convention : Reuss Voigt Hill
#
# Bulk Modulus (GPa) = 21.20532 26.28709 23.74620
# Shear Modulus (GPa) = 198.98961 26.16108 112.57534
#
# Velocity S-wave (km/s) = 9.41698 3.41448 7.08301
# Velocity P-wave (km/s) = 11.29998 5.22108 8.80197
#
# Compressibility (1/GPa) = 0.04715799
#
# Stress axis : x y z
#
# Youngs Moduli (GPa) = 65.39350 72.12360 46.97360
#
# Poissons Ratio (x) = 0.33551 -0.19211
# Poissons Ratio (y) = 0.30420 0.05081
# Poissons Ratio (z) = -0.26745 0.07802
#
# Static dielectric constant tensor:
#      x y z
#    x 1.700320 0.000000 -0.031830 
#    y 0.000000 1.911830 0.000000 
#    z -0.031830 0.000000 1.823660 
# 
# From -- ./inp_files/11236.got.cif
#   From: 2010.05.17/outbox.cif.g08.bks.cpg/sg12_6_cif.got.tgz:11236.got - 2010.06.03 13:09:07.
