data_PCOD9216334
_publ_section_title
;
Structure prediction by ZEFSAII (Michael W. Deem and Ramdas Pophale) SiO2 
 PCOD9216334
Probable space group: C 2/M
;
_chemical_formula_sum "Si O2"
_cell_formula_units_Z 48
_cell_length_a 10.565934
_cell_length_b 17.398671
_cell_length_c 14.945213
_cell_angle_alpha 90.000000
_cell_angle_beta 135.836061
_cell_angle_gamma 90.000000
_cell_volume 1914.169809
_symmetry_space_group_name_H-M "C 2/M"
_symmetry_group_IT_number 12
_symmetry_cell_setting 'monoclinic'
loop_
_space_group_symop_operation_xyz
x,y,z
-x,y,-z
-x,-y,-z
x,-y,z
1/2+x,1/2+y,z
1/2-x,1/2+y,-z
1/2-x,1/2-y,-z
1/2+x,1/2-y,z
loop_
_atom_site_type_symbol
_atom_site_label
_atom_site_fract_x
_atom_site_fract_y
_atom_site_fract_z
Si Si1 0.047336 0.617131 0.739412
Si Si2 0.819827 0.882503 0.355804
Si Si3 0.284621 0.090217 0.898414
Si Si4 0.278058 0.418550 0.697114
Si Si5 0.169044 0.758398 0.361166
Si Si6 0.109402 0.869154 0.976388
O O1 0.017061 0.709454 0.732870
O O2 0.097412 0.594904 0.664239
O O3 0.216849 0.594740 0.886532
O O4 0.858697 0.586669 0.682922
O O5 0.806148 0.902149 0.245088
O O6 0.792244 0.790434 0.354425
O O7 0.204322 0.150811 0.929635
O O8 0.259283 0.000000 0.913539
O O9 0.500000 0.102741 0.000000
O O10 0.271866 0.500000 0.646750
O O11 0.321786 0.346355 0.658831
O O12 0.442991 0.418255 0.852572
O O13 0.500000 0.594780 0.500000
O O14 0.250000 0.750000 0.500000
O O15 0.000000 0.822671 0.000000
#
# Coordination Sequence:
#
# PCOD9216334 Si02
#       6
#     8   8   8   8   8   8
#     4   9  23  44  69 107 148 203 250 316 393 468
#     4  10  24  44  72 105 149 207 259 320 382 474
#     4  11  22  40  71 107 148 203 261 321 394 466
#     4  11  25  44  76 114 150 193 260 331 396 465
#     4  10  25  46  71 102 148 203 260 313 390 465
#     4  10  22  44  69 108 154 197 254 324 393 464
#
# _framework density 25.076143999999999
#
# number of rings (size 3 to 8) (size 9 to 14) (size 15 to 20)
#    1.000    0.833    1.667    0.500    4.667    7.667 
#    0.000    8.333    0.000    0.000    0.000    1.167 
#    0.000    0.000    0.000    0.000    0.000    0.000 
#
# Total GULP energy -133832.226202 kJ/mol
# GULP energy per Si atom -5576.342758 kJ/mol
# Density = 2.501907 g / cm^3
# Si number density = 25.076144 Si / 1000 Ang^3
#
#
#
# Elastic Constant Matrix: (Units=GPa)
#
#
# Indices 1 2 3 4 5 6 
#
# 1 173.3900 33.5237 64.0026 0.0000 9.0618 -0.0001
# 2 33.5237 168.4162 34.9560 0.0000 -17.6370 0.0000
# 3 64.0026 34.9560 139.0476 -0.0001 -0.6661 -0.0001
# 4 0.0000 0.0000 -0.0001 4.6206 0.0000 -0.0086
# 5 9.0618 -17.6370 -0.6661 0.0000 42.5779 0.0000
# 6 -0.0001 0.0000 -0.0001 -0.0086 0.0000 0.1364
#
#
#
# Elastic Compliance Matrix: (Units=1/GPa)
#
#
# Indices 1 2 3 4 5 6 
#
# 1 0.007199 -0.001005 -0.003071 0.000000 -0.001997 -0.000001
# 2 -0.001005 0.006699 -0.001207 0.000000 0.002970 0.000000
# 3 -0.003071 -0.001207 0.008910 0.000000 0.000293 0.000008
# 4 0.000000 0.000000 0.000000 0.216447 0.000000 0.013569
# 5 -0.001997 0.002970 0.000293 0.000000 0.025146 0.000002
# 6 -0.000001 0.000000 0.000008 0.013569 0.000002 7.331993
#
#
# Mechanical properties :
#
#
# Convention : Reuss Voigt Hill
#
# Bulk Modulus (GPa) = 81.68024 82.86871 82.27448
# Shear Modulus (GPa) = 0.65694 32.69174 16.67434
#
# Velocity S-wave (km/s) = 0.51239 3.61459 2.58146
# Velocity P-wave (km/s) = 5.74401 7.10908 6.46269
#
# Compressibility (1/GPa) = 0.01224286
#
# Stress axis : x y z
#
# Youngs Moduli (GPa) = 138.89896 149.26890 112.23068
#
# Poissons Ratio (x) = 0.14998 0.34464
# Poissons Ratio (y) = 0.13956 0.13551
# Poissons Ratio (z) = 0.42654 0.18024
#
# Static dielectric constant tensor:
#      x y z
#    x 2.034020 0.000000 -0.005860 
#    y 0.000000 2.025510 0.000000 
#    z -0.005860 0.000000 1.958940 
# 
# From -- ./inp_files/256736.got.cif
#   From: 2010.05.17/outbox.cif.g08.bks.cpg/sg12_129_cif.got.tgz:256736.got - 2010.06.03 13:09:07.
