data_PCOD9216581
_publ_section_title
;
Structure prediction by ZEFSAII (Michael W. Deem and Ramdas Pophale) SiO2 
 PCOD9216581
Probable space group: C 2/M
;
_chemical_formula_sum "Si O2"
_cell_formula_units_Z 56
_cell_length_a 13.043166
_cell_length_b 26.478735
_cell_length_c 8.750730
_cell_angle_alpha 90.000000
_cell_angle_beta 77.826114
_cell_angle_gamma 90.000000
_cell_volume 2954.246196
_symmetry_space_group_name_H-M "C 2/M"
_symmetry_group_IT_number 12
_symmetry_cell_setting 'monoclinic'
loop_
_space_group_symop_operation_xyz
x,y,z
-x,y,-z
-x,-y,-z
x,-y,z
1/2+x,1/2+y,z
1/2-x,1/2+y,-z
1/2-x,1/2-y,-z
1/2+x,1/2-y,z
loop_
_atom_site_type_symbol
_atom_site_label
_atom_site_fract_x
_atom_site_fract_y
_atom_site_fract_z
Si Si1 0.609149 0.059190 0.373746
Si Si2 0.952677 0.292575 0.343732
Si Si3 0.287821 0.694707 0.949721
Si Si4 0.922503 0.841483 0.657940
Si Si5 0.413081 0.866463 0.902065
Si Si6 0.741344 0.135327 0.515251
Si Si7 0.394843 0.682443 0.228718
O O1 0.500000 0.065977 0.500000
O O2 0.606984 0.089441 0.214574
O O3 0.693522 0.085522 0.456773
O O4 0.626826 0.000000 0.344592
O O5 0.850875 0.329290 0.388265
O O6 0.924436 0.239374 0.272882
O O7 0.000000 0.287793 0.500000
O O8 0.037182 0.320732 0.211662
O O9 0.347860 0.696965 0.770287
O O10 0.250000 0.750000 0.000000
O O11 0.191950 0.655101 0.985498
O O12 0.366281 0.680539 0.061650
O O13 0.835867 0.876103 0.603992
O O14 0.000000 0.823183 0.500000
O O15 0.009825 0.855157 0.755700
O O16 0.500000 0.881307 0.000000
O O17 0.794989 0.166655 0.360952
#
# Coordination Sequence:
#
# PCOD9216581 Si02
#       7
#     8   8   8   8   8   8   8
#     4  11  23  43  68  93 125 170 215 266 324 378
#     4  12  20  35  56  88 130 170 210 250 310 380
#     4  12  23  38  56  88 129 174 211 254 314 381
#     4  10  23  38  58  83 119 164 213 257 304 368
#     4  12  23  38  60  92 130 166 204 264 316 386
#     4  11  19  39  58  88 119 164 211 257 311 370
#     4  11  22  35  56  88 125 171 213 253 308 372
#
# _framework density 18.955767000000002
#
# number of rings (size 3 to 8) (size 9 to 14) (size 15 to 20)
#    0.000    0.714    4.286    5.571    0.000    1.429 
#    0.000    0.000    0.000    3.857    0.000    4.000 
#    0.000    0.000    0.000    0.000    0.000    0.000 
#
# Total GULP energy -156266.448652 kJ/mol
# GULP energy per Si atom -5580.944595 kJ/mol
# Density = 1.891262 g / cm^3
# Si number density = 18.955767 Si / 1000 Ang^3
#
#
#
# Elastic Constant Matrix: (Units=GPa)
#
#
# Indices 1 2 3 4 5 6 
#
# 1 139.5684 46.0805 45.7724 0.0000 17.5129 0.0000
# 2 46.0805 89.2154 23.6796 0.0000 -4.2441 0.0000
# 3 45.7724 23.6796 92.5691 0.0000 -9.1804 0.0000
# 4 0.0000 0.0000 0.0000 14.7433 0.0000 2.5755
# 5 17.5129 -4.2441 -9.1804 0.0000 46.0176 0.0000
# 6 0.0000 0.0000 0.0000 2.5755 0.0000 19.3922
#
#
#
# Elastic Compliance Matrix: (Units=1/GPa)
#
#
# Indices 1 2 3 4 5 6 
#
# 1 0.010970 -0.004661 -0.004783 0.000000 -0.005559 0.000000
# 2 -0.004661 0.014017 -0.000997 0.000000 0.002868 0.000000
# 3 -0.004783 -0.000997 0.013869 0.000000 0.004495 0.000000
# 4 0.000000 0.000000 0.000000 0.069438 0.000000 -0.009222
# 5 -0.005559 0.002868 0.004495 0.000000 0.025008 0.000000
# 6 0.000000 0.000000 0.000000 -0.009222 0.000000 0.052792
#
#
# Mechanical properties :
#
#
# Convention : Reuss Voigt Hill
#
# Bulk Modulus (GPa) = 55.63533 61.37976 58.50755
# Shear Modulus (GPa) = 23.47780 29.75198 26.61489
#
# Velocity S-wave (km/s) = 3.52313 3.96605 3.75113
# Velocity P-wave (km/s) = 6.77966 7.30914 7.04937
#
# Compressibility (1/GPa) = 0.01797419
#
# Stress axis : x y z
#
# Youngs Moduli (GPa) = 91.15665 71.34086 72.10492
#
# Poissons Ratio (x) = 0.33252 0.34490
# Poissons Ratio (y) = 0.42488 0.07185
# Poissons Ratio (z) = 0.43604 0.07109
#
# Static dielectric constant tensor:
#      x y z
#    x 1.735310 0.000000 0.023810 
#    y 0.000000 1.607560 0.000000 
#    z 0.023810 0.000000 1.712250 
# 
# From -- ./inp_files/53172.got.cif
#   From: 2010.05.17/outbox.cif.g08.bks.cpg/sg12_27_cif.got.tgz:53172.got - 2010.06.03 13:09:07.
