data_PCOD9216158
_publ_section_title
;
Structure prediction by ZEFSAII (Michael W. Deem and Ramdas Pophale) SiO2 
 PCOD9216158
Probable space group: C 2/M
;
_chemical_formula_sum "Si O2"
_cell_formula_units_Z 64
_cell_length_a 16.816943
_cell_length_b 17.987780
_cell_length_c 18.504485
_cell_angle_alpha 90.000000
_cell_angle_beta 144.435570
_cell_angle_gamma 90.000000
_cell_volume 3255.663541
_symmetry_space_group_name_H-M "C 2/M"
_symmetry_group_IT_number 12
_symmetry_cell_setting 'monoclinic'
loop_
_space_group_symop_operation_xyz
x,y,z
-x,y,-z
-x,-y,-z
x,-y,z
1/2+x,1/2+y,z
1/2-x,1/2+y,-z
1/2-x,1/2-y,-z
1/2+x,1/2-y,z
loop_
_atom_site_type_symbol
_atom_site_label
_atom_site_fract_x
_atom_site_fract_y
_atom_site_fract_z
Si Si1 0.601037 0.912004 0.140677
Si Si2 0.165443 0.087329 0.452977
Si Si3 0.852661 0.585247 0.215087
Si Si4 0.627099 0.801228 0.640354
Si Si5 0.581018 0.369186 0.634542
Si Si6 0.543635 0.414490 0.950234
Si Si7 0.373806 0.682243 0.715071
Si Si8 0.920817 0.654726 0.720384
O O1 0.762760 0.897318 0.247095
O O2 0.560271 0.868012 0.182558
O O3 0.583912 0.000000 0.140998
O O4 0.500000 0.891205 0.000000
O O5 0.178091 0.126819 0.385103
O O6 0.270884 0.127735 0.584769
O O7 0.013079 0.099573 0.371177
O O8 0.196024 0.000000 0.472239
O O9 0.877536 0.500000 0.256081
O O10 0.841546 0.640022 0.274610
O O11 0.971654 0.613477 0.250967
O O12 0.706903 0.587322 0.067657
O O13 0.500000 0.829538 0.500000
O O14 0.588175 0.720446 0.642545
O O15 0.752096 0.792088 0.677742
O O16 0.500000 0.388899 0.500000
O O17 0.496687 0.500000 0.904096
O O18 0.479279 0.360805 0.843901
O O19 0.500000 0.394234 0.000000
O O20 0.431975 0.756645 0.721763
#
# Coordination Sequence:
#
# PCOD9216158 Si02
#       8
#     8   8   8   8   8   8   8   8
#     4  11  24  41  65  96 133 176 223 275 329 396
#     4  12  25  41  68  99 133 174 223 275 329 395
#     4  11  24  41  66  93 130 179 216 265 334 404
#     4  11  22  40  64  96 131 168 220 272 327 390
#     4  11  22  43  67  95 129 179 225 270 330 396
#     4  10  22  43  67  93 129 174 222 266 325 399
#     4  12  24  41  67  98 130 171 217 280 327 386
#     4  12  24  43  64  97 138 172 216 274 341 397
#
# _framework density 19.658051
#
# number of rings (size 3 to 8) (size 9 to 14) (size 15 to 20)
#    0.000    0.750    3.750    4.500    0.000    4.250 
#    0.000    1.250    0.000    0.000    0.000    0.000 
#    0.000    0.000    0.000    0.000    0.000    0.000 
#
# Total GULP energy -178968.766376 kJ/mol
# GULP energy per Si atom -5592.773949 kJ/mol
# Density = 1.961331 g / cm^3
# Si number density = 19.658051 Si / 1000 Ang^3
#
#
#
# Elastic Constant Matrix: (Units=GPa)
#
#
# Indices 1 2 3 4 5 6 
#
# 1 48.5661 2.9797 2.2818 0.0001 4.1199 -0.0004
# 2 2.9797 104.6944 35.6350 0.0003 -23.4379 -0.0004
# 3 2.2818 35.6350 93.7992 0.0008 -7.5634 -0.0009
# 4 0.0001 0.0003 0.0008 33.6255 0.0003 1.6483
# 5 4.1199 -23.4379 -7.5634 0.0003 32.7152 -0.0003
# 6 -0.0004 -0.0004 -0.0009 1.6483 -0.0003 24.1087
#
#
#
# Elastic Compliance Matrix: (Units=1/GPa)
#
#
# Indices 1 2 3 4 5 6 
#
# 1 0.020995 -0.001311 -0.000307 0.000000 -0.003654 0.000000
# 2 -0.001311 0.012905 -0.004190 0.000000 0.008442 0.000000
# 3 -0.000307 -0.004190 0.012250 0.000000 -0.000131 0.000000
# 4 0.000000 0.000000 0.000000 0.029839 0.000000 -0.002040
# 5 -0.003654 0.008442 -0.000131 0.000000 0.037045 0.000001
# 6 0.000000 0.000000 0.000000 -0.002040 0.000001 0.041618
#
#
# Mechanical properties :
#
#
# Convention : Reuss Voigt Hill
#
# Bulk Modulus (GPa) = 28.95764 36.53921 32.74842
# Shear Modulus (GPa) = 28.12460 31.83411 29.97935
#
# Velocity S-wave (km/s) = 3.78655 4.02853 3.90942
# Velocity P-wave (km/s) = 5.82065 6.34559 6.08878
#
# Compressibility (1/GPa) = 0.03453321
#
# Stress axis : x y z
#
# Youngs Moduli (GPa) = 47.62961 77.48941 81.63386
#
# Poissons Ratio (x) = 0.10159 0.02509
# Poissons Ratio (y) = 0.06244 0.34205
# Poissons Ratio (z) = 0.01464 0.32469
#
# Static dielectric constant tensor:
#      x y z
#    x 1.695360 0.000000 0.013720 
#    y 0.000000 1.680730 0.000000 
#    z 0.013720 0.000000 1.668370 
# 
# From -- ./inp_files/271762.got.cif
#   From: 2010.05.17/outbox.cif.g08.bks.cpg/sg12_136_cif.got.tgz:271762.got - 2010.06.03 13:09:07.
