data_PCOD9216318
_publ_section_title
;
Structure prediction by ZEFSAII (Michael W. Deem and Ramdas Pophale) SiO2 
 PCOD9216318
Probable space group: C 2/M
;
_chemical_formula_sum "Si O2"
_cell_formula_units_Z 48
_cell_length_a 14.882904
_cell_length_b 11.774977
_cell_length_c 24.615658
_cell_angle_alpha 90.000000
_cell_angle_beta 28.876352
_cell_angle_gamma 90.000000
_cell_volume 2083.220760
_symmetry_space_group_name_H-M "C 2/M"
_symmetry_group_IT_number 12
_symmetry_cell_setting 'monoclinic'
loop_
_space_group_symop_operation_xyz
x,y,z
-x,y,-z
-x,-y,-z
x,-y,z
1/2+x,1/2+y,z
1/2-x,1/2+y,-z
1/2-x,1/2-y,-z
1/2+x,1/2-y,z
loop_
_atom_site_type_symbol
_atom_site_label
_atom_site_fract_x
_atom_site_fract_y
_atom_site_fract_z
Si Si1 0.787321 0.500000 0.093468
Si Si2 0.655146 0.500000 0.964806
Si Si3 0.401066 0.500000 0.320613
Si Si4 0.128173 0.233226 0.617818
Si Si5 0.289447 0.365387 0.629172
Si Si6 0.762773 0.758382 0.229332
Si Si7 0.139154 0.000000 0.786600
Si Si8 0.818282 0.748044 0.025881
O O1 0.616785 0.500000 0.225780
O O2 0.759888 0.624424 0.079622
O O3 0.000000 0.500000 0.000000
O O4 0.552165 0.500000 0.077816
O O5 0.743056 0.371636 0.916386
O O6 0.500000 0.500000 0.000000
O O7 0.310833 0.613375 0.389634
O O8 0.398582 0.500000 0.257011
O O9 0.250000 0.250000 0.500000
O O10 0.162778 0.323453 0.646774
O O11 0.915239 0.231136 0.712053
O O12 0.500000 0.333033 0.500000
O O13 0.281030 0.500000 0.638810
O O14 0.235498 0.312327 0.715625
O O15 0.956185 0.745535 0.094623
O O16 0.752743 0.888618 0.252996
O O17 0.750000 0.750000 0.000000
#
# Coordination Sequence:
#
# PCOD9216318 Si02
#       8
#     4   4   4   8   8   8   4   8
#     4  12  24  42  69 102 135 184 244 291 354 419
#     4  10  22  44  67  97 143 187 236 308 360 420
#     4  12  26  47  74  99 146 189 243 308 352 435
#     4  12  27  44  72 104 138 188 239 296 374 432
#     4  11  25  46  70 101 143 184 235 300 368 436
#     4  11  24  45  68 103 143 185 241 296 357 438
#     4  10  22  45  66  97 136 184 236 292 352 424
#     4  11  24  44  69 100 142 190 239 293 361 424
#
# _framework density 23.041245
#
# number of rings (size 3 to 8) (size 9 to 14) (size 15 to 20)
#    0.000    0.833    3.333    4.000    4.667    1.333 
#    0.000    1.667    0.000    0.000    0.000    0.000 
#    0.000    0.000    0.000    0.000    0.000    0.000 
#
# Total GULP energy -134262.535018 kJ/mol
# GULP energy per Si atom -5594.272292 kJ/mol
# Density = 2.298880 g / cm^3
# Si number density = 23.041245 Si / 1000 Ang^3
#
#
#
# Elastic Constant Matrix: (Units=GPa)
#
#
# Indices 1 2 3 4 5 6 
#
# 1 101.9740 36.0102 20.9852 -0.0024 1.4581 -0.0007
# 2 36.0102 182.6822 36.5146 -0.0019 15.4602 -0.0004
# 3 20.9852 36.5146 63.8276 -0.0088 15.9290 -0.0003
# 4 -0.0024 -0.0019 -0.0088 29.8565 0.0009 7.0459
# 5 1.4581 15.4602 15.9290 0.0009 30.3207 0.0003
# 6 -0.0007 -0.0004 -0.0003 7.0459 0.0003 39.2772
#
#
#
# Elastic Compliance Matrix: (Units=1/GPa)
#
#
# Indices 1 2 3 4 5 6 
#
# 1 0.011030 -0.001715 -0.003143 0.000000 0.001995 0.000000
# 2 -0.001715 0.006506 -0.002706 0.000000 -0.001814 0.000000
# 3 -0.003143 -0.002706 0.020562 0.000006 -0.009272 -0.000001
# 4 0.000000 0.000000 0.000006 0.034974 -0.000004 -0.006274
# 5 0.001995 -0.001814 -0.009272 -0.000004 0.038680 0.000000
# 6 0.000000 0.000000 -0.000001 -0.006274 0.000000 0.026586
#
#
# Mechanical properties :
#
#
# Convention : Reuss Voigt Hill
#
# Bulk Modulus (GPa) = 43.53313 59.50043 51.51678
# Shear Modulus (GPa) = 31.03190 36.88912 33.96051
#
# Velocity S-wave (km/s) = 3.67386 4.00560 3.84331
# Velocity P-wave (km/s) = 6.07708 6.87550 6.48858
#
# Compressibility (1/GPa) = 0.02297101
#
# Stress axis : x y z
#
# Youngs Moduli (GPa) = 90.65895 153.69669 48.63230
#
# Poissons Ratio (x) = 0.26357 0.15288
# Poissons Ratio (y) = 0.15547 0.13159
# Poissons Ratio (z) = 0.28499 0.41586
#
# Static dielectric constant tensor:
#      x y z
#    x 1.878610 0.000000 -0.023320 
#    y 0.000000 1.875540 0.000000 
#    z -0.023320 0.000000 1.865140 
# 
# From -- ./inp_files/361008.got.cif
#   From: 2010.05.17/outbox.cif.g08.bks.cpg/sg12_181_cif.got.tgz:361008.got - 2010.06.03 13:09:07.
