data_PCOD9216921
_publ_section_title
;
Structure prediction by ZEFSAII (Michael W. Deem and Ramdas Pophale) SiO2 
 PCOD9216921
Probable space group: C 2/M
;
_chemical_formula_sum "Si O2"
_cell_formula_units_Z 40
_cell_length_a 8.615855
_cell_length_b 24.419395
_cell_length_c 8.663168
_cell_angle_alpha 90.000000
_cell_angle_beta 92.894427
_cell_angle_gamma 90.000000
_cell_volume 1820.353039
_symmetry_space_group_name_H-M "C 2/M"
_symmetry_group_IT_number 12
_symmetry_cell_setting 'monoclinic'
loop_
_space_group_symop_operation_xyz
x,y,z
-x,y,-z
-x,-y,-z
x,-y,z
1/2+x,1/2+y,z
1/2-x,1/2+y,-z
1/2-x,1/2-y,-z
1/2+x,1/2-y,z
loop_
_atom_site_type_symbol
_atom_site_label
_atom_site_fract_x
_atom_site_fract_y
_atom_site_fract_z
Si Si1 0.694601 0.322751 0.681274
Si Si2 0.299484 0.561937 0.818154
Si Si3 0.512648 0.757865 0.183092
Si Si4 0.325188 0.437693 0.176775
Si Si5 0.654007 0.157061 0.613215
O O1 0.533295 0.299810 0.740486
O O2 0.723489 0.386353 0.723138
O O3 0.722109 0.318003 0.500752
O O4 0.823532 0.285360 0.769943
O O5 0.248005 0.500000 0.783137
O O6 0.486690 0.563127 0.811873
O O7 0.219181 0.603708 0.699377
O O8 0.269901 0.572967 0.998296
O O9 0.394842 0.801037 0.255791
O O10 0.500000 0.752246 0.000000
O O11 0.277708 0.500000 0.218195
O O12 0.500000 0.147800 0.500000
#
# Coordination Sequence:
#
# PCOD9216921 Si02
#       5
#     8   8   8   8   8
#     4  11  24  40  63  95 130 167 207 266 317 378
#     4   9  19  38  65  93 125 166 212 263 311 372
#     4  11  24  41  63  92 125 172 217 259 313 377
#     4   9  20  39  65  95 123 161 215 265 313 367
#     4  10  23  41  59  91 136 167 206 257 319 383
#
# _framework density 21.973758
#
# number of rings (size 3 to 8) (size 9 to 14) (size 15 to 20)
#    0.000    2.000    0.000    3.600    5.600    2.000 
#    0.000    5.000    0.000   10.800    0.000    0.000 
#    0.000    0.000    0.000    0.000    0.000    0.000 
#
# Total GULP energy -111793.320140 kJ/mol
# GULP energy per Si atom -5589.666007 kJ/mol
# Density = 2.192375 g / cm^3
# Si number density = 21.973758 Si / 1000 Ang^3
#
#
#
# Elastic Constant Matrix: (Units=GPa)
#
#
# Indices 1 2 3 4 5 6 
#
# 1 40.7033 43.6571 58.8336 0.0000 -4.5752 0.0000
# 2 43.6571 122.8866 69.4866 0.0000 12.2682 0.0000
# 3 58.8336 69.4866 138.2827 0.0000 -0.4042 0.0000
# 4 0.0000 0.0000 0.0000 145.4196 0.0000 -11.1787
# 5 -4.5752 12.2682 -0.4042 0.0000 19.6066 0.0000
# 6 0.0000 0.0000 0.0000 -11.1787 0.0000 34.5217
#
#
#
# Elastic Compliance Matrix: (Units=1/GPa)
#
#
# Indices 1 2 3 4 5 6 
#
# 1 0.089953 -0.018988 -0.028636 0.000000 0.032281 0.000000
# 2 -0.018988 0.016502 -0.000257 0.000000 -0.014762 0.000000
# 3 -0.028636 -0.000257 0.019526 0.000000 -0.006119 0.000000
# 4 0.000000 0.000000 0.000000 0.007052 0.000000 0.002284
# 5 0.032281 -0.014762 -0.006119 0.000000 0.067647 0.000000
# 6 0.000000 0.000000 0.000000 0.002284 0.000000 0.029707
#
#
# Mechanical properties :
#
#
# Convention : Reuss Voigt Hill
#
# Bulk Modulus (GPa) = 33.08991 71.75857 52.42424
# Shear Modulus (GPa) = 14.87116 48.56927 31.72022
#
# Velocity S-wave (km/s) = 2.60430 4.70652 3.80353
# Velocity P-wave (km/s) = 4.91271 7.89065 6.57256
#
# Compressibility (1/GPa) = 0.03022070
#
# Stress axis : x y z
#
# Youngs Moduli (GPa) = 11.11692 60.59801 51.21325
#
# Poissons Ratio (x) = 1.15060 1.46653
# Poissons Ratio (y) = 0.21108 0.01316
# Poissons Ratio (z) = 0.31834 0.01558
#
# Static dielectric constant tensor:
#      x y z
#    x 1.874200 0.000000 -0.012320 
#    y 0.000000 1.805730 0.000000 
#    z -0.012320 0.000000 1.759570 
# 
# From -- ./inp_files/39418.got.cif
#   From: 2010.05.17/outbox.cif.g08.bks.cpg/sg12_20_cif.got.tgz:39418.got - 2010.06.03 13:09:07.
