data_PCOD9216348
_publ_section_title
;
Structure prediction by ZEFSAII (Michael W. Deem and Ramdas Pophale) SiO2 
 PCOD9216348
Probable space group: C 2/M
;
_chemical_formula_sum "Si O2"
_cell_formula_units_Z 32
_cell_length_a 13.745071
_cell_length_b 19.435022
_cell_length_c 14.313262
_cell_angle_alpha 90.000000
_cell_angle_beta 160.274605
_cell_angle_gamma 90.000000
_cell_volume 1290.507461
_symmetry_space_group_name_H-M "C 2/M"
_symmetry_group_IT_number 12
_symmetry_cell_setting 'monoclinic'
loop_
_space_group_symop_operation_xyz
x,y,z
-x,y,-z
-x,-y,-z
x,-y,z
1/2+x,1/2+y,z
1/2-x,1/2+y,-z
1/2-x,1/2-y,-z
1/2+x,1/2-y,z
loop_
_atom_site_type_symbol
_atom_site_label
_atom_site_fract_x
_atom_site_fract_y
_atom_site_fract_z
Si Si1 0.832190 0.500000 0.181230
Si Si2 0.440899 0.500000 0.655094
Si Si3 0.877468 0.849128 0.577386
Si Si4 0.390185 0.147303 0.295041
Si Si5 0.452059 0.216859 0.059854
O O1 0.750555 0.571982 0.153913
O O2 0.178975 0.500000 0.492720
O O3 0.723092 0.500000 0.975393
O O4 0.407044 0.428207 0.571063
O O5 0.663187 0.848975 0.471446
O O6 0.198178 0.822663 0.884859
O O7 0.739463 0.797800 0.377125
O O8 0.500000 0.155924 0.500000
O O9 0.166821 0.206796 0.064929
O O10 0.500000 0.186588 0.000000
#
# Coordination Sequence:
#
# PCOD9216348 Si02
#       5
#     4   4   8   8   8
#     4  10  23  42  66 102 142 178 216 270 338 414
#     4  10  22  44  70 100 133 176 229 278 336 410
#     4  11  24  46  71  99 136 179 223 284 343 396
#     4  11  24  44  71 106 141 180 222 273 340 418
#     4  12  26  45  68 100 135 180 234 283 331 396
#
# _framework density 24.796447000000001
#
# number of rings (size 3 to 8) (size 9 to 14) (size 15 to 20)
#    0.000    1.000    0.000    7.125    0.000   10.000 
#    0.000    9.375    0.000    0.000    0.000    0.000 
#    0.000    0.000    0.000    0.000    0.000    0.000 
#
# Total GULP energy -89671.023117 kJ/mol
# GULP energy per Si atom -5604.438945 kJ/mol
# Density = 2.474001 g / cm^3
# Si number density = 24.796447 Si / 1000 Ang^3
#
#
#
# Elastic Constant Matrix: (Units=GPa)
#
#
# Indices 1 2 3 4 5 6 
#
# 1 102.3885 6.7920 10.6068 0.0008 -6.2100 -0.0006
# 2 6.7920 221.9087 27.2303 0.0022 -14.0086 0.0005
# 3 10.6068 27.2303 84.7953 -0.0134 -10.8038 -0.0037
# 4 0.0008 0.0022 -0.0134 13.8179 -0.0079 -18.5342
# 5 -6.2100 -14.0086 -10.8038 -0.0079 45.1113 -0.0021
# 6 -0.0006 0.0005 -0.0037 -18.5342 -0.0021 12.1159
#
#
#
# Elastic Compliance Matrix: (Units=1/GPa)
#
#
# Indices 1 2 3 4 5 6 
#
# 1 0.009950 -0.000105 -0.001073 0.000000 0.001080 0.000001
# 2 -0.000105 0.004749 -0.001368 0.000002 0.001133 0.000002
# 3 -0.001073 -0.001368 0.012681 -0.000019 0.002464 -0.000024
# 4 0.000000 0.000002 -0.000019 -0.068800 -0.000021 -0.105247
# 5 0.001080 0.001133 0.002464 -0.000021 0.023258 -0.000027
# 6 0.000001 0.000002 -0.000024 -0.105247 -0.000027 -0.078465
#
#
# Mechanical properties :
#
#
# Convention : Reuss Voigt Hill
#
# Bulk Modulus (GPa) = 44.86624 55.37229 50.11927
# Shear Modulus (GPa) = -59.44815 38.50657 -10.47079
#
# Velocity S-wave (km/s) = -4.90168 3.94497 -2.05715
# Velocity P-wave (km/s) = 3.72857 6.56731 3.82278
#
# Compressibility (1/GPa) = 0.02228847
#
# Stress axis : x y z
#
# Youngs Moduli (GPa) = 100.49869 210.57570 78.86097
#
# Poissons Ratio (x) = 0.02204 0.08465
# Poissons Ratio (y) = 0.01052 0.10785
# Poissons Ratio (z) = 0.10788 0.28798
#
# Static dielectric constant tensor:
#      x y z
#    x 1.935470 0.000000 0.014420 
#    y 0.000000 1.983490 0.000000 
#    z 0.014420 0.000000 1.895630 
# 
# From -- ./inp_files/217831.got.cif
#   From: 2010.05.17/outbox.cif.g08.bks.cpg/sg12_109_cif.got.tgz:217831.got - 2010.06.03 13:09:07.
