data_PCOD9216775
_publ_section_title
;
Structure prediction by ZEFSAII (Michael W. Deem and Ramdas Pophale) SiO2 
 PCOD9216775
Probable space group: C 2/M
;
_chemical_formula_sum "Si O2"
_cell_formula_units_Z 60
_cell_length_a 13.235266
_cell_length_b 28.484606
_cell_length_c 21.274698
_cell_angle_alpha 90.000000
_cell_angle_beta 23.467087
_cell_angle_gamma 90.000000
_cell_volume 3193.976891
_symmetry_space_group_name_H-M "C 2/M"
_symmetry_group_IT_number 12
_symmetry_cell_setting 'monoclinic'
loop_
_space_group_symop_operation_xyz
x,y,z
-x,y,-z
-x,-y,-z
x,-y,z
1/2+x,1/2+y,z
1/2-x,1/2+y,-z
1/2-x,1/2-y,-z
1/2+x,1/2-y,z
loop_
_atom_site_type_symbol
_atom_site_label
_atom_site_fract_x
_atom_site_fract_y
_atom_site_fract_z
Si Si1 0.449958 0.354332 0.308337
Si Si2 0.765465 0.852864 0.084170
Si Si3 0.698860 0.445659 0.682379
Si Si4 0.419260 0.190976 0.382017
Si Si5 0.557418 0.728893 0.860474
Si Si6 0.916200 0.948326 0.973638
Si Si7 0.223095 0.761167 0.639926
Si Si8 0.000000 0.693058 0.000000
O O1 0.424221 0.405750 0.292207
O O2 0.291390 0.340428 0.462236
O O3 0.309441 0.317093 0.343098
O O4 0.742141 0.337459 0.146736
O O5 0.529749 0.838737 0.260788
O O6 0.735441 0.903698 0.071289
O O7 0.000000 0.854571 0.000000
O O8 0.866723 0.814110 0.978674
O O9 0.629598 0.500000 0.705751
O O10 0.000000 0.440919 0.500000
O O11 0.625490 0.440036 0.798733
O O12 0.659690 0.206655 0.287903
O O13 0.341218 0.238473 0.389615
O O14 0.546804 0.751471 0.798293
O O15 0.512350 0.770280 0.935442
O O16 0.808013 0.000000 0.022937
O O17 0.000000 0.949341 0.000000
O O18 0.500000 0.745140 0.500000
#
# Coordination Sequence:
#
# PCOD9216775 Si02
#       8
#     8   8   8   8   8   8   8   4
#     4  12  24  39  62  84 120 162 202 251 303 363
#     4   9  18  31  53  78 112 158 198 235 297 355
#     4  10  23  40  62  95 125 152 200 258 312 368
#     4  11  22  39  53  86 123 162 204 249 296 366
#     4  11  20  38  55  81 121 158 203 252 297 364
#     4   9  18  33  55  87 123 156 192 243 304 365
#     4  12  22  33  60  86 113 159 202 242 305 356
#     4  12  24  42  57  82 119 160 210 248 294 362
#
# _framework density 18.785357999999999
#
# number of rings (size 3 to 8) (size 9 to 14) (size 15 to 20)
#    0.000    1.333    4.667    2.400    5.600    3.200 
#    0.000    0.333    0.000    0.000    0.000    0.000 
#    0.000    4.267    0.000    0.000    0.000    0.000 
#
# Total GULP energy -167094.507176 kJ/mol
# GULP energy per Si atom -5569.816906 kJ/mol
# Density = 1.874260 g / cm^3
# Si number density = 18.785358 Si / 1000 Ang^3
#
#
#
# Elastic Constant Matrix: (Units=GPa)
#
#
# Indices 1 2 3 4 5 6 
#
# 1 73.1131 41.2757 44.4645 -0.0812 29.7044 -0.1767
# 2 41.2757 138.1481 59.0325 0.0475 11.1513 0.0303
# 3 44.4645 59.0325 116.4005 0.1544 24.9394 0.2324
# 4 -0.0812 0.0475 0.1544 13.3013 0.0645 -11.9744
# 5 29.7044 11.1513 24.9394 0.0645 41.8063 0.0804
# 6 -0.1767 0.0303 0.2324 -11.9744 0.0804 -13.9699
#
#
#
# Elastic Compliance Matrix: (Units=1/GPa)
#
#
# Indices 1 2 3 4 5 6 
#
# 1 0.024136 -0.004364 -0.004106 -0.000078 -0.013535 -0.000394
# 2 -0.004364 0.010036 -0.004028 -0.000003 0.002827 0.000029
# 3 -0.004106 -0.004028 0.013009 0.000040 -0.003770 0.000204
# 4 -0.000078 -0.000003 0.000040 0.042436 0.000037 -0.036372
# 5 -0.013535 0.002827 -0.003770 0.000037 0.035031 0.000284
# 6 -0.000394 0.000029 0.000204 -0.036372 0.000284 -0.040396
#
#
# Mechanical properties :
#
#
# Convention : Reuss Voigt Hill
#
# Bulk Modulus (GPa) = 45.07562 68.57856 56.82709
# Shear Modulus (GPa) = 42.86553 20.42012 31.64283
#
# Velocity S-wave (km/s) = 4.78206 3.30058 4.10865
# Velocity P-wave (km/s) = 7.38499 7.14918 7.26804
#
# Compressibility (1/GPa) = 0.02218494
#
# Stress axis : x y z
#
# Youngs Moduli (GPa) = 41.43155 99.64459 76.86697
#
# Poissons Ratio (x) = 0.43488 0.31559
# Poissons Ratio (y) = 0.18082 0.30964
# Poissons Ratio (z) = 0.17011 0.40139
#
# Static dielectric constant tensor:
#      x y z
#    x -3.007510 -0.011550 -2.349140 
#    y -0.011550 1.690730 -0.005770 
#    z -2.349140 -0.005770 0.525690 
# 
# From -- ./inp_files/341701.got.cif
#   From: 2010.05.17/outbox.cif.g08.bks.cpg/sg12_171_cif.got.tgz:341701.got - 2010.06.03 13:09:07.
