data_PCOD9216751
_publ_section_title
;
Structure prediction by ZEFSAII (Michael W. Deem and Ramdas Pophale) SiO2 
 PCOD9216751
Probable space group: C 2/M
;
_chemical_formula_sum "Si O2"
_cell_formula_units_Z 42
_cell_length_a 31.324082
_cell_length_b 7.560034
_cell_length_c 9.544566
_cell_angle_alpha 90.000000
_cell_angle_beta 125.964926
_cell_angle_gamma 90.000000
_cell_volume 1829.401212
_symmetry_space_group_name_H-M "C 2/M"
_symmetry_group_IT_number 12
_symmetry_cell_setting 'monoclinic'
loop_
_space_group_symop_operation_xyz
x,y,z
-x,y,-z
-x,-y,-z
x,-y,z
1/2+x,1/2+y,z
1/2-x,1/2+y,-z
1/2-x,1/2-y,-z
1/2+x,1/2-y,z
loop_
_atom_site_type_symbol
_atom_site_label
_atom_site_fract_x
_atom_site_fract_y
_atom_site_fract_z
Si Si1 0.030173 0.795817 0.250513
Si Si2 0.378777 0.209582 0.361058
Si Si3 0.500000 0.000000 0.000000
Si Si4 0.914054 0.211893 0.116431
Si Si5 0.714201 0.205633 0.642313
Si Si6 0.324582 0.715891 0.734968
O O1 0.075110 0.787454 0.453970
O O2 0.974317 0.731300 0.209455
O O3 0.026377 0.000000 0.196565
O O4 0.037588 0.657216 0.141197
O O5 0.391566 0.239070 0.224093
O O6 0.322099 0.280413 0.304161
O O7 0.378928 0.000000 0.387631
O O8 0.915088 0.000000 0.111932
O O9 0.874955 0.275194 0.919801
O O10 0.680438 0.221472 0.434068
O O11 0.771580 0.279203 0.713433
O O12 0.723863 0.000000 0.692888
O O13 0.324430 0.500000 0.729426
#
# Coordination Sequence:
#
# PCOD9216751 Si02
#       6
#     8   8   2   8   8   8
#     4  11  25  43  65  96 130 165 210 259 314 374
#     4  11  23  39  61  90 125 167 210 257 312 376
#     4  12  26  44  66  98 128 172 204 264 312 380
#     4  10  23  40  61  88 122 164 210 259 314 376
#     4   9  20  37  59  87 120 156 204 260 312 369
#     4   9  19  38  60  85 118 158 203 259 316 369
#
# _framework density 22.958331999999999
#
# number of rings (size 3 to 8) (size 9 to 14) (size 15 to 20)
#    0.000    1.905    0.952    1.429    4.000    5.333 
#    0.000    0.000    0.000    0.000    0.000    0.000 
#    0.000    0.000    0.000    0.000    0.000    0.000 
#
# Total GULP energy -117167.343374 kJ/mol
# GULP energy per Si atom -5579.397304 kJ/mol
# Density = 2.290608 g / cm^3
# Si number density = 22.958332 Si / 1000 Ang^3
#
#
#
# Elastic Constant Matrix: (Units=GPa)
#
#
# Indices 1 2 3 4 5 6 
#
# 1 131.9862 1.3018 17.1621 0.0000 -8.5180 0.0000
# 2 1.3018 93.6239 4.3016 0.0000 0.1374 0.0000
# 3 17.1621 4.3016 23.7254 0.0000 -8.1687 0.0000
# 4 0.0000 0.0000 0.0000 25.9902 0.0000 -0.6930
# 5 -8.5180 0.1374 -8.1687 0.0000 19.8427 0.0000
# 6 0.0000 0.0000 0.0000 -0.6930 0.0000 12.8771
#
#
#
# Elastic Compliance Matrix: (Units=1/GPa)
#
#
# Indices 1 2 3 4 5 6 
#
# 1 0.008393 0.000141 -0.005659 0.000000 0.001272 0.000000
# 2 0.000141 0.010791 -0.002404 0.000000 -0.001004 0.000000
# 3 -0.005659 -0.002404 0.053419 0.000000 0.019579 0.000000
# 4 0.000000 0.000000 0.000000 0.038531 0.000000 0.002074
# 5 0.001272 -0.001004 0.019579 0.000000 0.059010 0.000000
# 6 0.000000 0.000000 0.000000 0.002074 0.000000 0.077769
#
#
# Mechanical properties :
#
#
# Convention : Reuss Voigt Hill
#
# Bulk Modulus (GPa) = 17.61812 32.76294 25.19053
# Shear Modulus (GPa) = 17.68804 26.84666 22.26735
#
# Velocity S-wave (km/s) = 2.77869 3.42331 3.11770
# Velocity P-wave (km/s) = 4.24093 5.47055 4.89451
#
# Compressibility (1/GPa) = 0.05675974
#
# Stress axis : x y z
#
# Youngs Moduli (GPa) = 119.14569 92.66971 18.71983
#
# Poissons Ratio (x) = -0.01311 0.10593
# Poissons Ratio (y) = -0.01685 0.04501
# Poissons Ratio (z) = 0.67422 0.22282
#
# Static dielectric constant tensor:
#      x y z
#    x 1.943370 0.000000 0.003140 
#    y 0.000000 1.953300 0.000000 
#    z 0.003140 0.000000 1.806480 
# 
# From -- ./inp_files/108482.got.cif
#   From: 2010.05.17/outbox.cif.g08.bks.cpg/sg12_55_cif.got.tgz:108482.got - 2010.06.03 13:09:07.
