data_PCOD9216525
_publ_section_title
;
Structure prediction by ZEFSAII (Michael W. Deem and Ramdas Pophale) SiO2 
 PCOD9216525
Probable space group: C 2/M
;
_chemical_formula_sum "Si O2"
_cell_formula_units_Z 56
_cell_length_a 11.264690
_cell_length_b 22.580567
_cell_length_c 9.916528
_cell_angle_alpha 90.000000
_cell_angle_beta 101.516303
_cell_angle_gamma 90.000000
_cell_volume 2471.617587
_symmetry_space_group_name_H-M "C 2/M"
_symmetry_group_IT_number 12
_symmetry_cell_setting 'monoclinic'
loop_
_space_group_symop_operation_xyz
x,y,z
-x,y,-z
-x,-y,-z
x,-y,z
1/2+x,1/2+y,z
1/2-x,1/2+y,-z
1/2-x,1/2-y,-z
1/2+x,1/2-y,z
loop_
_atom_site_type_symbol
_atom_site_label
_atom_site_fract_x
_atom_site_fract_y
_atom_site_fract_z
Si Si1 0.821365 0.748130 0.297550
Si Si2 0.051659 0.752734 0.150203
Si Si3 0.030507 0.612322 0.153895
Si Si4 0.386606 0.877103 0.382828
Si Si5 0.455271 0.428449 0.140510
Si Si6 0.363139 0.430853 0.589196
Si Si7 0.215139 0.882133 0.697888
O O1 0.690346 0.727439 0.207344
O O2 0.859614 0.692932 0.397963
O O3 0.789889 0.813183 0.344911
O O4 0.941693 0.759048 0.232689
O O5 0.063229 0.681447 0.136984
O O6 0.000000 0.778214 0.000000
O O7 0.150205 0.590949 0.260325
O O8 0.920498 0.612141 0.234241
O O9 0.000000 0.586135 0.000000
O O10 0.500000 0.892919 0.500000
O O11 0.271912 0.913959 0.399361
O O12 0.435825 0.500000 0.147907
O O13 0.553675 0.406137 0.272101
O O14 0.337156 0.393992 0.164745
O O15 0.500000 0.417693 0.000000
O O16 0.383272 0.500000 0.597245
O O17 0.368002 0.412249 0.434197
#
# Coordination Sequence:
#
# PCOD9216525 Si02
#       7
#     8   8   8   8   8   8   8
#     4  10  23  36  62  96 134 169 215 263 325 390
#     4   9  18  37  57  89 133 178 213 257 313 388
#     4   9  20  39  61  91 134 170 207 263 319 372
#     4  11  23  43  64  95 132 171 209 267 322 385
#     4  10  24  45  67  95 129 165 216 277 321 368
#     4  11  25  45  69  92 124 170 219 267 320 383
#     4  11  22  41  66  99 128 172 214 262 323 391
#
# _framework density 22.657226999999999
#
# number of rings (size 3 to 8) (size 9 to 14) (size 15 to 20)
#    0.000    1.857    1.429    1.286    4.000    4.857 
#    0.000    0.000    0.000    2.143    0.000    0.000 
#    0.000    0.000    0.000    0.000    0.000    0.000 
#
# Total GULP energy -156184.267793 kJ/mol
# GULP energy per Si atom -5578.009564 kJ/mol
# Density = 2.260566 g / cm^3
# Si number density = 22.657227 Si / 1000 Ang^3
#
#
#
# Elastic Constant Matrix: (Units=GPa)
#
#
# Indices 1 2 3 4 5 6 
#
# 1 109.6958 -6.3740 38.0338 0.0000 2.1884 0.0000
# 2 -6.3740 18.1776 11.3845 0.0000 -4.3415 0.0000
# 3 38.0338 11.3845 89.7166 0.0000 -16.7205 0.0000
# 4 0.0000 0.0000 0.0000 27.3507 0.0000 5.2286
# 5 2.1884 -4.3415 -16.7205 0.0000 37.8912 0.0000
# 6 0.0000 0.0000 0.0000 5.2286 0.0000 22.4394
#
#
#
# Elastic Compliance Matrix: (Units=1/GPa)
#
#
# Indices 1 2 3 4 5 6 
#
# 1 0.011860 0.007583 -0.006490 0.000000 -0.002680 0.000000
# 2 0.007583 0.065121 -0.011081 0.000000 0.002134 0.000000
# 3 -0.006490 -0.011081 0.016493 0.000000 0.006383 0.000000
# 4 0.000000 0.000000 0.000000 0.038267 0.000000 -0.008917
# 5 -0.002680 0.002134 0.006383 0.000000 0.029607 0.000000
# 6 0.000000 0.000000 0.000000 -0.008917 0.000000 0.046642
#
#
# Mechanical properties :
#
#
# Convention : Reuss Voigt Hill
#
# Bulk Modulus (GPa) = 13.60531 33.74205 23.67368
# Shear Modulus (GPa) = 19.80469 29.17264 24.48866
#
# Velocity S-wave (km/s) = 2.95973 3.59216 3.29117
# Velocity P-wave (km/s) = 4.20688 5.66829 4.99136
#
# Compressibility (1/GPa) = 0.07350073
#
# Stress axis : x y z
#
# Youngs Moduli (GPa) = 84.31462 15.35594 60.63131
#
# Poissons Ratio (x) = -0.11645 0.39348
# Poissons Ratio (y) = -0.63938 0.67183
# Poissons Ratio (z) = 0.54718 0.17015
#
# Static dielectric constant tensor:
#      x y z
#    x 1.892950 0.000000 -0.000350 
#    y 0.000000 1.825330 0.000000 
#    z -0.000350 0.000000 1.926790 
# 
# From -- ./inp_files/53303.got.cif
#   From: 2010.05.17/outbox.cif.g08.bks.cpg/sg12_27_cif.got.tgz:53303.got - 2010.06.03 13:09:07.
