data_PCOD9216722
_publ_section_title
;
Structure prediction by ZEFSAII (Michael W. Deem and Ramdas Pophale) SiO2 
 PCOD9216722
Probable space group: C 2/M
;
_chemical_formula_sum "Si O2"
_cell_formula_units_Z 56
_cell_length_a 25.350965
_cell_length_b 8.839178
_cell_length_c 15.384271
_cell_angle_alpha 90.000000
_cell_angle_beta 74.152800
_cell_angle_gamma 90.000000
_cell_volume 3316.311928
_symmetry_space_group_name_H-M "C 2/M"
_symmetry_group_IT_number 12
_symmetry_cell_setting 'monoclinic'
loop_
_space_group_symop_operation_xyz
x,y,z
-x,y,-z
-x,-y,-z
x,-y,z
1/2+x,1/2+y,z
1/2-x,1/2+y,-z
1/2-x,1/2-y,-z
1/2+x,1/2-y,z
loop_
_atom_site_type_symbol
_atom_site_label
_atom_site_fract_x
_atom_site_fract_y
_atom_site_fract_z
Si Si1 0.579324 0.318380 0.895723
Si Si2 0.847984 0.680215 0.282604
Si Si3 0.951642 0.320045 0.717479
Si Si4 0.741725 0.181015 0.407911
Si Si5 0.615973 0.180441 0.422381
Si Si6 0.545679 0.318769 0.102436
Si Si7 0.568409 0.320058 0.615004
O O1 0.586627 0.500000 0.885059
O O2 0.624692 0.234068 0.819400
O O3 0.518878 0.283788 0.884012
O O4 0.576354 0.279037 0.999025
O O5 0.846169 0.500000 0.289037
O O6 0.788170 0.749227 0.325657
O O7 0.887174 0.744209 0.341221
O O8 0.960932 0.500000 0.714624
O O9 0.907832 0.286037 0.661907
O O10 0.934544 0.263923 0.820363
O O11 0.008456 0.238387 0.667761
O O12 0.750000 0.250000 0.500000
O O13 0.680245 0.214743 0.403634
O O14 0.748257 0.000000 0.409459
O O15 0.582940 0.269708 0.510961
O O16 0.608747 0.000000 0.441619
O O17 0.549463 0.500000 0.111740
O O18 0.571309 0.500000 0.623391
#
# Coordination Sequence:
#
# PCOD9216722 Si02
#       7
#     8   8   8   8   8   8   8
#     4   9  18  34  55  81 111 143 179 221 273 325
#     4  12  23  35  55  83 114 144 179 228 278 324
#     4  11  22  36  55  81 114 148 180 222 272 327
#     4  11  22  38  59  80 106 145 187 229 273 320
#     4  10  23  40  56  77 110 148 185 224 273 325
#     4   9  18  33  55  81 111 144 179 221 268 324
#     4  12  23  35  54  80 111 148 186 223 267 325
#
# _framework density 16.886227999999999
#
# number of rings (size 3 to 8) (size 9 to 14) (size 15 to 20)
#    0.000    1.429    2.857    4.714    0.000    4.000 
#    0.000    1.429    0.000    0.857    0.000    0.000 
#    0.000    0.000    0.000    0.000    0.000    0.000 
#
# Total GULP energy -156456.786622 kJ/mol
# GULP energy per Si atom -5587.742379 kJ/mol
# Density = 1.684779 g / cm^3
# Si number density = 16.886228 Si / 1000 Ang^3
#
#
#
# Elastic Constant Matrix: (Units=GPa)
#
#
# Indices 1 2 3 4 5 6 
#
# 1 55.6349 35.4257 43.9109 0.0000 12.6178 0.0000
# 2 35.4257 70.0626 58.1782 0.0000 6.4246 0.0000
# 3 43.9109 58.1782 136.5926 0.0000 5.8820 0.0000
# 4 0.0000 0.0000 0.0000 33.3662 0.0000 1.4220
# 5 12.6178 6.4246 5.8820 0.0000 23.3068 0.0000
# 6 0.0000 0.0000 0.0000 1.4220 0.0000 17.1388
#
#
#
# Elastic Compliance Matrix: (Units=1/GPa)
#
#
# Indices 1 2 3 4 5 6 
#
# 1 0.031694 -0.010584 -0.005123 0.000000 -0.012948 0.000000
# 2 -0.010584 0.025947 -0.007671 0.000000 0.000513 0.000000
# 3 -0.005123 -0.007671 0.012157 0.000000 0.001820 0.000000
# 4 0.000000 0.000000 0.000000 0.030077 0.000000 -0.002495
# 5 -0.012948 0.000513 0.001820 0.000000 0.049315 0.000000
# 6 0.000000 0.000000 0.000000 -0.002495 0.000000 0.058554
#
#
# Mechanical properties :
#
#
# Convention : Reuss Voigt Hill
#
# Bulk Modulus (GPa) = 43.39999 59.70219 51.55109
# Shear Modulus (GPa) = 19.07080 23.08072 21.07576
#
# Velocity S-wave (km/s) = 3.36426 3.70109 3.53668
# Velocity P-wave (km/s) = 6.39126 7.32778 6.87548
#
# Compressibility (1/GPa) = 0.02304148
#
# Stress axis : x y z
#
# Youngs Moduli (GPa) = 31.55206 38.53944 82.25657
#
# Poissons Ratio (x) = 0.40789 0.42142
# Poissons Ratio (y) = 0.33394 0.63102
# Poissons Ratio (z) = 0.16165 0.29565
#
# Static dielectric constant tensor:
#      x y z
#    x 1.546400 0.000000 0.003800 
#    y 0.000000 1.564040 0.000000 
#    z 0.003800 0.000000 1.568890 
# 
# From -- ./inp_files/237422.got.cif
#   From: 2010.05.17/outbox.cif.g08.bks.cpg/sg12_119_cif.got.tgz:237422.got - 2010.06.03 13:09:07.
