data_PCOD9216765
_publ_section_title
;
Structure prediction by ZEFSAII (Michael W. Deem and Ramdas Pophale) SiO2 
 PCOD9216765
Probable space group: C 2/M
;
_chemical_formula_sum "Si O2"
_cell_formula_units_Z 52
_cell_length_a 8.660118
_cell_length_b 27.748020
_cell_length_c 13.241402
_cell_angle_alpha 90.000000
_cell_angle_beta 123.458875
_cell_angle_gamma 90.000000
_cell_volume 2654.621042
_symmetry_space_group_name_H-M "C 2/M"
_symmetry_group_IT_number 12
_symmetry_cell_setting 'monoclinic'
loop_
_space_group_symop_operation_xyz
x,y,z
-x,y,-z
-x,-y,-z
x,-y,z
1/2+x,1/2+y,z
1/2-x,1/2+y,-z
1/2-x,1/2-y,-z
1/2+x,1/2-y,z
loop_
_atom_site_type_symbol
_atom_site_label
_atom_site_fract_x
_atom_site_fract_y
_atom_site_fract_z
Si Si1 0.892073 0.403087 0.560835
Si Si2 0.179566 0.553437 0.262627
Si Si3 0.505254 0.633692 0.613272
Si Si4 0.819145 0.852381 0.998514
Si Si5 0.000000 0.590479 0.000000
Si Si6 0.079838 0.687028 0.731001
Si Si7 0.963110 0.211224 0.770471
O O1 0.920099 0.438305 0.665767
O O2 0.680246 0.397898 0.450926
O O3 0.000000 0.417091 0.500000
O O4 0.956080 0.350372 0.624296
O O5 0.262804 0.500000 0.290861
O O6 0.326986 0.596680 0.315515
O O7 0.053999 0.560574 0.118966
O O8 0.500000 0.656456 0.500000
O O9 0.510811 0.674353 0.698666
O O10 0.671860 0.839376 0.859631
O O11 0.688568 0.880818 0.032601
O O12 0.000000 0.873346 0.000000
O O13 0.907683 0.806293 0.089245
O O14 0.251895 0.702977 0.724903
O O15 0.986093 0.734531 0.741737
#
# Coordination Sequence:
#
# PCOD9216765 Si02
#       7
#     8   8   8   8   4   8   8
#     4  11  23  43  64  92 134 176 219 271 324 394
#     4  11  25  45  72 101 126 166 222 279 345 408
#     4  10  23  40  62  88 128 169 215 263 323 388
#     4  10  23  41  64  96 133 181 224 277 338 407
#     4  12  21  42  82  94 138 170 214 286 361 392
#     4  11  24  38  62  95 132 173 230 270 327 392
#     4  11  23  39  61  92 132 176 219 275 326 393
#
# _framework density 19.588481999999999
#
# number of rings (size 3 to 8) (size 9 to 14) (size 15 to 20)
#    0.000    1.231    4.615    0.692    6.462    4.308 
#    0.000    0.000    0.000    0.923    0.000    0.000 
#    0.000    0.000    0.000    0.000    0.000    0.000 
#
# Total GULP energy -144995.235384 kJ/mol
# GULP energy per Si atom -5576.739822 kJ/mol
# Density = 1.954390 g / cm^3
# Si number density = 19.588482 Si / 1000 Ang^3
#
#
#
# Elastic Constant Matrix: (Units=GPa)
#
#
# Indices 1 2 3 4 5 6 
#
# 1 86.2063 12.4055 24.3144 0.0000 -20.0353 0.0000
# 2 12.4055 46.4058 11.5950 0.0000 -5.9427 0.0000
# 3 24.3144 11.5950 105.7630 0.0000 -14.3564 0.0000
# 4 0.0000 0.0000 0.0000 -0.0064 0.0000 0.3990
# 5 -20.0353 -5.9427 -14.3564 0.0000 30.7759 0.0000
# 6 0.0000 0.0000 0.0000 0.3990 0.0000 14.2380
#
#
#
# Elastic Compliance Matrix: (Units=1/GPa)
#
#
# Indices 1 2 3 4 5 6 
#
# 1 0.014340 -0.002323 -0.001960 0.000000 0.007973 0.000000
# 2 -0.002323 0.022862 -0.001685 0.000000 0.002116 0.000000
# 3 -0.001960 -0.001685 0.010540 0.000000 0.003316 0.000000
# 4 0.000000 0.000000 0.000000-57.046552 0.000000 1.598494
# 5 0.007973 0.002116 0.003316 0.000000 0.039639 0.000000
# 6 0.000000 0.000000 0.000000 1.598494 0.000000 0.025443
#
#
# Mechanical properties :
#
#
# Convention : Reuss Voigt Hill
#
# Bulk Modulus (GPa) = 27.92749 37.22278 32.57514
# Shear Modulus (GPa) = -0.08786 21.67218 10.79216
#
# Velocity S-wave (km/s) = -0.21201 3.32983 2.34977
# Velocity P-wave (km/s) = 3.77202 5.81612 4.90181
#
# Compressibility (1/GPa) = 0.03580701
#
# Stress axis : x y z
#
# Youngs Moduli (GPa) = 69.73475 43.74064 94.87235
#
# Poissons Ratio (x) = 0.10160 0.18593
# Poissons Ratio (y) = 0.16198 0.15987
# Poissons Ratio (z) = 0.13667 0.07371
#
# Static dielectric constant tensor:
#      x y z
#    x 1.746250 0.000000 -0.036680 
#    y 0.000000 1.648890 0.000000 
#    z -0.036680 0.000000 1.689180 
# 
# From -- ./inp_files/125398.got.cif
#   From: 2010.05.17/outbox.cif.g08.bks.cpg/sg12_63_cif.got.tgz:125398.got - 2010.06.03 13:09:07.
