data_PCOD9216083
_publ_section_title
;
Structure prediction by ZEFSAII (Michael W. Deem and Ramdas Pophale) SiO2 
 PCOD9216083
Probable space group: C 2/M
;
_chemical_formula_sum "Si O2"
_cell_formula_units_Z 56
_cell_length_a 9.574344
_cell_length_b 32.269909
_cell_length_c 11.993717
_cell_angle_alpha 90.000000
_cell_angle_beta 126.573498
_cell_angle_gamma 90.000000
_cell_volume 2975.955949
_symmetry_space_group_name_H-M "C 2/M"
_symmetry_group_IT_number 12
_symmetry_cell_setting 'monoclinic'
loop_
_space_group_symop_operation_xyz
x,y,z
-x,y,-z
-x,-y,-z
x,-y,z
1/2+x,1/2+y,z
1/2-x,1/2+y,-z
1/2-x,1/2-y,-z
1/2+x,1/2-y,z
loop_
_atom_site_type_symbol
_atom_site_label
_atom_site_fract_x
_atom_site_fract_y
_atom_site_fract_z
Si Si1 0.719020 0.000000 0.227267
Si Si2 0.787096 0.794355 0.658791
Si Si3 0.312783 0.000000 0.055919
Si Si4 0.563023 0.858836 0.152932
Si Si5 0.248229 0.590354 0.909000
Si Si6 0.097655 0.912667 0.659481
Si Si7 0.433621 0.618149 0.790567
Si Si8 0.967031 0.710696 0.671637
O O1 0.815868 0.957920 0.308293
O O2 0.520462 0.000000 0.175098
O O3 0.711939 0.000000 0.089106
O O4 0.897338 0.835266 0.735415
O O5 0.907697 0.754743 0.693255
O O6 0.670719 0.800297 0.491924
O O7 0.652879 0.787249 0.697445
O O8 0.231185 0.041526 0.066219
O O9 0.435827 0.895927 0.130345
O O10 0.754744 0.878451 0.243535
O O11 0.541196 0.822978 0.234103
O O12 0.500000 0.845559 0.000000
O O13 0.277275 0.603785 0.796016
O O14 0.393845 0.613286 0.052341
O O15 0.000000 0.901929 0.500000
O O16 0.963716 0.910530 0.698144
#
# Coordination Sequence:
#
# PCOD9216083 Si02
#       8
#     4   8   4   8   8   8   8   8
#     4  11  21  39  65  94 129 162 218 266 319 376
#     4  10  22  43  64  92 128 165 216 264 322 384
#     4  11  20  40  68  93 122 173 220 265 316 392
#     4  12  22  43  64  96 128 173 221 257 323 390
#     4  11  23  40  67  92 126 168 216 265 323 377
#     4  12  25  40  65  96 130 169 213 266 320 384
#     4  11  23  41  62  95 129 161 212 270 312 378
#     4  10  23  41  67  91 124 174 212 262 323 391
#
# _framework density 18.817481999999998
#
# number of rings (size 3 to 8) (size 9 to 14) (size 15 to 20)
#    0.000    1.000    5.714    1.071    2.000    1.714 
#    2.571    1.429    0.000    0.857    0.000    0.000 
#    0.000    0.000    0.000    0.000    0.000    0.000 
#
# Total GULP energy -156443.956398 kJ/mol
# GULP energy per Si atom -5587.284157 kJ/mol
# Density = 1.877465 g / cm^3
# Si number density = 18.817482 Si / 1000 Ang^3
#
#
#
# Elastic Constant Matrix: (Units=GPa)
#
#
# Indices 1 2 3 4 5 6 
#
# 1 76.7367 33.1008 36.6020 0.0000 -14.4130 0.0000
# 2 33.1008 120.6215 46.1651 0.0000 7.0015 0.0000
# 3 36.6020 46.1651 87.7811 0.0000 -14.6506 0.0000
# 4 0.0000 0.0000 0.0000 23.0862 0.0000 8.5135
# 5 -14.4130 7.0015 -14.6506 0.0000 27.7631 0.0000
# 6 0.0000 0.0000 0.0000 8.5135 0.0000 15.3202
#
#
#
# Elastic Compliance Matrix: (Units=1/GPa)
#
#
# Indices 1 2 3 4 5 6 
#
# 1 0.018255 -0.003883 -0.004194 0.000000 0.008243 0.000000
# 2 -0.003883 0.012215 -0.006202 0.000000 -0.008369 0.000000
# 3 -0.004194 -0.006202 0.017874 0.000000 0.008819 0.000000
# 4 0.000000 0.000000 0.000000 0.054481 0.000000 -0.030275
# 5 0.008243 -0.008369 0.008819 0.000000 0.047063 0.000000
# 6 0.000000 0.000000 0.000000 -0.030275 0.000000 0.082098
#
#
# Mechanical properties :
#
#
# Convention : Reuss Voigt Hill
#
# Bulk Modulus (GPa) = 50.53783 57.43055 53.98419
# Shear Modulus (GPa) = 18.71680 24.51863 21.61772
#
# Velocity S-wave (km/s) = 3.15723 3.61358 3.39309
# Velocity P-wave (km/s) = 6.34081 6.92797 6.64088
#
# Compressibility (1/GPa) = 0.01978716
#
# Stress axis : x y z
#
# Youngs Moduli (GPa) = 54.77888 81.86396 55.94604
#
# Poissons Ratio (x) = 0.31787 0.23464
# Poissons Ratio (y) = 0.21270 0.34698
# Poissons Ratio (z) = 0.22975 0.50772
#
# Static dielectric constant tensor:
#      x y z
#    x 1.667890 0.000000 0.007760 
#    y 0.000000 1.623680 0.000000 
#    z 0.007760 0.000000 1.647330 
# 
# From -- ./inp_files/125883.got.cif
#   From: 2010.05.17/outbox.cif.g08.bks.cpg/sg12_63_cif.got.tgz:125883.got - 2010.06.03 13:09:07.
