data_PCOD9216820
_publ_section_title
;
Structure prediction by ZEFSAII (Michael W. Deem and Ramdas Pophale) SiO2 
 PCOD9216820
Probable space group: C 2/M
;
_chemical_formula_sum "Si O2"
_cell_formula_units_Z 56
_cell_length_a 15.902330
_cell_length_b 17.728515
_cell_length_c 12.325132
_cell_angle_alpha 90.000000
_cell_angle_beta 129.013097
_cell_angle_gamma 90.000000
_cell_volume 2699.895068
_symmetry_space_group_name_H-M "C 2/M"
_symmetry_group_IT_number 12
_symmetry_cell_setting 'monoclinic'
loop_
_space_group_symop_operation_xyz
x,y,z
-x,y,-z
-x,-y,-z
x,-y,z
1/2+x,1/2+y,z
1/2-x,1/2+y,-z
1/2-x,1/2-y,-z
1/2+x,1/2-y,z
loop_
_atom_site_type_symbol
_atom_site_label
_atom_site_fract_x
_atom_site_fract_y
_atom_site_fract_z
Si Si1 0.223795 0.913304 0.840576
Si Si2 0.254128 0.698423 0.344474
Si Si3 0.374119 0.839106 0.388664
Si Si4 0.518572 0.417192 0.820311
Si Si5 0.232134 0.083634 0.449026
Si Si6 0.167552 0.317052 0.896429
Si Si7 0.980139 0.242526 0.864778
O O1 0.242267 0.855268 0.757969
O O2 0.101430 0.907867 0.787627
O O3 0.243757 0.000000 0.825290
O O4 0.297558 0.887620 0.001796
O O5 0.354298 0.755527 0.421877
O O6 0.250117 0.645896 0.445341
O O7 0.147013 0.750308 0.257692
O O8 0.500000 0.858801 0.500000
O O9 0.301766 0.895654 0.400220
O O10 0.332247 0.833867 0.230732
O O11 0.542706 0.500000 0.889412
O O12 0.395145 0.417385 0.681062
O O13 0.526348 0.342610 0.899137
O O14 0.262364 0.000000 0.512886
O O15 0.048592 0.288946 0.833245
O O16 0.250000 0.250000 0.000000
O O17 0.000000 0.275110 0.000000
#
# Coordination Sequence:
#
# PCOD9216820 Si02
#       7
#     8   8   8   8   8   8   8
#     4  11  24  43  68 101 136 175 221 278 346 394
#     4  12  24  42  68 100 133 177 223 284 330 403
#     4  12  26  43  71  99 133 179 230 274 331 400
#     4  10  23  40  64  98 136 172 216 276 338 397
#     4  11  26  45  65  97 137 179 225 275 337 400
#     4  12  23  43  67 102 136 175 225 275 328 402
#     4  12  22  40  67  99 130 170 222 271 336 396
#
# _framework density 20.741547000000001
#
# number of rings (size 3 to 8) (size 9 to 14) (size 15 to 20)
#    0.000    0.571    5.714    1.714    4.000    1.143 
#    0.000    8.571    0.000    0.000    0.000    0.000 
#    0.000    0.000    0.000    0.000    0.000    0.000 
#
# Total GULP energy -156554.805546 kJ/mol
# GULP energy per Si atom -5591.243055 kJ/mol
# Density = 2.069434 g / cm^3
# Si number density = 20.741547 Si / 1000 Ang^3
#
#
#
# Elastic Constant Matrix: (Units=GPa)
#
#
# Indices 1 2 3 4 5 6 
#
# 1 118.1751 25.8255 25.3282 0.0000 1.3111 0.0000
# 2 25.8255 77.8026 -8.5325 0.0000 -3.5695 0.0000
# 3 25.3282 -8.5325 53.1691 0.0000 -9.1602 0.0000
# 4 0.0000 0.0000 0.0000 18.7253 0.0000 1.9424
# 5 1.3111 -3.5695 -9.1602 0.0000 37.5201 0.0000
# 6 0.0000 0.0000 0.0000 1.9424 0.0000 25.5130
#
#
#
# Elastic Compliance Matrix: (Units=1/GPa)
#
#
# Indices 1 2 3 4 5 6 
#
# 1 0.010778 -0.004368 -0.006234 0.000000 -0.002314 0.000000
# 2 -0.004368 0.014975 0.004964 0.000000 0.002789 0.000000
# 3 -0.006234 0.004964 0.023690 0.000000 0.006474 0.000000
# 4 0.000000 0.000000 0.000000 0.053829 0.000000 -0.004098
# 5 -0.002314 0.002789 0.006474 0.000000 0.028579 0.000000
# 6 0.000000 0.000000 0.000000 -0.004098 0.000000 0.039508
#
#
# Mechanical properties :
#
#
# Convention : Reuss Voigt Hill
#
# Bulk Modulus (GPa) = 26.19959 37.15436 31.67697
# Shear Modulus (GPa) = 25.59427 30.12005 27.85716
#
# Velocity S-wave (km/s) = 3.51659 3.81486 3.66876
# Velocity P-wave (km/s) = 5.39883 6.11196 5.76643
#
# Compressibility (1/GPa) = 0.03816854
#
# Stress axis : x y z
#
# Youngs Moduli (GPa) = 92.77910 66.77708 42.21259
#
# Poissons Ratio (x) = 0.29165 0.26316
# Poissons Ratio (y) = 0.40522 -0.20956
# Poissons Ratio (z) = 0.57839 -0.33150
#
# Static dielectric constant tensor:
#      x y z
#    x 1.732360 0.000000 0.006930 
#    y 0.000000 1.757470 0.000000 
#    z 0.006930 0.000000 1.730660 
# 
# From -- ./inp_files/146219.got.cif
#   From: 2010.05.17/outbox.cif.g08.bks.cpg/sg12_74_cif.got.tgz:146219.got - 2010.06.03 13:09:07.
