data_PCOD9216132
_publ_section_title
;
Structure prediction by ZEFSAII (Michael W. Deem and Ramdas Pophale) SiO2 
 PCOD9216132
Probable space group: C 2/M
;
_chemical_formula_sum "Si O2"
_cell_formula_units_Z 40
_cell_length_a 9.470323
_cell_length_b 14.915180
_cell_length_c 30.586800
_cell_angle_alpha 90.000000
_cell_angle_beta 151.645562
_cell_angle_gamma 90.000000
_cell_volume 2051.880004
_symmetry_space_group_name_H-M "C 2/M"
_symmetry_group_IT_number 12
_symmetry_cell_setting 'monoclinic'
loop_
_space_group_symop_operation_xyz
x,y,z
-x,y,-z
-x,-y,-z
x,-y,z
1/2+x,1/2+y,z
1/2-x,1/2+y,-z
1/2-x,1/2-y,-z
1/2+x,1/2-y,z
loop_
_atom_site_type_symbol
_atom_site_label
_atom_site_fract_x
_atom_site_fract_y
_atom_site_fract_z
Si Si1 0.167796 0.598495 0.588726
Si Si2 0.088749 0.605990 0.972659
Si Si3 0.202951 0.319439 0.446754
Si Si4 0.806999 0.212510 0.860020
Si Si5 0.805569 0.232052 0.265085
O O1 0.271078 0.500000 0.604911
O O2 0.448088 0.657510 0.677588
O O3 0.000000 0.635383 0.500000
O O4 0.935045 0.598080 0.564635
O O5 0.058412 0.500000 0.951683
O O6 0.897950 0.683723 0.896165
O O7 0.423310 0.644345 0.057441
O O8 0.000000 0.611401 0.000000
O O9 0.500000 0.335905 0.500000
O O10 0.250000 0.250000 0.500000
O O11 0.950763 0.284798 0.345042
O O12 0.511820 0.193287 0.807146
O O13 0.736920 0.208990 0.789548
#
# Coordination Sequence:
#
# PCOD9216132 Si02
#       5
#     8   8   8   8   8
#     4  11  24  40  59  90 129 164 207 264 315 358
#     4  10  22  43  66  90 126 164 200 254 321 383
#     4  12  20  38  65  88 119 172 210 245 304 375
#     4  11  23  39  65  97 121 161 208 260 310 378
#     4  12  21  38  63  92 122 160 209 253 303 367
#
# _framework density 19.494318
#
# number of rings (size 3 to 8) (size 9 to 14) (size 15 to 20)
#    0.000    0.800    8.000    0.000    0.000    2.000 
#    0.000    2.000    0.000    0.000    0.000    0.000 
#    0.000    0.000    0.000    0.000    0.000    0.000 
#
# Total GULP energy -111523.869925 kJ/mol
# GULP energy per Si atom -5576.193496 kJ/mol
# Density = 1.944995 g / cm^3
# Si number density = 19.494318 Si / 1000 Ang^3
#
#
#
# Elastic Constant Matrix: (Units=GPa)
#
#
# Indices 1 2 3 4 5 6 
#
# 1 118.7959 14.3531 25.5752 -0.0001 25.5630 0.0000
# 2 14.3531 88.4613 21.4967 0.0005 1.8253 0.0002
# 3 25.5752 21.4967 77.4893 0.0002 14.0617 0.0007
# 4 -0.0001 0.0005 0.0002 6.7003 0.0003 -1.5631
# 5 25.5630 1.8253 14.0617 0.0003 49.8635 0.0001
# 6 0.0000 0.0002 0.0007 -1.5631 0.0001 8.0070
#
#
#
# Elastic Compliance Matrix: (Units=1/GPa)
#
#
# Indices 1 2 3 4 5 6 
#
# 1 0.009971 -0.000989 -0.002208 0.000001 -0.004453 0.000000
# 2 -0.000989 0.012233 -0.003244 -0.000001 0.000974 0.000000
# 3 -0.002208 -0.003244 0.015078 -0.000001 -0.003001 -0.000001
# 4 0.000001 -0.000001 -0.000001 0.156368 -0.000001 0.030525
# 5 -0.004453 0.000974 -0.003001 -0.000001 0.023148 0.000000
# 6 0.000000 0.000000 -0.000001 0.030525 0.000000 0.130849
#
#
# Mechanical properties :
#
#
# Convention : Reuss Voigt Hill
#
# Bulk Modulus (GPa) = 40.98495 45.28850 43.13672
# Shear Modulus (GPa) = 13.56247 27.80227 20.68237
#
# Velocity S-wave (km/s) = 2.64050 3.78057 3.26075
# Velocity P-wave (km/s) = 5.51054 6.50684 6.02930
#
# Compressibility (1/GPa) = 0.02439920
#
# Stress axis : x y z
#
# Youngs Moduli (GPa) = 100.29174 81.74557 66.31994
#
# Poissons Ratio (x) = 0.08087 0.14646
# Poissons Ratio (y) = 0.09922 0.21514
# Poissons Ratio (z) = 0.22149 0.26517
#
# Static dielectric constant tensor:
#      x y z
#    x 1.693300 0.000000 -0.006710 
#    y 0.000000 1.687970 0.000000 
#    z -0.006710 0.000000 1.732480 
# 
# From -- ./inp_files/194445.got.cif
#   From: 2010.05.17/outbox.cif.g08.bks.cpg/sg12_98_cif.got.tgz:194445.got - 2010.06.03 13:09:07.
