data_PCOD9216218
_publ_section_title
;
Structure prediction by ZEFSAII (Michael W. Deem and Ramdas Pophale) SiO2 
 PCOD9216218
Probable space group: C 2/M
;
_chemical_formula_sum "Si O2"
_cell_formula_units_Z 64
_cell_length_a 31.384114
_cell_length_b 14.659647
_cell_length_c 21.239845
_cell_angle_alpha 90.000000
_cell_angle_beta 163.912887
_cell_angle_gamma 90.000000
_cell_volume 2707.814924
_symmetry_space_group_name_H-M "C 2/M"
_symmetry_group_IT_number 12
_symmetry_cell_setting 'monoclinic'
loop_
_space_group_symop_operation_xyz
x,y,z
-x,y,-z
-x,-y,-z
x,-y,z
1/2+x,1/2+y,z
1/2-x,1/2+y,-z
1/2-x,1/2-y,-z
1/2+x,1/2-y,z
loop_
_atom_site_type_symbol
_atom_site_label
_atom_site_fract_x
_atom_site_fract_y
_atom_site_fract_z
Si Si1 0.727009 0.757738 0.750345
Si Si2 0.009842 0.595801 0.589426
Si Si3 0.190732 0.394080 0.368807
Si Si4 0.673513 0.346915 0.907229
Si Si5 0.584791 0.893484 0.357832
Si Si6 0.163977 0.760070 0.228604
Si Si7 0.044591 0.892173 0.850945
Si Si8 0.276524 0.397433 0.154781
O O1 0.578613 0.813922 0.517389
O O2 0.807416 0.725093 0.801251
O O3 0.835867 0.830965 0.940534
O O4 0.686403 0.679266 0.741874
O O5 0.940299 0.500000 0.514040
O O6 0.000000 0.595661 0.500000
O O7 0.183779 0.599874 0.858761
O O8 0.160758 0.500000 0.309776
O O9 0.104691 0.373039 0.311758
O O10 0.151776 0.323917 0.259018
O O11 0.375038 0.384198 0.639395
O O12 0.632203 0.387621 0.780945
O O13 0.750000 0.250000 0.000000
O O14 0.546813 0.353989 0.782071
O O15 0.699876 0.827257 0.557126
O O16 0.405157 0.883326 0.119818
O O17 0.625547 0.000000 0.424551
O O18 0.000000 0.810517 0.000000
O O19 0.084499 0.000000 0.907370
O O20 0.293152 0.500000 0.203152
#
# Coordination Sequence:
#
# PCOD9216218 Si02
#       8
#     8   8   8   8   8   8   8   8
#     4  12  24  38  62  92 131 164 202 261 313 373
#     4  11  22  39  62  93 126 158 205 259 318 373
#     4  10  23  43  67  91 122 164 214 259 303 372
#     4  12  23  40  67  91 129 167 213 263 309 377
#     4  10  22  43  69  94 123 162 211 263 311 372
#     4  12  25  39  62  94 130 164 200 254 321 376
#     4  11  22  40  65  92 124 166 211 260 314 371
#     4  11  23  42  66  92 124 170 220 260 307 372
#
# _framework density 23.635293999999998
#
# number of rings (size 3 to 8) (size 9 to 14) (size 15 to 20)
#    0.000    0.875    2.500    4.875    1.750    3.000 
#    0.000    0.000    0.000    1.125    0.000    0.000 
#    0.000    0.000    0.000    0.000    0.000    0.000 
#
# Total GULP energy -179273.758736 kJ/mol
# GULP energy per Si atom -5602.304960 kJ/mol
# Density = 2.358150 g / cm^3
# Si number density = 23.635294 Si / 1000 Ang^3
#
#
#
# Elastic Constant Matrix: (Units=GPa)
#
#
# Indices 1 2 3 4 5 6 
#
# 1 128.1415 8.0845 3.7670 0.0008 -12.4554 -0.0008
# 2 8.0845 101.0035 11.9016 0.0008 -23.8941 -0.0007
# 3 3.7670 11.9016 65.0068 0.0020 -6.0267 -0.0017
# 4 0.0008 0.0008 0.0020 -523.9837 0.0008 401.6066
# 5 -12.4554 -23.8941 -6.0267 0.0008 24.6680 -0.0007
# 6 -0.0008 -0.0007 -0.0017 401.6066 -0.0007 -262.3139
#
#
#
# Elastic Compliance Matrix: (Units=1/GPa)
#
#
# Indices 1 2 3 4 5 6 
#
# 1 0.008222 0.000431 -0.000135 0.000000 0.004536 0.000000
# 2 0.000431 0.012962 -0.001242 0.000000 0.012470 0.000000
# 3 -0.000135 -0.001242 0.015860 0.000000 0.002604 0.000000
# 4 0.000000 0.000000 0.000000 0.011003 0.000000 0.016846
# 5 0.004536 0.012470 0.002604 0.000000 0.055543 0.000000
# 6 0.000000 0.000000 0.000000 0.016846 0.000000 0.021980
#
#
# Mechanical properties :
#
#
# Convention : Reuss Voigt Hill
#
# Bulk Modulus (GPa) = 28.44841 37.96199 33.20520
# Shear Modulus (GPa) = 35.92499 -134.29934 -49.18717
#
# Velocity S-wave (km/s) = 3.90291 -7.54618 -4.56685
# Velocity P-wave (km/s) = 5.68971 7.73499 3.70521
#
# Compressibility (1/GPa) = 0.03515135
#
# Stress axis : x y z
#
# Youngs Moduli (GPa) = 121.63207 77.14570 63.05327
#
# Poissons Ratio (x) = -0.03323 0.00850
# Poissons Ratio (y) = -0.05240 0.07832
# Poissons Ratio (z) = 0.01640 0.09582
#
# Static dielectric constant tensor:
#      x y z
#    x 1.880690 0.000000 0.020930 
#    y 0.000000 1.885710 0.000000 
#    z 0.020930 0.000000 1.920710 
# 
# From -- ./inp_files/330389.got.cif
#   From: 2010.05.17/outbox.cif.g08.bks.cpg/sg12_166_cif.got.tgz:330389.got - 2010.06.03 13:09:07.
