data_PCOD9216621
_publ_section_title
;
Structure prediction by ZEFSAII (Michael W. Deem and Ramdas Pophale) SiO2 
 PCOD9216621
Probable space group: C 2/M
;
_chemical_formula_sum "Si O2"
_cell_formula_units_Z 36
_cell_length_a 8.580343
_cell_length_b 22.625194
_cell_length_c 16.054080
_cell_angle_alpha 90.000000
_cell_angle_beta 34.422201
_cell_angle_gamma 90.000000
_cell_volume 1761.777800
_symmetry_space_group_name_H-M "C 2/M"
_symmetry_group_IT_number 12
_symmetry_cell_setting 'monoclinic'
loop_
_space_group_symop_operation_xyz
x,y,z
-x,y,-z
-x,-y,-z
x,-y,z
1/2+x,1/2+y,z
1/2-x,1/2+y,-z
1/2-x,1/2-y,-z
1/2+x,1/2-y,z
loop_
_atom_site_type_symbol
_atom_site_label
_atom_site_fract_x
_atom_site_fract_y
_atom_site_fract_z
Si Si1 0.500000 0.635703 0.000000
Si Si2 0.525029 0.697340 0.585623
Si Si3 0.050303 0.224174 0.844474
Si Si4 0.323241 0.377301 0.343360
Si Si5 0.760339 0.431799 0.041777
O O1 0.339091 0.681061 0.131134
O O2 0.686797 0.600192 0.985581
O O3 0.500000 0.688978 0.500000
O O4 0.750000 0.750000 0.500000
O O5 0.580054 0.636010 0.606585
O O6 0.243175 0.720881 0.747410
O O7 0.092191 0.182907 0.744647
O O8 0.750000 0.250000 0.000000
O O9 0.483209 0.425852 0.219707
O O10 0.000000 0.385159 0.500000
O O11 0.826652 0.500000 0.995107
O O12 0.000000 0.407952 0.000000
#
# Coordination Sequence:
#
# PCOD9216621 Si02
#       5
#     4   8   8   8   8
#     4  10  23  38  68  94 126 168 209 254 324 386
#     4  12  22  37  55  82 131 168 198 247 303 373
#     4  11  22  35  58  94 129 163 208 247 301 382
#     4  11  23  40  58  88 122 166 207 253 321 376
#     4  10  24  45  68  93 122 158 217 286 333 375
#
# _framework density 20.433906
#
# number of rings (size 3 to 8) (size 9 to 14) (size 15 to 20)
#    0.000    1.111    4.444    1.667    6.222    0.444 
#    0.000    0.000    0.000    0.667    0.000    0.000 
#    0.000    0.000    0.000    0.000    0.000    0.000 
#
# Total GULP energy -100284.063767 kJ/mol
# GULP energy per Si atom -5571.336876 kJ/mol
# Density = 2.038740 g / cm^3
# Si number density = 20.433906 Si / 1000 Ang^3
#
#
#
# Elastic Constant Matrix: (Units=GPa)
#
#
# Indices 1 2 3 4 5 6 
#
# 1 158.6420 36.7224 54.0459 0.0004 29.3120 -0.0007
# 2 36.7224 41.9549 8.8275 -0.0003 5.3045 0.0005
# 3 54.0459 8.8275 127.5030 0.0029 -13.4652 -0.0085
# 4 0.0004 -0.0003 0.0029 19.9254 -0.0009 5.1223
# 5 29.3120 5.3045 -13.4652 -0.0009 42.6696 0.0028
# 6 -0.0007 0.0005 -0.0085 5.1223 0.0028 6.5126
#
#
#
# Elastic Compliance Matrix: (Units=1/GPa)
#
#
# Indices 1 2 3 4 5 6 
#
# 1 0.011490 -0.007874 -0.005230 0.000000 -0.008565 -0.000001
# 2 -0.007874 0.030148 0.001475 0.000001 0.002127 -0.000003
# 3 -0.005230 0.001475 0.010673 -0.000005 0.006778 0.000014
# 4 0.000000 0.000001 -0.000005 0.062906 0.000003 -0.049477
# 5 -0.008565 0.002127 0.006778 0.000003 0.031194 -0.000008
# 6 -0.000001 -0.000003 0.000014 -0.049477 -0.000008 0.192464
#
#
# Mechanical properties :
#
#
# Convention : Reuss Voigt Hill
#
# Bulk Modulus (GPa) = 34.41889 58.58795 46.50342
# Shear Modulus (GPa) = 13.44740 29.05512 21.25126
#
# Velocity S-wave (km/s) = 2.56811 3.77491 3.22840
# Velocity P-wave (km/s) = 5.06697 6.90899 6.05839
#
# Compressibility (1/GPa) = 0.02905381
#
# Stress axis : x y z
#
# Youngs Moduli (GPa) = 87.02882 33.16975 93.69037
#
# Poissons Ratio (x) = 0.26118 0.48999
# Poissons Ratio (y) = 0.68527 -0.13820
# Poissons Ratio (z) = 0.45515 -0.04893
#
# Static dielectric constant tensor:
#      x y z
#    x -0.211140 -0.000040 1.365120 
#    y -0.000040 1.723890 0.000030 
#    z 1.365120 0.000030 0.785670 
# 
# From -- ./inp_files/200079.got.cif
#   From: 2010.05.17/outbox.cif.g08.bks.cpg/sg12_101_cif.got.tgz:200079.got - 2010.06.03 13:09:07.
