data_PCOD9216340
_publ_section_title
;
Structure prediction by ZEFSAII (Michael W. Deem and Ramdas Pophale) SiO2 
 PCOD9216340
Probable space group: C 2/M
;
_chemical_formula_sum "Si O2"
_cell_formula_units_Z 48
_cell_length_a 11.274339
_cell_length_b 24.703901
_cell_length_c 8.524905
_cell_angle_alpha 90.000000
_cell_angle_beta 100.210439
_cell_angle_gamma 90.000000
_cell_volume 2336.755930
_symmetry_space_group_name_H-M "C 2/M"
_symmetry_group_IT_number 12
_symmetry_cell_setting 'monoclinic'
loop_
_space_group_symop_operation_xyz
x,y,z
-x,y,-z
-x,-y,-z
x,-y,z
1/2+x,1/2+y,z
1/2-x,1/2+y,-z
1/2-x,1/2-y,-z
1/2+x,1/2-y,z
loop_
_atom_site_type_symbol
_atom_site_label
_atom_site_fract_x
_atom_site_fract_y
_atom_site_fract_z
Si Si1 0.547307 0.000000 0.279960
Si Si2 0.500000 0.906134 0.500000
Si Si3 0.246582 0.384805 0.637910
Si Si4 0.739307 0.000000 0.797099
Si Si5 0.614929 0.605058 0.637647
Si Si6 0.207928 0.000000 0.837462
Si Si7 0.342528 0.720925 0.810128
Si Si8 0.396979 0.718355 0.194604
O O1 0.562978 0.052613 0.392927
O O2 0.405683 0.000000 0.204624
O O3 0.649455 0.000000 0.173410
O O4 0.603497 0.874228 0.612788
O O5 0.267494 0.445494 0.707595
O O6 0.283837 0.380922 0.466358
O O7 0.318239 0.340408 0.751488
O O8 0.804469 0.000000 0.978898
O O9 0.500000 0.594389 0.500000
O O10 0.649925 0.552933 0.746173
O O11 0.597184 0.656988 0.742878
O O12 0.466190 0.741115 0.756268
O O13 0.217971 0.753055 0.751104
O O14 0.368029 0.721027 0.002313
#
# Coordination Sequence:
#
# PCOD9216340 Si02
#       8
#     4   4   8   4   8   4   8   8
#     4   9  17  35  57  83 123 165 199 251 302 362
#     4   9  18  34  58  88 122 158 202 251 310 364
#     4  11  21  40  63  91 127 165 206 258 317 372
#     4  10  23  38  62  93 128 167 211 257 310 381
#     4  12  24  41  61  93 126 166 206 258 311 377
#     4  12  22  39  62  92 128 169 211 254 314 381
#     4  10  22  44  69  90 126 166 212 262 321 378
#     4  10  23  44  66  94 125 166 211 266 317 381
#
# _framework density 20.541297
#
# number of rings (size 3 to 8) (size 9 to 14) (size 15 to 20)
#    0.000    1.500    3.333    2.500    0.000    2.000 
#    1.500    0.833    0.000    0.000    0.000    0.000 
#    0.000    0.000    0.000    0.000    0.000    0.000 
#
# Total GULP energy -133948.317807 kJ/mol
# GULP energy per Si atom -5581.179909 kJ/mol
# Density = 2.049454 g / cm^3
# Si number density = 20.541297 Si / 1000 Ang^3
#
#
#
# Elastic Constant Matrix: (Units=GPa)
#
#
# Indices 1 2 3 4 5 6 
#
# 1 127.9640 47.3672 11.2389 0.0000 10.8048 0.0000
# 2 47.3672 77.1138 9.6632 0.0000 8.1129 0.0000
# 3 11.2389 9.6632 26.9041 0.0000 2.7665 0.0000
# 4 0.0000 0.0000 0.0000 108.9080 0.0000 -39.5367
# 5 10.8048 8.1129 2.7665 0.0000 26.8665 0.0000
# 6 0.0000 0.0000 0.0000 -39.5367 0.0000 0.5549
#
#
#
# Elastic Compliance Matrix: (Units=1/GPa)
#
#
# Indices 1 2 3 4 5 6 
#
# 1 0.010350 -0.005879 -0.001988 0.000000 -0.002182 0.000000
# 2 -0.005879 0.017279 -0.003494 0.000000 -0.002494 0.000000
# 3 -0.001988 -0.003494 0.039482 0.000000 -0.002211 0.000000
# 4 0.000000 0.000000 0.000000 -0.000369 0.000000 -0.026310
# 5 -0.002182 -0.002494 -0.002211 0.000000 0.039080 0.000000
# 6 0.000000 0.000000 0.000000 -0.026310 0.000000 -0.072474
#
#
# Mechanical properties :
#
#
# Convention : Reuss Voigt Hill
#
# Bulk Modulus (GPa) = 22.52762 40.94670 31.73716
# Shear Modulus (GPa) = 70.55844 38.18005 54.36925
#
# Velocity S-wave (km/s) = 5.86721 4.31594 5.15031
# Velocity P-wave (km/s) = 7.54252 6.69429 7.13103
#
# Compressibility (1/GPa) = 0.04438996
#
# Stress axis : x y z
#
# Youngs Moduli (GPa) = 96.62259 57.87396 25.32820
#
# Poissons Ratio (x) = 0.34021 0.05034
# Poissons Ratio (y) = 0.56800 0.08850
# Poissons Ratio (z) = 0.19205 0.20221
#
# Static dielectric constant tensor:
#      x y z
#    x 1.849050 0.000000 0.016010 
#    y 0.000000 1.687430 0.000000 
#    z 0.016010 0.000000 1.707980 
# 
# From -- ./inp_files/51534.got.cif
#   From: 2010.05.17/outbox.cif.g08.bks.cpg/sg12_26_cif.got.tgz:51534.got - 2010.06.03 13:09:07.
