data_PCOD9216640
_publ_section_title
;
Structure prediction by ZEFSAII (Michael W. Deem and Ramdas Pophale) SiO2 
 PCOD9216640
Probable space group: C 2/M
;
_chemical_formula_sum "Si O2"
_cell_formula_units_Z 48
_cell_length_a 11.221847
_cell_length_b 22.662110
_cell_length_c 9.453644
_cell_angle_alpha 90.000000
_cell_angle_beta 108.712655
_cell_angle_gamma 90.000000
_cell_volume 2277.077710
_symmetry_space_group_name_H-M "C 2/M"
_symmetry_group_IT_number 12
_symmetry_cell_setting 'monoclinic'
loop_
_space_group_symop_operation_xyz
x,y,z
-x,y,-z
-x,-y,-z
x,-y,z
1/2+x,1/2+y,z
1/2-x,1/2+y,-z
1/2-x,1/2-y,-z
1/2+x,1/2-y,z
loop_
_atom_site_type_symbol
_atom_site_label
_atom_site_fract_x
_atom_site_fract_y
_atom_site_fract_z
Si Si1 0.222632 0.638303 0.733356
Si Si2 0.969177 0.933552 0.823824
Si Si3 0.626253 0.392600 0.640099
Si Si4 0.849556 0.242628 0.407242
Si Si5 0.431695 0.068330 0.119105
Si Si6 0.358837 0.934951 0.558142
O O1 0.363757 0.616078 0.756466
O O2 0.194879 0.707324 0.718799
O O3 0.179181 0.608525 0.862757
O O4 0.146467 0.612007 0.569451
O O5 0.090978 0.918325 0.778205
O O6 0.923874 0.000000 0.768593
O O7 0.000000 0.933285 0.000000
O O8 0.500000 0.397660 0.500000
O O9 0.662919 0.323783 0.654923
O O10 0.733019 0.428089 0.601001
O O11 0.750000 0.250000 0.500000
O O12 0.000000 0.250568 0.500000
O O13 0.532819 0.071081 0.284564
O O14 0.391179 0.000000 0.086409
O O15 0.500000 0.086689 0.000000
O O16 0.365173 0.000000 0.494928
#
# Coordination Sequence:
#
# PCOD9216640 Si02
#       6
#     8   8   8   8   8   8
#     4  12  22  40  65  94 123 167 218 269 324 390
#     4  11  25  43  65  94 134 175 213 270 339 399
#     4  11  22  40  64  95 124 164 218 267 320 384
#     4  11  22  41  67  98 134 173 219 278 336 389
#     4  10  23  39  57  87 127 166 205 256 323 390
#     4  11  21  35  62  92 121 158 211 271 318 379
#
# _framework density 21.079647999999999
#
# number of rings (size 3 to 8) (size 9 to 14) (size 15 to 20)
#    0.000    1.000    3.333    4.500    2.333    2.000 
#    0.000    1.667    0.000    0.000    0.000    0.000 
#    0.000    0.000    0.000    0.000    0.000    0.000 
#
# Total GULP energy -134170.977335 kJ/mol
# GULP energy per Si atom -5590.457389 kJ/mol
# Density = 2.103167 g / cm^3
# Si number density = 21.079648 Si / 1000 Ang^3
#
#
#
# Elastic Constant Matrix: (Units=GPa)
#
#
# Indices 1 2 3 4 5 6 
#
# 1 112.3020 24.4567 15.8112 0.0000 -32.5328 0.0000
# 2 24.4567 79.6436 11.0844 0.0000 -1.8601 0.0000
# 3 15.8112 11.0844 71.0198 0.0000 -30.7372 0.0000
# 4 0.0000 0.0000 0.0000 -13.1920 0.0000 -20.4265
# 5 -32.5328 -1.8601 -30.7372 0.0000 47.4405 0.0000
# 6 0.0000 0.0000 0.0000 -20.4265 0.0000 21.1328
#
#
#
# Elastic Compliance Matrix: (Units=1/GPa)
#
#
# Indices 1 2 3 4 5 6 
#
# 1 0.012209 -0.003804 0.001994 0.000000 0.009515 0.000000
# 2 -0.003804 0.014062 -0.003110 0.000000 -0.004073 0.000000
# 3 0.001994 -0.003110 0.020374 0.000000 0.014446 0.000000
# 4 0.000000 0.000000 0.000000 -0.030362 0.000000 -0.029347
# 5 0.009515 -0.004073 0.014446 0.000000 0.036804 0.000000
# 6 0.000000 0.000000 0.000000 -0.029347 0.000000 0.018953
#
#
# Mechanical properties :
#
#
# Convention : Reuss Voigt Hill
#
# Bulk Modulus (GPa) = 27.17166 40.62997 33.90082
# Shear Modulus (GPa) = 53.10676 25.18378 39.14527
#
# Velocity S-wave (km/s) = 5.02475 3.46019 4.31399
# Velocity P-wave (km/s) = 6.82511 5.93971 6.39775
#
# Compressibility (1/GPa) = 0.03680305
#
# Stress axis : x y z
#
# Youngs Moduli (GPa) = 81.90874 71.11403 49.08122
#
# Poissons Ratio (x) = 0.27054 -0.09785
# Poissons Ratio (y) = 0.31160 0.15266
# Poissons Ratio (z) = -0.16330 0.22120
#
# Static dielectric constant tensor:
#      x y z
#    x 1.809550 0.000000 0.005190 
#    y 0.000000 1.738810 0.000000 
#    z 0.005190 0.000000 1.749740 
# 
# From -- ./inp_files/50591.got.cif
#   From: 2010.05.17/outbox.cif.g08.bks.cpg/sg12_26_cif.got.tgz:50591.got - 2010.06.03 13:09:07.
