data_PCOD9216515
_publ_section_title
;
Structure prediction by ZEFSAII (Michael W. Deem and Ramdas Pophale) SiO2 
 PCOD9216515
Probable space group: C 2/M
;
_chemical_formula_sum "Si O2"
_cell_formula_units_Z 64
_cell_length_a 17.257446
_cell_length_b 13.826667
_cell_length_c 15.110171
_cell_angle_alpha 90.000000
_cell_angle_beta 131.295660
_cell_angle_gamma 90.000000
_cell_volume 2708.850015
_symmetry_space_group_name_H-M "C 2/M"
_symmetry_group_IT_number 12
_symmetry_cell_setting 'monoclinic'
loop_
_space_group_symop_operation_xyz
x,y,z
-x,y,-z
-x,-y,-z
x,-y,z
1/2+x,1/2+y,z
1/2-x,1/2+y,-z
1/2-x,1/2-y,-z
1/2+x,1/2-y,z
loop_
_atom_site_type_symbol
_atom_site_label
_atom_site_fract_x
_atom_site_fract_y
_atom_site_fract_z
Si Si1 0.778478 0.388307 0.443179
Si Si2 0.097341 0.690605 0.889593
Si Si3 0.737955 0.109966 0.252054
Si Si4 0.497690 0.202917 0.641792
Si Si5 0.604282 0.265015 0.078765
Si Si6 0.287758 0.888293 0.247976
Si Si7 0.194620 0.892986 0.903235
Si Si8 0.384991 0.386023 0.530492
O O1 0.796750 0.500000 0.479942
O O2 0.888837 0.338113 0.528828
O O3 0.744543 0.383695 0.315728
O O4 0.692367 0.355797 0.447953
O O5 0.131161 0.799014 0.884724
O O6 0.011304 0.668400 0.753426
O O7 0.070910 0.696714 0.972083
O O8 0.195348 0.620099 0.964265
O O9 0.651303 0.193246 0.188000
O O10 0.782669 0.114128 0.185459
O O11 0.823229 0.127520 0.391986
O O12 0.699094 0.000000 0.236317
O O13 0.600960 0.162411 0.674288
O O14 0.483244 0.317051 0.613797
O O15 0.702109 0.330878 0.128821
O O16 0.500000 0.328267 0.000000
O O17 0.298938 0.000000 0.232268
O O18 0.151210 0.000000 0.888419
O O19 0.410405 0.500000 0.557609
#
# Coordination Sequence:
#
# PCOD9216515 Si02
#       8
#     8   8   8   8   8   8   8   8
#     4  10  23  42  67  98 133 174 220 269 326 392
#     4  10  23  36  55  94 121 158 214 255 313 390
#     4   9  19  39  66  94 127 167 212 261 319 386
#     4  12  23  38  67  98 136 173 214 270 329 389
#     4  11  25  42  66  92 128 172 220 276 329 388
#     4  11  25  45  67  96 132 172 224 276 329 389
#     4   9  18  38  61  83 122 164 201 259 316 373
#     4  10  23  42  67 101 136 174 219 266 326 397
#
# _framework density 23.626262000000001
#
# number of rings (size 3 to 8) (size 9 to 14) (size 15 to 20)
#    0.000    1.750    0.000    4.125    3.500    5.500 
#    0.000    0.625    0.000    8.250    0.000    0.000 
#    0.000    0.000    0.000    0.000    0.000    0.000 
#
# Total GULP energy -178721.730472 kJ/mol
# GULP energy per Si atom -5585.054077 kJ/mol
# Density = 2.357249 g / cm^3
# Si number density = 23.626262 Si / 1000 Ang^3
#
#
#
# Elastic Constant Matrix: (Units=GPa)
#
#
# Indices 1 2 3 4 5 6 
#
# 1 65.5405 33.5923 24.5533 0.0000 -0.2490 0.0000
# 2 33.5923 116.7673 31.5708 0.0000 23.6405 0.0000
# 3 24.5533 31.5708 95.7177 0.0000 -5.7569 0.0000
# 4 0.0000 0.0000 0.0000 16.9337 0.0000 -10.3733
# 5 -0.2490 23.6405 -5.7569 0.0000 41.9939 0.0000
# 6 0.0000 0.0000 0.0000 -10.3733 0.0000 16.4601
#
#
#
# Elastic Compliance Matrix: (Units=1/GPa)
#
#
# Indices 1 2 3 4 5 6 
#
# 1 0.019063 -0.005200 -0.003017 0.000000 0.002627 0.000000
# 2 -0.005200 0.012445 -0.003220 0.000000 -0.007478 0.000000
# 3 -0.003017 -0.003220 0.012494 0.000000 0.003508 0.000000
# 4 0.000000 0.000000 0.000000 0.096187 0.000000 0.060618
# 5 0.002627 -0.007478 0.003508 0.000000 0.028519 0.000000
# 6 0.000000 0.000000 0.000000 0.060618 0.000000 0.098955
#
#
# Mechanical properties :
#
#
# Convention : Reuss Voigt Hill
#
# Bulk Modulus (GPa) = 47.33239 50.82870 49.08054
# Shear Modulus (GPa) = 16.80206 27.63146 22.21676
#
# Velocity S-wave (km/s) = 2.66965 3.42354 3.06983
# Velocity P-wave (km/s) = 5.43875 6.09818 5.77788
#
# Compressibility (1/GPa) = 0.02112718
#
# Stress axis : x y z
#
# Youngs Moduli (GPa) = 52.45663 80.35414 80.03543
#
# Poissons Ratio (x) = 0.41788 0.24145
# Poissons Ratio (y) = 0.27280 0.25775
# Poissons Ratio (z) = 0.15825 0.25878
#
# Static dielectric constant tensor:
#      x y z
#    x 2.042420 0.000000 0.024460 
#    y 0.000000 1.918330 0.000000 
#    z 0.024460 0.000000 1.895050 
# 
# From -- ./inp_files/278181.got.cif
#   From: 2010.05.17/outbox.cif.g08.bks.cpg/sg12_140_cif.got.tgz:278181.got - 2010.06.03 13:09:07.
