data_PCOD9216973
_publ_section_title
;
Structure prediction by ZEFSAII (Michael W. Deem and Ramdas Pophale) SiO2 
 PCOD9216973
Probable space group: C 2/M
;
_chemical_formula_sum "Si O2"
_cell_formula_units_Z 56
_cell_length_a 22.056991
_cell_length_b 15.305053
_cell_length_c 9.510796
_cell_angle_alpha 90.000000
_cell_angle_beta 130.788105
_cell_angle_gamma 90.000000
_cell_volume 2430.909680
_symmetry_space_group_name_H-M "C 2/M"
_symmetry_group_IT_number 12
_symmetry_cell_setting 'monoclinic'
loop_
_space_group_symop_operation_xyz
x,y,z
-x,y,-z
-x,-y,-z
x,-y,z
1/2+x,1/2+y,z
1/2-x,1/2+y,-z
1/2-x,1/2-y,-z
1/2+x,1/2-y,z
loop_
_atom_site_type_symbol
_atom_site_label
_atom_site_fract_x
_atom_site_fract_y
_atom_site_fract_z
Si Si1 0.748675 0.853396 0.303289
Si Si2 0.193891 0.843124 0.211627
Si Si3 0.069268 0.602726 0.720775
Si Si4 0.414367 0.398174 0.709957
Si Si5 0.748716 0.896920 0.976927
Si Si6 0.988584 0.721921 0.815844
Si Si7 0.652213 0.907811 0.407058
O O1 0.721582 0.754270 0.290934
O O2 0.834439 0.879707 0.497346
O O3 0.682500 0.905652 0.292035
O O4 0.752978 0.869424 0.144822
O O5 0.116184 0.873745 0.178722
O O6 0.191747 0.851182 0.041209
O O7 0.267229 0.901326 0.380130
O O8 0.070176 0.500000 0.764917
O O9 0.157071 0.621605 0.792352
O O10 0.000000 0.614391 0.500000
O O11 0.053515 0.668704 0.825232
O O12 0.437179 0.500000 0.735441
O O13 0.478065 0.324007 0.765229
O O14 0.762935 0.000000 0.989650
O O15 0.905711 0.672594 0.653919
O O16 0.000000 0.711212 0.000000
O O17 0.610574 0.000000 0.374870
#
# Coordination Sequence:
#
# PCOD9216973 Si02
#       7
#     8   8   8   8   8   8   8
#     4  11  20  37  59  91 121 155 197 252 310 360
#     4  11  20  38  62  92 122 158 194 245 312 368
#     4  10  23  41  62  91 128 166 198 235 299 372
#     4  11  23  42  64  88 119 159 207 255 301 353
#     4  11  22  36  59  94 125 155 195 247 308 367
#     4  12  24  40  61  88 123 161 210 251 292 351
#     4  11  20  36  61  88 122 157 191 245 308 364
#
# _framework density 23.036643000000002
#
# number of rings (size 3 to 8) (size 9 to 14) (size 15 to 20)
#    0.000    1.000    2.857    6.857    0.000    3.714 
#    0.000    0.000    0.000    0.429    0.000    0.000 
#    0.000    0.000    0.000    0.000    0.000    0.000 
#
# Total GULP energy -156711.858561 kJ/mol
# GULP energy per Si atom -5596.852091 kJ/mol
# Density = 2.298421 g / cm^3
# Si number density = 23.036643 Si / 1000 Ang^3
#
#
#
# Elastic Constant Matrix: (Units=GPa)
#
#
# Indices 1 2 3 4 5 6 
#
# 1 51.6514 26.9050 18.6717 0.0000 -19.9104 0.0000
# 2 26.9050 169.1396 12.0807 0.0000 -7.8878 0.0000
# 3 18.6717 12.0807 61.8218 0.0000 -10.1236 0.0000
# 4 0.0000 0.0000 0.0000 17.4765 0.0000 -6.5404
# 5 -19.9104 -7.8878 -10.1236 0.0000 35.9701 0.0000
# 6 0.0000 0.0000 0.0000 -6.5404 0.0000 15.8969
#
#
#
# Elastic Compliance Matrix: (Units=1/GPa)
#
#
# Indices 1 2 3 4 5 6 
#
# 1 0.028381 -0.003485 -0.005706 0.000000 0.013339 0.000000
# 2 -0.003485 0.006461 -0.000308 0.000000 -0.000599 0.000000
# 3 -0.005706 -0.000308 0.018273 0.000000 0.001917 0.000000
# 4 0.000000 0.000000 0.000000 0.067633 0.000000 0.027826
# 5 0.013339 -0.000599 0.001917 0.000000 0.035593 0.000000
# 6 0.000000 0.000000 0.000000 0.027826 0.000000 0.074354
#
#
# Mechanical properties :
#
#
# Convention : Reuss Voigt Hill
#
# Bulk Modulus (GPa) = 29.31187 44.21418 36.76302
# Shear Modulus (GPa) = 19.15241 28.86574 24.00907
#
# Velocity S-wave (km/s) = 2.88651 3.54367 3.23183
# Velocity P-wave (km/s) = 4.88476 5.99817 5.46987
#
# Compressibility (1/GPa) = 0.03411587
#
# Stress axis : x y z
#
# Youngs Moduli (GPa) = 35.23541 154.78243 54.72551
#
# Poissons Ratio (x) = 0.53939 0.31228
# Poissons Ratio (y) = 0.12279 0.01686
# Poissons Ratio (z) = 0.20106 0.04768
#
# Static dielectric constant tensor:
#      x y z
#    x 1.838700 0.000000 0.001150 
#    y 0.000000 1.868900 0.000000 
#    z 0.001150 0.000000 1.883510 
# 
# From -- ./inp_files/96511.got.cif
#   From: 2010.05.17/outbox.cif.g08.bks.cpg/sg12_49_cif.got.tgz:96511.got - 2010.06.03 13:09:07.
