data_PCOD9216174
_publ_section_title
;
Structure prediction by ZEFSAII (Michael W. Deem and Ramdas Pophale) SiO2 
 PCOD9216174
Probable space group: C 2/M
;
_chemical_formula_sum "Si O2"
_cell_formula_units_Z 40
_cell_length_a 28.984348
_cell_length_b 13.964449
_cell_length_c 8.849958
_cell_angle_alpha 90.000000
_cell_angle_beta 33.321264
_cell_angle_gamma 90.000000
_cell_volume 1967.724148
_symmetry_space_group_name_H-M "C 2/M"
_symmetry_group_IT_number 12
_symmetry_cell_setting 'monoclinic'
loop_
_space_group_symop_operation_xyz
x,y,z
-x,y,-z
-x,-y,-z
x,-y,z
1/2+x,1/2+y,z
1/2-x,1/2+y,-z
1/2-x,1/2-y,-z
1/2+x,1/2-y,z
loop_
_atom_site_type_symbol
_atom_site_label
_atom_site_fract_x
_atom_site_fract_y
_atom_site_fract_z
Si Si1 0.093878 0.000000 0.814999
Si Si2 0.260996 0.500000 0.968509
Si Si3 0.939368 0.500000 0.517834
Si Si4 0.225101 0.000000 0.711009
Si Si5 0.859694 0.167325 0.530625
Si Si6 0.819004 0.307739 0.395246
Si Si7 0.498535 0.808470 0.185643
O O1 0.126306 0.097954 0.651021
O O2 0.134722 0.000000 0.871064
O O3 0.000000 0.000000 0.000000
O O4 0.304872 0.597796 0.785344
O O5 0.162580 0.500000 0.188817
O O6 0.278283 0.500000 0.099199
O O7 0.000000 0.500000 0.500000
O O8 0.962313 0.402378 0.364978
O O9 0.283131 0.912440 0.504146
O O10 0.824875 0.263697 0.548616
O O11 0.946221 0.211054 0.362641
O O12 0.750000 0.250000 0.500000
O O13 0.902257 0.299321 0.064922
O O14 0.500000 0.823109 0.000000
#
# Coordination Sequence:
#
# PCOD9216174 Si02
#       7
#     4   4   4   4   8   8   8
#     4  11  21  41  67  97 131 171 238 279 330 389
#     4  11  26  47  65  98 149 180 222 268 353 422
#     4  12  27  42  67 101 141 181 214 283 348 412
#     4  12  25  40  71 104 132 181 217 286 343 412
#     4  10  23  42  67  95 133 183 220 284 330 403
#     4  11  22  39  71 100 126 169 235 283 330 388
#     4  10  22  43  67  97 127 172 229 282 332 387
#
# _framework density 20.328052
#
# number of rings (size 3 to 8) (size 9 to 14) (size 15 to 20)
#    0.000    1.200    2.000    5.100    2.800    3.200 
#    0.000    2.000    0.000    0.000    0.000    0.000 
#    0.000    0.000    0.000    0.000    0.000    0.000 
#
# Total GULP energy -111348.318173 kJ/mol
# GULP energy per Si atom -5567.415909 kJ/mol
# Density = 2.028178 g / cm^3
# Si number density = 20.328052 Si / 1000 Ang^3
#
#
#
# Elastic Constant Matrix: (Units=GPa)
#
#
# Indices 1 2 3 4 5 6 
#
# 1 103.6869 42.0861 65.6176 0.0000 -25.4959 0.0000
# 2 42.0861 172.0970 76.3126 0.0000 -13.2224 0.0000
# 3 65.6176 76.3126 137.9083 0.0000 -25.9661 0.0000
# 4 0.0000 0.0000 0.0000 47.0000 0.0000 0.4395
# 5 -25.4959 -13.2224 -25.9661 0.0000 23.8673 0.0000
# 6 0.0000 0.0000 0.0000 0.4395 0.0000 23.7443
#
#
#
# Elastic Compliance Matrix: (Units=1/GPa)
#
#
# Indices 1 2 3 4 5 6 
#
# 1 0.015864 -0.000803 -0.005027 0.000000 0.011034 0.000000
# 2 -0.000803 0.007745 -0.004096 0.000000 -0.001024 0.000000
# 3 -0.005027 -0.004096 0.013169 0.000000 0.006688 0.000000
# 4 0.000000 0.000000 0.000000 0.021280 0.000000 -0.000394
# 5 0.011034 -0.001024 0.006688 0.000000 0.060394 0.000000
# 6 0.000000 0.000000 0.000000 -0.000394 0.000000 0.042123
#
#
# Mechanical properties :
#
#
# Convention : Reuss Voigt Hill
#
# Bulk Modulus (GPa) = 59.07983 86.85833 72.96908
# Shear Modulus (GPa) = 26.87178 34.23403 30.55291
#
# Velocity S-wave (km/s) = 3.63975 4.10820 3.88105
# Velocity P-wave (km/s) = 6.84032 8.08234 7.48713
#
# Compressibility (1/GPa) = 0.01692625
#
# Stress axis : x y z
#
# Youngs Moduli (GPa) = 63.03384 129.11840 75.93656
#
# Poissons Ratio (x) = 0.10368 0.38171
# Poissons Ratio (y) = 0.05061 0.31106
# Poissons Ratio (z) = 0.31685 0.52891
#
# Static dielectric constant tensor:
#      x y z
#    x 1.791600 0.000000 -0.012300 
#    y 0.000000 1.717270 0.000000 
#    z -0.012300 0.000000 1.707230 
# 
# From -- ./inp_files/111876.got.cif
#   From: 2010.05.17/outbox.cif.g08.bks.cpg/sg12_56_cif.got.tgz:111876.got - 2010.06.03 13:09:07.
