data_PCOD9216487
_publ_section_title
;
Structure prediction by ZEFSAII (Michael W. Deem and Ramdas Pophale) SiO2 
 PCOD9216487
Probable space group: C 2/M
;
_chemical_formula_sum "Si O2"
_cell_formula_units_Z 36
_cell_length_a 16.358840
_cell_length_b 8.584128
_cell_length_c 12.521880
_cell_angle_alpha 90.000000
_cell_angle_beta 67.452028
_cell_angle_gamma 90.000000
_cell_volume 1623.987858
_symmetry_space_group_name_H-M "C 2/M"
_symmetry_group_IT_number 12
_symmetry_cell_setting 'monoclinic'
loop_
_space_group_symop_operation_xyz
x,y,z
-x,y,-z
-x,-y,-z
x,-y,z
1/2+x,1/2+y,z
1/2-x,1/2+y,-z
1/2-x,1/2-y,-z
1/2+x,1/2-y,z
loop_
_atom_site_type_symbol
_atom_site_label
_atom_site_fract_x
_atom_site_fract_y
_atom_site_fract_z
Si Si1 0.910608 0.500000 0.615390
Si Si2 0.028917 0.735460 0.244578
Si Si3 0.220842 0.000000 0.625293
Si Si4 0.651809 0.826372 0.769173
Si Si5 0.161914 0.818905 0.992795
Si Si6 0.940667 0.000000 0.425012
O O1 0.912521 0.641190 0.699304
O O2 0.827173 0.500000 0.578167
O O3 0.000000 0.500000 0.500000
O O4 0.088042 0.805171 0.121133
O O5 0.946198 0.655353 0.229099
O O6 0.977281 0.855793 0.342381
O O7 0.194249 0.832985 0.695420
O O8 0.165753 0.000000 0.540876
O O9 0.695584 0.000000 0.736087
O O10 0.642465 0.782011 0.898058
O O11 0.172546 0.000000 0.957205
O O12 0.250000 0.750000 0.000000
O O13 0.000000 0.000000 0.500000
#
# Coordination Sequence:
#
# PCOD9216487 Si02
#       6
#     4   8   4   8   8   4
#     4  12  26  48  70 102 143 191 242 300 361 427
#     4  11  24  43  70  97 141 186 234 296 361 422
#     4  10  24  47  76 104 148 188 233 305 364 428
#     4  11  23  43  73 106 142 184 237 290 363 438
#     4  12  25  40  65 105 147 188 232 289 360 440
#     4  10  22  47  75 104 131 183 250 303 358 419
#
# _framework density 22.167653000000001
#
# number of rings (size 3 to 8) (size 9 to 14) (size 15 to 20)
#    0.000    0.889    3.333    3.333    3.111    1.778 
#    2.000   12.222    0.000    0.000    0.000    0.000 
#    0.000    0.000    0.000    0.000    0.000    0.000 
#
# Total GULP energy -100353.678656 kJ/mol
# GULP energy per Si atom -5575.204370 kJ/mol
# Density = 2.211720 g / cm^3
# Si number density = 22.167653 Si / 1000 Ang^3
#
#
#
# Elastic Constant Matrix: (Units=GPa)
#
#
# Indices 1 2 3 4 5 6 
#
# 1 170.2736 45.3718 61.6140 0.0000 20.3862 0.0000
# 2 45.3718 149.0922 29.5463 0.0000 9.9321 0.0000
# 3 61.6140 29.5463 93.5288 0.0000 25.7163 0.0000
# 4 0.0000 0.0000 0.0000 2.0488 0.0000 3.5473
# 5 20.3862 9.9321 25.7163 0.0000 41.8835 0.0000
# 6 0.0000 0.0000 0.0000 3.5473 0.0000 23.1952
#
#
#
# Elastic Compliance Matrix: (Units=1/GPa)
#
#
# Indices 1 2 3 4 5 6 
#
# 1 0.008025 -0.001478 -0.004623 0.000000 -0.000717 0.000000
# 2 -0.001478 0.007432 -0.001308 0.000000 -0.000240 0.000000
# 3 -0.004623 -0.001308 0.016178 0.000000 -0.007373 0.000000
# 4 0.000000 0.000000 0.000000 0.663887 0.000000 -0.101530
# 5 -0.000717 -0.000240 -0.007373 0.000000 0.028809 0.000000
# 6 0.000000 0.000000 0.000000 -0.101530 0.000000 0.058640
#
#
# Mechanical properties :
#
#
# Convention : Reuss Voigt Hill
#
# Bulk Modulus (GPa) = 59.46321 76.21764 67.84043
# Shear Modulus (GPa) = 6.22359 31.84967 19.03663
#
# Velocity S-wave (km/s) = 1.67738 3.79458 2.93363
# Velocity P-wave (km/s) = 5.53480 7.32499 6.49190
#
# Compressibility (1/GPa) = 0.01681712
#
# Stress axis : x y z
#
# Youngs Moduli (GPa) = 124.60358 134.54655 61.81406
#
# Poissons Ratio (x) = 0.19892 0.28574
# Poissons Ratio (y) = 0.18422 0.08086
# Poissons Ratio (z) = 0.57600 0.17600
#
# Static dielectric constant tensor:
#      x y z
#    x 1.874250 0.000000 0.025970 
#    y 0.000000 1.907010 0.000000 
#    z 0.025970 0.000000 1.834210 
# 
# From -- ./inp_files/151583.got.cif
#   From: 2010.05.17/outbox.cif.g08.bks.cpg/sg12_76_cif.got.tgz:151583.got - 2010.06.03 13:09:07.
