data_PCOD9216430
_publ_section_title
;
Structure prediction by ZEFSAII (Michael W. Deem and Ramdas Pophale) SiO2 
 PCOD9216430
Probable space group: C 2/M
;
_chemical_formula_sum "Si O2"
_cell_formula_units_Z 28
_cell_length_a 9.447865
_cell_length_b 17.723342
_cell_length_c 7.609048
_cell_angle_alpha 90.000000
_cell_angle_beta 65.310406
_cell_angle_gamma 90.000000
_cell_volume 1157.643218
_symmetry_space_group_name_H-M "C 2/M"
_symmetry_group_IT_number 12
_symmetry_cell_setting 'monoclinic'
loop_
_space_group_symop_operation_xyz
x,y,z
-x,y,-z
-x,-y,-z
x,-y,z
1/2+x,1/2+y,z
1/2-x,1/2+y,-z
1/2-x,1/2-y,-z
1/2+x,1/2-y,z
loop_
_atom_site_type_symbol
_atom_site_label
_atom_site_fract_x
_atom_site_fract_y
_atom_site_fract_z
Si Si1 0.152470 0.586157 0.187786
Si Si2 0.326528 0.655713 0.799326
Si Si3 0.000000 0.686801 0.000000
Si Si4 0.177973 0.829804 0.587737
O O1 0.110729 0.500000 0.240331
O O2 0.015438 0.633495 0.165945
O O3 0.219786 0.625722 0.325099
O O4 0.283896 0.593866 0.966729
O O5 0.330618 0.628452 0.596266
O O6 0.500225 0.684945 0.745206
O O7 0.179137 0.714247 0.893174
O O8 0.250000 0.750000 0.500000
#
# Coordination Sequence:
#
# PCOD9216430 Si02
#       4
#     8   8   4   8
#     4  10  22  45  72 102 139 185 235 293 354 414
#     4   9  23  44  65  98 137 180 233 291 346 417
#     4   8  21  42  68 102 132 184 229 292 345 412
#     4  11  24  43  68 102 141 187 236 287 353 421
#
# _framework density 24.187073999999999
#
# number of rings (size 3 to 8) (size 9 to 14) (size 15 to 20)
#    1.714    0.571    0.000    1.286    0.000   10.286 
#    5.143    4.286    0.000    0.000    0.000    0.000 
#    0.000    0.000    0.000    0.286    0.000    0.000 
#
# Total GULP energy -78062.356656 kJ/mol
# GULP energy per Si atom -5575.882618 kJ/mol
# Density = 2.413202 g / cm^3
# Si number density = 24.187074 Si / 1000 Ang^3
#
#
#
# Elastic Constant Matrix: (Units=GPa)
#
#
# Indices 1 2 3 4 5 6 
#
# 1 166.3693 15.4151 31.1577 0.0000 7.1822 0.0000
# 2 15.4151 57.2401 7.2402 0.0000 21.4541 0.0000
# 3 31.1577 7.2402 96.0413 0.0000 21.0004 0.0000
# 4 0.0000 0.0000 0.0000 13.2980 0.0000 4.8124
# 5 7.1822 21.4541 21.0004 0.0000 78.7124 0.0000
# 6 0.0000 0.0000 0.0000 4.8124 0.0000 24.0864
#
#
#
# Elastic Compliance Matrix: (Units=1/GPa)
#
#
# Indices 1 2 3 4 5 6 
#
# 1 0.006537 -0.001650 -0.002086 0.000000 0.000410 0.000000
# 2 -0.001650 0.019884 0.000200 0.000000 -0.005323 0.000000
# 3 -0.002086 0.000200 0.011728 0.000000 -0.002993 0.000000
# 4 0.000000 0.000000 0.000000 0.081061 0.000000 -0.016196
# 5 0.000410 -0.005323 -0.002993 0.000000 0.014916 0.000000
# 6 0.000000 0.000000 0.000000 -0.016196 0.000000 0.044753
#
#
# Mechanical properties :
#
#
# Convention : Reuss Voigt Hill
#
# Bulk Modulus (GPa) = 32.17749 47.47519 39.82634
# Shear Modulus (GPa) = 25.46993 40.94186 33.20590
#
# Velocity S-wave (km/s) = 3.24858 4.11873 3.70926
# Velocity P-wave (km/s) = 5.23483 6.50304 5.90309
#
# Compressibility (1/GPa) = 0.03107763
#
# Stress axis : x y z
#
# Youngs Moduli (GPa) = 152.98577 50.29102 85.26384
#
# Poissons Ratio (x) = 0.08299 0.17784
# Poissons Ratio (y) = 0.25244 -0.01707
# Poissons Ratio (z) = 0.31910 -0.01007
#
# Static dielectric constant tensor:
#      x y z
#    x 1.961920 0.000000 -0.019260 
#    y 0.000000 1.941540 0.000000 
#    z -0.019260 0.000000 2.027180 
# 
# From -- ./inp_files/38184.got.cif
#   From: 2010.05.17/outbox.cif.g08.bks.cpg/sg12_20_cif.got.tgz:38184.got - 2010.06.03 13:09:07.
