data_PCOD9216095
_publ_section_title
;
Structure prediction by ZEFSAII (Michael W. Deem and Ramdas Pophale) SiO2 
 PCOD9216095
Probable space group: C 2/M
;
_chemical_formula_sum "Si O2"
_cell_formula_units_Z 40
_cell_length_a 9.652548
_cell_length_b 22.855124
_cell_length_c 9.318085
_cell_angle_alpha 90.000000
_cell_angle_beta 79.921150
_cell_angle_gamma 90.000000
_cell_volume 2023.941095
_symmetry_space_group_name_H-M "C 2/M"
_symmetry_group_IT_number 12
_symmetry_cell_setting 'monoclinic'
loop_
_space_group_symop_operation_xyz
x,y,z
-x,y,-z
-x,-y,-z
x,-y,z
1/2+x,1/2+y,z
1/2-x,1/2+y,-z
1/2-x,1/2-y,-z
1/2+x,1/2-y,z
loop_
_atom_site_type_symbol
_atom_site_label
_atom_site_fract_x
_atom_site_fract_y
_atom_site_fract_z
Si Si1 0.399432 0.124632 0.656303
Si Si2 0.190027 0.123817 0.095782
Si Si3 0.614555 0.659318 0.783641
Si Si4 0.841478 0.500000 0.097991
Si Si5 0.514602 0.000000 0.326177
Si Si6 0.069830 0.292604 0.832973
O O1 0.500000 0.125710 0.500000
O O2 0.236533 0.136810 0.657168
O O3 0.409320 0.060342 0.724358
O O4 0.462435 0.172114 0.753116
O O5 0.257262 0.059185 0.077940
O O6 0.295029 0.166912 0.161555
O O7 0.036461 0.128080 0.196451
O O8 0.168505 0.147091 0.937061
O O9 0.600774 0.728761 0.766111
O O10 0.870753 0.500000 0.263915
O O11 0.000000 0.500000 0.000000
O O12 0.500000 0.000000 0.500000
O O13 0.000000 0.282488 0.000000
#
# Coordination Sequence:
#
# PCOD9216095 Si02
#       6
#     8   8   8   4   4   8
#     4  11  24  41  65  90 122 166 211 254 310 371
#     4  11  22  36  62  96 123 156 207 262 307 360
#     4  11  23  38  60  95 128 162 199 259 318 359
#     4  12  22  38  65  99 120 156 211 265 305 370
#     4  10  22  43  65  83 119 166 210 244 300 374
#     4  12  20  40  67  90 124 168 210 247 306 382
#
# _framework density 19.763421000000001
#
# number of rings (size 3 to 8) (size 9 to 14) (size 15 to 20)
#    0.000    0.800    6.000    3.600    0.000    3.200 
#    0.000    1.000    0.000    2.400    0.000    0.000 
#    0.000    0.000    0.000    0.000    0.000    0.000 
#
# Total GULP energy -111726.461284 kJ/mol
# GULP energy per Si atom -5586.323064 kJ/mol
# Density = 1.971844 g / cm^3
# Si number density = 19.763421 Si / 1000 Ang^3
#
#
#
# Elastic Constant Matrix: (Units=GPa)
#
#
# Indices 1 2 3 4 5 6 
#
# 1 139.7930 57.4391 15.7559 0.0000 -36.3577 0.0000
# 2 57.4391 177.9450 1.6040 0.0000 -13.3915 0.0000
# 3 15.7559 1.6040 36.7149 0.0000 -19.1496 0.0000
# 4 0.0000 0.0000 0.0000 13.1078 0.0000 22.7044
# 5 -36.3577 -13.3915 -19.1496 0.0000 40.1439 0.0000
# 6 0.0000 0.0000 0.0000 22.7044 0.0000 29.5206
#
#
#
# Elastic Compliance Matrix: (Units=1/GPa)
#
#
# Indices 1 2 3 4 5 6 
#
# 1 0.010523 -0.002745 0.000130 0.000000 0.008677 0.000000
# 2 -0.002745 0.006508 0.000971 0.000000 0.000148 0.000000
# 3 0.000130 0.000971 0.036434 0.000000 0.017821 0.000000
# 4 0.000000 0.000000 0.000000 -0.229662 0.000000 0.176634
# 5 0.008677 0.000148 0.017821 0.000000 0.041320 0.000000
# 6 0.000000 0.000000 0.000000 0.176634 0.000000 -0.101975
#
#
# Mechanical properties :
#
#
# Convention : Reuss Voigt Hill
#
# Bulk Modulus (GPa) = 19.92964 56.00565 37.96764
# Shear Modulus (GPa) = -23.05869 35.19805 6.06968
#
# Velocity S-wave (km/s) = -3.41946 4.22473 1.75438
# Velocity P-wave (km/s) = 2.34185 7.22477 4.83286
#
# Compressibility (1/GPa) = 0.05017652
#
# Stress axis : x y z
#
# Youngs Moduli (GPa) = 95.02549 153.65266 27.44694
#
# Poissons Ratio (x) = 0.42179 -0.00356
# Poissons Ratio (y) = 0.26085 -0.02665
# Poissons Ratio (z) = -0.01232 -0.14918
#
# Static dielectric constant tensor:
#      x y z
#    x 1.702490 0.000000 -0.023720 
#    y 0.000000 1.725860 0.000000 
#    z -0.023720 0.000000 1.739740 
# 
# From -- ./inp_files/120182.got.cif
#   From: 2010.05.17/outbox.cif.g08.bks.cpg/sg12_61_cif.got.tgz:120182.got - 2010.06.03 13:09:07.
