data_PCOD9216841
_publ_section_title
;
Structure prediction by ZEFSAII (Michael W. Deem and Ramdas Pophale) SiO2 
 PCOD9216841
Probable space group: C 2/M
;
_chemical_formula_sum "Si O2"
_cell_formula_units_Z 48
_cell_length_a 18.072510
_cell_length_b 10.667270
_cell_length_c 12.242345
_cell_angle_alpha 90.000000
_cell_angle_beta 104.077997
_cell_angle_gamma 90.000000
_cell_volume 2289.247044
_symmetry_space_group_name_H-M "C 2/M"
_symmetry_group_IT_number 12
_symmetry_cell_setting 'monoclinic'
loop_
_space_group_symop_operation_xyz
x,y,z
-x,y,-z
-x,-y,-z
x,-y,z
1/2+x,1/2+y,z
1/2-x,1/2+y,-z
1/2-x,1/2-y,-z
1/2+x,1/2-y,z
loop_
_atom_site_type_symbol
_atom_site_label
_atom_site_fract_x
_atom_site_fract_y
_atom_site_fract_z
Si Si1 0.630060 0.000000 0.080043
Si Si2 0.707581 0.747687 0.162749
Si Si3 0.018492 0.500000 0.831111
Si Si4 0.294686 0.849656 0.592766
Si Si5 0.923919 0.143293 0.020635
Si Si6 0.589327 0.139718 0.545601
Si Si7 0.380924 0.784107 0.220657
O O1 0.684478 0.879206 0.096451
O O2 0.570002 0.000000 0.162085
O O3 0.573006 0.000000 0.957629
O O4 0.703375 0.788916 0.287346
O O5 0.790759 0.689472 0.170923
O O6 0.641760 0.659227 0.092875
O O7 0.050754 0.382936 0.775012
O O8 0.250000 0.750000 0.500000
O O9 0.375653 0.846945 0.561315
O O10 0.270986 0.000000 0.587601
O O11 0.898020 0.188853 0.129698
O O12 0.942048 0.000000 0.043890
O O13 0.000000 0.210385 0.000000
O O14 0.500000 0.141433 0.500000
O O15 0.614021 0.238841 0.647138
O O16 0.615998 0.000000 0.593299
#
# Coordination Sequence:
#
# PCOD9216841 Si02
#       7
#     4   8   4   8   8   8   8
#     4  11  24  42  65 102 132 172 230 283 340 405
#     4  12  25  40  70  99 132 175 223 283 336 408
#     4  11  24  40  68 101 134 171 227 290 343 406
#     4  11  24  44  68  98 136 177 225 280 344 411
#     4  11  27  45  64  93 135 179 221 277 350 420
#     4  10  23  40  65  99 132 170 222 287 343 399
#     4  12  24  40  69  98 136 171 224 280 345 410
#
# _framework density 20.967593000000001
#
# number of rings (size 3 to 8) (size 9 to 14) (size 15 to 20)
#    0.000    0.833    5.000    1.500    7.000    0.667 
#    0.000    0.000    0.000    1.000    0.000    0.000 
#    0.000    0.000    0.000    0.000    0.000    0.000 
#
# Total GULP energy -133694.133824 kJ/mol
# GULP energy per Si atom -5570.588909 kJ/mol
# Density = 2.091987 g / cm^3
# Si number density = 20.967593 Si / 1000 Ang^3
#
#
#
# Elastic Constant Matrix: (Units=GPa)
#
#
# Indices 1 2 3 4 5 6 
#
# 1 105.2717 7.0850 16.7037 0.0000 -2.2904 0.0000
# 2 7.0850 24.2072 16.7479 0.0000 -12.9093 0.0000
# 3 16.7037 16.7479 111.7763 0.0000 -17.6781 0.0000
# 4 0.0000 0.0000 0.0000 -6.4057 0.0000 9.4085
# 5 -2.2904 -12.9093 -17.6781 0.0000 36.3564 0.0000
# 6 0.0000 0.0000 0.0000 9.4085 0.0000 16.2494
#
#
#
# Elastic Compliance Matrix: (Units=1/GPa)
#
#
# Indices 1 2 3 4 5 6 
#
# 1 0.009844 -0.002487 -0.001235 0.000000 -0.000863 0.000000
# 2 -0.002487 0.054505 -0.005155 0.000000 0.016690 0.000000
# 3 -0.001235 -0.005155 0.010402 0.000000 0.003149 0.000000
# 4 0.000000 0.000000 0.000000 -0.084365 0.000000 0.048848
# 5 -0.000863 0.016690 0.003149 0.000000 0.034909 0.000000
# 6 0.000000 0.000000 0.000000 0.048848 0.000000 0.033258
#
#
# Mechanical properties :
#
#
# Convention : Reuss Voigt Hill
#
# Bulk Modulus (GPa) = 17.54524 35.81427 26.67975
# Shear Modulus (GPa) = 52.46277 22.62127 37.54202
#
# Velocity S-wave (km/s) = 5.00751 3.28818 4.23599
# Velocity P-wave (km/s) = 6.46680 5.61551 6.05614
#
# Compressibility (1/GPa) = 0.05699553
#
# Stress axis : x y z
#
# Youngs Moduli (GPa) = 101.58699 18.34685 96.13967
#
# Poissons Ratio (x) = 0.04563 0.11873
# Poissons Ratio (y) = 0.25266 0.49564
# Poissons Ratio (z) = 0.12545 0.09459
#
# Static dielectric constant tensor:
#      x y z
#    x 1.835100 0.000000 -0.070260 
#    y 0.000000 1.822480 0.000000 
#    z -0.070260 0.000000 1.808530 
# 
# From -- ./inp_files/154335.got.cif
#   From: 2010.05.17/outbox.cif.g08.bks.cpg/sg12_78_cif.got.tgz:154335.got - 2010.06.03 13:09:07.
