data_PCOD9216394
_publ_section_title
;
Structure prediction by ZEFSAII (Michael W. Deem and Ramdas Pophale) SiO2 
 PCOD9216394
Probable space group: C 2/M
;
_chemical_formula_sum "Si O2"
_cell_formula_units_Z 64
_cell_length_a 9.339083
_cell_length_b 14.463190
_cell_length_c 28.472421
_cell_angle_alpha 90.000000
_cell_angle_beta 128.883931
_cell_angle_gamma 90.000000
_cell_volume 2993.686245
_symmetry_space_group_name_H-M "C 2/M"
_symmetry_group_IT_number 12
_symmetry_cell_setting 'monoclinic'
loop_
_space_group_symop_operation_xyz
x,y,z
-x,y,-z
-x,-y,-z
x,-y,z
1/2+x,1/2+y,z
1/2-x,1/2+y,-z
1/2-x,1/2-y,-z
1/2+x,1/2-y,z
loop_
_atom_site_type_symbol
_atom_site_label
_atom_site_fract_x
_atom_site_fract_y
_atom_site_fract_z
Si Si1 0.580365 0.282177 0.791108
Si Si2 0.018940 0.397175 0.713240
Si Si3 0.341090 0.395066 0.500500
Si Si4 0.152233 0.887899 0.072113
Si Si5 0.485407 0.235705 0.875967
Si Si6 0.447255 0.154507 0.389875
Si Si7 0.925254 0.899445 0.683409
Si Si8 0.607754 0.645692 0.633561
O O1 0.575397 0.182846 0.762276
O O2 0.514158 0.278253 0.830598
O O3 0.790429 0.317303 0.833864
O O4 0.443858 0.350743 0.736669
O O5 0.100282 0.500000 0.738453
O O6 0.798525 0.404692 0.672398
O O7 0.039297 0.370643 0.662436
O O8 0.500000 0.354440 0.500000
O O9 0.307130 0.500000 0.476641
O O10 0.437503 0.397488 0.570677
O O11 0.145551 0.348003 0.454578
O O12 0.335951 0.835168 0.087834
O O13 0.063715 0.817893 0.094983
O O14 0.184716 0.000000 0.091437
O O15 0.000000 0.889455 0.000000
O O16 0.284034 0.093174 0.375866
O O17 0.362991 0.254517 0.381606
O O18 0.043117 0.838585 0.672782
O O19 0.010722 0.000000 0.701258
#
# Coordination Sequence:
#
# PCOD9216394 Si02
#       8
#     8   8   8   8   8   8   8   8
#     4  11  22  41  62  95 139 174 221 282 317 394
#     4  12  23  41  68  89 117 169 216 258 321 394
#     4  11  23  39  61  87 106 141 203 262 327 404
#     4  10  22  44  74 109 149 191 238 288 337 396
#     4  10  23  40  70 102 144 189 232 282 340 384
#     4  12  23  42  61  85 117 151 199 260 329 404
#     4  12  25  40  60  87 122 161 199 257 326 388
#     4  12  23  42  61  85 117 151 199 260 329 404
#
# _framework density 21.378323999999999
#
# number of rings (size 3 to 8) (size 9 to 14) (size 15 to 20)
#    0.000    0.750    3.750    4.500    0.000    3.500 
#    0.000    3.125    0.000    6.750    0.000    0.000 
#    0.000    0.000    0.000    0.000    0.000    0.000 
#
# Total GULP energy -178181.903289 kJ/mol
# GULP energy per Si atom -5568.184478 kJ/mol
# Density = 2.132967 g / cm^3
# Si number density = 21.378324 Si / 1000 Ang^3
#
#
#
# Elastic Constant Matrix: (Units=GPa)
#
#
# Indices 1 2 3 4 5 6 
#
# 1 108.7284 8.6355 30.3978 0.0000 16.6276 0.0000
# 2 8.6355 112.8607 14.0442 0.0000 9.5552 0.0000
# 3 30.3978 14.0442 80.4378 0.0000 12.5840 0.0000
# 4 0.0000 0.0000 0.0000 -7.1358 0.0000 11.5483
# 5 16.6276 9.5552 12.5840 0.0000 34.3453 0.0000
# 6 0.0000 0.0000 0.0000 11.5483 0.0000 18.6429
#
#
#
# Elastic Compliance Matrix: (Units=1/GPa)
#
#
# Indices 1 2 3 4 5 6 
#
# 1 0.010766 -0.000062 -0.003442 0.000000 -0.003934 0.000000
# 2 -0.000062 0.009197 -0.001259 0.000000 -0.002067 0.000000
# 3 -0.003442 -0.001259 0.014466 0.000000 -0.003284 0.000000
# 4 0.000000 0.000000 0.000000 -0.069982 0.000000 0.043350
# 5 -0.003934 -0.002067 -0.003284 0.000000 0.032799 0.000000
# 6 0.000000 0.000000 0.000000 0.043350 0.000000 0.026786
#
#
# Mechanical properties :
#
#
# Convention : Reuss Voigt Hill
#
# Bulk Modulus (GPa) = 40.15662 45.35354 42.75508
# Shear Modulus (GPa) = 119.44640 25.76711 72.60676
#
# Velocity S-wave (km/s) = 7.48291 3.47550 5.83408
# Velocity P-wave (km/s) = 9.66867 6.11279 8.08855
#
# Compressibility (1/GPa) = 0.02490249
#
# Stress axis : x y z
#
# Youngs Moduli (GPa) = 92.88394 108.73206 69.12607
#
# Poissons Ratio (x) = 0.00678 0.23795
# Poissons Ratio (y) = 0.00579 0.08701
# Poissons Ratio (z) = 0.31973 0.13687
#
# Static dielectric constant tensor:
#      x y z
#    x 1.801110 0.000000 0.010040 
#    y 0.000000 1.839540 0.000000 
#    z 0.010040 0.000000 1.815510 
# 
# From -- ./inp_files/372602.got.cif
#   From: 2010.05.17/outbox.cif.g08.bks.cpg/sg12_187_cif.got.tgz:372602.got - 2010.06.03 13:09:07.
