data_PCOD9216099
_publ_section_title
;
Structure prediction by ZEFSAII (Michael W. Deem and Ramdas Pophale) SiO2 
 PCOD9216099
Probable space group: C 2/M
;
_chemical_formula_sum "Si O2"
_cell_formula_units_Z 48
_cell_length_a 17.062077
_cell_length_b 31.444720
_cell_length_c 8.850149
_cell_angle_alpha 90.000000
_cell_angle_beta 31.545482
_cell_angle_gamma 90.000000
_cell_volume 2484.147561
_symmetry_space_group_name_H-M "C 2/M"
_symmetry_group_IT_number 12
_symmetry_cell_setting 'monoclinic'
loop_
_space_group_symop_operation_xyz
x,y,z
-x,y,-z
-x,-y,-z
x,-y,z
1/2+x,1/2+y,z
1/2-x,1/2+y,-z
1/2-x,1/2-y,-z
1/2+x,1/2-y,z
loop_
_atom_site_type_symbol
_atom_site_label
_atom_site_fract_x
_atom_site_fract_y
_atom_site_fract_z
Si Si1 0.111621 0.500000 0.960565
Si Si2 0.532091 0.077076 0.626984
Si Si3 0.912877 0.247937 0.797220
Si Si4 0.038949 0.330455 0.757597
Si Si5 0.884021 0.075460 0.048810
Si Si6 0.967392 0.000000 0.377145
Si Si7 0.374194 0.329891 0.081358
O O1 0.289240 0.500000 0.633820
O O2 0.000000 0.500000 0.000000
O O3 0.069821 0.541579 0.126847
O O4 0.500000 0.077681 0.500000
O O5 0.499472 0.123575 0.751178
O O6 0.708144 0.066121 0.371226
O O7 0.000000 0.241519 0.500000
O O8 0.957857 0.291125 0.809056
O O9 0.750000 0.250000 0.000000
O O10 0.915960 0.208263 0.903688
O O11 0.214426 0.324428 0.427073
O O12 0.000000 0.330250 0.000000
O O13 0.876741 0.123782 0.999307
O O14 0.952099 0.041126 0.825117
O O15 0.000000 0.074807 0.000000
O O16 0.000000 0.000000 0.500000
O O17 0.500000 0.331130 0.000000
#
# Coordination Sequence:
#
# PCOD9216099 Si02
#       7
#     4   8   8   8   8   4   8
#     4  12  24  40  64 100 132 168 220 264 324 396
#     4  11  23  42  68  93 128 172 219 270 323 384
#     4  12  25  43  66  97 131 169 213 267 327 384
#     4  11  25  43  66  94 130 170 217 270 324 391
#     4  10  22  43  65  88 127 173 211 255 320 387
#     4  12  24  40  62  98 132 162 210 270 320 378
#     4  10  24  43  65  94 127 171 219 261 322 389
#
# _framework density 19.322524000000001
#
# number of rings (size 3 to 8) (size 9 to 14) (size 15 to 20)
#    0.000    1.000    1.667    4.500    4.667    4.667 
#    0.000    0.000    0.000    0.000    0.000    0.000 
#    0.000    0.000    0.000    0.000    0.000    0.000 
#
# Total GULP energy -134020.115015 kJ/mol
# GULP energy per Si atom -5584.171459 kJ/mol
# Density = 1.927854 g / cm^3
# Si number density = 19.322524 Si / 1000 Ang^3
#
#
#
# Elastic Constant Matrix: (Units=GPa)
#
#
# Indices 1 2 3 4 5 6 
#
# 1 82.4887 51.4344 48.0328 0.0000 8.4360 0.0000
# 2 51.4344 175.6022 97.5789 0.0000 15.4908 0.0000
# 3 48.0328 97.5789 140.1030 0.0000 4.4569 0.0000
# 4 0.0000 0.0000 0.0000 39.3802 0.0000 -1.0179
# 5 8.4360 15.4908 4.4569 0.0000 47.0452 0.0000
# 6 0.0000 0.0000 0.0000 -1.0179 0.0000 31.9492
#
#
#
# Elastic Compliance Matrix: (Units=1/GPa)
#
#
# Indices 1 2 3 4 5 6 
#
# 1 0.015999 -0.002477 -0.003706 0.000000 -0.001702 0.000000
# 2 -0.002477 0.009965 -0.006019 0.000000 -0.002267 0.000000
# 3 -0.003706 -0.006019 0.012554 0.000000 0.001457 0.000000
# 4 0.000000 0.000000 0.000000 0.025414 0.000000 0.000810
# 5 -0.001702 -0.002267 0.001457 0.000000 0.022170 0.000000
# 6 0.000000 0.000000 0.000000 0.000810 0.000000 0.031326
#
#
# Mechanical properties :
#
#
# Convention : Reuss Voigt Hill
#
# Bulk Modulus (GPa) = 70.84939 88.03177 79.44058
# Shear Modulus (GPa) = 34.12129 37.08476 35.60302
#
# Velocity S-wave (km/s) = 4.20680 4.38568 4.29717
# Velocity P-wave (km/s) = 7.76805 8.44415 8.11314
#
# Compressibility (1/GPa) = 0.01411445
#
# Stress axis : x y z
#
# Youngs Moduli (GPa) = 62.50282 100.35381 79.65603
#
# Poissons Ratio (x) = 0.24854 0.29521
# Poissons Ratio (y) = 0.15480 0.47945
# Poissons Ratio (z) = 0.23164 0.60403
#
# Static dielectric constant tensor:
#      x y z
#    x 1.646220 0.000000 -0.018280 
#    y 0.000000 1.652760 0.000000 
#    z -0.018280 0.000000 1.641470 
# 
# From -- ./inp_files/80658.got.cif
#   From: 2010.05.17/outbox.cif.g08.bks.cpg/sg12_41_cif.got.tgz:80658.got - 2010.06.03 13:09:07.
