data_PCOD9216821
_publ_section_title
;
Structure prediction by ZEFSAII (Michael W. Deem and Ramdas Pophale) SiO2 
 PCOD9216821
Probable space group: C 2/M
;
_chemical_formula_sum "Si O2"
_cell_formula_units_Z 44
_cell_length_a 11.645375
_cell_length_b 20.393956
_cell_length_c 13.743008
_cell_angle_alpha 90.000000
_cell_angle_beta 41.496617
_cell_angle_gamma 90.000000
_cell_volume 2162.580794
_symmetry_space_group_name_H-M "C 2/M"
_symmetry_group_IT_number 12
_symmetry_cell_setting 'monoclinic'
loop_
_space_group_symop_operation_xyz
x,y,z
-x,y,-z
-x,-y,-z
x,-y,z
1/2+x,1/2+y,z
1/2-x,1/2+y,-z
1/2-x,1/2-y,-z
1/2+x,1/2-y,z
loop_
_atom_site_type_symbol
_atom_site_label
_atom_site_fract_x
_atom_site_fract_y
_atom_site_fract_z
Si Si1 0.000000 0.826516 0.000000
Si Si2 0.512028 0.000000 0.837494
Si Si3 0.576427 0.123134 0.658954
Si Si4 0.800029 0.000000 0.822488
Si Si5 0.741952 0.921995 0.237575
Si Si6 0.928309 0.885812 0.323498
Si Si7 0.949646 0.755496 0.841330
O O1 0.039048 0.779609 0.884621
O O2 0.158568 0.877922 0.906782
O O3 0.538961 0.935770 0.756361
O O4 0.660624 0.000000 0.824896
O O5 0.320786 0.000000 0.005224
O O6 0.451839 0.106038 0.646546
O O7 0.773511 0.121147 0.498442
O O8 0.524145 0.190602 0.744705
O O9 0.926666 0.062063 0.739831
O O10 0.839848 0.908646 0.277240
O O11 0.745600 0.000000 0.216419
O O12 0.019442 0.816173 0.249834
O O13 0.750000 0.750000 0.000000
#
# Coordination Sequence:
#
# PCOD9216821 Si02
#       7
#     4   4   8   4   8   8   8
#     4  10  23  40  64  99 126 178 220 272 320 383
#     4  11  27  44  69  94 128 176 221 273 316 397
#     4  12  24  42  67 100 135 171 217 268 336 388
#     4  11  25  48  65  96 128 172 225 265 326 385
#     4  11  22  38  69 102 136 166 213 273 334 391
#     4  11  25  42  69  98 134 172 213 276 329 392
#     4  11  23  43  65  93 131 174 220 269 319 390
#
# _framework density 20.346060000000001
#
# number of rings (size 3 to 8) (size 9 to 14) (size 15 to 20)
#    0.000    0.909    3.636    3.000    2.545    5.091 
#    0.000    0.000    0.000    0.000    0.000    0.000 
#    0.000    0.000    0.000    0.000    0.000    0.000 
#
# Total GULP energy -122918.776151 kJ/mol
# GULP energy per Si atom -5587.217098 kJ/mol
# Density = 2.029975 g / cm^3
# Si number density = 20.346060 Si / 1000 Ang^3
#
#
#
# Elastic Constant Matrix: (Units=GPa)
#
#
# Indices 1 2 3 4 5 6 
#
# 1 50.8423 45.7252 34.6878 0.0003 -8.6713 -0.0001
# 2 45.7252 213.6805 87.7202 0.0002 -5.3159 -0.0002
# 3 34.6878 87.7202 169.9946 0.0006 -26.7084 -0.0005
# 4 0.0003 0.0002 0.0006 35.6665 -0.0002 1.8740
# 5 -8.6713 -5.3159 -26.7084 -0.0002 32.9977 0.0002
# 6 -0.0001 -0.0002 -0.0005 1.8740 0.0002 29.2209
#
#
#
# Elastic Compliance Matrix: (Units=1/GPa)
#
#
# Indices 1 2 3 4 5 6 
#
# 1 0.026032 -0.004514 -0.002317 0.000000 0.004238 0.000000
# 2 -0.004514 0.006810 -0.002987 0.000000 -0.002507 0.000000
# 3 -0.002317 -0.002987 0.008851 0.000000 0.006074 0.000000
# 4 0.000000 0.000000 0.000000 0.028132 0.000000 -0.001804
# 5 0.004238 -0.002507 0.006074 0.000000 0.035931 0.000000
# 6 0.000000 0.000000 0.000000 -0.001804 0.000000 0.034338
#
#
# Mechanical properties :
#
#
# Convention : Reuss Voigt Hill
#
# Bulk Modulus (GPa) = 45.33593 85.64263 65.48928
# Shear Modulus (GPa) = 29.92574 37.33597 33.63086
#
# Velocity S-wave (km/s) = 3.83931 4.28839 4.07005
# Velocity P-wave (km/s) = 6.47955 8.16730 7.37188
#
# Compressibility (1/GPa) = 0.02205756
#
# Stress axis : x y z
#
# Youngs Moduli (GPa) = 38.41459 146.85335 112.98629
#
# Poissons Ratio (x) = 0.66290 0.26174
# Poissons Ratio (y) = 0.17341 0.33744
# Poissons Ratio (z) = 0.08899 0.43858
#
# Static dielectric constant tensor:
#      x y z
#    x 1.788840 0.000000 -0.001160 
#    y 0.000000 1.733810 0.000000 
#    z -0.001160 0.000000 1.730850 
# 
# From -- ./inp_files/207566.got.cif
#   From: 2010.05.17/outbox.cif.g08.bks.cpg/sg12_104_cif.got.tgz:207566.got - 2010.06.03 13:09:07.
