data_PCOD9216814
_publ_section_title
;
Structure prediction by ZEFSAII (Michael W. Deem and Ramdas Pophale) SiO2 
 PCOD9216814
Probable space group: C 2/M
;
_chemical_formula_sum "Si O2"
_cell_formula_units_Z 58
_cell_length_a 19.156919
_cell_length_b 9.570423
_cell_length_c 20.722187
_cell_angle_alpha 90.000000
_cell_angle_beta 131.561484
_cell_angle_gamma 90.000000
_cell_volume 2842.730986
_symmetry_space_group_name_H-M "C 2/M"
_symmetry_group_IT_number 12
_symmetry_cell_setting 'monoclinic'
loop_
_space_group_symop_operation_xyz
x,y,z
-x,y,-z
-x,-y,-z
x,-y,z
1/2+x,1/2+y,z
1/2-x,1/2+y,-z
1/2-x,1/2-y,-z
1/2+x,1/2-y,z
loop_
_atom_site_type_symbol
_atom_site_label
_atom_site_fract_x
_atom_site_fract_y
_atom_site_fract_z
Si Si1 0.956989 0.341226 0.326863
Si Si2 0.176780 0.833841 0.214358
Si Si3 0.663374 0.839218 0.471719
Si Si4 0.000000 0.000000 0.500000
Si Si5 0.031541 0.836611 0.892649
Si Si6 0.360222 0.835113 0.939471
Si Si7 0.136912 0.263631 0.601899
Si Si8 0.651283 0.337501 0.840767
O O1 0.955091 0.500000 0.302580
O O2 0.926243 0.339069 0.382677
O O3 0.885685 0.251259 0.241751
O O4 0.062606 0.286093 0.385087
O O5 0.157263 0.754964 0.135397
O O6 0.261101 0.759150 0.302756
O O7 0.077823 0.825770 0.190202
O O8 0.199045 0.000000 0.218891
O O9 0.750000 0.750000 0.500000
O O10 0.653467 0.834362 0.543074
O O11 0.674997 0.000000 0.458619
O O12 0.081691 0.121155 0.555834
O O13 0.094041 0.800357 0.869406
O O14 0.049342 0.000000 0.921350
O O15 0.060490 0.735967 0.968714
O O16 0.261785 0.822815 0.917046
O O17 0.377046 0.000000 0.937125
O O18 0.632551 0.500000 0.814809
#
# Coordination Sequence:
#
# PCOD9216814 Si02
#       8
#     8   8   8   2   8   8   8   8
#     4  11  23  42  67  95 128 170 225 275 332 398
#     4  11  24  42  68  97 129 175 223 274 333 402
#     4  11  26  44  67  99 136 174 217 273 338 408
#     4  12  28  44  74 104 130 180 224 284 338 408
#     4  10  23  43  64  92 132 178 224 272 334 400
#     4  11  23  40  64  98 133 173 221 277 337 394
#     4  12  25  45  70  98 133 174 225 275 335 401
#     4  10  23  40  64  95 129 172 223 279 330 393
#
# _framework density 20.402915
#
# number of rings (size 3 to 8) (size 9 to 14) (size 15 to 20)
#    0.000    1.103    2.759    2.483    4.828    4.966 
#    0.000    0.000    0.000    0.000    0.000    0.000 
#    0.000    0.000    0.000    0.000    0.000    0.000 
#
# Total GULP energy -161749.505151 kJ/mol
# GULP energy per Si atom -5577.569143 kJ/mol
# Density = 2.035648 g / cm^3
# Si number density = 20.402915 Si / 1000 Ang^3
#
#
#
# Elastic Constant Matrix: (Units=GPa)
#
#
# Indices 1 2 3 4 5 6 
#
# 1 78.9461 24.4567 24.1772 0.0000 21.6600 0.0000
# 2 24.4567 75.8525 41.2255 0.0000 5.2209 0.0000
# 3 24.1772 41.2255 99.5038 0.0000 23.7066 0.0000
# 4 0.0000 0.0000 0.0000 18.0278 0.0000 21.0086
# 5 21.6600 5.2209 23.7066 0.0000 32.3236 0.0000
# 6 0.0000 0.0000 0.0000 21.0086 0.0000 12.0101
#
#
#
# Elastic Compliance Matrix: (Units=1/GPa)
#
#
# Indices 1 2 3 4 5 6 
#
# 1 0.017093 -0.005066 0.000581 0.000000 -0.011062 0.000000
# 2 -0.005066 0.018749 -0.008027 0.000000 0.006253 0.000000
# 3 0.000581 -0.008027 0.015775 0.000000 -0.010662 0.000000
# 4 0.000000 0.000000 0.000000 -0.053415 0.000000 0.093436
# 5 -0.011062 0.006253 -0.010662 0.000000 0.045160 0.000000
# 6 0.000000 0.000000 0.000000 0.093436 0.000000 -0.080179
#
#
# Mechanical properties :
#
#
# Convention : Reuss Voigt Hill
#
# Bulk Modulus (GPa) = 37.60284 48.22457 42.91371
# Shear Modulus (GPa) = -1706.05963 23.43516 -841.31223
#
# Velocity S-wave (km/s) = -28.94822 3.39280 -20.32841
# Velocity P-wave (km/s) = 33.14910 6.24785 23.01985
#
# Compressibility (1/GPa) = 0.02659374
#
# Stress axis : x y z
#
# Youngs Moduli (GPa) = 58.50247 53.33641 63.39331
#
# Poissons Ratio (x) = 0.27018 -0.03683
# Poissons Ratio (y) = 0.29635 0.50885
# Poissons Ratio (z) = -0.03399 0.42812
#
# Static dielectric constant tensor:
#      x y z
#    x 1.748830 0.000000 0.014180 
#    y 0.000000 1.697570 0.000000 
#    z 0.014180 0.000000 1.715130 
# 
# From -- ./inp_files/346539.got.cif
#   From: 2010.05.17/outbox.cif.g08.bks.cpg/sg12_174_cif.got.tgz:346539.got - 2010.06.03 13:09:07.
