data_PCOD9216853
_publ_section_title
;
Structure prediction by ZEFSAII (Michael W. Deem and Ramdas Pophale) SiO2 
 PCOD9216853
Probable space group: C 2/M
;
_chemical_formula_sum "Si O2"
_cell_formula_units_Z 36
_cell_length_a 11.746201
_cell_length_b 24.253903
_cell_length_c 10.946836
_cell_angle_alpha 90.000000
_cell_angle_beta 33.388002
_cell_angle_gamma 90.000000
_cell_volume 1716.215622
_symmetry_space_group_name_H-M "C 2/M"
_symmetry_group_IT_number 12
_symmetry_cell_setting 'monoclinic'
loop_
_space_group_symop_operation_xyz
x,y,z
-x,y,-z
-x,-y,-z
x,-y,z
1/2+x,1/2+y,z
1/2-x,1/2+y,-z
1/2-x,1/2-y,-z
1/2+x,1/2-y,z
loop_
_atom_site_type_symbol
_atom_site_label
_atom_site_fract_x
_atom_site_fract_y
_atom_site_fract_z
Si Si1 0.206190 0.562048 0.962253
Si Si2 0.839473 0.640932 0.367292
Si Si3 0.447853 0.618836 0.185916
Si Si4 0.500000 0.598926 0.500000
Si Si5 0.533758 0.748693 0.117705
O O1 0.134440 0.500000 0.049837
O O2 0.387374 0.581879 0.890081
O O3 0.324107 0.564904 0.727200
O O4 0.022980 0.605932 0.141166
O O5 0.780344 0.613161 0.550358
O O6 0.628416 0.635299 0.479719
O O7 0.904769 0.704364 0.303446
O O8 0.476864 0.684592 0.176743
O O9 0.500000 0.607050 0.000000
O O10 0.500000 0.761933 0.000000
O O11 0.750000 0.750000 0.000000
#
# Coordination Sequence:
#
# PCOD9216853 Si02
#       5
#     8   8   8   4   8
#     4  11  23  41  65  94 128 168 220 272 328 390
#     4  11  23  41  67  96 130 171 218 270 332 393
#     4  10  24  44  62  92 131 174 217 270 330 394
#     4  10  23  40  66  96 130 168 209 272 336 396
#     4  11  22  42  70 100 137 173 217 274 335 400
#
# _framework density 20.976386000000002
#
# number of rings (size 3 to 8) (size 9 to 14) (size 15 to 20)
#    0.000    1.333    2.222    3.000    3.111    6.667 
#    0.000    1.111    0.000    0.000    0.000    0.000 
#    0.000    0.000    0.000    0.000    0.000    0.000 
#
# Total GULP energy -100265.455087 kJ/mol
# GULP energy per Si atom -5570.303060 kJ/mol
# Density = 2.092864 g / cm^3
# Si number density = 20.976386 Si / 1000 Ang^3
#
#
#
# Elastic Constant Matrix: (Units=GPa)
#
#
# Indices 1 2 3 4 5 6 
#
# 1 84.7898 9.2181 31.7859 0.0000 16.5902 0.0000
# 2 9.2181 56.7412 -3.9769 0.0000 -4.7902 0.0000
# 3 31.7859 -3.9769 95.9930 0.0000 16.9141 0.0000
# 4 0.0000 0.0000 0.0000 17.7940 0.0000 5.4179
# 5 16.5902 -4.7902 16.9141 0.0000 31.2859 0.0000
# 6 0.0000 0.0000 0.0000 5.4179 0.0000 10.1009
#
#
#
# Elastic Compliance Matrix: (Units=1/GPa)
#
#
# Indices 1 2 3 4 5 6 
#
# 1 0.014843 -0.003214 -0.003951 0.000000 -0.006227 0.000000
# 2 -0.003214 0.018558 0.001141 0.000000 0.003929 0.000000
# 3 -0.003951 0.001141 0.012570 0.000000 -0.004526 0.000000
# 4 0.000000 0.000000 0.000000 0.067168 0.000000 -0.036028
# 5 -0.006227 0.003929 -0.004526 0.000000 0.038314 0.000000
# 6 0.000000 0.000000 0.000000 -0.036028 0.000000 0.118326
#
#
# Mechanical properties :
#
#
# Convention : Reuss Voigt Hill
#
# Bulk Modulus (GPa) = 29.47862 34.61981 32.04921
# Shear Modulus (GPa) = 17.05699 25.20261 21.12980
#
# Velocity S-wave (km/s) = 2.85468 3.46999 3.17726
# Velocity P-wave (km/s) = 4.99493 5.70916 5.36394
#
# Compressibility (1/GPa) = 0.03392289
#
# Stress axis : x y z
#
# Youngs Moduli (GPa) = 67.37310 53.88614 79.55173
#
# Poissons Ratio (x) = 0.17319 0.31429
# Poissons Ratio (y) = 0.21653 -0.09075
# Poissons Ratio (z) = 0.26618 -0.06147
#
# Static dielectric constant tensor:
#      x y z
#    x 1.842350 0.000000 0.090470 
#    y 0.000000 1.700570 0.000000 
#    z 0.090470 0.000000 1.842610 
# 
# From -- ./inp_files/7503.got.cif
#   From: 2010.05.17/outbox.cif.g08.bks.cpg/sg12_4_cif.got.tgz:7503.got - 2010.06.03 13:09:07.
