data_PCOD9216699
_publ_section_title
;
Structure prediction by ZEFSAII (Michael W. Deem and Ramdas Pophale) SiO2 
 PCOD9216699
Probable space group: C 2/M
;
_chemical_formula_sum "Si O2"
_cell_formula_units_Z 48
_cell_length_a 9.036787
_cell_length_b 18.501475
_cell_length_c 13.496188
_cell_angle_alpha 90.000000
_cell_angle_beta 92.634990
_cell_angle_gamma 90.000000
_cell_volume 2254.094335
_symmetry_space_group_name_H-M "C 2/M"
_symmetry_group_IT_number 12
_symmetry_cell_setting 'monoclinic'
loop_
_space_group_symop_operation_xyz
x,y,z
-x,y,-z
-x,-y,-z
x,-y,z
1/2+x,1/2+y,z
1/2-x,1/2+y,-z
1/2-x,1/2-y,-z
1/2+x,1/2-y,z
loop_
_atom_site_type_symbol
_atom_site_label
_atom_site_fract_x
_atom_site_fract_y
_atom_site_fract_z
Si Si1 0.844506 0.860559 0.027973
Si Si2 0.100472 0.500000 0.350720
Si Si3 0.271556 0.000000 0.425293
Si Si4 0.592016 0.804287 0.906408
Si Si5 0.879900 0.218088 0.366424
Si Si6 0.327032 0.134401 0.785316
Si Si7 0.309232 0.340505 0.581153
O O1 0.878866 0.780232 0.073634
O O2 0.751015 0.893970 0.115437
O O3 0.746291 0.845973 0.926286
O O4 0.000000 0.894201 0.000000
O O5 0.189136 0.500000 0.456759
O O6 0.139951 0.569591 0.287557
O O7 0.927452 0.500000 0.373115
O O8 0.188326 0.925466 0.400056
O O9 0.480959 0.824749 0.815950
O O10 0.500000 0.827787 0.000000
O O11 0.785912 0.188340 0.272718
O O12 0.839649 0.301358 0.386361
O O13 0.825734 0.176409 0.464688
O O14 0.052250 0.199812 0.364187
#
# Coordination Sequence:
#
# PCOD9216699 Si02
#       7
#     8   4   4   8   8   8   8
#     4   9  18  37  62  93 125 162 202 269 339 394
#     4  11  26  41  64  95 126 176 228 270 339 405
#     4  11  24  46  69  86 138 186 222 279 346 391
#     4   8  17  35  61  89 128 162 205 264 340 390
#     4  10  23  39  65  98 133 169 230 280 326 385
#     4  11  22  39  62  95 127 171 220 274 321 408
#     4  10  23  42  65  94 134 178 222 278 338 388
#
# _framework density 21.294582999999999
#
# number of rings (size 3 to 8) (size 9 to 14) (size 15 to 20)
#    0.000    2.167    1.667    1.000    4.667    3.333 
#    3.000    4.167    0.000    0.000    0.000    0.000 
#    0.000    0.000    0.000    0.000    0.000    0.000 
#
# Total GULP energy -133994.172640 kJ/mol
# GULP energy per Si atom -5583.090527 kJ/mol
# Density = 2.124612 g / cm^3
# Si number density = 21.294583 Si / 1000 Ang^3
#
#
#
# Elastic Constant Matrix: (Units=GPa)
#
#
# Indices 1 2 3 4 5 6 
#
# 1 106.2676 25.1447 39.7281 0.0000 10.4626 0.0000
# 2 25.1447 77.6774 8.5715 0.0000 -6.3662 0.0000
# 3 39.7281 8.5715 83.3616 0.0000 3.4563 0.0000
# 4 0.0000 0.0000 0.0000 6.9067 0.0000 0.7400
# 5 10.4626 -6.3662 3.4563 0.0000 33.9001 0.0000
# 6 0.0000 0.0000 0.0000 0.7400 0.0000 14.1463
#
#
#
# Elastic Compliance Matrix: (Units=1/GPa)
#
#
# Indices 1 2 3 4 5 6 
#
# 1 0.012799 -0.003870 -0.005531 0.000000 -0.004113 0.000000
# 2 -0.003870 0.014422 0.000200 0.000000 0.003882 0.000000
# 3 -0.005531 0.000200 0.014601 0.000000 0.000256 0.000000
# 4 0.000000 0.000000 0.000000 0.145602 0.000000 -0.007617
# 5 -0.004113 0.003882 0.000256 0.000000 0.031471 0.000000
# 6 0.000000 0.000000 0.000000 -0.007617 0.000000 0.071088
#
#
# Mechanical properties :
#
#
# Convention : Reuss Voigt Hill
#
# Bulk Modulus (GPa) = 42.69719 46.02169 44.35944
# Shear Modulus (GPa) = 15.81323 23.91478 19.86401
#
# Velocity S-wave (km/s) = 2.72801 3.35482 3.05752
# Velocity P-wave (km/s) = 5.47878 6.05519 5.77418
#
# Compressibility (1/GPa) = 0.02342074
#
# Stress axis : x y z
#
# Youngs Moduli (GPa) = 78.13377 69.33611 68.48992
#
# Poissons Ratio (x) = 0.26831 0.37882
# Poissons Ratio (y) = 0.30236 -0.01372
# Poissons Ratio (z) = 0.43216 -0.01389
#
# Static dielectric constant tensor:
#      x y z
#    x 1.822600 0.000000 -0.006550 
#    y 0.000000 1.743320 0.000000 
#    z -0.006550 0.000000 1.800020 
# 
# From -- ./inp_files/196030.got.cif
#   From: 2010.05.17/outbox.cif.g08.bks.cpg/sg12_99_cif.got.tgz:196030.got - 2010.06.03 13:09:07.
