data_PCOD9216913
_publ_section_title
;
Structure prediction by ZEFSAII (Michael W. Deem and Ramdas Pophale) SiO2 
 PCOD9216913
Probable space group: C 2/M
;
_chemical_formula_sum "Si O2"
_cell_formula_units_Z 56
_cell_length_a 14.917488
_cell_length_b 8.685920
_cell_length_c 27.747336
_cell_angle_alpha 90.000000
_cell_angle_beta 128.706486
_cell_angle_gamma 90.000000
_cell_volume 2805.611971
_symmetry_space_group_name_H-M "C 2/M"
_symmetry_group_IT_number 12
_symmetry_cell_setting 'monoclinic'
loop_
_space_group_symop_operation_xyz
x,y,z
-x,y,-z
-x,-y,-z
x,-y,z
1/2+x,1/2+y,z
1/2-x,1/2+y,-z
1/2-x,1/2-y,-z
1/2+x,1/2-y,z
loop_
_atom_site_type_symbol
_atom_site_label
_atom_site_fract_x
_atom_site_fract_y
_atom_site_fract_z
Si Si1 0.787134 0.317287 0.272373
Si Si2 0.339000 0.181963 0.926139
Si Si3 0.126659 0.682523 0.798557
Si Si4 0.435251 0.317284 0.048983
Si Si5 0.153214 0.813922 0.503051
Si Si6 0.540171 0.181528 0.175503
Si Si7 0.611484 0.685145 0.596943
O O1 0.787880 0.500000 0.278306
O O2 0.872406 0.274999 0.257164
O O3 0.662066 0.263348 0.212819
O O4 0.820938 0.242529 0.334021
O O5 0.223520 0.224268 0.859665
O O6 0.442212 0.272584 0.934317
O O7 0.361327 0.000000 0.931371
O O8 0.343122 0.237065 0.982990
O O9 0.156312 0.500000 0.811845
O O10 0.008737 0.703416 0.787326
O O11 0.419093 0.500000 0.044008
O O12 0.449631 0.250740 0.107191
O O13 0.250000 0.750000 0.500000
O O14 0.163525 0.765293 0.562766
O O15 0.022759 0.767253 0.445130
O O16 0.158386 0.000000 0.503313
O O17 0.552797 0.000000 0.169958
O O18 0.612384 0.500000 0.596856
#
# Coordination Sequence:
#
# PCOD9216913 Si02
#       7
#     8   8   8   8   8   8   8
#     4  11  23  40  61  86 119 157 197 245 292 342
#     4  11  21  35  59  86 111 147 195 241 297 363
#     4  10  23  41  59  82 116 153 192 244 302 353
#     4  11  21  36  58  83 115 150 188 243 304 355
#     4   9  19  37  62  91 123 158 195 240 287 335
#     4  11  23  40  61  85 114 154 198 243 298 358
#     4   9  20  39  60  85 121 162 197 233 287 347
#
# _framework density 19.959993999999998
#
# number of rings (size 3 to 8) (size 9 to 14) (size 15 to 20)
#    0.000    1.714    1.429    5.143    0.000    4.571 
#    0.000    5.714    0.000    0.000    0.000    0.000 
#    0.000    0.000    0.000    0.000    0.000    0.000 
#
# Total GULP energy -156428.463870 kJ/mol
# GULP energy per Si atom -5586.730853 kJ/mol
# Density = 1.991456 g / cm^3
# Si number density = 19.959994 Si / 1000 Ang^3
#
#
#
# Elastic Constant Matrix: (Units=GPa)
#
#
# Indices 1 2 3 4 5 6 
#
# 1 90.9168 17.0353 31.8042 0.0000 -27.4364 0.0000
# 2 17.0353 32.1412 14.7527 0.0000 -11.0439 0.0000
# 3 31.8042 14.7527 106.4093 0.0000 -26.7996 0.0000
# 4 0.0000 0.0000 0.0000 30.6108 0.0000 -0.2638
# 5 -27.4364 -11.0439 -26.7996 0.0000 23.0080 0.0000
# 6 0.0000 0.0000 0.0000 -0.2638 0.0000 23.4651
#
#
#
# Elastic Compliance Matrix: (Units=1/GPa)
#
#
# Indices 1 2 3 4 5 6 
#
# 1 0.017349 -0.002506 0.000098 0.000000 0.019600 0.000000
# 2 -0.002506 0.037686 -0.000952 0.000000 0.013993 0.000000
# 3 0.000098 -0.000952 0.013323 0.000000 0.015179 0.000000
# 4 0.000000 0.000000 0.000000 0.032671 0.000000 0.000367
# 5 0.019600 0.013993 0.015179 0.000000 0.091233 0.000000
# 6 0.000000 0.000000 0.000000 0.000367 0.000000 0.042621
#
#
# Mechanical properties :
#
#
# Convention : Reuss Voigt Hill
#
# Bulk Modulus (GPa) = 16.22338 39.62796 27.92567
# Shear Modulus (GPa) = 19.07328 26.47514 22.77421
#
# Velocity S-wave (km/s) = 3.09459 3.64594 3.38152
# Velocity P-wave (km/s) = 4.57321 6.13357 5.40994
#
# Compressibility (1/GPa) = 0.06163944
#
# Stress axis : x y z
#
# Youngs Moduli (GPa) = 57.64047 26.53539 75.05730
#
# Poissons Ratio (x) = 0.06649 -0.00738
# Poissons Ratio (y) = 0.14443 0.07144
# Poissons Ratio (z) = -0.00567 0.02526
#
# Static dielectric constant tensor:
#      x y z
#    x 1.734720 0.000000 -0.031320 
#    y 0.000000 1.671620 0.000000 
#    z -0.031320 0.000000 1.699910 
# 
# From -- ./inp_files/360015.got.cif
#   From: 2010.05.17/outbox.cif.g08.bks.cpg/sg12_181_cif.got.tgz:360015.got - 2010.06.03 13:09:07.
