data_PCOD9216826
_publ_section_title
;
Structure prediction by ZEFSAII (Michael W. Deem and Ramdas Pophale) SiO2 
 PCOD9216826
Probable space group: C 2/M
;
_chemical_formula_sum "Si O2"
_cell_formula_units_Z 56
_cell_length_a 11.126771
_cell_length_b 31.861902
_cell_length_c 9.370133
_cell_angle_alpha 90.000000
_cell_angle_beta 49.109103
_cell_angle_gamma 90.000000
_cell_volume 2511.215441
_symmetry_space_group_name_H-M "C 2/M"
_symmetry_group_IT_number 12
_symmetry_cell_setting 'monoclinic'
loop_
_space_group_symop_operation_xyz
x,y,z
-x,y,-z
-x,-y,-z
x,-y,z
1/2+x,1/2+y,z
1/2-x,1/2+y,-z
1/2-x,1/2-y,-z
1/2+x,1/2-y,z
loop_
_atom_site_type_symbol
_atom_site_label
_atom_site_fract_x
_atom_site_fract_y
_atom_site_fract_z
Si Si1 0.662170 0.110931 0.947274
Si Si2 0.757811 0.546921 0.892635
Si Si3 0.760252 0.238211 0.244085
Si Si4 0.339539 0.620337 0.552010
Si Si5 0.391314 0.196790 0.363213
Si Si6 0.893232 0.047714 0.287946
Si Si7 0.740405 0.306500 0.012266
O O1 0.752810 0.092554 0.741396
O O2 0.500000 0.127326 0.000000
O O3 0.641338 0.079904 0.094948
O O4 0.777776 0.148002 0.909026
O O5 0.820971 0.500000 0.863856
O O6 0.729778 0.554428 0.747273
O O7 0.576178 0.548041 0.092189
O O8 0.652177 0.213631 0.444670
O O9 0.860055 0.266642 0.272777
O O10 0.841992 0.206153 0.070523
O O11 0.702912 0.272724 0.167195
O O12 0.500000 0.637783 0.500000
O O13 0.224177 0.657799 0.586982
O O14 0.376668 0.587116 0.402219
O O15 0.576850 0.189169 0.189185
O O16 0.865627 0.000000 0.365028
#
# Coordination Sequence:
#
# PCOD9216826 Si02
#       7
#     8   8   8   8   8   8   8
#     4  12  23  42  64  93 135 174 205 261 327 384
#     4   9  20  41  67  95 128 169 214 262 318 382
#     4  10  23  40  65  87 118 171 215 254 315 388
#     4  12  24  40  63  98 130 165 215 266 311 382
#     4  11  23  43  62  92 127 165 212 267 319 377
#     4   9  20  41  67  94 129 168 214 266 316 375
#     4  11  22  44  62  90 127 170 210 262 323 377
#
# _framework density 22.299959999999999
#
# number of rings (size 3 to 8) (size 9 to 14) (size 15 to 20)
#    0.000    1.429    4.286    1.714    2.000    3.429 
#    2.571    0.714    0.000    1.714    0.000    0.000 
#    0.000    0.000    0.000    0.000    0.000    0.000 
#
# Total GULP energy -155985.074615 kJ/mol
# GULP energy per Si atom -5570.895522 kJ/mol
# Density = 2.224920 g / cm^3
# Si number density = 22.299960 Si / 1000 Ang^3
#
#
#
# Elastic Constant Matrix: (Units=GPa)
#
#
# Indices 1 2 3 4 5 6 
#
# 1 98.7491 59.7247 35.3509 0.0000 20.0667 0.0000
# 2 59.7247 111.4551 39.3059 0.0000 17.8146 0.0000
# 3 35.3509 39.3059 104.0004 0.0000 25.0117 0.0000
# 4 0.0000 0.0000 0.0000 23.9788 0.0000 9.0209
# 5 20.0667 17.8146 25.0117 0.0000 31.1042 0.0000
# 6 0.0000 0.0000 0.0000 9.0209 0.0000 19.4322
#
#
#
# Elastic Compliance Matrix: (Units=1/GPa)
#
#
# Indices 1 2 3 4 5 6 
#
# 1 0.016093 -0.007292 -0.001515 0.000000 -0.004988 0.000000
# 2 -0.007292 0.013964 -0.002488 0.000000 -0.001292 0.000000
# 3 -0.001515 -0.002488 0.013008 0.000000 -0.008058 0.000000
# 4 0.000000 0.000000 0.000000 0.050528 0.000000 -0.023456
# 5 -0.004988 -0.001292 -0.008058 0.000000 0.042588 0.000000
# 6 0.000000 0.000000 0.000000 -0.023456 0.000000 0.062350
#
#
# Mechanical properties :
#
#
# Convention : Reuss Voigt Hill
#
# Bulk Modulus (GPa) = 48.83837 64.77416 56.80627
# Shear Modulus (GPa) = 21.93506 26.89125 24.41316
#
# Velocity S-wave (km/s) = 3.13970 3.47636 3.31231
# Velocity P-wave (km/s) = 5.92384 6.72482 6.33700
#
# Compressibility (1/GPa) = 0.02047570
#
# Stress axis : x y z
#
# Youngs Moduli (GPa) = 62.13943 71.61359 76.87287
#
# Poissons Ratio (x) = 0.52222 0.11643
# Poissons Ratio (y) = 0.45313 0.19126
# Poissons Ratio (z) = 0.09412 0.17817
#
# Static dielectric constant tensor:
#      x y z
#    x 1.910970 0.000000 -0.019230 
#    y 0.000000 1.839600 0.000000 
#    z -0.019230 0.000000 1.892220 
# 
# From -- ./inp_files/54584.got.cif
#   From: 2010.05.17/outbox.cif.g08.bks.cpg/sg12_28_cif.got.tgz:54584.got - 2010.06.03 13:09:07.
