data_PCOD9216193
_publ_section_title
;
Structure prediction by ZEFSAII (Michael W. Deem and Ramdas Pophale) SiO2 
 PCOD9216193
Probable space group: C 2/M
;
_chemical_formula_sum "Si O2"
_cell_formula_units_Z 56
_cell_length_a 20.103680
_cell_length_b 17.071028
_cell_length_c 14.770584
_cell_angle_alpha 90.000000
_cell_angle_beta 148.777810
_cell_angle_gamma 90.000000
_cell_volume 2627.622147
_symmetry_space_group_name_H-M "C 2/M"
_symmetry_group_IT_number 12
_symmetry_cell_setting 'monoclinic'
loop_
_space_group_symop_operation_xyz
x,y,z
-x,y,-z
-x,-y,-z
x,-y,z
1/2+x,1/2+y,z
1/2-x,1/2+y,-z
1/2-x,1/2-y,-z
1/2+x,1/2-y,z
loop_
_atom_site_type_symbol
_atom_site_label
_atom_site_fract_x
_atom_site_fract_y
_atom_site_fract_z
Si Si1 0.081502 0.912859 0.312645
Si Si2 0.233328 0.907246 0.804929
Si Si3 0.861206 0.594004 0.304155
Si Si4 0.523114 0.914248 0.135450
Si Si5 0.800979 0.907838 0.043236
Si Si6 0.257837 0.315140 0.372376
Si Si7 0.150342 0.145679 0.203257
O O1 0.130618 0.841988 0.431433
O O2 0.140589 0.905913 0.282230
O O3 0.928493 0.905387 0.131603
O O4 0.110067 0.000000 0.384905
O O5 0.163997 0.878571 0.815182
O O6 0.217118 0.858194 0.694865
O O7 0.209103 0.000000 0.757107
O O8 0.382479 0.898793 0.008571
O O9 0.873068 0.500000 0.308495
O O10 0.744972 0.609507 0.238636
O O11 0.000000 0.623739 0.500000
O O12 0.813731 0.626037 0.151104
O O13 0.632263 0.851894 0.274889
O O14 0.566903 0.000000 0.216711
O O15 0.500000 0.917361 0.000000
O O16 0.771589 0.000000 0.025336
O O17 0.220299 0.226720 0.310352
O O18 0.000000 0.159065 0.000000
#
# Coordination Sequence:
#
# PCOD9216193 Si02
#       7
#     8   8   8   8   8   8   8
#     4  11  23  40  65  94 125 168 223 273 311 377
#     4   9  17  33  58  86 123 168 208 260 319 380
#     4  10  22  43  68  94 124 163 223 281 314 369
#     4   8  14  28  52  80 113 157 206 249 298 363
#     4   9  19  37  62  93 123 159 212 268 325 376
#     4  11  22  37  58  91 132 165 211 258 321 389
#     4  12  24  42  67  92 131 176 214 264 328 383
#
# _framework density 21.312045000000001
#
# number of rings (size 3 to 8) (size 9 to 14) (size 15 to 20)
#    0.000    2.000    1.429    4.286    0.000    2.286 
#    2.571    7.143    0.000    0.000    0.000    0.000 
#    0.000    0.000    0.000    0.000    0.000    0.000 
#
# Total GULP energy -156071.646876 kJ/mol
# GULP energy per Si atom -5573.987388 kJ/mol
# Density = 2.126354 g / cm^3
# Si number density = 21.312045 Si / 1000 Ang^3
#
#
#
# Elastic Constant Matrix: (Units=GPa)
#
#
# Indices 1 2 3 4 5 6 
#
# 1 93.3865 0.4470 10.8840 0.0000 -5.9860 0.0000
# 2 0.4470 35.4547 18.1790 0.0000 -6.2547 0.0000
# 3 10.8840 18.1790 82.7572 0.0000 -4.4652 0.0000
# 4 0.0000 0.0000 0.0000 17.9105 0.0000 2.4389
# 5 -5.9860 -6.2547 -4.4652 0.0000 22.9932 0.0000
# 6 0.0000 0.0000 0.0000 2.4389 0.0000 0.4191
#
#
#
# Elastic Compliance Matrix: (Units=1/GPa)
#
#
# Indices 1 2 3 4 5 6 
#
# 1 0.011070 0.001170 -0.001556 0.000000 0.002898 0.000000
# 2 0.001170 0.033194 -0.007015 0.000000 0.007972 0.000000
# 3 -0.001556 -0.007015 0.013850 0.000000 0.000376 0.000000
# 4 0.000000 0.000000 0.000000 0.268911 0.000000 -1.564804
# 5 0.002898 0.007972 0.000376 0.000000 0.046487 0.000000
# 6 0.000000 0.000000 0.000000 -1.564804 0.000000 11.491637
#
#
# Mechanical properties :
#
#
# Convention : Reuss Voigt Hill
#
# Bulk Modulus (GPa) = 23.08993 30.06870 26.57931
# Shear Modulus (GPa) = 0.42037 20.40380 10.41208
#
# Velocity S-wave (km/s) = 0.44460 3.09752 2.21272
# Velocity P-wave (km/s) = 3.33486 5.18963 4.36197
#
# Compressibility (1/GPa) = 0.04330892
#
# Stress axis : x y z
#
# Youngs Moduli (GPa) = 90.33642 30.12629 72.20451
#
# Poissons Ratio (x) = -0.03524 0.11238
# Poissons Ratio (y) = -0.10567 0.50653
# Poissons Ratio (z) = 0.14060 0.21134
#
# Static dielectric constant tensor:
#      x y z
#    x 1.822430 0.000000 -0.007890 
#    y 0.000000 1.761280 0.000000 
#    z -0.007890 0.000000 1.811080 
# 
# From -- ./inp_files/234707.got.cif
#   From: 2010.05.17/outbox.cif.g08.bks.cpg/sg12_118_cif.got.tgz:234707.got - 2010.06.03 13:09:07.
