data_PCOD9216576
_publ_section_title
;
Structure prediction by ZEFSAII (Michael W. Deem and Ramdas Pophale) SiO2 
 PCOD9216576
Probable space group: C 2/M
;
_chemical_formula_sum "Si O2"
_cell_formula_units_Z 40
_cell_length_a 12.125051
_cell_length_b 26.265246
_cell_length_c 11.766249
_cell_angle_alpha 90.000000
_cell_angle_beta 148.704524
_cell_angle_gamma 90.000000
_cell_volume 1946.472203
_symmetry_space_group_name_H-M "C 2/M"
_symmetry_group_IT_number 12
_symmetry_cell_setting 'monoclinic'
loop_
_space_group_symop_operation_xyz
x,y,z
-x,y,-z
-x,-y,-z
x,-y,z
1/2+x,1/2+y,z
1/2-x,1/2+y,-z
1/2-x,1/2-y,-z
1/2+x,1/2-y,z
loop_
_atom_site_type_symbol
_atom_site_label
_atom_site_fract_x
_atom_site_fract_y
_atom_site_fract_z
Si Si1 0.226658 0.443430 0.636284
Si Si2 0.000000 0.858172 0.000000
Si Si3 0.913464 0.694885 0.293381
Si Si4 0.500000 0.859234 0.000000
Si Si5 0.420494 0.691466 0.300491
Si Si6 0.203591 0.382466 0.408735
O O1 0.312880 0.500000 0.734120
O O2 0.203474 0.433539 0.481827
O O3 0.000000 0.439928 0.500000
O O4 0.368539 0.397100 0.805929
O O5 0.169068 0.822756 0.084361
O O6 0.942937 0.751871 0.271426
O O7 0.000000 0.693047 0.500000
O O8 0.042506 0.655024 0.332411
O O9 0.322877 0.825253 0.906686
O O10 0.374810 0.888518 0.789905
O O11 0.500000 0.696942 0.500000
O O12 0.571384 0.647051 0.387075
#
# Coordination Sequence:
#
# PCOD9216576 Si02
#       6
#     8   4   8   4   8   8
#     4  11  24  43  65  93 122 154 199 260 317 362
#     4  12  20  38  62  97 124 155 195 249 320 370
#     4  11  21  36  59  92 126 161 199 247 308 364
#     4  10  23  38  57  85 118 169 205 241 296 344
#     4   9  21  37  57  85 126 165 205 243 294 363
#     4  11  21  40  59  86 123 165 203 252 294 358
#
# _framework density 20.549999
#
# number of rings (size 3 to 8) (size 9 to 14) (size 15 to 20)
#    0.000    1.400    4.000    1.500    2.800    0.800 
#    0.000    0.500    0.000    5.400    0.000    0.000 
#    0.000    0.000    0.000    0.000    0.000    0.000 
#
# Total GULP energy -111697.906658 kJ/mol
# GULP energy per Si atom -5584.895333 kJ/mol
# Density = 2.050323 g / cm^3
# Si number density = 20.549999 Si / 1000 Ang^3
#
#
#
# Elastic Constant Matrix: (Units=GPa)
#
#
# Indices 1 2 3 4 5 6 
#
# 1 67.7452 22.1865 19.8658 0.0000 9.3225 0.0000
# 2 22.1865 80.8754 23.3641 0.0000 1.5601 0.0000
# 3 19.8658 23.3641 85.3709 0.0000 5.0144 -0.0001
# 4 0.0000 0.0000 0.0000 3.7366 0.0000 13.1892
# 5 9.3225 1.5601 5.0144 0.0000 51.3466 0.0000
# 6 0.0000 0.0000 -0.0001 13.1892 0.0000 -33.0413
#
#
#
# Elastic Compliance Matrix: (Units=1/GPa)
#
#
# Indices 1 2 3 4 5 6 
#
# 1 0.017222 -0.003866 -0.002789 0.000000 -0.002737 0.000000
# 2 -0.003866 0.014294 -0.003046 0.000000 0.000565 0.000000
# 3 -0.002789 -0.003046 0.013237 0.000000 -0.000694 0.000000
# 4 0.000000 0.000000 0.000000 0.111094 0.000000 0.044346
# 5 -0.002737 0.000565 -0.000694 0.000000 0.020023 0.000000
# 6 0.000000 0.000000 0.000000 0.044346 0.000000 -0.012563
#
#
# Mechanical properties :
#
#
# Convention : Reuss Voigt Hill
#
# Bulk Modulus (GPa) = 39.44437 40.53603 39.99020
# Shear Modulus (GPa) = 26.15650 15.64672 20.90161
#
# Velocity S-wave (km/s) = 3.57153 2.76234 3.19268
# Velocity P-wave (km/s) = 6.02028 5.47196 5.75266
#
# Compressibility (1/GPa) = 0.02535216
#
# Stress axis : x y z
#
# Youngs Moduli (GPa) = 58.06624 69.95848 75.54714
#
# Poissons Ratio (x) = 0.27046 0.21068
# Poissons Ratio (y) = 0.22448 0.23008
# Poissons Ratio (z) = 0.16193 0.21306
#
# Static dielectric constant tensor:
#      x y z
#    x 1.757770 0.000000 -0.046840 
#    y 0.000000 1.699760 0.000000 
#    z -0.046840 0.000000 1.809000 
# 
# From -- ./inp_files/8147.got.cif
#   From: 2010.05.17/outbox.cif.g08.bks.cpg/sg12_5_cif.got.tgz:8147.got - 2010.06.03 13:09:07.
