data_PCOD9216272
_publ_section_title
;
Structure prediction by ZEFSAII (Michael W. Deem and Ramdas Pophale) SiO2 
 PCOD9216272
Probable space group: C 2/M
;
_chemical_formula_sum "Si O2"
_cell_formula_units_Z 40
_cell_length_a 8.157355
_cell_length_b 14.458793
_cell_length_c 25.035067
_cell_angle_alpha 90.000000
_cell_angle_beta 144.156950
_cell_angle_gamma 90.000000
_cell_volume 1729.046572
_symmetry_space_group_name_H-M "C 2/M"
_symmetry_group_IT_number 12
_symmetry_cell_setting 'monoclinic'
loop_
_space_group_symop_operation_xyz
x,y,z
-x,y,-z
-x,-y,-z
x,-y,z
1/2+x,1/2+y,z
1/2-x,1/2+y,-z
1/2-x,1/2-y,-z
1/2+x,1/2-y,z
loop_
_atom_site_type_symbol
_atom_site_label
_atom_site_fract_x
_atom_site_fract_y
_atom_site_fract_z
Si Si1 0.731247 0.667666 0.790520
Si Si2 0.689747 0.500000 0.852630
Si Si3 0.329542 0.208896 0.398969
Si Si4 0.681617 0.104823 0.397396
Si Si5 0.335963 0.683054 0.908464
Si Si6 0.143710 0.000000 0.958035
O O1 0.625197 0.591237 0.803559
O O2 0.483168 0.668646 0.682154
O O3 0.792023 0.757046 0.843687
O O4 0.030739 0.648143 0.844569
O O5 0.549582 0.500000 0.872230
O O6 0.024227 0.500000 0.948991
O O7 0.500000 0.200416 0.500000
O O8 0.502993 0.158077 0.397178
O O9 0.240819 0.317249 0.367664
O O10 0.000000 0.091767 0.500000
O O11 0.572087 0.000000 0.357139
O O12 0.528046 0.594491 0.950566
O O13 0.500000 0.737219 0.000000
#
# Coordination Sequence:
#
# PCOD9216272 Si02
#       6
#     8   4   8   8   8   4
#     4  12  26  43  71 104 141 181 237 286 354 421
#     4  11  25  44  68 101 136 181 235 292 345 433
#     4  11  24  47  73 101 144 192 238 300 352 423
#     4  10  22  43  72 101 135 183 242 298 359 419
#     4  12  24  44  68 103 139 184 224 290 352 426
#     4  11  24  45  72  96 138 186 228 287 363 416
#
# _framework density 23.134138
#
# number of rings (size 3 to 8) (size 9 to 14) (size 15 to 20)
#    0.000    0.800    2.000    6.300    4.200    0.400 
#    1.800    1.000    4.400    0.600    0.000    0.000 
#    0.000    0.000    0.000    0.000    0.000    0.000 
#
# Total GULP energy -111588.135098 kJ/mol
# GULP energy per Si atom -5579.406755 kJ/mol
# Density = 2.308148 g / cm^3
# Si number density = 23.134138 Si / 1000 Ang^3
#
#
#
# Elastic Constant Matrix: (Units=GPa)
#
#
# Indices 1 2 3 4 5 6 
#
# 1 86.4576 31.5221 23.7810 0.0007 7.7415 -0.0012
# 2 31.5221 112.3531 6.6873 0.0004 -7.4420 -0.0005
# 3 23.7810 6.6873 148.6003 -0.0002 3.3365 0.0022
# 4 0.0007 0.0004 -0.0002 69.7976 0.0003 -100.9830
# 5 7.7415 -7.4420 3.3365 0.0003 27.2421 -0.0009
# 6 -0.0012 -0.0005 0.0022 -100.9830 -0.0009 158.7155
#
#
#
# Elastic Compliance Matrix: (Units=1/GPa)
#
#
# Indices 1 2 3 4 5 6 
#
# 1 0.014055 -0.004151 -0.001953 0.000001 -0.004889 0.000000
# 2 -0.004151 0.010323 0.000110 0.000000 0.003986 0.000000
# 3 -0.001953 0.000110 0.007043 -0.000002 -0.000278 -0.000001
# 4 0.000001 0.000000 -0.000002 0.180278 0.000002 0.114702
# 5 -0.004889 0.003986 -0.000278 0.000002 0.039220 0.000001
# 6 0.000000 0.000000 -0.000001 0.114702 0.000001 0.079280
#
#
# Mechanical properties :
#
#
# Convention : Reuss Voigt Hill
#
# Bulk Modulus (GPa) = 51.45640 52.37687 51.91663
# Shear Modulus (GPa) = 14.34052 70.17908 42.25980
#
# Velocity S-wave (km/s) = 2.49245 5.51376 4.27866
# Velocity P-wave (km/s) = 5.52938 7.95142 6.84832
#
# Compressibility (1/GPa) = 0.01943393
#
# Stress axis : x y z
#
# Youngs Moduli (GPa) = 71.15130 96.87550 141.98052
#
# Poissons Ratio (x) = 0.40211 0.27724
# Poissons Ratio (y) = 0.29533 -0.01565
# Poissons Ratio (z) = 0.13893 -0.01068
#
# Static dielectric constant tensor:
#      x y z
#    x 1.887630 0.000000 -0.028490 
#    y 0.000000 1.914020 0.000000 
#    z -0.028490 0.000000 1.891170 
# 
# From -- ./inp_files/372696.got.cif
#   From: 2010.05.17/outbox.cif.g08.bks.cpg/sg12_187_cif.got.tgz:372696.got - 2010.06.03 13:09:07.
