data_PCOD9216023
_publ_section_title
;
Structure prediction by ZEFSAII (Michael W. Deem and Ramdas Pophale) SiO2 
 PCOD9216023
Probable space group: C 2/M
;
_chemical_formula_sum "Si O2"
_cell_formula_units_Z 56
_cell_length_a 5.254092
_cell_length_b 30.219835
_cell_length_c 18.679547
_cell_angle_alpha 90.000000
_cell_angle_beta 120.565564
_cell_angle_gamma 90.000000
_cell_volume 2553.779353
_symmetry_space_group_name_H-M "C 2/M"
_symmetry_group_IT_number 12
_symmetry_cell_setting 'monoclinic'
loop_
_space_group_symop_operation_xyz
x,y,z
-x,y,-z
-x,-y,-z
x,-y,z
1/2+x,1/2+y,z
1/2-x,1/2+y,-z
1/2-x,1/2-y,-z
1/2+x,1/2-y,z
loop_
_atom_site_type_symbol
_atom_site_label
_atom_site_fract_x
_atom_site_fract_y
_atom_site_fract_z
Si Si1 0.067525 0.948277 0.640297
Si Si2 0.336265 0.273185 0.899725
Si Si3 0.000000 0.602380 0.500000
Si Si4 0.678949 0.919819 0.177475
Si Si5 0.351950 0.723723 0.399813
Si Si6 0.084394 0.365798 0.361562
Si Si7 0.332186 0.364354 0.818693
Si Si8 0.147506 0.500000 0.943820
O O1 0.764590 0.928814 0.565275
O O2 0.107473 0.940799 0.731060
O O3 0.311277 0.915468 0.641725
O O4 0.104348 0.000000 0.628635
O O5 0.498454 0.237761 0.871370
O O6 0.387535 0.319647 0.868820
O O7 0.500000 0.273174 0.000000
O O8 0.077861 0.634171 0.445648
O O9 0.449665 0.886905 0.183302
O O10 0.882865 0.895550 0.148165
O O11 0.476858 0.957561 0.115105
O O12 0.500000 0.722933 0.500000
O O13 0.545012 0.751339 0.371705
O O14 0.301032 0.673296 0.367974
O O15 0.777174 0.356530 0.278298
O O16 0.500000 0.500000 0.000000
O O17 0.000000 0.500000 0.000000
#
# Coordination Sequence:
#
# PCOD9216023 Si02
#       8
#     8   8   4   8   8   8   8   4
#     4  11  24  44  68  97 137 189 236 302 364 424
#     4  10  22  42  70 105 141 178 228 290 351 425
#     4  12  23  42  66  98 140 180 252 294 359 428
#     4  11  24  46  67 103 141 182 233 287 348 420
#     4  10  23  39  62  88 124 174 230 286 356 410
#     4  11  26  41  65  97 139 181 244 302 355 425
#     4  11  24  43  70  99 140 187 228 282 357 417
#     4  12  26  46  74 105 139 181 227 284 350 422
#
# _framework density 21.928283
#
# number of rings (size 3 to 8) (size 9 to 14) (size 15 to 20)
#    0.000    1.143    2.143    3.214    5.000    4.571 
#    1.286    0.000    0.000    0.000    0.000    0.000 
#    0.000    0.000    0.000    0.000    0.000    0.000 
#
# Total GULP energy -156575.522027 kJ/mol
# GULP energy per Si atom -5591.982930 kJ/mol
# Density = 2.187837 g / cm^3
# Si number density = 21.928283 Si / 1000 Ang^3
#
#
#
# Elastic Constant Matrix: (Units=GPa)
#
#
# Indices 1 2 3 4 5 6 
#
# 1 104.6992 34.2927 20.1364 0.0000 0.9618 0.0000
# 2 34.2927 95.4156 8.2240 0.0000 -6.5524 0.0000
# 3 20.1364 8.2240 51.6327 0.0000 -1.0765 0.0000
# 4 0.0000 0.0000 0.0000 30.6175 0.0000 -0.3055
# 5 0.9618 -6.5524 -1.0765 0.0000 23.5205 0.0000
# 6 0.0000 0.0000 0.0000 -0.3055 0.0000 32.8390
#
#
#
# Elastic Compliance Matrix: (Units=1/GPa)
#
#
# Indices 1 2 3 4 5 6 
#
# 1 0.011621 -0.003958 -0.003938 0.000000 -0.001758 0.000000
# 2 -0.003958 0.012174 -0.000322 0.000000 0.003538 0.000000
# 3 -0.003938 -0.000322 0.020976 0.000000 0.001031 0.000000
# 4 0.000000 0.000000 0.000000 0.032664 0.000000 0.000304
# 5 -0.001758 0.003538 0.001031 0.000000 0.043621 0.000000
# 6 0.000000 0.000000 0.000000 0.000304 0.000000 0.030454
#
#
# Mechanical properties :
#
#
# Convention : Reuss Voigt Hill
#
# Bulk Modulus (GPa) = 35.29197 41.89487 38.59342
# Shear Modulus (GPa) = 28.18621 30.00168 29.09395
#
# Velocity S-wave (km/s) = 3.58911 3.70289 3.64645
# Velocity P-wave (km/s) = 5.77103 6.11791 5.94700
#
# Compressibility (1/GPa) = 0.02833505
#
# Stress axis : x y z
#
# Youngs Moduli (GPa) = 86.04999 82.14440 47.67293
#
# Poissons Ratio (x) = 0.32512 0.18776
# Poissons Ratio (y) = 0.34058 0.01533
# Poissons Ratio (z) = 0.33890 0.02642
#
# Static dielectric constant tensor:
#      x y z
#    x 1.832510 0.000000 0.002570 
#    y 0.000000 1.796540 0.000000 
#    z 0.002570 0.000000 1.817430 
# 
# From -- ./inp_files/254058.got.cif
#   From: 2010.05.17/outbox.cif.g08.bks.cpg/sg12_128_cif.got.tgz:254058.got - 2010.06.03 13:09:07.
