data_PCOD9216941
_publ_section_title
;
Structure prediction by ZEFSAII (Michael W. Deem and Ramdas Pophale) SiO2 
 PCOD9216941
Probable space group: C 2/M
;
_chemical_formula_sum "Si O2"
_cell_formula_units_Z 48
_cell_length_a 14.812948
_cell_length_b 8.622892
_cell_length_c 30.651062
_cell_angle_alpha 90.000000
_cell_angle_beta 37.209934
_cell_angle_gamma 90.000000
_cell_volume 2367.590904
_symmetry_space_group_name_H-M "C 2/M"
_symmetry_group_IT_number 12
_symmetry_cell_setting 'monoclinic'
loop_
_space_group_symop_operation_xyz
x,y,z
-x,y,-z
-x,-y,-z
x,-y,z
1/2+x,1/2+y,z
1/2-x,1/2+y,-z
1/2-x,1/2-y,-z
1/2+x,1/2-y,z
loop_
_atom_site_type_symbol
_atom_site_label
_atom_site_fract_x
_atom_site_fract_y
_atom_site_fract_z
Si Si1 0.355590 0.817801 0.746852
Si Si2 0.825901 0.316454 0.105526
Si Si3 0.868023 0.183913 0.489309
Si Si4 0.823947 0.316046 0.663391
Si Si5 0.829553 0.181901 0.364417
Si Si6 0.344559 0.685546 0.004420
O O1 0.292472 0.722931 0.811574
O O2 0.283233 0.772562 0.728343
O O3 0.530649 0.781861 0.673961
O O4 0.330859 0.000000 0.764128
O O5 0.840549 0.500000 0.093913
O O6 0.784715 0.241225 0.074763
O O7 0.985014 0.248042 0.060291
O O8 0.750000 0.250000 0.500000
O O9 0.818663 0.264714 0.553249
O O10 0.031110 0.226552 0.409356
O O11 0.853444 0.000000 0.499228
O O12 0.861658 0.500000 0.649451
O O13 0.695660 0.294720 0.677218
O O14 0.856009 0.000000 0.363073
O O15 0.346121 0.500000 0.002021
O O16 0.250000 0.750000 0.000000
#
# Coordination Sequence:
#
# PCOD9216941 Si02
#       6
#     8   8   8   8   8   8
#     4  11  23  41  62  87 123 165 205 249 303 362
#     4  11  23  41  64  94 130 167 207 252 304 360
#     4  12  23  37  60  86 115 153 201 255 311 365
#     4  10  23  41  61  85 118 157 200 251 309 364
#     4  11  23  40  61  87 118 157 203 253 310 367
#     4  11  22  41  68  98 129 164 207 252 303 360
#
# _framework density 20.273772000000001
#
# number of rings (size 3 to 8) (size 9 to 14) (size 15 to 20)
#    0.000    1.000    1.667    7.000    0.000    5.333 
#    0.000    5.000    0.000    0.000    0.000    0.000 
#    0.000    0.000    0.000    0.000    0.000    0.000 
#
# Total GULP energy -134212.652189 kJ/mol
# GULP energy per Si atom -5592.193841 kJ/mol
# Density = 2.022763 g / cm^3
# Si number density = 20.273772 Si / 1000 Ang^3
#
#
#
# Elastic Constant Matrix: (Units=GPa)
#
#
# Indices 1 2 3 4 5 6 
#
# 1 99.8252 37.5900 14.3845 0.0000 30.7512 -0.0004
# 2 37.5900 103.9700 13.5938 0.0002 16.0164 -0.0013
# 3 14.3845 13.5938 75.8320 0.0000 22.8133 0.0001
# 4 0.0000 0.0002 0.0000 34.3604 0.0001 -0.7821
# 5 30.7512 16.0164 22.8133 0.0001 24.3873 -0.0001
# 6 -0.0004 -0.0013 0.0001 -0.7821 -0.0001 26.5127
#
#
#
# Elastic Compliance Matrix: (Units=1/GPa)
#
#
# Indices 1 2 3 4 5 6 
#
# 1 0.018467 -0.003366 0.004788 0.000000 -0.025555 0.000000
# 2 -0.003366 0.011318 -0.000600 0.000000 -0.002628 0.000000
# 3 0.004788 -0.000600 0.019600 0.000000 -0.023979 0.000000
# 4 0.000000 0.000000 0.000000 0.029123 0.000000 0.000859
# 5 -0.025555 -0.002628 -0.023979 0.000000 0.097385 0.000000
# 6 0.000000 0.000000 0.000000 0.000859 0.000000 0.037743
#
#
# Mechanical properties :
#
#
# Convention : Reuss Voigt Hill
#
# Bulk Modulus (GPa) = 19.59627 45.64044 32.61835
# Shear Modulus (GPa) = 21.83379 31.32265 26.57822
#
# Velocity S-wave (km/s) = 3.28525 3.93489 3.62465
# Velocity P-wave (km/s) = 4.90686 6.57308 5.80012
#
# Compressibility (1/GPa) = 0.05103012
#
# Stress axis : x y z
#
# Youngs Moduli (GPa) = 54.14988 88.35175 51.02013
#
# Poissons Ratio (x) = 0.29741 -0.24430
# Poissons Ratio (y) = 0.18228 0.03061
# Poissons Ratio (z) = -0.25929 0.05301
#
# Static dielectric constant tensor:
#      x y z
#    x 1.717030 0.000000 0.019220 
#    y 0.000000 1.682970 0.000000 
#    z 0.019220 0.000000 1.734170 
# 
# From -- ./inp_files/360251.got.cif
#   From: 2010.05.17/outbox.cif.g08.bks.cpg/sg12_181_cif.got.tgz:360251.got - 2010.06.03 13:09:07.
