data_PCOD9216534
_publ_section_title
;
Structure prediction by ZEFSAII (Michael W. Deem and Ramdas Pophale) SiO2 
 PCOD9216534
Probable space group: C 2/M
;
_chemical_formula_sum "Si O2"
_cell_formula_units_Z 40
_cell_length_a 25.194392
_cell_length_b 7.546790
_cell_length_c 9.479910
_cell_angle_alpha 90.000000
_cell_angle_beta 78.917056
_cell_angle_gamma 90.000000
_cell_volume 1768.863246
_symmetry_space_group_name_H-M "C 2/M"
_symmetry_group_IT_number 12
_symmetry_cell_setting 'monoclinic'
loop_
_space_group_symop_operation_xyz
x,y,z
-x,y,-z
-x,-y,-z
x,-y,z
1/2+x,1/2+y,z
1/2-x,1/2+y,-z
1/2-x,1/2-y,-z
1/2+x,1/2-y,z
loop_
_atom_site_type_symbol
_atom_site_label
_atom_site_fract_x
_atom_site_fract_y
_atom_site_fract_z
Si Si1 0.744581 0.289218 0.666426
Si Si2 0.420680 0.699202 0.956980
Si Si3 0.081727 0.500000 0.542555
Si Si4 0.962893 0.500000 0.737303
Si Si5 0.876252 0.786607 0.274774
Si Si6 0.806381 0.711491 0.891975
O O1 0.745307 0.500000 0.685267
O O2 0.750000 0.250000 0.500000
O O3 0.684405 0.230589 0.739812
O O4 0.792613 0.223068 0.740794
O O5 0.442034 0.500000 0.938018
O O6 0.358791 0.700868 0.932107
O O7 0.452877 0.831681 0.841512
O O8 0.415673 0.754121 0.123463
O O9 0.078218 0.500000 0.375486
O O10 0.109609 0.673548 0.594858
O O11 0.021473 0.500000 0.637407
O O12 0.877003 0.000000 0.296935
O O13 0.816157 0.500000 0.891212
O O14 0.750000 0.750000 0.000000
#
# Coordination Sequence:
#
# PCOD9216534 Si02
#       6
#     8   8   4   4   8   8
#     4  10  23  37  55  90 133 171 213 256 312 382
#     4  11  23  42  68  98 133 172 222 275 325 392
#     4  11  27  47  73  91 133 171 215 285 346 397
#     4  11  27  49  67 101 125 169 225 279 346 399
#     4  10  23  43  66  98 133 171 220 272 326 394
#     4  11  21  36  59  92 133 175 217 258 312 384
#
# _framework density 22.613395000000001
#
# number of rings (size 3 to 8) (size 9 to 14) (size 15 to 20)
#    0.000    1.400    3.000    1.200    4.200    4.800 
#    0.000    4.000    0.000    0.000    0.000    0.000 
#    0.000    0.000    0.000    0.000    0.000    0.000 
#
# Total GULP energy -111898.127071 kJ/mol
# GULP energy per Si atom -5594.906354 kJ/mol
# Density = 2.256193 g / cm^3
# Si number density = 22.613395 Si / 1000 Ang^3
#
#
#
# Elastic Constant Matrix: (Units=GPa)
#
#
# Indices 1 2 3 4 5 6 
#
# 1 65.6135 8.5280 0.6320 0.0000 6.7303 0.0000
# 2 8.5280 97.2676 26.7822 0.0000 -0.6197 0.0000
# 3 0.6320 26.7822 95.6977 0.0000 2.0458 0.0000
# 4 0.0000 0.0000 0.0000 25.3040 0.0000 -2.1834
# 5 6.7303 -0.6197 2.0458 0.0000 41.1560 0.0000
# 6 0.0000 0.0000 0.0000 -2.1834 0.0000 9.8880
#
#
#
# Elastic Compliance Matrix: (Units=1/GPa)
#
#
# Indices 1 2 3 4 5 6 
#
# 1 0.015699 -0.001495 0.000370 0.000000 -0.002608 0.000000
# 2 -0.001495 0.011286 -0.003161 0.000000 0.000572 0.000000
# 3 0.000370 -0.003161 0.011346 0.000000 -0.000672 0.000000
# 4 0.000000 0.000000 0.000000 0.040287 0.000000 0.008896
# 5 -0.002608 0.000572 -0.000672 0.000000 0.024766 0.000000
# 6 0.000000 0.000000 0.000000 0.008896 0.000000 0.103097
#
#
# Mechanical properties :
#
#
# Convention : Reuss Voigt Hill
#
# Bulk Modulus (GPa) = 33.60188 36.71814 35.16001
# Shear Modulus (GPa) = 22.22491 30.11204 26.16847
#
# Velocity S-wave (km/s) = 3.13840 3.65307 3.40547
# Velocity P-wave (km/s) = 5.29379 5.83659 5.57181
#
# Compressibility (1/GPa) = 0.02976024
#
# Stress axis : x y z
#
# Youngs Moduli (GPa) = 63.69817 88.60558 88.13598
#
# Poissons Ratio (x) = 0.13247 -0.03265
# Poissons Ratio (y) = 0.09523 0.27859
# Poissons Ratio (z) = -0.02360 0.28007
#
# Static dielectric constant tensor:
#      x y z
#    x 1.848860 0.000000 -0.004990 
#    y 0.000000 1.818200 0.000000 
#    z -0.004990 0.000000 1.833530 
# 
# From -- ./inp_files/92866.got.cif
#   From: 2010.05.17/outbox.cif.g08.bks.cpg/sg12_47_cif.got.tgz:92866.got - 2010.06.03 13:09:07.
