data_PCOD9216388
_publ_section_title
;
Structure prediction by ZEFSAII (Michael W. Deem and Ramdas Pophale) SiO2 
 PCOD9216388
Probable space group: C 2/M
;
_chemical_formula_sum "Si O2"
_cell_formula_units_Z 48
_cell_length_a 8.833624
_cell_length_b 14.301214
_cell_length_c 19.008370
_cell_angle_alpha 90.000000
_cell_angle_beta 80.056783
_cell_angle_gamma 90.000000
_cell_volume 2365.286885
_symmetry_space_group_name_H-M "C 2/M"
_symmetry_group_IT_number 12
_symmetry_cell_setting 'monoclinic'
loop_
_space_group_symop_operation_xyz
x,y,z
-x,y,-z
-x,-y,-z
x,-y,z
1/2+x,1/2+y,z
1/2-x,1/2+y,-z
1/2-x,1/2-y,-z
1/2+x,1/2-y,z
loop_
_atom_site_type_symbol
_atom_site_label
_atom_site_fract_x
_atom_site_fract_y
_atom_site_fract_z
Si Si1 0.902485 0.786050 0.754148
Si Si2 0.683760 0.350249 0.984420
Si Si3 0.538339 0.888268 0.414282
Si Si4 0.106623 0.608235 0.161109
Si Si5 0.279830 0.101921 0.124629
Si Si6 0.309192 0.249809 0.347331
O O1 0.888596 0.675849 0.772790
O O2 0.847795 0.833571 0.829888
O O3 0.789516 0.810688 0.699890
O O4 0.070441 0.804425 0.712025
O O5 0.752117 0.378046 0.903719
O O6 0.500000 0.354286 0.000000
O O7 0.750000 0.250000 0.000000
O O8 0.753470 0.406075 0.044212
O O9 0.500000 0.890236 0.500000
O O10 0.407309 0.822589 0.387265
O O11 0.694794 0.826195 0.391098
O O12 0.546041 0.000000 0.391194
O O13 0.098326 0.500000 0.181308
O O14 0.951144 0.635045 0.130374
O O15 0.262618 0.000000 0.158862
#
# Coordination Sequence:
#
# PCOD9216388 Si02
#       6
#     8   8   8   8   8   8
#     4  11  22  40  61  93 129 171 208 263 318 384
#     4  12  25  40  62  85 116 157 214 281 334 387
#     4  10  22  44  74 105 138 178 221 266 319 383
#     4  11  24  42  64  87 120 165 216 270 333 393
#     4  11  24  41  61  87 120 162 209 264 332 390
#     4  10  23  40  67  99 140 173 216 263 324 382
#
# _framework density 20.293520000000001
#
# number of rings (size 3 to 8) (size 9 to 14) (size 15 to 20)
#    0.000    1.167    3.333    2.500    2.333    6.667 
#    0.000    2.500    0.000    9.000    0.000    0.000 
#    0.000    0.000    0.000    0.000    0.000    0.000 
#
# Total GULP energy -133850.995114 kJ/mol
# GULP energy per Si atom -5577.124796 kJ/mol
# Density = 2.024733 g / cm^3
# Si number density = 20.293520 Si / 1000 Ang^3
#
#
#
# Elastic Constant Matrix: (Units=GPa)
#
#
# Indices 1 2 3 4 5 6 
#
# 1 128.4198 34.5206 36.4326 0.0000 -6.2392 0.0000
# 2 34.5206 123.4971 32.3259 0.0000 -4.7446 0.0000
# 3 36.4326 32.3259 76.7320 0.0000 -13.4314 0.0000
# 4 0.0000 0.0000 0.0000 11.0772 0.0000 8.0224
# 5 -6.2392 -4.7446 -13.4314 0.0000 34.6860 0.0000
# 6 0.0000 0.0000 0.0000 8.0224 0.0000 10.2279
#
#
#
# Elastic Compliance Matrix: (Units=1/GPa)
#
#
# Indices 1 2 3 4 5 6 
#
# 1 0.009278 -0.001619 -0.003722 0.000000 0.000006 0.000000
# 2 -0.001619 0.009386 -0.003230 0.000000 -0.000258 0.000000
# 3 -0.003722 -0.003230 0.017127 0.000000 0.005521 0.000000
# 4 0.000000 0.000000 0.000000 0.209000 0.000000 -0.163931
# 5 0.000006 -0.000258 0.005521 0.000000 0.030934 0.000000
# 6 0.000000 0.000000 0.000000 -0.163931 0.000000 0.226353
#
#
# Mechanical properties :
#
#
# Convention : Reuss Voigt Hill
#
# Bulk Modulus (GPa) = 53.62660 59.46746 56.54703
# Shear Modulus (GPa) = 9.51589 26.22287 17.86938
#
# Velocity S-wave (km/s) = 2.16779 3.59859 2.97062
# Velocity P-wave (km/s) = 5.72264 6.82889 6.30009
#
# Compressibility (1/GPa) = 0.01864746
#
# Stress axis : x y z
#
# Youngs Moduli (GPa) = 107.77625 106.54638 58.38723
#
# Poissons Ratio (x) = 0.17250 0.21734
# Poissons Ratio (y) = 0.17449 0.18862
# Poissons Ratio (z) = 0.40118 0.34420
#
# Static dielectric constant tensor:
#      x y z
#    x 1.774200 0.000000 0.012000 
#    y 0.000000 1.768810 0.000000 
#    z 0.012000 0.000000 1.711540 
# 
# From -- ./inp_files/255765.got.cif
#   From: 2010.05.17/outbox.cif.g08.bks.cpg/sg12_128_cif.got.tgz:255765.got - 2010.06.03 13:09:07.
