data_PCOD9216823
_publ_section_title
;
Structure prediction by ZEFSAII (Michael W. Deem and Ramdas Pophale) SiO2 
 PCOD9216823
Probable space group: C 2/M
;
_chemical_formula_sum "Si O2"
_cell_formula_units_Z 40
_cell_length_a 5.341263
_cell_length_b 21.639835
_cell_length_c 14.229683
_cell_angle_alpha 90.000000
_cell_angle_beta 62.644084
_cell_angle_gamma 90.000000
_cell_volume 1460.793555
_symmetry_space_group_name_H-M "C 2/M"
_symmetry_group_IT_number 12
_symmetry_cell_setting 'monoclinic'
loop_
_space_group_symop_operation_xyz
x,y,z
-x,y,-z
-x,-y,-z
x,-y,z
1/2+x,1/2+y,z
1/2-x,1/2+y,-z
1/2-x,1/2-y,-z
1/2+x,1/2-y,z
loop_
_atom_site_type_symbol
_atom_site_label
_atom_site_fract_x
_atom_site_fract_y
_atom_site_fract_z
Si Si1 0.606276 0.268870 0.624637
Si Si2 0.077476 0.431067 0.389899
Si Si3 0.881689 0.211178 0.127454
Si Si4 0.733756 0.427338 0.877925
Si Si5 0.203767 0.894894 0.278014
O O1 0.750000 0.250000 0.500000
O O2 0.347459 0.220690 0.660742
O O3 0.414653 0.329019 0.668439
O O4 0.966332 0.500000 0.420084
O O5 0.413294 0.431777 0.319415
O O6 0.000000 0.396132 0.500000
O O7 0.900406 0.410640 0.332116
O O8 0.594742 0.249722 0.156429
O O9 0.860215 0.138039 0.156235
O O10 0.000000 0.209659 0.000000
O O11 0.746431 0.500000 0.840144
O O12 0.064028 0.408731 0.843698
O O13 0.500000 0.431121 0.000000
#
# Coordination Sequence:
#
# PCOD9216823 Si02
#       5
#     8   8   8   8   8
#     4  10  23  40  65 101 138 181 234 296 361 437
#     4  11  25  43  68 100 135 179 232 291 364 447
#     4   9  19  38  65  95 132 180 237 299 362 428
#     4  10  23  45  73 108 151 199 254 314 372 438
#     4  12  25  43  72  99 143 190 238 298 368 440
#
# _framework density 27.382379
#
# number of rings (size 3 to 8) (size 9 to 14) (size 15 to 20)
#    0.000    1.600    0.000    3.600    8.400    4.800 
#    0.000    6.000    0.000   14.400    0.000    0.000 
#    0.000    0.000    0.000    0.000    0.000    0.000 
#
# Total GULP energy -111447.324448 kJ/mol
# GULP energy per Si atom -5572.366222 kJ/mol
# Density = 2.732006 g / cm^3
# Si number density = 27.382379 Si / 1000 Ang^3
#
#
#
# Elastic Constant Matrix: (Units=GPa)
#
#
# Indices 1 2 3 4 5 6 
#
# 1 211.2291 55.4397 41.2169 0.0000 -15.4038 0.0000
# 2 55.4397 213.9379 40.5000 0.0000 -3.6265 0.0000
# 3 41.2169 40.5000 145.8772 0.0000 -32.8049 0.0000
# 4 0.0000 0.0000 0.0000 47.0655 0.0000 -4.7898
# 5 -15.4038 -3.6265 -32.8049 0.0000 49.0568 0.0000
# 6 0.0000 0.0000 0.0000 -4.7898 0.0000 31.9870
#
#
#
# Elastic Compliance Matrix: (Units=1/GPa)
#
#
# Indices 1 2 3 4 5 6 
#
# 1 0.005298 -0.001175 -0.000961 0.000000 0.000934 0.000000
# 2 -0.001175 0.005212 -0.001308 0.000000 -0.000858 0.000000
# 3 -0.000961 -0.001308 0.008710 0.000000 0.005426 0.000000
# 4 0.000000 0.000000 0.000000 0.021576 0.000000 0.003231
# 5 0.000934 -0.000858 0.005426 0.000000 0.024243 0.000000
# 6 0.000000 0.000000 0.000000 0.003231 0.000000 0.031747
#
#
# Mechanical properties :
#
#
# Convention : Reuss Voigt Hill
#
# Bulk Modulus (GPa) = 81.08761 93.92861 87.50811
# Shear Modulus (GPa) = 46.38925 54.54769 50.46847
#
# Velocity S-wave (km/s) = 4.12044 4.46811 4.29779
# Velocity P-wave (km/s) = 7.23289 7.80997 7.52697
#
# Compressibility (1/GPa) = 0.01233234
#
# Stress axis : x y z
#
# Youngs Moduli (GPa) = 188.74178 191.86967 114.81291
#
# Poissons Ratio (x) = 0.22550 0.11028
# Poissons Ratio (y) = 0.22183 0.15017
# Poissons Ratio (z) = 0.18130 0.25095
#
# Static dielectric constant tensor:
#      x y z
#    x 2.205870 0.000000 0.138800 
#    y 0.000000 2.283470 0.000000 
#    z 0.138800 0.000000 2.454160 
# 
# From -- ./inp_files/297814.got.cif
#   From: 2010.05.17/outbox.cif.g08.bks.cpg/sg12_149_cif.got.tgz:297814.got - 2010.06.03 13:09:07.
