data_PCOD9216834
_publ_section_title
;
Structure prediction by ZEFSAII (Michael W. Deem and Ramdas Pophale) SiO2 
 PCOD9216834
Probable space group: C 2/M
;
_chemical_formula_sum "Si O2"
_cell_formula_units_Z 36
_cell_length_a 8.045633
_cell_length_b 17.929186
_cell_length_c 10.487241
_cell_angle_alpha 90.000000
_cell_angle_beta 79.231077
_cell_angle_gamma 90.000000
_cell_volume 1486.159479
_symmetry_space_group_name_H-M "C 2/M"
_symmetry_group_IT_number 12
_symmetry_cell_setting 'monoclinic'
loop_
_space_group_symop_operation_xyz
x,y,z
-x,y,-z
-x,-y,-z
x,-y,z
1/2+x,1/2+y,z
1/2-x,1/2+y,-z
1/2-x,1/2-y,-z
1/2+x,1/2-y,z
loop_
_atom_site_type_symbol
_atom_site_label
_atom_site_fract_x
_atom_site_fract_y
_atom_site_fract_z
Si Si1 0.376991 0.287307 0.784261
Si Si2 0.790246 0.138589 0.148873
Si Si3 0.184772 0.581765 0.910918
Si Si4 0.309308 0.913673 0.565893
Si Si5 0.000000 0.184429 0.500000
O O1 0.323479 0.211853 0.859941
O O2 0.535414 0.326201 0.827998
O O3 0.230292 0.349966 0.812354
O O4 0.429102 0.270976 0.631368
O O5 0.711945 0.094273 0.278523
O O6 0.799542 0.091110 0.020359
O O7 0.208237 0.500000 0.847876
O O8 0.000000 0.585906 0.000000
O O9 0.500000 0.892111 0.500000
O O10 0.158524 0.865044 0.525924
O O11 0.285444 0.000000 0.532266
#
# Coordination Sequence:
#
# PCOD9216834 Si02
#       5
#     8   8   8   8   4
#     4  11  25  42  68  97 132 176 216 273 328 391
#     4  11  24  42  66  95 132 169 222 269 329 392
#     4  11  25  44  68  96 129 172 219 273 331 393
#     4  10  23  40  65  95 132 177 219 273 328 392
#     4  10  25  42  66  98 135 178 220 276 327 400
#
# _framework density 24.223510999999998
#
# number of rings (size 3 to 8) (size 9 to 14) (size 15 to 20)
#    0.000    1.333    0.000    3.667    7.778    8.000 
#    0.000    0.000    0.000    0.000    0.000    0.000 
#    0.000    0.000    0.000    0.000    0.000    0.000 
#
# Total GULP energy -100814.018354 kJ/mol
# GULP energy per Si atom -5600.778797 kJ/mol
# Density = 2.416838 g / cm^3
# Si number density = 24.223511 Si / 1000 Ang^3
#
#
#
# Elastic Constant Matrix: (Units=GPa)
#
#
# Indices 1 2 3 4 5 6 
#
# 1 87.7054 10.4736 5.8263 0.0000 -19.6890 0.0000
# 2 10.4736 101.9658 -2.7369 0.0000 -15.2833 0.0000
# 3 5.8263 -2.7369 75.5750 0.0000 -3.2975 0.0000
# 4 0.0000 0.0000 0.0000 290.4740 0.0000 -66.7697
# 5 -19.6890 -15.2833 -3.2975 0.0000 27.2074 0.0000
# 6 0.0000 0.0000 0.0000 -66.7697 0.0000 21.6250
#
#
#
# Elastic Compliance Matrix: (Units=1/GPa)
#
#
# Indices 1 2 3 4 5 6 
#
# 1 0.013643 0.000055 -0.000621 0.000000 0.009829 0.000000
# 2 0.000055 0.010741 0.000653 0.000000 0.006153 0.000000
# 3 -0.000621 0.000653 0.013371 0.000000 0.001538 0.000000
# 4 0.000000 0.000000 0.000000 0.011860 0.000000 0.036620
# 5 0.009829 0.006153 0.001538 0.000000 0.047510 0.000000
# 6 0.000000 0.000000 0.000000 0.036620 0.000000 0.159311
#
#
# Mechanical properties :
#
#
# Convention : Reuss Voigt Hill
#
# Bulk Modulus (GPa) = 26.36468 32.48581 29.42524
# Shear Modulus (GPa) = 18.59397 84.64016 51.61706
#
# Velocity S-wave (km/s) = 2.77357 5.91753 4.62114
# Velocity P-wave (km/s) = 4.60048 7.75432 6.37550
#
# Compressibility (1/GPa) = 0.03792953
#
# Stress axis : x y z
#
# Youngs Moduli (GPa) = 73.29834 93.09863 74.79139
#
# Poissons Ratio (x) = -0.00513 0.04644
# Poissons Ratio (y) = -0.00404 -0.04885
# Poissons Ratio (z) = 0.04551 -0.06081
#
# Static dielectric constant tensor:
#      x y z
#    x 2.005760 0.000000 -0.012800 
#    y 0.000000 1.879600 0.000000 
#    z -0.012800 0.000000 1.900790 
# 
# From -- ./inp_files/118740.got.cif
#   From: 2010.05.17/outbox.cif.g08.bks.cpg/sg12_60_cif.got.tgz:118740.got - 2010.06.03 13:09:07.
