data_PCOD9216209
_publ_section_title
;
Structure prediction by ZEFSAII (Michael W. Deem and Ramdas Pophale) SiO2 
 PCOD9216209
Probable space group: C 2/M
;
_chemical_formula_sum "Si O2"
_cell_formula_units_Z 42
_cell_length_a 15.372915
_cell_length_b 20.266727
_cell_length_c 6.403090
_cell_angle_alpha 90.000000
_cell_angle_beta 61.097411
_cell_angle_gamma 90.000000
_cell_volume 1746.454073
_symmetry_space_group_name_H-M "C 2/M"
_symmetry_group_IT_number 12
_symmetry_cell_setting 'monoclinic'
loop_
_space_group_symop_operation_xyz
x,y,z
-x,y,-z
-x,-y,-z
x,-y,z
1/2+x,1/2+y,z
1/2-x,1/2+y,-z
1/2-x,1/2-y,-z
1/2+x,1/2-y,z
loop_
_atom_site_type_symbol
_atom_site_label
_atom_site_fract_x
_atom_site_fract_y
_atom_site_fract_z
Si Si1 0.097242 0.787444 0.014563
Si Si2 0.000000 0.500000 0.500000
Si Si3 0.327153 0.199155 0.711115
Si Si4 0.701077 0.071333 0.964017
Si Si5 0.580605 0.111871 0.728110
Si Si6 0.569289 0.572758 0.223624
O O1 0.113434 0.753356 0.223264
O O2 0.076231 0.865060 0.065898
O O3 0.212031 0.780675 0.798196
O O4 0.000000 0.763809 0.000000
O O5 0.960333 0.558175 0.382626
O O6 0.382515 0.175105 0.441137
O O7 0.324928 0.133927 0.863026
O O8 0.668717 0.082196 0.765292
O O9 0.818308 0.066983 0.829631
O O10 0.658496 0.000000 0.096133
O O11 0.500000 0.124870 0.000000
O O12 0.500000 0.588080 0.500000
O O13 0.540291 0.500000 0.175687
#
# Coordination Sequence:
#
# PCOD9216209 Si02
#       6
#     8   2   8   8   8   8
#     4  10  23  48  75 110 146 199 247 308 386 445
#     4  12  26  44  68 110 156 198 256 304 354 456
#     4  10  25  47  72 109 154 192 255 313 361 458
#     4  10  22  43  69 104 147 198 242 301 371 427
#     4  12  26  43  70 104 151 204 249 302 370 428
#     4   9  20  42  72 106 144 181 242 304 366 455
#
# _framework density 24.048728000000001
#
# number of rings (size 3 to 8) (size 9 to 14) (size 15 to 20)
#    0.000    1.714    0.952    1.429    6.667    2.667 
#    8.571    2.857    0.000    1.143    0.000    0.000 
#    0.000    0.000    0.000    0.000    0.000    0.000 
#
# Total GULP energy -117225.394925 kJ/mol
# GULP energy per Si atom -5582.161663 kJ/mol
# Density = 2.399399 g / cm^3
# Si number density = 24.048728 Si / 1000 Ang^3
#
#
#
# Elastic Constant Matrix: (Units=GPa)
#
#
# Indices 1 2 3 4 5 6 
#
# 1 184.9976 56.3141 58.9494 0.0000 22.6605 0.0000
# 2 56.3141 101.7825 28.8090 0.0000 0.5217 0.0000
# 3 58.9494 28.8090 108.9731 0.0000 7.7679 0.0000
# 4 0.0000 0.0000 0.0000 41.8830 0.0000 -2.1423
# 5 22.6605 0.5217 7.7679 0.0000 24.4913 0.0000
# 6 0.0000 0.0000 0.0000 -2.1423 0.0000 11.5811
#
#
#
# Elastic Compliance Matrix: (Units=1/GPa)
#
#
# Indices 1 2 3 4 5 6 
#
# 1 0.008319 -0.003707 -0.003046 0.000000 -0.006652 0.000000
# 2 -0.003707 0.012282 -0.001502 0.000000 0.003644 0.000000
# 3 -0.003046 -0.001502 0.011273 0.000000 -0.000725 0.000000
# 4 0.000000 0.000000 0.000000 0.024104 0.000000 0.004459
# 5 -0.006652 0.003644 -0.000725 0.000000 0.047138 0.000000
# 6 0.000000 0.000000 0.000000 0.004459 0.000000 0.087172
#
#
# Mechanical properties :
#
#
# Convention : Reuss Voigt Hill
#
# Bulk Modulus (GPa) = 65.08104 75.98868 70.53486
# Shear Modulus (GPa) = 23.59386 32.36980 27.98183
#
# Velocity S-wave (km/s) = 3.13563 3.67278 3.41478
# Velocity P-wave (km/s) = 6.34275 7.04643 6.70383
#
# Compressibility (1/GPa) = 0.01536546
#
# Stress axis : x y z
#
# Youngs Moduli (GPa) = 120.20234 81.42000 88.70652
#
# Poissons Ratio (x) = 0.30179 0.27022
# Poissons Ratio (y) = 0.44554 0.13321
# Poissons Ratio (z) = 0.36617 0.12226
#
# Static dielectric constant tensor:
#      x y z
#    x 1.761240 0.000000 0.101710 
#    y 0.000000 1.962310 0.000000 
#    z 0.101710 0.000000 1.859350 
# 
# From -- ./inp_files/62650.got.cif
#   From: 2010.05.17/outbox.cif.g08.bks.cpg/sg12_32_cif.got.tgz:62650.got - 2010.06.03 13:09:07.
