data_PCOD9216538
_publ_section_title
;
Structure prediction by ZEFSAII (Michael W. Deem and Ramdas Pophale) SiO2 
 PCOD9216538
Probable space group: C 2/M
;
_chemical_formula_sum "Si O2"
_cell_formula_units_Z 48
_cell_length_a 7.049461
_cell_length_b 15.025923
_cell_length_c 25.711420
_cell_angle_alpha 90.000000
_cell_angle_beta 47.746878
_cell_angle_gamma 90.000000
_cell_volume 2015.864580
_symmetry_space_group_name_H-M "C 2/M"
_symmetry_group_IT_number 12
_symmetry_cell_setting 'monoclinic'
loop_
_space_group_symop_operation_xyz
x,y,z
-x,y,-z
-x,-y,-z
x,-y,z
1/2+x,1/2+y,z
1/2-x,1/2+y,-z
1/2-x,1/2-y,-z
1/2+x,1/2-y,z
loop_
_atom_site_type_symbol
_atom_site_label
_atom_site_fract_x
_atom_site_fract_y
_atom_site_fract_z
Si Si1 0.232605 0.395535 0.164919
Si Si2 0.641699 0.102487 0.861351
Si Si3 0.307151 0.645521 0.988751
Si Si4 0.830297 0.183754 0.253559
Si Si5 0.087482 0.820705 0.649887
Si Si6 0.973112 0.823393 0.449671
O O1 0.203621 0.500000 0.175075
O O2 0.188832 0.357008 0.230016
O O3 0.045458 0.370664 0.151893
O O4 0.524007 0.377021 0.092385
O O5 0.464062 0.104075 0.945336
O O6 0.872512 0.172601 0.817225
O O7 0.733940 0.000000 0.837163
O O8 0.500000 0.620100 0.000000
O O9 0.250000 0.750000 0.000000
O O10 0.820687 0.137287 0.312613
O O11 0.690052 0.277558 0.288152
O O12 0.082697 0.870514 0.595308
O O13 0.272817 0.735758 0.606206
O O14 0.750000 0.750000 0.500000
O O15 0.000000 0.873044 0.500000
#
# Coordination Sequence:
#
# PCOD9216538 Si02
#       6
#     8   8   8   8   8   8
#     4  10  23  41  59  78 111 158 209 258 308 367
#     4  10  23  41  59  78 111 158 209 257 307 367
#     4  10  23  37  58  84 108 143 201 266 322 356
#     4  11  23  34  56  81 124 156 196 234 311 352
#     4   9  20  31  50  89 123 153 188 241 283 343
#     4   8  14  30  53  79 122 162 184 222 285 345
#
# _framework density 23.811124
#
# number of rings (size 3 to 8) (size 9 to 14) (size 15 to 20)
#    0.000    2.333    0.000    1.000    9.333    2.000 
#    0.000    1.667    0.000    0.000    0.000    0.000 
#    0.000  336.000    0.000    0.000    0.000    0.000 
#
# Total GULP energy -133870.991812 kJ/mol
# GULP energy per Si atom -5577.957992 kJ/mol
# Density = 2.375693 g / cm^3
# Si number density = 23.811124 Si / 1000 Ang^3
#
#
#
# Elastic Constant Matrix: (Units=GPa)
#
#
# Indices 1 2 3 4 5 6 
#
# 1 126.9916 10.6603 55.1102 -0.0032 18.5215 0.0038
# 2 10.6603 36.0698 15.4741 -0.0029 -5.1819 0.0017
# 3 55.1102 15.4741 128.6161 -0.0100 22.2488 0.0055
# 4 -0.0032 -0.0029 -0.0100 -4.6821 0.0017 7.5507
# 5 18.5215 -5.1819 22.2488 0.0017 80.1119 -0.0025
# 6 0.0038 0.0017 0.0055 7.5507 -0.0025 11.3213
#
#
#
# Elastic Compliance Matrix: (Units=1/GPa)
#
#
# Indices 1 2 3 4 5 6 
#
# 1 0.009844 -0.001461 -0.003816 0.000000 -0.001311 -0.000001
# 2 -0.001461 0.030158 -0.003570 -0.000005 0.003280 0.000002
# 3 -0.003816 -0.003570 0.010218 -0.000011 -0.002186 0.000004
# 4 0.000000 -0.000005 -0.000011 -0.102901 0.000007 0.068630
# 5 -0.001311 0.003280 -0.002186 0.000007 0.013605 -0.000001
# 6 -0.000001 0.000002 0.000004 0.068630 -0.000001 0.042556
#
#
# Mechanical properties :
#
#
# Convention : Reuss Voigt Hill
#
# Bulk Modulus (GPa) = 30.74295 50.46296 40.60296
# Shear Modulus (GPa) = 156.17332 31.37907 93.77620
#
# Velocity S-wave (km/s) = 8.10745 3.63413 6.28242
# Velocity P-wave (km/s) = 10.02897 6.23284 8.34951
#
# Compressibility (1/GPa) = 0.03252778
#
# Stress axis : x y z
#
# Youngs Moduli (GPa) = 101.58289 33.15821 97.86914
#
# Poissons Ratio (x) = 0.04844 0.37343
# Poissons Ratio (y) = 0.14839 0.34938
# Poissons Ratio (z) = 0.38760 0.11837
#
# Static dielectric constant tensor:
#      x y z
#    x 2.005340 0.000020 0.017140 
#    y 0.000020 1.822890 -0.000010 
#    z 0.017140 -0.000010 1.963110 
# 
# From -- ./inp_files/372325.got.cif
#   From: 2010.05.17/outbox.cif.g08.bks.cpg/sg12_187_cif.got.tgz:372325.got - 2010.06.03 13:09:07.
