data_PCOD9216754
_publ_section_title
;
Structure prediction by ZEFSAII (Michael W. Deem and Ramdas Pophale) SiO2 
 PCOD9216754
Probable space group: C 2/M
;
_chemical_formula_sum "Si O2"
_cell_formula_units_Z 56
_cell_length_a 29.145225
_cell_length_b 18.037571
_cell_length_c 9.001628
_cell_angle_alpha 90.000000
_cell_angle_beta 144.120832
_cell_angle_gamma 90.000000
_cell_volume 2773.459296
_symmetry_space_group_name_H-M "C 2/M"
_symmetry_group_IT_number 12
_symmetry_cell_setting 'monoclinic'
loop_
_space_group_symop_operation_xyz
x,y,z
-x,y,-z
-x,-y,-z
x,-y,z
1/2+x,1/2+y,z
1/2-x,1/2+y,-z
1/2-x,1/2-y,-z
1/2+x,1/2-y,z
loop_
_atom_site_type_symbol
_atom_site_label
_atom_site_fract_x
_atom_site_fract_y
_atom_site_fract_z
Si Si1 0.757107 0.417055 0.212865
Si Si2 0.917645 0.129239 0.334843
Si Si3 0.935283 0.188344 0.705678
Si Si4 0.898321 0.419552 0.355716
Si Si5 0.510053 0.842840 0.853231
Si Si6 0.719241 0.759825 0.584313
Si Si7 0.119153 0.713479 0.906641
O O1 0.766647 0.500000 0.304001
O O2 0.816036 0.413985 0.227412
O O3 0.784009 0.346940 0.382721
O O4 0.665796 0.406812 0.928380
O O5 0.921269 0.138552 0.523620
O O6 0.915866 0.208152 0.239712
O O7 0.000000 0.093270 0.500000
O O8 0.857075 0.211341 0.586681
O O9 0.961700 0.266879 0.705724
O O10 0.000000 0.165324 0.000000
O O11 0.902464 0.500000 0.294354
O O12 0.906340 0.352090 0.266223
O O13 0.968487 0.408074 0.655949
O O14 0.592200 0.816327 0.998285
O O15 0.500000 0.858756 0.000000
O O16 0.750000 0.750000 0.500000
O O17 0.788574 0.725736 0.865793
#
# Coordination Sequence:
#
# PCOD9216754 Si02
#       7
#     8   8   8   8   8   8   8
#     4  10  23  40  61  89 122 157 204 251 297 360
#     4  11  20  37  63  89 116 156 200 255 302 351
#     4  11  21  35  59  94 124 151 194 258 298 354
#     4  11  22  39  59  83 121 165 201 245 300 354
#     4  11  21  35  55  85 124 156 194 250 294 353
#     4  11  22  38  65  90 118 160 199 246 307 355
#     4  11  21  37  59  90 119 150 208 252 291 359
#
# _framework density 20.191389999999998
#
# number of rings (size 3 to 8) (size 9 to 14) (size 15 to 20)
#    0.000    1.143    4.286    3.000    2.000    4.000 
#    0.000    0.714    0.000    1.714    0.000    0.000 
#    0.000    0.000    0.000    0.000    0.000    0.000 
#
# Total GULP energy -156146.137549 kJ/mol
# GULP energy per Si atom -5576.647770 kJ/mol
# Density = 2.014543 g / cm^3
# Si number density = 20.191390 Si / 1000 Ang^3
#
#
#
# Elastic Constant Matrix: (Units=GPa)
#
#
# Indices 1 2 3 4 5 6 
#
# 1 108.4790 24.1131 28.1813 0.0000 10.1985 0.0000
# 2 24.1131 70.4047 9.2697 0.0000 -5.2557 0.0000
# 3 28.1813 9.2697 76.3658 0.0000 12.2445 0.0000
# 4 0.0000 0.0000 0.0000 11.2817 0.0000 -1.1718
# 5 10.1985 -5.2557 12.2445 0.0000 44.1632 0.0000
# 6 0.0000 0.0000 0.0000 -1.1718 0.0000 6.7880
#
#
#
# Elastic Compliance Matrix: (Units=1/GPa)
#
#
# Indices 1 2 3 4 5 6 
#
# 1 0.011053 -0.003500 -0.003326 0.000000 -0.002047 0.000000
# 2 -0.003500 0.015771 -0.001102 0.000000 0.002991 0.000000
# 3 -0.003326 -0.001102 0.015022 0.000000 -0.003528 0.000000
# 4 0.000000 0.000000 0.000000 0.090258 0.000000 0.015581
# 5 -0.002047 0.002991 -0.003528 0.000000 0.024450 0.000000
# 6 0.000000 0.000000 0.000000 0.015581 0.000000 0.150009
#
#
# Mechanical properties :
#
#
# Convention : Reuss Voigt Hill
#
# Bulk Modulus (GPa) = 38.47821 42.04195 40.26008
# Shear Modulus (GPa) = 15.10200 25.35894 20.23047
#
# Velocity S-wave (km/s) = 2.73782 3.54775 3.16877
# Velocity P-wave (km/s) = 5.39373 6.13588 5.77673
#
# Compressibility (1/GPa) = 0.02598873
#
# Stress axis : x y z
#
# Youngs Moduli (GPa) = 90.47410 63.40817 66.57071
#
# Poissons Ratio (x) = 0.22196 0.22140
# Poissons Ratio (y) = 0.31670 0.07337
# Poissons Ratio (z) = 0.30089 0.06988
#
# Static dielectric constant tensor:
#      x y z
#    x 1.756210 0.000000 0.018630 
#    y 0.000000 1.697720 0.000000 
#    z 0.018630 0.000000 1.783930 
# 
# From -- ./inp_files/105925.got.cif
#   From: 2010.05.17/outbox.cif.g08.bks.cpg/sg12_53_cif.got.tgz:105925.got - 2010.06.03 13:09:07.
