data_PCOD9216528
_publ_section_title
;
Structure prediction by ZEFSAII (Michael W. Deem and Ramdas Pophale) SiO2 
 PCOD9216528
Probable space group: C 2/M
;
_chemical_formula_sum "Si O2"
_cell_formula_units_Z 56
_cell_length_a 9.395213
_cell_length_b 25.089169
_cell_length_c 13.704684
_cell_angle_alpha 90.000000
_cell_angle_beta 58.415063
_cell_angle_gamma 90.000000
_cell_volume 2751.899284
_symmetry_space_group_name_H-M "C 2/M"
_symmetry_group_IT_number 12
_symmetry_cell_setting 'monoclinic'
loop_
_space_group_symop_operation_xyz
x,y,z
-x,y,-z
-x,-y,-z
x,-y,z
1/2+x,1/2+y,z
1/2-x,1/2+y,-z
1/2-x,1/2-y,-z
1/2+x,1/2-y,z
loop_
_atom_site_type_symbol
_atom_site_label
_atom_site_fract_x
_atom_site_fract_y
_atom_site_fract_z
Si Si1 0.173187 0.561909 0.386127
Si Si2 0.600974 0.323745 0.359149
Si Si3 0.876613 0.327372 0.961906
Si Si4 0.982640 0.059828 0.622809
Si Si5 0.618566 0.233439 0.630363
Si Si6 0.331782 0.845647 0.755528
Si Si7 0.481480 0.704609 0.893314
O O1 0.162642 0.500000 0.364387
O O2 0.333333 0.568916 0.398166
O O3 0.191437 0.598192 0.286226
O O4 0.000000 0.576817 0.500000
O O5 0.500000 0.325138 0.500000
O O6 0.617560 0.385284 0.320738
O O7 0.498040 0.286189 0.321325
O O8 0.770799 0.293045 0.324316
O O9 0.863641 0.352815 0.859569
O O10 0.940475 0.267511 0.911346
O O11 0.692083 0.322665 0.075378
O O12 0.000000 0.349350 0.000000
O O13 0.000000 0.057055 0.500000
O O14 0.924482 0.000000 0.675824
O O15 0.750000 0.250000 0.500000
O O16 0.485874 0.187088 0.653449
O O17 0.164078 0.812377 0.792948
O O18 0.500000 0.688835 0.000000
#
# Coordination Sequence:
#
# PCOD9216528 Si02
#       7
#     8   8   8   8   8   8   8
#     4  10  24  42  61  86 124 173 219 264 310 377
#     4   9  20  35  50  74 115 163 198 252 304 353
#     4   9  18  38  62  90 125 155 203 259 323 391
#     4   9  19  38  60  77 101 153 221 268 299 340
#     4  10  23  37  49  82 131 171 203 249 309 375
#     4  11  23  36  63  90 121 172 214 256 322 384
#     4   8  17  36  59  88 121 159 203 258 316 390
#
# _framework density 20.34958
#
# number of rings (size 3 to 8) (size 9 to 14) (size 15 to 20)
#    0.000    2.571    0.000    0.857   10.000    0.571 
#    2.571    0.000    0.000    4.286    0.000    0.000 
#    0.000    0.000    0.000    0.000    0.000    0.000 
#
# Total GULP energy -156137.064626 kJ/mol
# GULP energy per Si atom -5576.323737 kJ/mol
# Density = 2.030326 g / cm^3
# Si number density = 20.349580 Si / 1000 Ang^3
#
#
#
# Elastic Constant Matrix: (Units=GPa)
#
#
# Indices 1 2 3 4 5 6 
#
# 1 165.2345 64.1392 52.1794 0.0000 7.2197 0.0000
# 2 64.1392 110.0300 27.4308 0.0000 8.2464 0.0000
# 3 52.1794 27.4308 64.7528 0.0000 -9.7631 0.0000
# 4 0.0000 0.0000 0.0000 12.3421 0.0000 7.9787
# 5 7.2197 8.2464 -9.7631 0.0000 32.1908 0.0000
# 6 0.0000 0.0000 0.0000 7.9787 0.0000 23.3688
#
#
#
# Elastic Compliance Matrix: (Units=1/GPa)
#
#
# Indices 1 2 3 4 5 6 
#
# 1 0.009810 -0.003775 -0.006802 0.000000 -0.003296 0.000000
# 2 -0.003775 0.012158 -0.002567 0.000000 -0.003046 0.000000
# 3 -0.006802 -0.002567 0.023412 0.000000 0.009284 0.000000
# 4 0.000000 0.000000 0.000000 0.103972 0.000000 -0.035499
# 5 -0.003296 -0.003046 0.009284 0.000000 0.035400 0.000000
# 6 0.000000 0.000000 0.000000 -0.035499 0.000000 0.054912
#
#
# Mechanical properties :
#
#
# Convention : Reuss Voigt Hill
#
# Bulk Modulus (GPa) = 52.38544 69.72405 61.05475
# Shear Modulus (GPa) = 18.36092 26.66485 22.51288
#
# Velocity S-wave (km/s) = 3.00705 3.62379 3.32973
# Velocity P-wave (km/s) = 6.15265 7.20046 6.69708
#
# Compressibility (1/GPa) = 0.01908927
#
# Stress axis : x y z
#
# Youngs Moduli (GPa) = 101.94014 82.25361 42.71261
#
# Poissons Ratio (x) = 0.31054 0.29055
# Poissons Ratio (y) = 0.38486 0.10965
# Poissons Ratio (z) = 0.69345 0.21116
#
# Static dielectric constant tensor:
#      x y z
#    x 1.768050 0.000000 0.016430 
#    y 0.000000 1.711170 0.000000 
#    z 0.016430 0.000000 1.865940 
# 
# From -- ./inp_files/198805.got.cif
#   From: 2010.05.17/outbox.cif.g08.bks.cpg/sg12_100_cif.got.tgz:198805.got - 2010.06.03 13:09:07.
