data_PCOD9216431
_publ_section_title
;
Structure prediction by ZEFSAII (Michael W. Deem and Ramdas Pophale) SiO2 
 PCOD9216431
Probable space group: C 2/M
;
_chemical_formula_sum "Si O2"
_cell_formula_units_Z 26
_cell_length_a 13.463504
_cell_length_b 10.768835
_cell_length_c 11.918787
_cell_angle_alpha 90.000000
_cell_angle_beta 38.356070
_cell_angle_gamma 90.000000
_cell_volume 1072.342135
_symmetry_space_group_name_H-M "C 2/M"
_symmetry_group_IT_number 12
_symmetry_cell_setting 'monoclinic'
loop_
_space_group_symop_operation_xyz
x,y,z
-x,y,-z
-x,-y,-z
x,-y,z
1/2+x,1/2+y,z
1/2-x,1/2+y,-z
1/2-x,1/2-y,-z
1/2+x,1/2-y,z
loop_
_atom_site_type_symbol
_atom_site_label
_atom_site_fract_x
_atom_site_fract_y
_atom_site_fract_z
Si Si1 0.437119 0.135124 0.399443
Si Si2 0.730157 0.140201 0.679236
Si Si3 0.288127 0.707261 0.090712
Si Si4 0.500000 0.500000 0.000000
O O1 0.412258 0.142071 0.286539
O O2 0.350455 0.255078 0.526154
O O3 0.620835 0.139906 0.271813
O O4 0.365242 0.000000 0.496360
O O5 0.688653 0.181823 0.841196
O O6 0.795571 0.000000 0.620514
O O7 0.428967 0.609111 0.979544
O O8 0.250000 0.750000 0.000000
#
# Coordination Sequence:
#
# PCOD9216431 Si02
#       4
#     8   8   8   2
#     4  10  22  45  72 103 143 185 241 302 368 442
#     4  10  24  45  73 108 142 185 243 308 372 448
#     4  12  26  45  71 105 145 198 244 304 371 444
#     4  12  28  48  68 110 146 200 256 296 374 442
#
# _framework density 24.245992999999999
#
# number of rings (size 3 to 8) (size 9 to 14) (size 15 to 20)
#    0.000    1.231    1.538    2.769    4.308    3.692 
#   11.077    3.846    0.000    0.000    0.000    0.000 
#    0.000    0.000    0.000    0.000    0.000    0.000 
#
# Total GULP energy -72467.274686 kJ/mol
# GULP energy per Si atom -5574.405745 kJ/mol
# Density = 2.419081 g / cm^3
# Si number density = 24.245993 Si / 1000 Ang^3
#
#
#
# Elastic Constant Matrix: (Units=GPa)
#
#
# Indices 1 2 3 4 5 6 
#
# 1 177.9558 71.7971 22.8076 0.0000 46.0758 0.0000
# 2 71.7971 234.3504 40.3110 0.0000 25.4070 0.0000
# 3 22.8076 40.3110 28.8644 0.0000 19.0381 0.0000
# 4 0.0000 0.0000 0.0000 18.2760 0.0000 -4.6898
# 5 46.0758 25.4070 19.0381 0.0000 45.8189 0.0000
# 6 0.0000 0.0000 0.0000 -4.6898 0.0000 33.5658
#
#
#
# Elastic Compliance Matrix: (Units=1/GPa)
#
#
# Indices 1 2 3 4 5 6 
#
# 1 0.008229 -0.001898 0.001256 0.000000 -0.007745 0.000000
# 2 -0.001898 0.006055 -0.008267 0.000000 0.001985 0.000000
# 3 0.001256 -0.008267 0.059243 0.000000 -0.021295 0.000000
# 4 0.000000 0.000000 0.000000 0.056751 0.000000 0.007929
# 5 -0.007745 0.001985 -0.021295 0.000000 0.037361 0.000000
# 6 0.000000 0.000000 0.000000 0.007929 0.000000 0.030900
#
#
# Mechanical properties :
#
#
# Convention : Reuss Voigt Hill
#
# Bulk Modulus (GPa) = 17.94978 79.00021 48.47500
# Shear Modulus (GPa) = 21.28331 39.94914 30.61623
#
# Velocity S-wave (km/s) = 2.96600 4.06354 3.55735
# Velocity P-wave (km/s) = 4.37593 7.39392 6.07531
#
# Compressibility (1/GPa) = 0.05571099
#
# Stress axis : x y z
#
# Youngs Moduli (GPa) = 121.51666 165.14838 16.87973
#
# Poissons Ratio (x) = 0.31338 -0.02120
# Poissons Ratio (y) = 0.23058 0.13954
# Poissons Ratio (z) = -0.15263 1.36521
#
# Static dielectric constant tensor:
#      x y z
#    x 1.916080 0.000000 -0.034770 
#    y 0.000000 1.882240 0.000000 
#    z -0.034770 0.000000 2.132270 
# 
# From -- ./inp_files/126769.got.cif
#   From: 2010.05.17/outbox.cif.g08.bks.cpg/sg12_64_cif.got.tgz:126769.got - 2010.06.03 13:09:07.
