data_PCOD9216474
_publ_section_title
;
Structure prediction by ZEFSAII (Michael W. Deem and Ramdas Pophale) SiO2 
 PCOD9216474
Probable space group: C 2/M
;
_chemical_formula_sum "Si O2"
_cell_formula_units_Z 40
_cell_length_a 11.914291
_cell_length_b 30.495213
_cell_length_c 7.362475
_cell_angle_alpha 90.000000
_cell_angle_beta 142.846575
_cell_angle_gamma 90.000000
_cell_volume 1615.569772
_symmetry_space_group_name_H-M "C 2/M"
_symmetry_group_IT_number 12
_symmetry_cell_setting 'monoclinic'
loop_
_space_group_symop_operation_xyz
x,y,z
-x,y,-z
-x,-y,-z
x,-y,z
1/2+x,1/2+y,z
1/2-x,1/2+y,-z
1/2-x,1/2-y,-z
1/2+x,1/2-y,z
loop_
_atom_site_type_symbol
_atom_site_label
_atom_site_fract_x
_atom_site_fract_y
_atom_site_fract_z
Si Si1 0.087533 0.197700 0.398072
Si Si2 0.432488 0.451668 0.629341
Si Si3 0.297648 0.792731 0.302627
Si Si4 0.696568 0.120215 0.205240
Si Si5 0.669659 0.949512 0.852659
O O1 0.206165 0.188211 0.367452
O O2 0.158930 0.242622 0.581114
O O3 0.155574 0.158382 0.612337
O O4 0.871937 0.203317 0.059979
O O5 0.500000 0.449951 0.500000
O O6 0.358753 0.500000 0.570693
O O7 0.280984 0.414679 0.456949
O O8 0.628294 0.445353 0.981007
O O9 0.500000 0.810707 0.500000
O O10 0.500000 0.140206 0.000000
O O11 0.662343 0.089562 0.987258
O O12 0.500000 0.945851 0.500000
O O13 0.665458 0.000000 0.923115
#
# Coordination Sequence:
#
# PCOD9216474 Si02
#       5
#     8   8   8   8   8
#     4  10  24  43  68 104 140 171 239 289 326 426
#     4   8  16  35  60  88 124 164 208 260 327 405
#     4  10  22  46  73  97 134 190 226 280 357 406
#     4  11  23  39  60  96 134 172 216 279 340 393
#     4   9  19  41  68  96 129 170 221 278 340 410
#
# _framework density 24.759069
#
# number of rings (size 3 to 8) (size 9 to 14) (size 15 to 20)
#    0.000    2.400    0.000    2.400    5.600    4.000 
#   18.000    0.000    0.000    3.600    0.000    0.000 
#    0.000    0.000    0.000    0.000    0.000    0.000 
#
# Total GULP energy -111725.222489 kJ/mol
# GULP energy per Si atom -5586.261124 kJ/mol
# Density = 2.470272 g / cm^3
# Si number density = 24.759069 Si / 1000 Ang^3
#
#
#
# Elastic Constant Matrix: (Units=GPa)
#
#
# Indices 1 2 3 4 5 6 
#
# 1 108.0371 18.0715 59.5185 0.0000 23.9504 0.0000
# 2 18.0715 72.0724 82.3080 0.0000 6.3421 0.0000
# 3 59.5185 82.3080 237.9303 0.0000 36.9865 0.0000
# 4 0.0000 0.0000 0.0000 15.5799 0.0000 -66.8014
# 5 23.9504 6.3421 36.9865 0.0000 47.6092 0.0000
# 6 0.0000 0.0000 0.0000 -66.8014 0.0000 -219.4122
#
#
#
# Elastic Compliance Matrix: (Units=1/GPa)
#
#
# Indices 1 2 3 4 5 6 
#
# 1 0.011365 0.000067 -0.002248 0.000000 -0.003980 0.000000
# 2 0.000067 0.023472 -0.008695 0.000000 0.003595 0.000000
# 3 -0.002248 -0.008695 0.008436 0.000000 -0.004265 0.000000
# 4 0.000000 0.000000 0.000000 0.027841 0.000000 -0.008476
# 5 -0.003980 0.003595 -0.004265 0.000000 0.025841 0.000000
# 6 0.000000 0.000000 0.000000 -0.008476 0.000000 -0.001977
#
#
# Mechanical properties :
#
#
# Convention : Reuss Voigt Hill
#
# Bulk Modulus (GPa) = 46.46367 81.98176 64.22272
# Shear Modulus (GPa) = 40.35371 -14.03516 13.15928
#
# Velocity S-wave (km/s) = 4.04153 -2.38348 2.30791
# Velocity P-wave (km/s) = 6.37069 5.06054 5.75303
#
# Compressibility (1/GPa) = 0.02152219
#
# Stress axis : x y z
#
# Youngs Moduli (GPa) = 87.98604 42.60395 118.53779
#
# Poissons Ratio (x) = -0.00287 0.26642
# Poissons Ratio (y) = -0.00592 1.03073
# Poissons Ratio (z) = 0.19776 0.37046
#
# Static dielectric constant tensor:
#      x y z
#    x 2.212530 0.000000 -0.046270 
#    y 0.000000 1.932370 0.000000 
#    z -0.046270 0.000000 1.987710 
# 
# From -- ./inp_files/68742.got.cif
#   From: 2010.05.17/outbox.cif.g08.bks.cpg/sg12_35_cif.got.tgz:68742.got - 2010.06.03 13:09:07.
