data_PCOD9216282
_publ_section_title
;
Structure prediction by ZEFSAII (Michael W. Deem and Ramdas Pophale) SiO2 
 PCOD9216282
Probable space group: C 2/M
;
_chemical_formula_sum "Si O2"
_cell_formula_units_Z 32
_cell_length_a 13.008529
_cell_length_b 13.893189
_cell_length_c 10.508295
_cell_angle_alpha 90.000000
_cell_angle_beta 45.009161
_cell_angle_gamma 90.000000
_cell_volume 1343.126197
_symmetry_space_group_name_H-M "C 2/M"
_symmetry_group_IT_number 12
_symmetry_cell_setting 'monoclinic'
loop_
_space_group_symop_operation_xyz
x,y,z
-x,y,-z
-x,-y,-z
x,-y,z
1/2+x,1/2+y,z
1/2-x,1/2+y,-z
1/2-x,1/2-y,-z
1/2+x,1/2-y,z
loop_
_atom_site_type_symbol
_atom_site_label
_atom_site_fract_x
_atom_site_fract_y
_atom_site_fract_z
Si Si1 0.116467 0.612961 0.069482
Si Si2 0.421043 0.615798 0.697872
Si Si3 0.925927 0.211974 0.196632
Si Si4 0.668691 0.890002 0.318454
O O1 0.084077 0.500000 0.083951
O O2 0.175038 0.628919 0.161797
O O3 0.976216 0.678007 0.169275
O O4 0.250700 0.641571 0.861214
O O5 0.500000 0.647424 0.500000
O O6 0.426113 0.500000 0.699192
O O7 0.505569 0.657956 0.743777
O O8 0.759711 0.183214 0.323798
O O9 0.000000 0.177328 0.000000
O O10 0.500000 0.886944 0.500000
O O11 0.721264 0.000000 0.295024
#
# Coordination Sequence:
#
# PCOD9216282 Si02
#       4
#     8   8   8   8
#     4  10  23  46  71 103 151 193 236 299 365 426
#     4  10  22  43  73 110 151 189 235 301 369 429
#     4  12  24  42  76 107 139 188 250 292 355 426
#     4  10  23  45  73 106 144 188 241 300 360 426
#
# _framework density 23.825015
#
# number of rings (size 3 to 8) (size 9 to 14) (size 15 to 20)
#    0.000    1.500    2.500    1.500    0.000    3.500 
#    4.500    0.000    0.000    0.750    0.000    0.000 
#    0.000    0.000    0.000    0.000    0.000    0.000 
#
# Total GULP energy -89688.993295 kJ/mol
# GULP energy per Si atom -5605.562081 kJ/mol
# Density = 2.377079 g / cm^3
# Si number density = 23.825015 Si / 1000 Ang^3
#
#
#
# Elastic Constant Matrix: (Units=GPa)
#
#
# Indices 1 2 3 4 5 6 
#
# 1 150.0673 82.9595 52.4580 0.0000 -12.1066 0.0000
# 2 82.9595 140.9960 48.8900 0.0000 -22.5705 0.0000
# 3 52.4580 48.8900 105.3607 0.0000 3.1215 0.0000
# 4 0.0000 0.0000 0.0000 23.6943 0.0000 -11.5000
# 5 -12.1066 -22.5705 3.1215 0.0000 46.6629 0.0000
# 6 0.0000 0.0000 0.0000 -11.5000 0.0000 35.5952
#
#
#
# Elastic Compliance Matrix: (Units=1/GPa)
#
#
# Indices 1 2 3 4 5 6 
#
# 1 0.010545 -0.005134 -0.002881 0.000000 0.000445 0.000000
# 2 -0.005134 0.011941 -0.003122 0.000000 0.004652 0.000000
# 3 -0.002881 -0.003122 0.012466 0.000000 -0.003092 0.000000
# 4 0.000000 0.000000 0.000000 0.050053 0.000000 0.016171
# 5 0.000445 0.004652 -0.003092 0.000000 0.024003 0.000000
# 6 0.000000 0.000000 0.000000 0.016171 0.000000 0.033318
#
#
# Mechanical properties :
#
#
# Convention : Reuss Voigt Hill
#
# Bulk Modulus (GPa) = 78.88560 85.00435 81.94498
# Shear Modulus (GPa) = 29.61624 35.33157 32.47391
#
# Velocity S-wave (km/s) = 3.52955 3.85510 3.69591
# Velocity P-wave (km/s) = 7.05639 7.45465 7.25825
#
# Compressibility (1/GPa) = 0.01267658
#
# Stress axis : x y z
#
# Youngs Moduli (GPa) = 94.83192 83.74708 80.21770
#
# Poissons Ratio (x) = 0.42998 0.23111
# Poissons Ratio (y) = 0.48689 0.25047
# Poissons Ratio (z) = 0.27321 0.26149
#
# Static dielectric constant tensor:
#      x y z
#    x 1.863250 0.000000 0.008990 
#    y 0.000000 1.907690 0.000000 
#    z 0.008990 0.000000 1.934250 
# 
# From -- ./inp_files/130744.got.cif
#   From: 2010.05.17/outbox.cif.g08.bks.cpg/sg12_66_cif.got.tgz:130744.got - 2010.06.03 13:09:07.
