data_PCOD9216435
_publ_section_title
;
Structure prediction by ZEFSAII (Michael W. Deem and Ramdas Pophale) SiO2 
 PCOD9216435
Probable space group: C 2/M
;
_chemical_formula_sum "Si O2"
_cell_formula_units_Z 50
_cell_length_a 31.184154
_cell_length_b 14.513110
_cell_length_c 18.848410
_cell_angle_alpha 90.000000
_cell_angle_beta 162.618788
_cell_angle_gamma 90.000000
_cell_volume 2548.266907
_symmetry_space_group_name_H-M "C 2/M"
_symmetry_group_IT_number 12
_symmetry_cell_setting 'monoclinic'
loop_
_space_group_symop_operation_xyz
x,y,z
-x,y,-z
-x,-y,-z
x,-y,z
1/2+x,1/2+y,z
1/2-x,1/2+y,-z
1/2-x,1/2-y,-z
1/2+x,1/2-y,z
loop_
_atom_site_type_symbol
_atom_site_label
_atom_site_fract_x
_atom_site_fract_y
_atom_site_fract_z
Si Si1 0.000000 0.500000 0.000000
Si Si2 0.828738 0.396889 0.532817
Si Si3 0.083667 0.345003 0.027181
Si Si4 0.548834 0.352364 0.155064
Si Si5 0.589937 0.105390 0.570226
Si Si6 0.376165 0.748184 0.491831
Si Si7 0.069051 0.101939 0.878681
O O1 0.910322 0.418906 0.900928
O O2 0.801826 0.500000 0.463874
O O3 0.717681 0.375252 0.420972
O O4 0.809488 0.319022 0.444008
O O5 0.988932 0.389758 0.815573
O O6 0.992126 0.254876 0.905107
O O7 0.240031 0.310761 0.250713
O O8 0.476359 0.393709 0.110275
O O9 0.500000 0.386526 0.000000
O O10 0.500000 0.116057 0.500000
O O11 0.556606 0.185622 0.461396
O O12 0.565388 0.000000 0.504636
O O13 0.759798 0.113387 0.854168
O O14 0.486670 0.681404 0.706127
O O15 0.031796 0.000000 0.792346
#
# Coordination Sequence:
#
# PCOD9216435 Si02
#       7
#     2   8   8   8   8   8   8
#     4  12  24  36  56  84 130 176 224 240 300 352
#     4  12  24  37  58  86 121 166 213 251 299 357
#     4  12  24  38  56  84 126 168 211 259 294 361
#     4  12  22  40  57  83 124 170 212 256 302 352
#     4  10  22  45  72  96 122 155 200 259 324 389
#     4  12  23  42  64  92 126 161 204 261 312 369
#     4  11  25  40  62  93 124 162 211 256 310 372
#
# _framework density 19.621179999999999
#
# number of rings (size 3 to 8) (size 9 to 14) (size 15 to 20)
#    0.000    0.480    6.400    1.440    3.360    3.200 
#    0.000    0.000    0.000    0.480    0.000    0.000 
#    0.000    0.000    0.000    0.000    0.000    0.000 
#
# Total GULP energy -139441.595924 kJ/mol
# GULP energy per Si atom -5577.663837 kJ/mol
# Density = 1.957652 g / cm^3
# Si number density = 19.621180 Si / 1000 Ang^3
#
#
#
# Elastic Constant Matrix: (Units=GPa)
#
#
# Indices 1 2 3 4 5 6 
#
# 1 98.6013 44.4333 37.9717 -0.0001 19.2131 0.0001
# 2 44.4333 157.5970 31.7598 0.0000 1.0318 0.0001
# 3 37.9717 31.7598 71.6948 -0.0001 -0.1317 0.0002
# 4 -0.0001 0.0000 -0.0001 -120.5793 -0.0001 133.6171
# 5 19.2131 1.0318 -0.1317 -0.0001 20.3672 0.0001
# 6 0.0001 0.0001 0.0002 133.6171 0.0001 -112.6974
#
#
#
# Elastic Compliance Matrix: (Units=1/GPa)
#
#
# Indices 1 2 3 4 5 6 
#
# 1 0.018080 -0.003350 -0.008123 0.000000 -0.016938 0.000000
# 2 -0.003350 0.007591 -0.001583 0.000000 0.002765 0.000000
# 3 -0.008123 -0.001583 0.018966 0.000000 0.007866 0.000000
# 4 0.000000 0.000000 0.000000 0.026427 0.000000 0.031332
# 5 -0.016938 0.002765 0.007866 0.000000 0.064988 0.000000
# 6 0.000000 0.000000 0.000000 0.031332 0.000000 0.028275
#
#
# Mechanical properties :
#
#
# Convention : Reuss Voigt Hill
#
# Bulk Modulus (GPa) = 53.98199 61.80253 57.89226
# Shear Modulus (GPa) = 25.43062 -28.33335 -1.45136
#
# Velocity S-wave (km/s) = 3.60402 -3.80415 -0.86099
# Velocity P-wave (km/s) = 6.70003 3.50298 5.34609
#
# Compressibility (1/GPa) = 0.01852470
#
# Stress axis : x y z
#
# Youngs Moduli (GPa) = 55.30943 131.74007 52.72568
#
# Poissons Ratio (x) = 0.44128 0.42829
# Poissons Ratio (y) = 0.18527 0.08349
# Poissons Ratio (z) = 0.44928 0.20860
#
# Static dielectric constant tensor:
#      x y z
#    x 1.670750 0.000000 -0.032210 
#    y 0.000000 1.707010 0.000000 
#    z -0.032210 0.000000 1.735550 
# 
# From -- ./inp_files/296765.got.cif
#   From: 2010.05.17/outbox.cif.g08.bks.cpg/sg12_149_cif.got.tgz:296765.got - 2010.06.03 13:09:07.
