data_PCOD9216401
_publ_section_title
;
Structure prediction by ZEFSAII (Michael W. Deem and Ramdas Pophale) SiO2 
 PCOD9216401
Probable space group: C 2/M
;
_chemical_formula_sum "Si O2"
_cell_formula_units_Z 40
_cell_length_a 10.932352
_cell_length_b 17.560349
_cell_length_c 8.504094
_cell_angle_alpha 90.000000
_cell_angle_beta 86.392068
_cell_angle_gamma 90.000000
_cell_volume 1629.345506
_symmetry_space_group_name_H-M "C 2/M"
_symmetry_group_IT_number 12
_symmetry_cell_setting 'monoclinic'
loop_
_space_group_symop_operation_xyz
x,y,z
-x,y,-z
-x,-y,-z
x,-y,z
1/2+x,1/2+y,z
1/2-x,1/2+y,-z
1/2-x,1/2-y,-z
1/2+x,1/2-y,z
loop_
_atom_site_type_symbol
_atom_site_label
_atom_site_fract_x
_atom_site_fract_y
_atom_site_fract_z
Si Si1 0.194311 0.773901 0.173339
Si Si2 0.271448 0.415663 0.327466
Si Si3 0.881785 0.679277 0.412119
Si Si4 0.952211 0.375836 0.832790
Si Si5 0.463728 0.410776 0.688882
O O1 0.303722 0.770525 0.295116
O O2 0.084433 0.712846 0.188426
O O3 0.133661 0.855016 0.222416
O O4 0.250000 0.750000 0.000000
O O5 0.283080 0.500000 0.397479
O O6 0.213753 0.359346 0.460812
O O7 0.171893 0.417278 0.198688
O O8 0.402988 0.396297 0.246529
O O9 0.000000 0.712200 0.500000
O O10 0.943620 0.612014 0.304711
O O11 0.000000 0.390837 0.000000
O O12 0.500000 0.396809 0.500000
O O13 0.431268 0.500000 0.707901
#
# Coordination Sequence:
#
# PCOD9216401 Si02
#       5
#     8   8   8   8   8
#     4  12  25  44  73 109 159 201 251 323 391 465
#     4  10  23  45  74 108 148 193 256 320 374 451
#     4  10  23  43  69 104 142 194 256 309 379 451
#     4  11  25  43  66 105 151 201 251 305 386 463
#     4  10  22  44  77 113 148 199 261 320 383 452
#
# _framework density 24.549734999999998
#
# number of rings (size 3 to 8) (size 9 to 14) (size 15 to 20)
#    0.000    1.400    4.000    0.000    2.800    9.600 
#    0.000    1.000    0.000    3.000    0.000    0.000 
#    0.000    0.800    0.000    0.000    0.000    0.000 
#
# Total GULP energy -111655.645305 kJ/mol
# GULP energy per Si atom -5582.782265 kJ/mol
# Density = 2.449386 g / cm^3
# Si number density = 24.549735 Si / 1000 Ang^3
#
#
#
# Elastic Constant Matrix: (Units=GPa)
#
#
# Indices 1 2 3 4 5 6 
#
# 1 168.4935 46.8230 74.2922 0.0000 13.3911 0.0000
# 2 46.8230 137.9280 51.2076 0.0000 -16.3532 0.0000
# 3 74.2922 51.2076 155.1036 0.0000 8.5283 0.0000
# 4 0.0000 0.0000 0.0000 8.0933 0.0000 -6.5023
# 5 13.3911 -16.3532 8.5283 0.0000 51.7282 0.0000
# 6 0.0000 0.0000 0.0000 -6.5023 0.0000 31.8638
#
#
#
# Elastic Compliance Matrix: (Units=1/GPa)
#
#
# Indices 1 2 3 4 5 6 
#
# 1 0.007976 -0.001806 -0.003107 0.000000 -0.002123 0.000000
# 2 -0.001806 0.009192 -0.002377 0.000000 0.003765 0.000000
# 3 -0.003107 -0.002377 0.008797 0.000000 -0.001397 0.000000
# 4 0.000000 0.000000 0.000000 0.147789 0.000000 0.030159
# 5 -0.002123 0.003765 -0.001397 0.000000 0.021302 0.000000
# 6 0.000000 0.000000 0.000000 0.030159 0.000000 0.037538
#
#
# Mechanical properties :
#
#
# Convention : Reuss Voigt Hill
#
# Bulk Modulus (GPa) = 87.83389 89.57452 88.70420
# Shear Modulus (GPa) = 19.92283 37.61719 28.77001
#
# Velocity S-wave (km/s) = 2.85183 3.91869 3.42703
# Velocity P-wave (km/s) = 6.83370 7.55255 7.20210
#
# Compressibility (1/GPa) = 0.01138513
#
# Stress axis : x y z
#
# Youngs Moduli (GPa) = 125.38371 108.79028 113.67217
#
# Poissons Ratio (x) = 0.19643 0.35321
# Poissons Ratio (y) = 0.22639 0.27019
# Poissons Ratio (z) = 0.38960 0.25859
#
# Static dielectric constant tensor:
#      x y z
#    x 2.052380 0.000000 -0.000760 
#    y 0.000000 2.008760 0.000000 
#    z -0.000760 0.000000 2.047570 
# 
# From -- ./inp_files/48499.got.cif
#   From: 2010.05.17/outbox.cif.g08.bks.cpg/sg12_25_cif.got.tgz:48499.got - 2010.06.03 13:09:07.
