data_PCOD9216678
_publ_section_title
;
Structure prediction by ZEFSAII (Michael W. Deem and Ramdas Pophale) SiO2 
 PCOD9216678
Probable space group: C 2/M
;
_chemical_formula_sum "Si O2"
_cell_formula_units_Z 56
_cell_length_a 27.132109
_cell_length_b 14.738654
_cell_length_c 6.920279
_cell_angle_alpha 90.000000
_cell_angle_beta 88.374230
_cell_angle_gamma 90.000000
_cell_volume 2766.241692
_symmetry_space_group_name_H-M "C 2/M"
_symmetry_group_IT_number 12
_symmetry_cell_setting 'monoclinic'
loop_
_space_group_symop_operation_xyz
x,y,z
-x,y,-z
-x,-y,-z
x,-y,z
1/2+x,1/2+y,z
1/2-x,1/2+y,-z
1/2-x,1/2-y,-z
1/2+x,1/2-y,z
loop_
_atom_site_type_symbol
_atom_site_label
_atom_site_fract_x
_atom_site_fract_y
_atom_site_fract_z
Si Si1 0.274003 0.391762 0.471546
Si Si2 0.104170 0.251819 0.211023
Si Si3 0.386528 0.399663 0.476756
Si Si4 0.016900 0.901928 0.776424
Si Si5 0.459571 0.785524 0.142701
Si Si6 0.940374 0.603573 0.498782
Si Si7 0.221235 0.747356 0.202481
O O1 0.265422 0.500000 0.480724
O O2 0.331814 0.375159 0.411814
O O3 0.239916 0.338416 0.325137
O O4 0.267990 0.338681 0.674798
O O5 0.095818 0.167590 0.357795
O O6 0.078274 0.242708 0.006767
O O7 0.083281 0.339203 0.326339
O O8 0.162756 0.258677 0.179423
O O9 0.381869 0.500000 0.563712
O O10 0.426395 0.404528 0.301746
O O11 0.996321 0.000000 0.701664
O O12 0.010423 0.793226 0.742833
O O13 0.000000 0.905929 0.000000
O O14 0.500000 0.833636 0.000000
O O15 0.430832 0.847199 0.295923
O O16 0.923497 0.500000 0.503683
O O17 0.000000 0.604091 0.500000
O O18 0.250000 0.750000 0.000000
#
# Coordination Sequence:
#
# PCOD9216678 Si02
#       7
#     8   8   8   8   8   8   8
#     4   9  20  40  63  87 123 165 206 251 304 369
#     4  11  23  39  62  90 126 157 202 252 311 363
#     4   9  18  36  62  89 123 164 200 239 298 369
#     4   9  18  32  54  88 123 154 194 238 287 352
#     4  11  22  37  62  88 122 162 203 247 302 367
#     4  11  24  43  64  85 116 160 211 261 310 360
#     4  10  23  39  62  94 125 161 204 258 313 369
#
# _framework density 20.244073
#
# number of rings (size 3 to 8) (size 9 to 14) (size 15 to 20)
#    0.000    2.000    2.857    0.000    2.000    3.714 
#    0.000    0.000    0.000    5.143    0.000    0.000 
#    0.000    0.000    0.000    0.000    0.000    0.000 
#
# Total GULP energy -155974.420485 kJ/mol
# GULP energy per Si atom -5570.515017 kJ/mol
# Density = 2.019800 g / cm^3
# Si number density = 20.244073 Si / 1000 Ang^3
#
#
#
# Elastic Constant Matrix: (Units=GPa)
#
#
# Indices 1 2 3 4 5 6 
#
# 1 96.3181 21.6300 58.4416 0.0000 2.4975 0.0000
# 2 21.6300 136.6744 42.4837 0.0000 1.1257 0.0000
# 3 58.4416 42.4837 108.5120 0.0000 -8.8640 0.0000
# 4 0.0000 0.0000 0.0000 3.6929 0.0000 -2.7811
# 5 2.4975 1.1257 -8.8640 0.0000 38.3825 0.0000
# 6 0.0000 0.0000 0.0000 -2.7811 0.0000 25.1164
#
#
#
# Elastic Compliance Matrix: (Units=1/GPa)
#
#
# Indices 1 2 3 4 5 6 
#
# 1 0.015773 0.000282 -0.008857 0.000000 -0.003080 0.000000
# 2 0.000282 0.008375 -0.003519 0.000000 -0.001077 0.000000
# 3 -0.008857 -0.003519 0.015715 0.000000 0.004309 0.000000
# 4 0.000000 0.000000 0.000000 0.295423 0.000000 0.032712
# 5 -0.003080 -0.001077 0.004309 0.000000 0.027281 0.000000
# 6 0.000000 0.000000 0.000000 0.032712 0.000000 0.043437
#
#
# Mechanical properties :
#
#
# Convention : Reuss Voigt Hill
#
# Bulk Modulus (GPa) = 63.79217 65.17944 64.48580
# Shear Modulus (GPa) = 11.48331 28.03498 19.75914
#
# Velocity S-wave (km/s) = 2.38427 3.72539 3.12756
# Velocity P-wave (km/s) = 6.25776 7.12541 6.70563
#
# Compressibility (1/GPa) = 0.01567590
#
# Stress axis : x y z
#
# Youngs Moduli (GPa) = 63.40076 119.40856 63.63267
#
# Poissons Ratio (x) = -0.03370 0.56358
# Poissons Ratio (y) = -0.01789 0.22390
# Poissons Ratio (z) = 0.56153 0.42016
#
# Static dielectric constant tensor:
#      x y z
#    x 1.750220 0.000000 0.040210 
#    y 0.000000 1.771860 0.000000 
#    z 0.040210 0.000000 1.740880 
# 
# From -- ./inp_files/31512.got.cif
#   From: 2010.05.17/outbox.cif.g08.bks.cpg/sg12_16_cif.got.tgz:31512.got - 2010.06.03 13:09:07.
