data_PCOD9216568
_publ_section_title
;
Structure prediction by ZEFSAII (Michael W. Deem and Ramdas Pophale) SiO2 
 PCOD9216568
Probable space group: C 2/M
;
_chemical_formula_sum "Si O2"
_cell_formula_units_Z 40
_cell_length_a 8.508063
_cell_length_b 17.377004
_cell_length_c 17.408947
_cell_angle_alpha 90.000000
_cell_angle_beta 46.415346
_cell_angle_gamma 90.000000
_cell_volume 1864.363054
_symmetry_space_group_name_H-M "C 2/M"
_symmetry_group_IT_number 12
_symmetry_cell_setting 'monoclinic'
loop_
_space_group_symop_operation_xyz
x,y,z
-x,y,-z
-x,-y,-z
x,-y,z
1/2+x,1/2+y,z
1/2-x,1/2+y,-z
1/2-x,1/2-y,-z
1/2+x,1/2-y,z
loop_
_atom_site_type_symbol
_atom_site_label
_atom_site_fract_x
_atom_site_fract_y
_atom_site_fract_z
Si Si1 0.432832 0.414981 0.438680
Si Si2 0.588724 0.085794 0.367763
Si Si3 0.879412 0.672217 0.792034
Si Si4 0.820662 0.786934 0.393359
Si Si5 0.478413 0.205622 0.923389
O O1 0.500000 0.390204 0.500000
O O2 0.518312 0.500000 0.395396
O O3 0.498676 0.350713 0.356918
O O4 0.170064 0.417431 0.530735
O O5 0.643629 0.102505 0.260417
O O6 0.672390 0.159808 0.387578
O O7 0.672380 0.000000 0.362231
O O8 0.670016 0.729417 0.856209
O O9 0.949882 0.655469 0.855712
O O10 0.078095 0.720480 0.690065
O O11 0.750000 0.750000 0.500000
O O12 0.500000 0.166488 0.000000
O O13 0.250000 0.250000 0.000000
#
# Coordination Sequence:
#
# PCOD9216568 Si02
#       5
#     8   8   8   8   8
#     4  10  23  38  54  81 127 178 210 245 300 358
#     4  11  24  42  60  87 132 175 210 252 311 376
#     4  11  21  37  63  98 118 161 208 257 312 371
#     4  12  24  35  59  93 127 169 211 258 290 362
#     4   9  20  39  64  93 120 149 201 271 321 367
#
# _framework density 21.45505
#
# number of rings (size 3 to 8) (size 9 to 14) (size 15 to 20)
#    0.000    1.400    4.000    1.200    5.600    1.600 
#    0.000    0.000    0.000    6.000    0.000    0.000 
#    0.000    0.000    0.000    0.000    0.000    0.000 
#
# Total GULP energy -111445.570139 kJ/mol
# GULP energy per Si atom -5572.278507 kJ/mol
# Density = 2.140622 g / cm^3
# Si number density = 21.455050 Si / 1000 Ang^3
#
#
#
# Elastic Constant Matrix: (Units=GPa)
#
#
# Indices 1 2 3 4 5 6 
#
# 1 121.5365 25.6961 38.1109 0.0001 27.1485 0.0000
# 2 25.6961 60.2077 17.2341 0.0000 6.3584 0.0000
# 3 38.1109 17.2341 83.2051 0.0001 28.0690 -0.0001
# 4 0.0001 0.0000 0.0001 12.2537 -0.0001 6.0435
# 5 27.1485 6.3584 28.0690 -0.0001 52.4235 0.0000
# 6 0.0000 0.0000 -0.0001 6.0435 0.0000 32.1408
#
#
#
# Elastic Compliance Matrix: (Units=1/GPa)
#
#
# Indices 1 2 3 4 5 6 
#
# 1 0.010656 -0.003316 -0.003012 0.000000 -0.003504 0.000000
# 2 -0.003316 0.018690 -0.002645 0.000000 0.000866 0.000000
# 3 -0.003012 -0.002645 0.016246 0.000000 -0.006818 0.000000
# 4 0.000000 0.000000 0.000000 0.089949 0.000000 -0.016913
# 5 -0.003504 0.000866 -0.006818 0.000000 0.024435 0.000000
# 6 0.000000 0.000000 0.000000 -0.016913 0.000000 0.034293
#
#
# Mechanical properties :
#
#
# Convention : Reuss Voigt Hill
#
# Bulk Modulus (GPa) = 36.17075 47.44794 41.80935
# Shear Modulus (GPa) = 22.58046 31.62417 27.10232
#
# Velocity S-wave (km/s) = 3.24767 3.84340 3.55803
# Velocity P-wave (km/s) = 5.56405 6.46983 6.03396
#
# Compressibility (1/GPa) = 0.02764665
#
# Stress axis : x y z
#
# Youngs Moduli (GPa) = 93.84234 53.50500 61.55383
#
# Poissons Ratio (x) = 0.17741 0.18541
# Poissons Ratio (y) = 0.31115 0.16279
# Poissons Ratio (z) = 0.28267 0.14150
#
# Static dielectric constant tensor:
#      x y z
#    x 1.896220 0.000000 0.023610 
#    y 0.000000 1.886860 0.000000 
#    z 0.023610 0.000000 1.823380 
# 
# From -- ./inp_files/195056.got.cif
#   From: 2010.05.17/outbox.cif.g08.bks.cpg/sg12_98_cif.got.tgz:195056.got - 2010.06.03 13:09:07.
