data_PCOD9216024
_publ_section_title
;
Structure prediction by ZEFSAII (Michael W. Deem and Ramdas Pophale) SiO2 
 PCOD9216024
Probable space group: C 2/M
;
_chemical_formula_sum "Si O2"
_cell_formula_units_Z 36
_cell_length_a 14.074583
_cell_length_b 20.583523
_cell_length_c 11.304228
_cell_angle_alpha 90.000000
_cell_angle_beta 29.937795
_cell_angle_gamma 90.000000
_cell_volume 1634.362772
_symmetry_space_group_name_H-M "C 2/M"
_symmetry_group_IT_number 12
_symmetry_cell_setting 'monoclinic'
loop_
_space_group_symop_operation_xyz
x,y,z
-x,y,-z
-x,-y,-z
x,-y,z
1/2+x,1/2+y,z
1/2-x,1/2+y,-z
1/2-x,1/2-y,-z
1/2+x,1/2-y,z
loop_
_atom_site_type_symbol
_atom_site_label
_atom_site_fract_x
_atom_site_fract_y
_atom_site_fract_z
Si Si1 0.717897 0.071232 0.227303
Si Si2 0.635685 0.323356 0.511188
Si Si3 0.000000 0.610361 0.000000
Si Si4 0.189998 0.072258 0.147670
Si Si5 0.319443 0.300723 0.259495
O O1 0.500000 0.067949 0.500000
O O2 0.791375 0.132831 0.219409
O O3 0.802068 0.000000 0.164960
O O4 0.740340 0.080466 0.062596
O O5 0.460683 0.370107 0.667201
O O6 0.634887 0.316238 0.653822
O O7 0.645091 0.250147 0.449692
O O8 0.836180 0.353916 0.253687
O O9 0.867361 0.575211 0.045705
O O10 0.100529 0.000000 0.253610
O O11 0.500000 0.268591 0.000000
#
# Coordination Sequence:
#
# PCOD9216024 Si02
#       5
#     8   8   4   8   8
#     4  10  22  42  70 106 139 179 234 295 359 416
#     4  11  25  44  70 107 143 185 238 283 360 425
#     4  12  25  44  66 100 145 186 240 292 347 426
#     4  11  25  45  71 102 143 191 237 293 354 421
#     4  11  22  45  72 104 141 184 233 296 352 419
#
# _framework density 22.026934000000001
#
# number of rings (size 3 to 8) (size 9 to 14) (size 15 to 20)
#    0.000    1.111    3.333    2.333    0.000    5.778 
#    0.000    4.444    0.000    0.000    0.000    0.000 
#    0.000    0.000    0.000    0.000    0.000    0.000 
#
# Total GULP energy -100500.311660 kJ/mol
# GULP energy per Si atom -5583.350648 kJ/mol
# Density = 2.197680 g / cm^3
# Si number density = 22.026934 Si / 1000 Ang^3
#
#
#
# Elastic Constant Matrix: (Units=GPa)
#
#
# Indices 1 2 3 4 5 6 
#
# 1 137.3195 95.9176 66.3692 0.0090 7.8592 -0.0369
# 2 95.9176 173.3074 58.6280 -0.0097 0.5312 0.0036
# 3 66.3692 58.6280 142.5601 0.0095 17.3392 -0.0481
# 4 0.0090 -0.0097 0.0095 38.4025 -0.0029 16.5792
# 5 7.8592 0.5312 17.3392 -0.0029 48.0309 0.0278
# 6 -0.0369 0.0036 -0.0481 16.5792 0.0278 54.1045
#
#
#
# Elastic Compliance Matrix: (Units=1/GPa)
#
#
# Indices 1 2 3 4 5 6 
#
# 1 0.013390 -0.006195 -0.003585 -0.000008 -0.000828 0.000009
# 2 -0.006195 0.009612 -0.001233 0.000008 0.001353 -0.000009
# 3 -0.003585 -0.001233 0.009537 -0.000006 -0.002842 0.000009
# 4 -0.000008 0.000008 -0.000006 0.030010 0.000011 -0.009196
# 5 -0.000828 0.001353 -0.002842 0.000011 0.021967 -0.000018
# 6 0.000009 -0.000009 0.000009 -0.009196 -0.000018 0.021301
#
#
# Mechanical properties :
#
#
# Convention : Reuss Voigt Hill
#
# Bulk Modulus (GPa) = 95.13781 99.44629 97.29205
# Shear Modulus (GPa) = 38.06716 43.59239 40.82977
#
# Velocity S-wave (km/s) = 4.16168 4.45348 4.31005
# Velocity P-wave (km/s) = 8.14728 8.46701 8.30868
#
# Compressibility (1/GPa) = 0.01051107
#
# Stress axis : x y z
#
# Youngs Moduli (GPa) = 74.68318 104.03704 104.86008
#
# Poissons Ratio (x) = 0.64455 0.37594
# Poissons Ratio (y) = 0.46269 0.12931
# Poissons Ratio (z) = 0.26775 0.12830
#
# Static dielectric constant tensor:
#      x y z
#    x 1.900130 0.000000 -0.118580 
#    y 0.000000 1.880310 0.000000 
#    z -0.118580 0.000000 1.883140 
# 
# From -- ./inp_files/147439.got.cif
#   From: 2010.05.17/outbox.cif.g08.bks.cpg/sg12_74_cif.got.tgz:147439.got - 2010.06.03 13:09:07.
