data_PCOD9216734
_publ_section_title
;
Structure prediction by ZEFSAII (Michael W. Deem and Ramdas Pophale) SiO2 
 PCOD9216734
Probable space group: C 2/M
;
_chemical_formula_sum "Si O2"
_cell_formula_units_Z 40
_cell_length_a 21.873141
_cell_length_b 10.069079
_cell_length_c 8.371887
_cell_angle_alpha 90.000000
_cell_angle_beta 80.751785
_cell_angle_gamma 90.000000
_cell_volume 1819.876914
_symmetry_space_group_name_H-M "C 2/M"
_symmetry_group_IT_number 12
_symmetry_cell_setting 'monoclinic'
loop_
_space_group_symop_operation_xyz
x,y,z
-x,y,-z
-x,-y,-z
x,-y,z
1/2+x,1/2+y,z
1/2-x,1/2+y,-z
1/2-x,1/2-y,-z
1/2+x,1/2-y,z
loop_
_atom_site_type_symbol
_atom_site_label
_atom_site_fract_x
_atom_site_fract_y
_atom_site_fract_z
Si Si1 0.262554 0.655604 0.843432
Si Si2 0.888819 0.147898 0.609079
Si Si3 0.029417 0.349831 0.255137
Si Si4 0.563021 0.729619 0.923820
Si Si5 0.320512 0.647905 0.299702
O O1 0.244774 0.500000 0.872693
O O2 0.334268 0.656880 0.763087
O O3 0.224479 0.730125 0.719286
O O4 0.250000 0.750000 0.000000
O O5 0.940396 0.254107 0.629251
O O6 0.854187 0.161920 0.455256
O O7 0.916234 0.000000 0.604010
O O8 0.031712 0.500000 0.305413
O O9 0.961309 0.308462 0.221880
O O10 0.068290 0.327748 0.072700
O O11 0.624611 0.654537 0.854855
O O12 0.500000 0.650533 0.000000
O O13 0.291212 0.500000 0.305192
#
# Coordination Sequence:
#
# PCOD9216734 Si02
#       5
#     8   8   8   8   8
#     4  11  24  41  63  90 117 153 195 242 291 350
#     4  10  23  40  58  86 123 155 192 238 296 351
#     4   9  19  37  61  85 116 154 198 242 288 341
#     4   8  20  37  58  87 117 148 198 241 291 332
#     4  11  23  40  61  87 119 157 194 241 292 347
#
# _framework density 21.979509
#
# number of rings (size 3 to 8) (size 9 to 14) (size 15 to 20)
#    1.200    0.800    0.000    3.600    0.000   10.000 
#    0.000    3.000    0.000    0.000    0.000    0.000 
#    0.000    0.000    0.000    0.000    0.000    0.000 
#
# Total GULP energy -111541.799017 kJ/mol
# GULP energy per Si atom -5577.089951 kJ/mol
# Density = 2.192948 g / cm^3
# Si number density = 21.979509 Si / 1000 Ang^3
#
#
#
# Elastic Constant Matrix: (Units=GPa)
#
#
# Indices 1 2 3 4 5 6 
#
# 1 49.7251 51.1726 9.7311 0.0000 5.7772 0.0000
# 2 51.1726 196.8960 39.8978 0.0000 30.0538 0.0000
# 3 9.7311 39.8978 76.2661 0.0000 6.8041 0.0000
# 4 0.0000 0.0000 0.0000 16.5694 0.0000 1.3211
# 5 5.7772 30.0538 6.8041 0.0000 37.5047 0.0000
# 6 0.0000 0.0000 0.0000 1.3211 0.0000 -6.4270
#
#
#
# Elastic Compliance Matrix: (Units=1/GPa)
#
#
# Indices 1 2 3 4 5 6 
#
# 1 0.027552 -0.007468 0.000240 0.000000 0.001697 0.000000
# 2 -0.007468 0.008394 -0.002989 0.000000 -0.005034 0.000000
# 3 0.000240 -0.002989 0.014672 0.000000 -0.000304 0.000000
# 4 0.000000 0.000000 0.000000 0.059379 0.000000 0.012205
# 5 0.001697 -0.005034 -0.000304 0.000000 0.030490 0.000000
# 6 0.000000 0.000000 0.000000 0.012205 0.000000 -0.153084
#
#
# Mechanical properties :
#
#
# Convention : Reuss Voigt Hill
#
# Bulk Modulus (GPa) = 33.13085 58.27669 45.70377
# Shear Modulus (GPa) = 279.32869 24.33513 151.83191
#
# Velocity S-wave (km/s) = 11.28547 3.33103 8.32039
# Velocity P-wave (km/s) = 13.59860 6.43164 10.63692
#
# Compressibility (1/GPa) = 0.03018335
#
# Stress axis : x y z
#
# Youngs Moduli (GPa) = 36.29472 119.13487 68.15623
#
# Poissons Ratio (x) = 0.88975 -0.01637
# Poissons Ratio (y) = 0.27106 0.20373
# Poissons Ratio (z) = -0.00872 0.35611
#
# Static dielectric constant tensor:
#      x y z
#    x 1.792530 0.000000 0.000480 
#    y 0.000000 1.775210 0.000000 
#    z 0.000480 0.000000 1.872200 
# 
# From -- ./inp_files/92796.got.cif
#   From: 2010.05.17/outbox.cif.g08.bks.cpg/sg12_47_cif.got.tgz:92796.got - 2010.06.03 13:09:07.
