data_PCOD9216963
_publ_section_title
;
Structure prediction by ZEFSAII (Michael W. Deem and Ramdas Pophale) SiO2 
 PCOD9216963
Probable space group: C 2/M
;
_chemical_formula_sum "Si O2"
_cell_formula_units_Z 32
_cell_length_a 18.938131
_cell_length_b 13.196307
_cell_length_c 12.357760
_cell_angle_alpha 90.000000
_cell_angle_beta 28.127941
_cell_angle_gamma 90.000000
_cell_volume 1455.987206
_symmetry_space_group_name_H-M "C 2/M"
_symmetry_group_IT_number 12
_symmetry_cell_setting 'monoclinic'
loop_
_space_group_symop_operation_xyz
x,y,z
-x,y,-z
-x,-y,-z
x,-y,z
1/2+x,1/2+y,z
1/2-x,1/2+y,-z
1/2-x,1/2-y,-z
1/2+x,1/2-y,z
loop_
_atom_site_type_symbol
_atom_site_label
_atom_site_fract_x
_atom_site_fract_y
_atom_site_fract_z
Si Si1 0.422432 0.883438 0.270618
Si Si2 0.878856 0.174814 0.247016
Si Si3 0.532990 0.377743 0.627696
Si Si4 0.234988 0.122291 0.153648
O O1 0.287440 0.870135 0.539093
O O2 0.379759 0.797375 0.241661
O O3 0.420243 0.000000 0.234350
O O4 0.588514 0.857381 0.087188
O O5 0.931712 0.152265 0.297972
O O6 0.000000 0.134538 0.000000
O O7 0.538655 0.500000 0.618651
O O8 0.369558 0.345114 0.804937
O O9 0.651669 0.342044 0.375911
O O10 0.225500 0.000000 0.168435
#
# Coordination Sequence:
#
# PCOD9216963 Si02
#       4
#     8   8   8   8
#     4  10  23  41  62  86 118 159 203 248 288 347
#     4  11  25  39  58  91 123 159 196 238 303 360
#     4   9  18  36  63  92 122 153 193 249 298 346
#     4   8  17  36  64  92 113 150 205 250 292 338
#
# _framework density 21.978214999999999
#
# number of rings (size 3 to 8) (size 9 to 14) (size 15 to 20)
#    0.000    2.500    0.000    2.250    7.000    3.500 
#    0.000    1.250    0.000    4.500    0.000    0.000 
#    0.000    0.000    0.000    0.000    0.000    0.000 
#
# Total GULP energy -89282.499050 kJ/mol
# GULP energy per Si atom -5580.156191 kJ/mol
# Density = 2.192819 g / cm^3
# Si number density = 21.978215 Si / 1000 Ang^3
#
#
#
# Elastic Constant Matrix: (Units=GPa)
#
#
# Indices 1 2 3 4 5 6 
#
# 1 142.5696 18.2026 89.4841 0.0000 -21.2386 0.0000
# 2 18.2026 79.7847 16.0804 0.0000 -13.5894 0.0000
# 3 89.4841 16.0804 216.4806 0.0000 -29.0090 0.0000
# 4 0.0000 0.0000 0.0000 25.2330 0.0000 -12.1862
# 5 -21.2386 -13.5894 -29.0090 0.0000 40.4574 0.0000
# 6 0.0000 0.0000 0.0000 -12.1862 0.0000 11.0411
#
#
#
# Elastic Compliance Matrix: (Units=1/GPa)
#
#
# Indices 1 2 3 4 5 6 
#
# 1 0.009781 -0.001130 -0.003675 0.000000 0.002120 0.000000
# 2 -0.001130 0.013461 -0.000007 0.000000 0.003923 0.000000
# 3 -0.003675 -0.000007 0.006505 0.000000 0.002733 0.000000
# 4 0.000000 0.000000 0.000000 0.084867 0.000000 0.093669
# 5 0.002120 0.003923 0.002733 0.000000 0.029108 0.000000
# 6 0.000000 0.000000 0.000000 0.093669 0.000000 0.193953
#
#
# Mechanical properties :
#
#
# Convention : Reuss Voigt Hill
#
# Bulk Modulus (GPa) = 49.69342 76.26324 62.97833
# Shear Modulus (GPa) = 14.12404 36.35084 25.23744
#
# Velocity S-wave (km/s) = 2.53778 4.07129 3.39232
# Velocity P-wave (km/s) = 5.58986 7.54157 6.63784
#
# Compressibility (1/GPa) = 0.02012339
#
# Stress axis : x y z
#
# Youngs Moduli (GPa) = 102.24152 74.28785 153.72430
#
# Poissons Ratio (x) = 0.08392 0.56493
# Poissons Ratio (y) = 0.11550 0.00111
# Poissons Ratio (z) = 0.37573 0.00054
#
# Static dielectric constant tensor:
#      x y z
#    x 1.812280 0.000000 -0.029210 
#    y 0.000000 1.855480 0.000000 
#    z -0.029210 0.000000 1.878470 
# 
# From -- ./inp_files/155725.got.cif
#   From: 2010.05.17/outbox.cif.g08.bks.cpg/sg12_78_cif.got.tgz:155725.got - 2010.06.03 13:09:07.
