data_PCOD9216277
_publ_section_title
;
Structure prediction by ZEFSAII (Michael W. Deem and Ramdas Pophale) SiO2 
 PCOD9216277
Probable space group: C 2/M
;
_chemical_formula_sum "Si O2"
_cell_formula_units_Z 54
_cell_length_a 13.897942
_cell_length_b 29.563774
_cell_length_c 6.151436
_cell_angle_alpha 90.000000
_cell_angle_beta 111.637063
_cell_angle_gamma 90.000000
_cell_volume 2349.384520
_symmetry_space_group_name_H-M "C 2/M"
_symmetry_group_IT_number 12
_symmetry_cell_setting 'monoclinic'
loop_
_space_group_symop_operation_xyz
x,y,z
-x,y,-z
-x,-y,-z
x,-y,z
1/2+x,1/2+y,z
1/2-x,1/2+y,-z
1/2-x,1/2-y,-z
1/2+x,1/2-y,z
loop_
_atom_site_type_symbol
_atom_site_label
_atom_site_fract_x
_atom_site_fract_y
_atom_site_fract_z
Si Si1 0.215491 0.869828 0.348845
Si Si2 0.500000 0.084294 0.000000
Si Si3 0.825881 0.166928 0.277219
Si Si4 0.107615 0.081894 0.879581
Si Si5 0.279081 0.049715 0.718879
Si Si6 0.882040 0.343134 0.146070
Si Si7 0.955526 0.240903 0.210686
Si Si8 0.000000 0.000000 0.000000
O O1 0.173749 0.829274 0.463526
O O2 0.130806 0.890487 0.118294
O O3 0.245669 0.912221 0.522670
O O4 0.315888 0.853450 0.304278
O O5 0.400273 0.055050 0.861245
O O6 0.535286 0.118211 0.837420
O O7 0.856084 0.208647 0.153022
O O8 0.901375 0.124482 0.289446
O O9 0.707203 0.155307 0.114455
O O10 0.029779 0.040831 0.848719
O O11 0.214290 0.058322 0.885393
O O12 0.253026 0.000000 0.612128
O O13 0.932299 0.294128 0.190243
O O14 0.000000 0.232352 0.500000
O O15 0.000000 0.231493 0.000000
#
# Coordination Sequence:
#
# PCOD9216277 Si02
#       8
#     8   4   8   8   8   8   8   2
#     4  10  22  43  72  95 138 185 233 297 354 439
#     4  12  21  44  67  98 138 187 224 299 362 438
#     4  10  24  48  70  99 142 190 233 303 370 425
#     4  10  23  44  67  99 138 181 235 297 354 425
#     4  11  23  42  64  99 141 177 234 292 363 427
#     4  11  24  45  72  97 146 185 238 291 372 436
#     4  12  30  45  74 112 149 185 251 305 364 449
#     4  12  24  40  76  94 138 188 240 286 364 430
#
# _framework density 22.984745
#
# number of rings (size 3 to 8) (size 9 to 14) (size 15 to 20)
#    0.000    1.185    5.926    0.667   10.370    0.593 
#    0.000    5.926    0.000    0.000    0.000    0.000 
#    0.000    0.000    0.000    0.000    0.000    0.000 
#
# Total GULP energy -150311.640161 kJ/mol
# GULP energy per Si atom -5567.097784 kJ/mol
# Density = 2.293243 g / cm^3
# Si number density = 22.984745 Si / 1000 Ang^3
#
#
#
# Elastic Constant Matrix: (Units=GPa)
#
#
# Indices 1 2 3 4 5 6 
#
# 1 51.6397 12.3872 26.0574 0.0000 -17.8855 0.0000
# 2 12.3872 42.2317 2.7530 0.0000 -26.6711 0.0000
# 3 26.0574 2.7530 105.8883 0.0000 -26.4262 0.0000
# 4 0.0000 0.0000 0.0000 15.5264 0.0000 -8.7253
# 5 -17.8855 -26.6711 -26.4262 0.0000 44.2425 0.0000
# 6 0.0000 0.0000 0.0000 -8.7253 0.0000 26.8424
#
#
#
# Elastic Compliance Matrix: (Units=1/GPa)
#
#
# Indices 1 2 3 4 5 6 
#
# 1 0.024288 -0.003863 -0.004709 0.000000 0.004677 0.000000
# 2 -0.003863 0.041892 0.006786 0.000000 0.027746 0.000000
# 3 -0.004709 0.006786 0.012894 0.000000 0.009889 0.000000
# 4 0.000000 0.000000 0.000000 0.078801 0.000000 0.025615
# 5 0.004677 0.027746 0.009889 0.000000 0.047126 0.000000
# 6 0.000000 0.000000 0.000000 0.025615 0.000000 0.045581
#
#
# Mechanical properties :
#
#
# Convention : Reuss Voigt Hill
#
# Bulk Modulus (GPa) = 13.24486 31.35057 22.29772
# Shear Modulus (GPa) = 17.90042 27.89307 22.89674
#
# Velocity S-wave (km/s) = 2.79372 3.48738 3.15964
# Velocity P-wave (km/s) = 4.02262 5.46673 4.79930
#
# Compressibility (1/GPa) = 0.07550097
#
# Stress axis : x y z
#
# Youngs Moduli (GPa) = 41.17302 23.87070 77.55371
#
# Poissons Ratio (x) = 0.09222 0.36522
# Poissons Ratio (y) = 0.15907 -0.52628
# Poissons Ratio (z) = 0.19389 -0.16199
#
# Static dielectric constant tensor:
#      x y z
#    x 1.913100 0.000000 0.014060 
#    y 0.000000 1.795580 0.000000 
#    z 0.014060 0.000000 1.950630 
# 
# From -- ./inp_files/13173.got.cif
#   From: 2010.05.17/outbox.cif.g08.bks.cpg/sg12_7_cif.got.tgz:13173.got - 2010.06.03 13:09:07.
