data_PCOD9216929
_publ_section_title
;
Structure prediction by ZEFSAII (Michael W. Deem and Ramdas Pophale) SiO2 
 PCOD9216929
Probable space group: C 2/M
;
_chemical_formula_sum "Si O2"
_cell_formula_units_Z 56
_cell_length_a 31.174890
_cell_length_b 20.049143
_cell_length_c 9.161316
_cell_angle_alpha 90.000000
_cell_angle_beta 29.372869
_cell_angle_gamma 90.000000
_cell_volume 2808.599334
_symmetry_space_group_name_H-M "C 2/M"
_symmetry_group_IT_number 12
_symmetry_cell_setting 'monoclinic'
loop_
_space_group_symop_operation_xyz
x,y,z
-x,y,-z
-x,-y,-z
x,-y,z
1/2+x,1/2+y,z
1/2-x,1/2+y,-z
1/2-x,1/2-y,-z
1/2+x,1/2-y,z
loop_
_atom_site_type_symbol
_atom_site_label
_atom_site_fract_x
_atom_site_fract_y
_atom_site_fract_z
Si Si1 0.673854 0.826783 0.165685
Si Si2 0.283424 0.919838 0.190912
Si Si3 0.491351 0.247719 0.203461
Si Si4 0.680208 0.189275 0.679114
Si Si5 0.447848 0.629703 0.788671
Si Si6 0.409880 0.423276 0.205765
Si Si7 0.715969 0.690556 0.896700
O O1 0.591764 0.795820 0.497504
O O2 0.756162 0.837211 0.028945
O O3 0.659596 0.892836 0.113117
O O4 0.700567 0.768755 0.972064
O O5 0.307439 0.876384 0.260972
O O6 0.182187 0.896977 0.463993
O O7 0.287158 0.000000 0.198431
O O8 0.493960 0.315527 0.294688
O O9 0.500000 0.254188 0.000000
O O10 0.582123 0.214373 0.984095
O O11 0.750000 0.250000 0.500000
O O12 0.701605 0.174260 0.448570
O O13 0.500000 0.597144 0.500000
O O14 0.412437 0.584003 0.023598
O O15 0.366767 0.663383 0.945509
O O16 0.409476 0.500000 0.250671
O O17 0.500000 0.394514 0.000000
#
# Coordination Sequence:
#
# PCOD9216929 Si02
#       7
#     8   8   8   8   8   8   8
#     4  11  24  40  60  94 126 159 207 259 313 370
#     4  11  24  43  66  91 125 170 209 253 316 377
#     4  12  24  38  61  92 122 158 203 262 319 370
#     4  12  21  40  66  91 123 162 206 260 312 369
#     4  12  23  35  59  95 125 157 201 256 311 365
#     4  10  23  41  60  85 123 167 206 244 302 377
#     4  11  22  37  61  92 124 159 203 259 309 363
#
# _framework density 19.938763999999999
#
# number of rings (size 3 to 8) (size 9 to 14) (size 15 to 20)
#    0.000    0.714    7.143    0.429    2.000    0.286 
#    0.000    2.857    0.000    0.857    0.000    0.000 
#    0.000    0.000    0.000    0.000    0.000    0.000 
#
# Total GULP energy -156052.645014 kJ/mol
# GULP energy per Si atom -5573.308751 kJ/mol
# Density = 1.989338 g / cm^3
# Si number density = 19.938764 Si / 1000 Ang^3
#
#
#
# Elastic Constant Matrix: (Units=GPa)
#
#
# Indices 1 2 3 4 5 6 
#
# 1 84.5028 23.5831 23.6466 0.0000 -8.4960 0.0000
# 2 23.5831 67.9128 19.8219 0.0000 1.0951 0.0000
# 3 23.6466 19.8219 83.0033 0.0000 11.4028 0.0000
# 4 0.0000 0.0000 0.0000 15.3748 0.0000 10.5784
# 5 -8.4960 1.0951 11.4028 0.0000 31.2659 0.0000
# 6 0.0000 0.0000 0.0000 10.5784 0.0000 15.4872
#
#
#
# Elastic Compliance Matrix: (Units=1/GPa)
#
#
# Indices 1 2 3 4 5 6 
#
# 1 0.014624 -0.004008 -0.003973 0.000000 0.005563 0.000000
# 2 -0.004008 0.016949 -0.002816 0.000000 -0.000656 0.000000
# 3 -0.003973 -0.002816 0.014725 0.000000 -0.006351 0.000000
# 4 0.000000 0.000000 0.000000 0.122710 0.000000 -0.083816
# 5 0.005563 -0.000656 -0.006351 0.000000 0.035835 0.000000
# 6 0.000000 0.000000 0.000000 -0.083816 0.000000 0.121819
#
#
# Mechanical properties :
#
#
# Convention : Reuss Voigt Hill
#
# Bulk Modulus (GPa) = 40.48041 41.05802 40.76922
# Shear Modulus (GPa) = 14.02569 23.65006 18.83788
#
# Velocity S-wave (km/s) = 2.65512 3.44777 3.07707
# Velocity P-wave (km/s) = 5.45399 6.04038 5.75466
#
# Compressibility (1/GPa) = 0.02470330
#
# Stress axis : x y z
#
# Youngs Moduli (GPa) = 68.38213 59.00048 67.91397
#
# Poissons Ratio (x) = 0.23649 0.26983
# Poissons Ratio (y) = 0.27409 0.19122
# Poissons Ratio (z) = 0.27169 0.16612
#
# Static dielectric constant tensor:
#      x y z
#    x 1.733370 0.000000 0.015340 
#    y 0.000000 1.699470 0.000000 
#    z 0.015340 0.000000 1.789420 
# 
# From -- ./inp_files/77353.got.cif
#   From: 2010.05.17/outbox.cif.g08.bks.cpg/sg12_39_cif.got.tgz:77353.got - 2010.06.03 13:09:07.
