data_PCOD9216642
_publ_section_title
;
Structure prediction by ZEFSAII (Michael W. Deem and Ramdas Pophale) SiO2 
 PCOD9216642
Probable space group: C 2/M
;
_chemical_formula_sum "Si O2"
_cell_formula_units_Z 34
_cell_length_a 5.027188
_cell_length_b 17.822285
_cell_length_c 17.252505
_cell_angle_alpha 90.000000
_cell_angle_beta 70.444909
_cell_angle_gamma 90.000000
_cell_volume 1456.596040
_symmetry_space_group_name_H-M "C 2/M"
_symmetry_group_IT_number 12
_symmetry_cell_setting 'monoclinic'
loop_
_space_group_symop_operation_xyz
x,y,z
-x,y,-z
-x,-y,-z
x,-y,z
1/2+x,1/2+y,z
1/2-x,1/2+y,-z
1/2-x,1/2-y,-z
1/2+x,1/2-y,z
loop_
_atom_site_type_symbol
_atom_site_label
_atom_site_fract_x
_atom_site_fract_y
_atom_site_fract_z
Si Si1 0.175323 0.409199 0.184783
Si Si2 0.849787 0.917328 0.337418
Si Si3 0.500000 0.000000 0.500000
Si Si4 0.289330 0.091512 0.088143
Si Si5 0.352189 0.299446 0.594976
O O1 0.162937 0.500000 0.185235
O O2 0.218534 0.389104 0.270234
O O3 0.914342 0.382937 0.158722
O O4 0.464659 0.385971 0.113427
O O5 0.086390 0.865233 0.351204
O O6 0.979992 0.000000 0.308144
O O7 0.617967 0.935989 0.426565
O O8 0.290607 0.000000 0.086274
O O9 0.500000 0.116356 0.000000
O O10 0.500000 0.322853 0.500000
O O11 0.541686 0.229776 0.607037
#
# Coordination Sequence:
#
# PCOD9216642 Si02
#       5
#     8   8   2   8   8
#     4   9  17  30  46  72 103 137 173 223 263 317
#     4   9  20  37  57  83 113 149 193 230 276 328
#     4   8  20  36  58  84 108 156 188 236 266 336
#     4   9  16  27  45  69 102 139 171 207 272 334
#     4  10  23  39  58  79 108 145 191 236 280 323
#
# _framework density 23.342092999999998
#
# number of rings (size 3 to 8) (size 9 to 14) (size 15 to 20)
#    0.706    2.118    0.000    0.706    4.941    5.176 
#    0.000    3.529    0.000    0.706    0.000    0.000 
#    0.000   18.824    0.000    0.000    0.000    0.000 
#
# Total GULP energy -94703.609838 kJ/mol
# GULP energy per Si atom -5570.800579 kJ/mol
# Density = 2.328897 g / cm^3
# Si number density = 23.342093 Si / 1000 Ang^3
#
#
#
# Elastic Constant Matrix: (Units=GPa)
#
#
# Indices 1 2 3 4 5 6 
#
# 1 72.6984 -4.7371 9.9713 0.0000 3.6431 0.0000
# 2 -4.7371 26.3063 13.1287 0.0000 11.1744 0.0000
# 3 9.9713 13.1287 103.2304 0.0000 -3.2518 0.0000
# 4 0.0000 0.0000 0.0000 17.0820 0.0000 13.9047
# 5 3.6431 11.1744 -3.2518 0.0000 39.4334 0.0000
# 6 0.0000 0.0000 0.0000 13.9047 0.0000 20.0329
#
#
#
# Elastic Compliance Matrix: (Units=1/GPa)
#
#
# Indices 1 2 3 4 5 6 
#
# 1 0.014511 0.004903 -0.002117 0.000000 -0.002905 0.000000
# 2 0.004903 0.048777 -0.007145 0.000000 -0.014864 0.000000
# 3 -0.002117 -0.007145 0.010898 0.000000 0.003119 0.000000
# 4 0.000000 0.000000 0.000000 0.134573 0.000000 -0.093406
# 5 -0.002905 -0.014864 0.003119 0.000000 0.030097 0.000000
# 6 0.000000 0.000000 0.000000 -0.093406 0.000000 0.114750
#
#
# Mechanical properties :
#
#
# Convention : Reuss Voigt Hill
#
# Bulk Modulus (GPa) = 15.27451 26.55122 20.91287
# Shear Modulus (GPa) = 13.01588 27.56781 20.29185
#
# Velocity S-wave (km/s) = 2.36395 3.44035 2.95163
# Velocity P-wave (km/s) = 3.74286 5.21352 4.53816
#
# Compressibility (1/GPa) = 0.06546853
#
# Stress axis : x y z
#
# Youngs Moduli (GPa) = 68.91397 20.50167 91.75580
#
# Poissons Ratio (x) = -0.10052 0.19422
# Poissons Ratio (y) = -0.33790 0.65561
# Poissons Ratio (z) = 0.14587 0.14649
#
# Static dielectric constant tensor:
#      x y z
#    x 1.903600 0.000000 -0.044260 
#    y 0.000000 1.876600 0.000000 
#    z -0.044260 0.000000 1.899920 
# 
# From -- ./inp_files/191203.got.cif
#   From: 2010.05.17/outbox.cif.g08.bks.cpg/sg12_96_cif.got.tgz:191203.got - 2010.06.03 13:09:07.
