data_PCOD9216773
_publ_section_title
;
Structure prediction by ZEFSAII (Michael W. Deem and Ramdas Pophale) SiO2 
 PCOD9216773
Probable space group: C 2/M
;
_chemical_formula_sum "Si O2"
_cell_formula_units_Z 32
_cell_length_a 9.990261
_cell_length_b 14.614852
_cell_length_c 26.868872
_cell_angle_alpha 90.000000
_cell_angle_beta 156.090439
_cell_angle_gamma 90.000000
_cell_volume 1589.977648
_symmetry_space_group_name_H-M "C 2/M"
_symmetry_group_IT_number 12
_symmetry_cell_setting 'monoclinic'
loop_
_space_group_symop_operation_xyz
x,y,z
-x,y,-z
-x,-y,-z
x,-y,z
1/2+x,1/2+y,z
1/2-x,1/2+y,-z
1/2-x,1/2-y,-z
1/2+x,1/2-y,z
loop_
_atom_site_type_symbol
_atom_site_label
_atom_site_fract_x
_atom_site_fract_y
_atom_site_fract_z
Si Si1 0.381831 0.894350 0.016348
Si Si2 0.245700 0.737370 0.799714
Si Si3 0.674767 0.599417 0.613202
Si Si4 0.809915 0.815891 0.567535
O O1 0.045428 0.835001 0.901765
O O2 0.351462 0.000000 0.024964
O O3 0.500000 0.900604 0.000000
O O4 0.640647 0.828562 0.132849
O O5 0.937863 0.677877 0.714220
O O6 0.108870 0.773519 0.700822
O O7 0.500000 0.617517 0.500000
O O8 0.837367 0.500000 0.662944
O O9 0.426504 0.597318 0.575406
O O10 0.500000 0.827961 0.500000
O O11 0.750000 0.750000 0.500000
#
# Coordination Sequence:
#
# PCOD9216773 Si02
#       4
#     8   8   8   8
#     4  10  23  40  62  94 126 168 221 269 321 381
#     4  11  21  40  68  89 130 174 209 269 329 384
#     4  11  23  40  64  97 133 173 213 260 328 396
#     4  12  22  40  66  97 130 169 214 266 325 394
#
# _framework density 20.126069999999999
#
# number of rings (size 3 to 8) (size 9 to 14) (size 15 to 20)
#    0.000    1.000    5.000    2.250    0.000    1.500 
#    0.000    0.000    0.000    9.000    0.000    0.000 
#    0.000    0.000    0.000    0.000    0.000    0.000 
#
# Total GULP energy -89079.645550 kJ/mol
# GULP energy per Si atom -5567.477847 kJ/mol
# Density = 2.008026 g / cm^3
# Si number density = 20.126070 Si / 1000 Ang^3
#
#
#
# Elastic Constant Matrix: (Units=GPa)
#
#
# Indices 1 2 3 4 5 6 
#
# 1 133.4797 55.4913 54.7663 -0.0042 -5.7599 0.0030
# 2 55.4913 185.5600 78.2193 -0.0013 -7.6271 0.0022
# 3 54.7663 78.2193 131.6014 -0.0250 -16.6041 0.0180
# 4 -0.0042 -0.0013 -0.0250 50.3749 -0.0072 -14.8922
# 5 -5.7599 -7.6271 -16.6041 -0.0072 26.1197 0.0046
# 6 0.0030 0.0022 0.0180 -14.8922 0.0046 35.4914
#
#
#
# Elastic Compliance Matrix: (Units=1/GPa)
#
#
# Indices 1 2 3 4 5 6 
#
# 1 0.009356 -0.001538 -0.003018 -0.000001 -0.000304 0.000001
# 2 -0.001538 0.007454 -0.003869 -0.000002 -0.000622 0.000001
# 3 -0.003018 -0.003869 0.011880 0.000005 0.005757 -0.000004
# 4 -0.000001 -0.000002 0.000005 0.022662 0.000007 0.009509
# 5 -0.000304 -0.000622 0.005757 0.000007 0.041696 -0.000005
# 6 0.000001 0.000001 -0.000004 0.009509 -0.000005 0.032166
#
#
# Mechanical properties :
#
#
# Convention : Reuss Voigt Hill
#
# Bulk Modulus (GPa) = 84.45102 91.95501 88.20302
# Shear Modulus (GPa) = 34.24355 39.87482 37.05919
#
# Velocity S-wave (km/s) = 4.12934 4.45595 4.29575
# Velocity P-wave (km/s) = 8.04906 8.50075 8.27799
#
# Compressibility (1/GPa) = 0.01184118
#
# Stress axis : x y z
#
# Youngs Moduli (GPa) = 106.87904 134.14774 84.17206
#
# Poissons Ratio (x) = 0.20638 0.25400
# Poissons Ratio (y) = 0.16443 0.32565
# Poissons Ratio (z) = 0.32252 0.51901
#
# Static dielectric constant tensor:
#      x y z
#    x 1.740960 0.000000 0.050930 
#    y 0.000000 1.823360 0.000000 
#    z 0.050930 0.000000 1.734690 
# 
# From -- ./inp_files/256298.got.cif
#   From: 2010.05.17/outbox.cif.g08.bks.cpg/sg12_129_cif.got.tgz:256298.got - 2010.06.03 13:09:07.
