data_PCOD9216651
_publ_section_title
;
Structure prediction by ZEFSAII (Michael W. Deem and Ramdas Pophale) SiO2 
 PCOD9216651
Probable space group: C 2/M
;
_chemical_formula_sum "Si O2"
_cell_formula_units_Z 64
_cell_length_a 11.260421
_cell_length_b 27.937330
_cell_length_c 11.390977
_cell_angle_alpha 90.000000
_cell_angle_beta 107.194758
_cell_angle_gamma 90.000000
_cell_volume 3423.282493
_symmetry_space_group_name_H-M "C 2/M"
_symmetry_group_IT_number 12
_symmetry_cell_setting 'monoclinic'
loop_
_space_group_symop_operation_xyz
x,y,z
-x,y,-z
-x,-y,-z
x,-y,z
1/2+x,1/2+y,z
1/2-x,1/2+y,-z
1/2-x,1/2-y,-z
1/2+x,1/2-y,z
loop_
_atom_site_type_symbol
_atom_site_label
_atom_site_fract_x
_atom_site_fract_y
_atom_site_fract_z
Si Si1 0.410019 0.841579 0.581515
Si Si2 0.468346 0.643675 0.357814
Si Si3 0.523970 0.443772 0.812473
Si Si4 0.633449 0.221002 0.018093
Si Si5 0.269964 0.328727 0.655280
Si Si6 0.244393 0.719167 0.305617
Si Si7 0.387571 0.135917 0.176609
Si Si8 0.793559 0.944543 0.912304
O O1 0.500000 0.831569 0.500000
O O2 0.290558 0.858780 0.471199
O O3 0.358092 0.795344 0.629637
O O4 0.487817 0.868254 0.706548
O O5 0.500000 0.629939 0.500000
O O6 0.444111 0.595569 0.275983
O O7 0.584077 0.668959 0.325394
O O8 0.359166 0.682693 0.338642
O O9 0.527409 0.500000 0.776701
O O10 0.387581 0.434523 0.830323
O O11 0.621665 0.438009 0.947459
O O12 0.681417 0.210503 0.161865
O O13 0.500000 0.246738 0.000000
O O14 0.750000 0.250000 0.000000
O O15 0.605568 0.175955 0.923731
O O16 0.224912 0.273652 0.654028
O O17 0.219366 0.348598 0.762511
O O18 0.330196 0.086808 0.113826
O O19 0.760247 0.000000 0.893042
#
# Coordination Sequence:
#
# PCOD9216651 Si02
#       8
#     8   8   8   8   8   8   8   8
#     4  10  23  39  59  79 116 165 207 241 298 351
#     4  12  25  37  62  92 123 160 214 253 307 375
#     4   9  19  39  63  92 126 152 194 261 321 368
#     4  12  26  42  59  90 126 165 208 254 316 370
#     4  11  24  39  58  85 122 167 207 250 296 360
#     4  12  25  40  59  87 124 165 211 253 300 367
#     4  11  21  40  63  84 121 161 195 251 306 366
#     4   9  18  37  67  95 115 152 203 253 311 378
#
# _framework density 18.695506999999999
#
# number of rings (size 3 to 8) (size 9 to 14) (size 15 to 20)
#    0.000    1.250    5.000    1.875    5.250    0.250 
#    2.250    0.000    0.000    5.250    0.000    0.000 
#    0.000    0.000    0.000    0.000    0.000    0.000 
#
# Total GULP energy -178153.866416 kJ/mol
# GULP energy per Si atom -5567.308325 kJ/mol
# Density = 1.865296 g / cm^3
# Si number density = 18.695507 Si / 1000 Ang^3
#
#
#
# Elastic Constant Matrix: (Units=GPa)
#
#
# Indices 1 2 3 4 5 6 
#
# 1 51.3541 23.6975 7.1359 0.0000 20.1637 0.0000
# 2 23.6975 86.2914 23.0660 0.0000 12.2864 0.0000
# 3 7.1359 23.0660 88.0082 0.0000 2.1815 0.0000
# 4 0.0000 0.0000 0.0000 16.2832 0.0000 3.5590
# 5 20.1637 12.2864 2.1815 0.0000 26.0492 0.0000
# 6 0.0000 0.0000 0.0000 3.5590 0.0000 19.5389
#
#
#
# Elastic Compliance Matrix: (Units=1/GPa)
#
#
# Indices 1 2 3 4 5 6 
#
# 1 0.030106 -0.005148 -0.000575 0.000000 -0.020827 0.000000
# 2 -0.005148 0.014220 -0.003249 0.000000 -0.002450 0.000000
# 3 -0.000575 -0.003249 0.012237 0.000000 0.000953 0.000000
# 4 0.000000 0.000000 0.000000 0.063959 0.000000 -0.011650
# 5 -0.020827 -0.002450 0.000953 0.000000 0.055586 0.000000
# 6 0.000000 0.000000 0.000000 -0.011650 0.000000 0.053302
#
#
# Mechanical properties :
#
#
# Convention : Reuss Voigt Hill
#
# Bulk Modulus (GPa) = 25.89493 37.05026 31.47260
# Shear Modulus (GPa) = 19.21391 23.82454 21.51922
#
# Velocity S-wave (km/s) = 3.20930 3.57367 3.39637
# Velocity P-wave (km/s) = 5.25488 6.07363 5.67903
#
# Compressibility (1/GPa) = 0.03861760
#
# Stress axis : x y z
#
# Youngs Moduli (GPa) = 33.21588 70.32508 81.71906
#
# Poissons Ratio (x) = 0.36207 0.04703
# Poissons Ratio (y) = 0.17101 0.26548
# Poissons Ratio (z) = 0.01911 0.22846
#
# Static dielectric constant tensor:
#      x y z
#    x 1.717130 0.000000 0.018750 
#    y 0.000000 1.630970 0.000000 
#    z 0.018750 0.000000 1.712850 
# 
# From -- ./inp_files/135973.got.cif
#   From: 2010.05.17/outbox.cif.g08.bks.cpg/sg12_68_cif.got.tgz:135973.got - 2010.06.03 13:09:07.
