data_PCOD9216025
_publ_section_title
;
Structure prediction by ZEFSAII (Michael W. Deem and Ramdas Pophale) SiO2 
 PCOD9216025
Probable space group: C 2/M
;
_chemical_formula_sum "Si O2"
_cell_formula_units_Z 32
_cell_length_a 23.841513
_cell_length_b 14.962543
_cell_length_c 10.668642
_cell_angle_alpha 90.000000
_cell_angle_beta 25.068891
_cell_angle_gamma 90.000000
_cell_volume 1612.555607
_symmetry_space_group_name_H-M "C 2/M"
_symmetry_group_IT_number 12
_symmetry_cell_setting 'monoclinic'
loop_
_space_group_symop_operation_xyz
x,y,z
-x,y,-z
-x,-y,-z
x,-y,z
1/2+x,1/2+y,z
1/2-x,1/2+y,-z
1/2-x,1/2-y,-z
1/2+x,1/2-y,z
loop_
_atom_site_type_symbol
_atom_site_label
_atom_site_fract_x
_atom_site_fract_y
_atom_site_fract_z
Si Si1 0.425479 0.000000 0.349966
Si Si2 0.902475 0.840316 0.313573
Si Si3 0.796009 0.500000 0.337641
Si Si4 0.834046 0.689133 0.627820
Si Si5 0.532840 0.667507 0.304380
O O1 0.353814 0.000000 0.360257
O O2 0.381926 0.089256 0.508527
O O3 0.581494 0.000000 0.005991
O O4 0.838563 0.746888 0.489301
O O5 0.985034 0.874270 0.268855
O O6 0.792906 0.912715 0.502438
O O7 0.000000 0.826678 0.000000
O O8 0.939650 0.744167 0.495888
O O9 0.686910 0.689132 0.979797
O O10 0.500000 0.617478 0.500000
#
# Coordination Sequence:
#
# PCOD9216025 Si02
#       5
#     4   8   4   8   8
#     4  11  24  38  65  93 134 162 218 260 325 372
#     4  10  23  38  68  91 131 161 216 257 319 370
#     4  11  23  40  60  98 130 170 205 270 316 387
#     4  10  23  41  66  93 128 168 213 259 317 374
#     4  10  22  42  70  90 129 171 214 258 319 378
#
# _framework density 19.844277000000002
#
# number of rings (size 3 to 8) (size 9 to 14) (size 15 to 20)
#    1.500    0.250    0.000    4.125    3.500    3.000 
#    0.000    3.125    0.000    0.000    0.000    0.000 
#    0.000    0.000    0.000    0.000    0.000    0.000 
#
# Total GULP energy -89234.347031 kJ/mol
# GULP energy per Si atom -5577.146689 kJ/mol
# Density = 1.979911 g / cm^3
# Si number density = 19.844277 Si / 1000 Ang^3
#
#
#
# Elastic Constant Matrix: (Units=GPa)
#
#
# Indices 1 2 3 4 5 6 
#
# 1 68.2108 -2.6679 39.3178 0.0000 22.5954 0.0000
# 2 -2.6679 67.5667 22.2121 0.0000 -3.5957 0.0000
# 3 39.3178 22.2121 180.2539 0.0000 3.7746 0.0000
# 4 0.0000 0.0000 0.0000 -8.1693 0.0000 -5.1098
# 5 22.5954 -3.5957 3.7746 0.0000 31.5877 0.0000
# 6 0.0000 0.0000 0.0000 -5.1098 0.0000 8.2896
#
#
#
# Elastic Compliance Matrix: (Units=1/GPa)
#
#
# Indices 1 2 3 4 5 6 
#
# 1 0.022601 0.001654 -0.004811 0.000000 -0.015404 0.000000
# 2 0.001654 0.015672 -0.002310 0.000000 0.000877 0.000000
# 3 -0.004811 -0.002310 0.006832 0.000000 0.002362 0.000000
# 4 0.000000 0.000000 0.000000 -0.088347 0.000000 -0.054458
# 5 -0.015404 0.000877 0.002362 0.000000 0.042494 0.000000
# 6 0.000000 0.000000 0.000000 -0.054458 0.000000 0.087065
#
#
# Mechanical properties :
#
#
# Convention : Reuss Voigt Hill
#
# Bulk Modulus (GPa) = 29.26489 48.19503 38.72996
# Shear Modulus (GPa) = 46.02290 23.48623 34.75457
#
# Velocity S-wave (km/s) = 4.82103 3.44397 4.18947
# Velocity P-wave (km/s) = 6.76529 6.33671 6.55450
#
# Compressibility (1/GPa) = 0.03417064
#
# Stress axis : x y z
#
# Youngs Moduli (GPa) = 44.24588 63.80938 146.36158
#
# Poissons Ratio (x) = -0.10556 0.70416
# Poissons Ratio (y) = -0.07320 0.33815
# Poissons Ratio (z) = 0.21287 0.14742
#
# Static dielectric constant tensor:
#      x y z
#    x 1.760230 0.000000 0.018850 
#    y 0.000000 1.666140 0.000000 
#    z 0.018850 0.000000 1.658330 
# 
# From -- ./inp_files/183361.got.cif
#   From: 2010.05.17/outbox.cif.g08.bks.cpg/sg12_92_cif.got.tgz:183361.got - 2010.06.03 13:09:07.
