data_PCOD9216392
_publ_section_title
;
Structure prediction by ZEFSAII (Michael W. Deem and Ramdas Pophale) SiO2 
 PCOD9216392
Probable space group: C 2/M
;
_chemical_formula_sum "Si O2"
_cell_formula_units_Z 64
_cell_length_a 8.700888
_cell_length_b 14.715127
_cell_length_c 26.977240
_cell_angle_alpha 90.000000
_cell_angle_beta 117.834613
_cell_angle_gamma 90.000000
_cell_volume 3054.388488
_symmetry_space_group_name_H-M "C 2/M"
_symmetry_group_IT_number 12
_symmetry_cell_setting 'monoclinic'
loop_
_space_group_symop_operation_xyz
x,y,z
-x,y,-z
-x,-y,-z
x,-y,z
1/2+x,1/2+y,z
1/2-x,1/2+y,-z
1/2-x,1/2-y,-z
1/2+x,1/2-y,z
loop_
_atom_site_type_symbol
_atom_site_label
_atom_site_fract_x
_atom_site_fract_y
_atom_site_fract_z
Si Si1 0.409158 0.889958 0.932789
Si Si2 0.084648 0.660997 0.396994
Si Si3 0.339958 0.396629 0.507560
Si Si4 0.896633 0.897682 0.258748
Si Si5 0.288147 0.215016 0.199116
Si Si6 0.791295 0.400385 0.292513
Si Si7 0.077191 0.752882 0.881858
Si Si8 0.913674 0.855617 0.373071
O O1 0.235282 0.825304 0.912256
O O2 0.530853 0.825080 0.915443
O O3 0.384679 0.000000 0.914945
O O4 0.500000 0.892963 0.000000
O O5 0.165494 0.653010 0.464241
O O6 0.245952 0.645625 0.383738
O O7 0.928881 0.596421 0.357524
O O8 0.990023 0.756157 0.376365
O O9 0.500000 0.355925 0.500000
O O10 0.312759 0.500000 0.485823
O O11 0.420425 0.400235 0.574199
O O12 0.793983 0.822069 0.213161
O O13 0.862006 0.894233 0.312240
O O14 0.100964 0.873438 0.282892
O O15 0.867273 0.000000 0.236424
O O16 0.350725 0.165699 0.257816
O O17 0.395765 0.201146 0.166066
O O18 0.094513 0.188100 0.154794
O O19 0.775025 0.500000 0.267777
#
# Coordination Sequence:
#
# PCOD9216392 Si02
#       8
#     8   8   8   8   8   8   8   8
#     4  10  22  44  74 108 146 186 228 276 330 386
#     4  11  22  37  59  83 112 152 197 255 317 396
#     4   9  19  36  55  80 109 140 190 252 318 389
#     4  11  24  41  62  87 121 165 213 266 328 388
#     4  11  22  41  61  91 130 173 215 271 314 378
#     4  11  24  40  59  86 122 163 205 261 326 380
#     4  10  23  40  69 100 140 180 228 272 325 379
#     4  11  22  37  60  82 113 150 201 254 322 390
#
# _framework density 20.953455999999999
#
# number of rings (size 3 to 8) (size 9 to 14) (size 15 to 20)
#    0.000    1.500    2.500    2.250    1.750    4.500 
#    0.000    3.750    0.000   11.250    0.000    0.000 
#    0.000    0.000    0.000    0.000    0.000    0.000 
#
# Total GULP energy -178264.834780 kJ/mol
# GULP energy per Si atom -5570.776087 kJ/mol
# Density = 2.090577 g / cm^3
# Si number density = 20.953456 Si / 1000 Ang^3
#
#
#
# Elastic Constant Matrix: (Units=GPa)
#
#
# Indices 1 2 3 4 5 6 
#
# 1 75.3417 24.5033 23.9759 0.0000 6.5531 0.0000
# 2 24.5033 110.7556 27.7389 0.0000 7.3427 0.0000
# 3 23.9759 27.7389 76.2876 0.0000 2.1651 0.0000
# 4 0.0000 0.0000 0.0000 43.8633 0.0000 -15.3478
# 5 6.5531 7.3427 2.1651 0.0000 29.3245 0.0000
# 6 0.0000 0.0000 0.0000 -15.3478 0.0000 38.4587
#
#
#
# Elastic Compliance Matrix: (Units=1/GPa)
#
#
# Indices 1 2 3 4 5 6 
#
# 1 0.015500 -0.002261 -0.003975 0.000000 -0.002604 0.000000
# 2 -0.002261 0.010410 -0.003021 0.000000 -0.001878 0.000000
# 3 -0.003975 -0.003021 0.015442 0.000000 0.000505 0.000000
# 4 0.000000 0.000000 0.000000 0.026498 0.000000 0.010575
# 5 -0.002604 -0.001878 0.000505 0.000000 0.035116 0.000000
# 6 0.000000 0.000000 0.000000 0.010575 0.000000 0.030222
#
#
# Mechanical properties :
#
#
# Convention : Reuss Voigt Hill
#
# Bulk Modulus (GPa) = 43.78900 46.09124 44.94012
# Shear Modulus (GPa) = 31.38419 34.74042 33.06230
#
# Velocity S-wave (km/s) = 3.87435 4.07625 3.97658
# Velocity P-wave (km/s) = 6.39982 6.64824 6.52521
#
# Compressibility (1/GPa) = 0.02283679
#
# Stress axis : x y z
#
# Youngs Moduli (GPa) = 64.51728 96.05848 64.75861
#
# Poissons Ratio (x) = 0.21717 0.25744
# Poissons Ratio (y) = 0.14586 0.19566
# Poissons Ratio (z) = 0.25648 0.29024
#
# Static dielectric constant tensor:
#      x y z
#    x 1.825820 0.000000 -0.002340 
#    y 0.000000 1.555660 0.000000 
#    z -0.002340 0.000000 1.758790 
# 
# From -- ./inp_files/356138.got.cif
#   From: 2010.05.17/outbox.cif.g08.bks.cpg/sg12_179_cif.got.tgz:356138.got - 2010.06.03 13:09:07.
