data_PCOD9216992
_publ_section_title
;
Structure prediction by ZEFSAII (Michael W. Deem and Ramdas Pophale) SiO2 
 PCOD9216992
Probable space group: C 2/M
;
_chemical_formula_sum "Si O2"
_cell_formula_units_Z 50
_cell_length_a 14.115065
_cell_length_b 20.878146
_cell_length_c 7.869655
_cell_angle_alpha 90.000000
_cell_angle_beta 82.182859
_cell_angle_gamma 90.000000
_cell_volume 2297.607410
_symmetry_space_group_name_H-M "C 2/M"
_symmetry_group_IT_number 12
_symmetry_cell_setting 'monoclinic'
loop_
_space_group_symop_operation_xyz
x,y,z
-x,y,-z
-x,-y,-z
x,-y,z
1/2+x,1/2+y,z
1/2-x,1/2+y,-z
1/2-x,1/2-y,-z
1/2+x,1/2-y,z
loop_
_atom_site_type_symbol
_atom_site_label
_atom_site_fract_x
_atom_site_fract_y
_atom_site_fract_z
Si Si1 0.120009 0.072669 0.827597
Si Si2 0.500000 0.500000 0.000000
Si Si3 0.822710 0.623768 0.778424
Si Si4 0.854453 0.238344 0.650023
Si Si5 0.524508 0.928201 0.791019
Si Si6 0.058845 0.211895 0.739161
Si Si7 0.670540 0.825185 0.839053
O O1 0.232140 0.078084 0.772117
O O2 0.076243 0.137624 0.771430
O O3 0.078155 0.000000 0.782780
O O4 0.081494 0.058517 0.024872
O O5 0.817365 0.689044 0.674363
O O6 0.925491 0.591518 0.726544
O O7 0.816200 0.646747 0.976297
O O8 0.889131 0.226104 0.451772
O O9 0.771117 0.191533 0.730824
O O10 0.948510 0.229766 0.742624
O O11 0.606598 0.875650 0.749298
O O12 0.553723 0.000000 0.737278
O O13 0.500000 0.927881 0.000000
O O14 0.110041 0.259210 0.859196
#
# Coordination Sequence:
#
# PCOD9216992 Si02
#       7
#     8   2   8   8   8   8   8
#     4  10  23  41  63  91 126 171 204 262 317 371
#     4   8  24  40  60  94 126 162 218 260 310 362
#     4  11  21  37  66  97 122 157 214 260 315 371
#     4  11  24  39  62  94 122 166 206 266 312 368
#     4   9  19  37  57  89 129 156 192 255 315 372
#     4  11  24  42  62  88 134 163 210 260 318 379
#     4  11  22  37  64  94 123 160 211 257 312 373
#
# _framework density 21.761766999999999
#
# number of rings (size 3 to 8) (size 9 to 14) (size 15 to 20)
#    0.480    1.120    3.200    1.440    2.240    0.640 
#    0.000    3.200    0.000    0.960    0.000    0.000 
#    0.000    0.000    0.000    0.000    0.000    0.000 
#
# Total GULP energy -139362.680546 kJ/mol
# GULP energy per Si atom -5574.507222 kJ/mol
# Density = 2.171224 g / cm^3
# Si number density = 21.761767 Si / 1000 Ang^3
#
#
#
# Elastic Constant Matrix: (Units=GPa)
#
#
# Indices 1 2 3 4 5 6 
#
# 1 121.9416 49.0614 23.3462 0.0000 -34.3448 0.0000
# 2 49.0614 152.1046 26.3049 0.0000 -24.0009 0.0000
# 3 23.3462 26.3049 45.6794 0.0000 -16.1823 0.0000
# 4 0.0000 0.0000 0.0000 5.8171 0.0000 -10.6760
# 5 -34.3448 -24.0009 -16.1823 0.0000 23.9907 0.0000
# 6 0.0000 0.0000 0.0000 -10.6760 0.0000 37.0869
#
#
#
# Elastic Compliance Matrix: (Units=1/GPa)
#
#
# Indices 1 2 3 4 5 6 
#
# 1 0.014073 -0.001647 0.000407 0.000000 0.018773 0.000000
# 2 -0.001647 0.008183 -0.002373 0.000000 0.004228 0.000000
# 3 0.000407 -0.002373 0.029454 0.000000 0.018076 0.000000
# 4 0.000000 0.000000 0.000000 0.364448 0.000000 0.104912
# 5 0.018773 0.004228 0.018076 0.000000 0.084980 0.000000
# 6 0.000000 0.000000 0.000000 0.104912 0.000000 0.057164
#
#
# Mechanical properties :
#
#
# Convention : Reuss Voigt Hill
#
# Bulk Modulus (GPa) = 22.48049 57.46120 39.97084
# Shear Modulus (GPa) = 8.61538 28.11313 18.36426
#
# Velocity S-wave (km/s) = 1.99187 3.59814 2.90811
# Velocity P-wave (km/s) = 3.95509 6.61242 5.44825
#
# Compressibility (1/GPa) = 0.04448301
#
# Stress axis : x y z
#
# Youngs Moduli (GPa) = 71.05815 122.20093 33.95164
#
# Poissons Ratio (x) = 0.20131 -0.01380
# Poissons Ratio (y) = 0.11706 0.08056
# Poissons Ratio (z) = -0.02889 0.28994
#
# Static dielectric constant tensor:
#      x y z
#    x 1.873090 0.000000 -0.017290 
#    y 0.000000 1.809100 0.000000 
#    z -0.017290 0.000000 1.841620 
# 
# From -- ./inp_files/63469.got.cif
#   From: 2010.05.17/outbox.cif.g08.bks.cpg/sg12_32_cif.got.tgz:63469.got - 2010.06.03 13:09:07.
