data_PCOD9216275
_publ_section_title
;
Structure prediction by ZEFSAII (Michael W. Deem and Ramdas Pophale) SiO2 
 PCOD9216275
Probable space group: C 2/M
;
_chemical_formula_sum "Si O2"
_cell_formula_units_Z 32
_cell_length_a 9.007812
_cell_length_b 14.280734
_cell_length_c 22.765935
_cell_angle_alpha 90.000000
_cell_angle_beta 25.096699
_cell_angle_gamma 90.000000
_cell_volume 1242.144125
_symmetry_space_group_name_H-M "C 2/M"
_symmetry_group_IT_number 12
_symmetry_cell_setting 'monoclinic'
loop_
_space_group_symop_operation_xyz
x,y,z
-x,y,-z
-x,-y,-z
x,-y,z
1/2+x,1/2+y,z
1/2-x,1/2+y,-z
1/2-x,1/2-y,-z
1/2+x,1/2-y,z
loop_
_atom_site_type_symbol
_atom_site_label
_atom_site_fract_x
_atom_site_fract_y
_atom_site_fract_z
Si Si1 0.688802 0.392100 0.062767
Si Si2 0.750873 0.098255 0.353851
Si Si3 0.095566 0.152085 0.533287
Si Si4 0.848071 0.692359 0.199561
O O1 0.556030 0.500000 0.108499
O O2 0.840089 0.361988 0.944950
O O3 0.448949 0.302131 0.166714
O O4 0.000000 0.391155 0.000000
O O5 0.500000 0.099016 0.500000
O O6 0.452841 0.094577 0.411986
O O7 0.521516 0.319980 0.271184
O O8 0.956330 0.000000 0.279062
O O9 0.250000 0.250000 0.500000
O O10 0.000000 0.150387 0.500000
O O11 0.782711 0.141678 0.693305
#
# Coordination Sequence:
#
# PCOD9216275 Si02
#       4
#     8   8   8   8
#     4  10  23  43  74 110 144 198 256 305 365 434
#     4   9  19  39  70 106 146 194 244 298 368 442
#     4  11  24  41  69 112 149 196 242 296 375 446
#     4  10  22  43  72 109 150 198 243 306 369 439
#
# _framework density 25.761907000000001
#
# number of rings (size 3 to 8) (size 9 to 14) (size 15 to 20)
#    0.000    2.000    0.000    3.000    7.000    1.500 
#    0.000    0.000    0.000   35.250    0.000    3.500 
#    0.000    0.000    0.000    0.000    0.000    0.000 
#
# Total GULP energy -89240.662834 kJ/mol
# GULP energy per Si atom -5577.541427 kJ/mol
# Density = 2.570327 g / cm^3
# Si number density = 25.761907 Si / 1000 Ang^3
#
#
#
# Elastic Constant Matrix: (Units=GPa)
#
#
# Indices 1 2 3 4 5 6 
#
# 1 195.8646 48.2533 55.2038 -0.0031 10.5166 -0.0137
# 2 48.2533 204.0682 46.4018 -0.1590 -27.3079 -0.0636
# 3 55.2038 46.4018 136.9797 -0.0136 42.0577 -0.0188
# 4 -0.0031 -0.1590 -0.0136 9.6168 0.0576 -44.2631
# 5 10.5166 -27.3079 42.0577 0.0576 58.9364 0.1011
# 6 -0.0137 -0.0636 -0.0188 -44.2631 0.1011 -16.0809
#
#
#
# Elastic Compliance Matrix: (Units=1/GPa)
#
#
# Indices 1 2 3 4 5 6 
#
# 1 0.005918 -0.000932 -0.002065 -0.000001 -0.000014 0.000003
# 2 -0.000932 0.006777 -0.003759 0.000011 0.005989 -0.000013
# 3 -0.002065 -0.003759 0.012585 -0.000020 -0.010354 -0.000008
# 4 -0.000001 0.000011 -0.000020 0.007607 0.000048 -0.020939
# 5 -0.000014 0.005989 -0.010354 0.000048 0.027133 0.000027
# 6 0.000003 -0.000013 -0.000008 -0.020939 0.000027 -0.004549
#
#
# Mechanical properties :
#
#
# Convention : Reuss Voigt Hill
#
# Bulk Modulus (GPa) = 84.97346 92.95891 88.96618
# Shear Modulus (GPa) = 68.58276 36.29805 52.44041
#
# Velocity S-wave (km/s) = 5.16523 3.75771 4.51663
# Velocity P-wave (km/s) = 8.28423 7.41548 7.86187
#
# Compressibility (1/GPa) = 0.01176838
#
# Stress axis : x y z
#
# Youngs Moduli (GPa) = 168.97982 147.56465 79.46040
#
# Poissons Ratio (x) = 0.13748 0.16409
# Poissons Ratio (y) = 0.15743 0.29868
# Poissons Ratio (z) = 0.34895 0.55467
#
# Static dielectric constant tensor:
#      x y z
#    x 2.064200 -0.000250 0.041950 
#    y -0.000250 2.656820 0.001280 
#    z 0.041950 0.001280 2.173940 
# 
# From -- ./inp_files/332801.got.cif
#   From: 2010.05.17/outbox.cif.g08.bks.cpg/sg12_167_cif.got.tgz:332801.got - 2010.06.03 13:09:07.
