data_PCOD9216042
_publ_section_title
;
Structure prediction by ZEFSAII (Michael W. Deem and Ramdas Pophale) SiO2 
 PCOD9216042
Probable space group: C 2/M
;
_chemical_formula_sum "Si O2"
_cell_formula_units_Z 50
_cell_length_a 27.296860
_cell_length_b 8.992750
_cell_length_c 10.303466
_cell_angle_alpha 90.000000
_cell_angle_beta 61.521246
_cell_angle_gamma 90.000000
_cell_volume 2223.179145
_symmetry_space_group_name_H-M "C 2/M"
_symmetry_group_IT_number 12
_symmetry_cell_setting 'monoclinic'
loop_
_space_group_symop_operation_xyz
x,y,z
-x,y,-z
-x,-y,-z
x,-y,z
1/2+x,1/2+y,z
1/2-x,1/2+y,-z
1/2-x,1/2-y,-z
1/2+x,1/2-y,z
loop_
_atom_site_type_symbol
_atom_site_label
_atom_site_fract_x
_atom_site_fract_y
_atom_site_fract_z
Si Si1 0.861644 0.326449 0.319358
Si Si2 0.500000 0.000000 0.500000
Si Si3 0.263697 0.324293 0.310692
Si Si4 0.913928 0.728383 0.746544
Si Si5 0.297510 0.830063 0.021974
Si Si6 0.552369 0.822547 0.022135
Si Si7 0.354679 0.332042 0.572874
O O1 0.858514 0.500000 0.354954
O O2 0.800035 0.261341 0.373039
O O3 0.897459 0.312142 0.143967
O O4 0.887060 0.241195 0.410579
O O5 0.458888 0.126727 0.617838
O O6 0.262155 0.500000 0.335832
O O7 0.202488 0.263258 0.349861
O O8 0.300405 0.280997 0.138735
O O9 0.855436 0.659980 0.872662
O O10 0.889757 0.829759 0.660908
O O11 0.940786 0.768499 0.853108
O O12 0.282227 0.000000 0.080605
O O13 0.250000 0.750000 0.000000
O O14 0.547127 0.000000 0.065099
O O15 0.500000 0.781431 0.000000
O O16 0.339279 0.500000 0.559892
#
# Coordination Sequence:
#
# PCOD9216042 Si02
#       7
#     8   2   8   8   8   8   8
#     4  11  24  43  73 105 151 200 249 312 382 463
#     4  12  28  44  80 116 156 204 260 330 354 484
#     4  12  25  42  71 108 154 201 249 313 390 466
#     4  12  26  45  76 110 151 195 256 314 388 446
#     4  12  23  41  70 111 153 195 251 318 387 465
#     4  10  22  42  71 106 138 181 249 314 369 443
#     4  12  28  47  71 109 155 199 255 318 389 464
#
# _framework density 22.490316
#
# number of rings (size 3 to 8) (size 9 to 14) (size 15 to 20)
#    0.000    0.480    4.800    3.360    4.480    0.640 
#    0.000    0.400    0.000    2.400    0.000    0.000 
#    0.000    0.000    0.000    0.000    0.000    0.000 
#
# Total GULP energy -139225.602513 kJ/mol
# GULP energy per Si atom -5569.024101 kJ/mol
# Density = 2.243913 g / cm^3
# Si number density = 22.490316 Si / 1000 Ang^3
#
#
#
# Elastic Constant Matrix: (Units=GPa)
#
#
# Indices 1 2 3 4 5 6 
#
# 1 131.0497 22.9648 32.0190 0.0000 19.6834 0.0000
# 2 22.9648 90.8148 13.5558 0.0000 5.0279 0.0000
# 3 32.0190 13.5558 98.1243 0.0000 0.0609 0.0000
# 4 0.0000 0.0000 0.0000 -7.3656 0.0000 10.1419
# 5 19.6834 5.0279 0.0609 0.0000 55.5808 0.0000
# 6 0.0000 0.0000 0.0000 10.1419 0.0000 5.3494
#
#
#
# Elastic Compliance Matrix: (Units=1/GPa)
#
#
# Indices 1 2 3 4 5 6 
#
# 1 0.009052 -0.001715 -0.002715 0.000000 -0.003048 0.000000
# 2 -0.001715 0.011626 -0.001046 0.000000 -0.000443 0.000000
# 3 -0.002715 -0.001046 0.011221 0.000000 0.001044 0.000000
# 4 0.000000 0.000000 0.000000 -0.037603 0.000000 0.071291
# 5 -0.003048 -0.000443 0.001044 0.000000 0.019110 0.000000
# 6 0.000000 0.000000 0.000000 0.071291 0.000000 0.051776
#
#
# Mechanical properties :
#
#
# Convention : Reuss Voigt Hill
#
# Bulk Modulus (GPa) = 47.74066 50.78535 49.26300
# Shear Modulus (GPa) = 60.15597 27.47619 43.81608
#
# Velocity S-wave (km/s) = 5.17741 3.49906 4.41865
# Velocity P-wave (km/s) = 7.55076 6.24136 6.92707
#
# Compressibility (1/GPa) = 0.02094651
#
# Stress axis : x y z
#
# Youngs Moduli (GPa) = 110.46845 86.01545 89.11877
#
# Poissons Ratio (x) = 0.14753 0.24196
# Poissons Ratio (y) = 0.18947 0.09323
# Poissons Ratio (z) = 0.29993 0.08999
#
# Static dielectric constant tensor:
#      x y z
#    x 1.779100 0.000000 -0.007170 
#    y 0.000000 1.733780 0.000000 
#    z -0.007170 0.000000 1.898530 
# 
# From -- ./inp_files/186335.got.cif
#   From: 2010.05.17/outbox.cif.g08.bks.cpg/sg12_94_cif.got.tgz:186335.got - 2010.06.03 13:09:07.
