data_PCOD9216337
_publ_section_title
;
Structure prediction by ZEFSAII (Michael W. Deem and Ramdas Pophale) SiO2 
 PCOD9216337
Probable space group: C 2/M
;
_chemical_formula_sum "Si O2"
_cell_formula_units_Z 64
_cell_length_a 9.079515
_cell_length_b 13.727493
_cell_length_c 28.876942
_cell_angle_alpha 90.000000
_cell_angle_beta 117.236604
_cell_angle_gamma 90.000000
_cell_volume 3200.129094
_symmetry_space_group_name_H-M "C 2/M"
_symmetry_group_IT_number 12
_symmetry_cell_setting 'monoclinic'
loop_
_space_group_symop_operation_xyz
x,y,z
-x,y,-z
-x,-y,-z
x,-y,z
1/2+x,1/2+y,z
1/2-x,1/2+y,-z
1/2-x,1/2-y,-z
1/2+x,1/2-y,z
loop_
_atom_site_type_symbol
_atom_site_label
_atom_site_fract_x
_atom_site_fract_y
_atom_site_fract_z
Si Si1 0.413982 0.251867 0.113598
Si Si2 0.456188 0.616918 0.717355
Si Si3 0.582203 0.109697 0.359966
Si Si4 0.270182 0.706449 0.185399
Si Si5 0.669576 0.116631 0.750196
Si Si6 0.170588 0.779269 0.537075
Si Si7 0.212478 0.609070 0.608124
Si Si8 0.906338 0.884975 0.937425
O O1 0.352383 0.316677 0.148098
O O2 0.575448 0.192285 0.153713
O O3 0.264269 0.177204 0.081380
O O4 0.480809 0.323049 0.082707
O O5 0.458324 0.500000 0.716034
O O6 0.633315 0.654667 0.759092
O O7 0.321994 0.643497 0.737772
O O8 0.381350 0.646806 0.656729
O O9 0.503306 0.145077 0.300120
O O10 0.717444 0.164042 0.409967
O O11 0.420773 0.104912 0.369830
O O12 0.642473 0.000000 0.360238
O O13 0.301926 0.821325 0.199950
O O14 0.670079 0.000000 0.756222
O O15 0.250000 0.750000 0.500000
O O16 0.139814 0.678289 0.559166
O O17 0.000000 0.831829 0.500000
O O18 0.239596 0.500000 0.594368
O O19 0.881788 0.000000 0.920612
O O20 0.000000 0.884956 0.000000
#
# Coordination Sequence:
#
# PCOD9216337 Si02
#       8
#     8   8   8   8   8   8   8   8
#     4  10  23  36  60  96 129 162 205 257 309 359
#     4   9  18  33  55  80 109 150 190 226 275 345
#     4   9  19  37  57  79 106 141 186 231 277 342
#     4  11  19  35  55  88 128 155 187 240 298 349
#     4   9  18  34  58  80 108 155 196 225 279 355
#     4  12  23  36  55  80 104 133 175 230 292 343
#     4   9  19  37  57  76 103 143 187 222 269 347
#     4  10  22  44  69  90 123 172 218 262 309 357
#
# _framework density 19.999193000000002
#
# number of rings (size 3 to 8) (size 9 to 14) (size 15 to 20)
#    0.000    2.125    2.500    2.625    0.000    4.000 
#    0.000    1.875    0.000    9.750    0.000    0.000 
#    0.000    0.000    0.000    0.000    0.000    0.000 
#
# Total GULP energy -178352.462835 kJ/mol
# GULP energy per Si atom -5573.514464 kJ/mol
# Density = 1.995367 g / cm^3
# Si number density = 19.999193 Si / 1000 Ang^3
#
#
#
# Elastic Constant Matrix: (Units=GPa)
#
#
# Indices 1 2 3 4 5 6 
#
# 1 68.4706 18.4438 33.5005 0.0000 16.0907 0.0000
# 2 18.4438 70.7034 35.5400 0.0000 11.0782 0.0000
# 3 33.5005 35.5400 103.4879 0.0000 25.9942 0.0000
# 4 0.0000 0.0000 0.0000 24.4688 0.0000 -0.3863
# 5 16.0907 11.0782 25.9942 0.0000 37.0351 0.0000
# 6 0.0000 0.0000 0.0000 -0.3863 0.0000 15.1959
#
#
#
# Elastic Compliance Matrix: (Units=1/GPa)
#
#
# Indices 1 2 3 4 5 6 
#
# 1 0.018184 -0.001994 -0.004088 0.000000 -0.004435 0.000000
# 2 -0.001994 0.017358 -0.005134 0.000000 -0.000722 0.000000
# 3 -0.004088 -0.005134 0.014468 0.000000 -0.006843 0.000000
# 4 0.000000 0.000000 0.000000 0.040885 0.000000 0.001039
# 5 -0.004435 -0.000722 -0.006843 0.000000 0.033947 0.000000
# 6 0.000000 0.000000 0.000000 0.001039 0.000000 0.065834
#
#
# Mechanical properties :
#
#
# Convention : Reuss Voigt Hill
#
# Bulk Modulus (GPa) = 36.26008 46.40341 41.33174
# Shear Modulus (GPa) = 22.49209 25.68513 24.08861
#
# Velocity S-wave (km/s) = 3.35722 3.58761 3.47433
# Velocity P-wave (km/s) = 5.76177 6.35722 6.06681
#
# Compressibility (1/GPa) = 0.02757854
#
# Stress axis : x y z
#
# Youngs Moduli (GPa) = 54.99307 57.61151 69.11670
#
# Poissons Ratio (x) = 0.11487 0.28253
# Poissons Ratio (y) = 0.10965 0.35485
# Poissons Ratio (z) = 0.22480 0.29578
#
# Static dielectric constant tensor:
#      x y z
#    x 1.723610 0.000000 0.018310 
#    y 0.000000 1.743760 0.000000 
#    z 0.018310 0.000000 1.699600 
# 
# From -- ./inp_files/372386.got.cif
#   From: 2010.05.17/outbox.cif.g08.bks.cpg/sg12_187_cif.got.tgz:372386.got - 2010.06.03 13:09:07.
