data_PCOD9216777
_publ_section_title
;
Structure prediction by ZEFSAII (Michael W. Deem and Ramdas Pophale) SiO2 
 PCOD9216777
Probable space group: C 2/M
;
_chemical_formula_sum "Si O2"
_cell_formula_units_Z 52
_cell_length_a 13.702438
_cell_length_b 20.770224
_cell_length_c 9.909896
_cell_angle_alpha 90.000000
_cell_angle_beta 51.281707
_cell_angle_gamma 90.000000
_cell_volume 2200.549702
_symmetry_space_group_name_H-M "C 2/M"
_symmetry_group_IT_number 12
_symmetry_cell_setting 'monoclinic'
loop_
_space_group_symop_operation_xyz
x,y,z
-x,y,-z
-x,-y,-z
x,-y,z
1/2+x,1/2+y,z
1/2-x,1/2+y,-z
1/2-x,1/2-y,-z
1/2+x,1/2-y,z
loop_
_atom_site_type_symbol
_atom_site_label
_atom_site_fract_x
_atom_site_fract_y
_atom_site_fract_z
Si Si1 0.419589 0.726417 0.193084
Si Si2 0.579834 0.072972 0.148084
Si Si3 0.550563 0.638687 0.596096
Si Si4 0.284952 0.869497 0.738474
Si Si5 0.653741 0.142947 0.612989
Si Si6 0.611095 0.500000 0.552248
Si Si7 0.856295 0.000000 0.163803
Si Si8 0.657346 0.000000 0.857252
O O1 0.486633 0.674633 0.233787
O O2 0.304542 0.690177 0.219055
O O3 0.381729 0.784191 0.322874
O O4 0.500000 0.751985 0.000000
O O5 0.627035 0.128378 0.208048
O O6 0.439790 0.094871 0.230605
O O7 0.570978 0.000000 0.218114
O O8 0.673822 0.062108 0.942702
O O9 0.500000 0.667415 0.500000
O O10 0.701778 0.638692 0.470752
O O11 0.524100 0.562870 0.619826
O O12 0.357371 0.875924 0.534389
O O13 0.203566 0.933680 0.833129
O O14 0.663662 0.500000 0.658345
O O15 0.732288 0.500000 0.348435
O O16 0.000000 0.000000 0.000000
O O17 0.500000 0.000000 0.000000
#
# Coordination Sequence:
#
# PCOD9216777 Si02
#       8
#     8   8   8   8   8   4   4   4
#     4  11  26  47  71 100 141 192 247 303 370 438
#     4  10  24  43  72 109 146 179 242 308 364 443
#     4  11  25  44  68 100 137 186 248 293 360 446
#     4  11  22  43  73 108 137 184 244 312 366 429
#     4  11  24  43  71 101 143 187 238 300 371 436
#     4  12  23  42  67 101 143 195 222 299 368 433
#     4  12  23  40  74 104 141 183 239 311 369 424
#     4  10  23  40  63 106 156 189 227 286 386 452
#
# _framework density 23.630458000000001
#
# number of rings (size 3 to 8) (size 9 to 14) (size 15 to 20)
#    0.462    0.615    3.846    3.923    2.154    6.154 
#    2.769    1.538    0.000    0.000    0.000    0.000 
#    0.000    0.000    0.000    0.000    0.000    0.000 
#
# Total GULP energy -145103.573764 kJ/mol
# GULP energy per Si atom -5580.906683 kJ/mol
# Density = 2.357667 g / cm^3
# Si number density = 23.630458 Si / 1000 Ang^3
#
#
#
# Elastic Constant Matrix: (Units=GPa)
#
#
# Indices 1 2 3 4 5 6 
#
# 1 82.6225 -12.3463 13.8383 0.0000 20.9800 0.0000
# 2 -12.3463 87.8190 12.8592 0.0000 -2.6071 0.0000
# 3 13.8383 12.8592 113.7364 0.0000 7.3788 0.0000
# 4 0.0000 0.0000 0.0000 16.0473 0.0000 -0.6904
# 5 20.9800 -2.6071 7.3788 0.0000 25.4849 0.0000
# 6 0.0000 0.0000 0.0000 -0.6904 0.0000 6.1426
#
#
#
# Elastic Compliance Matrix: (Units=1/GPa)
#
#
# Indices 1 2 3 4 5 6 
#
# 1 0.015782 0.002048 -0.001348 0.000000 -0.012392 0.000000
# 2 0.002048 0.011908 -0.001595 0.000000 -0.000006 0.000000
# 3 -0.001348 -0.001595 0.009249 0.000000 -0.001732 0.000000
# 4 0.000000 0.000000 0.000000 0.062619 0.000000 0.007038
# 5 -0.012392 -0.000006 -0.001732 0.000000 0.049941 0.000000
# 6 0.000000 0.000000 0.000000 0.007038 0.000000 0.163590
#
#
# Mechanical properties :
#
#
# Convention : Reuss Voigt Hill
#
# Bulk Modulus (GPa) = 28.44986 34.76448 31.60717
# Shear Modulus (GPa) = 15.30950 27.52340 21.41645
#
# Velocity S-wave (km/s) = 2.54809 3.41653 3.01376
# Velocity P-wave (km/s) = 4.55221 5.50520 5.05123
#
# Compressibility (1/GPa) = 0.03514956
#
# Stress axis : x y z
#
# Youngs Moduli (GPa) = 63.36429 83.97424 108.12058
#
# Poissons Ratio (x) = -0.17199 0.14572
# Poissons Ratio (y) = -0.12978 0.17247
# Poissons Ratio (z) = 0.08540 0.13395
#
# Static dielectric constant tensor:
#      x y z
#    x 2.143430 0.000000 0.055250 
#    y 0.000000 1.985270 0.000000 
#    z 0.055250 0.000000 1.908500 
# 
# From -- ./inp_files/147574.got.cif
#   From: 2010.05.17/outbox.cif.g08.bks.cpg/sg12_74_cif.got.tgz:147574.got - 2010.06.03 13:09:07.
