data_PCOD9216801
_publ_section_title
;
Structure prediction by ZEFSAII (Michael W. Deem and Ramdas Pophale) SiO2 
 PCOD9216801
Probable space group: C 2/M
;
_chemical_formula_sum "Si O2"
_cell_formula_units_Z 58
_cell_length_a 25.624225
_cell_length_b 15.401823
_cell_length_c 12.070435
_cell_angle_alpha 90.000000
_cell_angle_beta 33.369491
_cell_angle_gamma 90.000000
_cell_volume 2620.215425
_symmetry_space_group_name_H-M "C 2/M"
_symmetry_group_IT_number 12
_symmetry_cell_setting 'monoclinic'
loop_
_space_group_symop_operation_xyz
x,y,z
-x,y,-z
-x,-y,-z
x,-y,z
1/2+x,1/2+y,z
1/2-x,1/2+y,-z
1/2-x,1/2-y,-z
1/2+x,1/2-y,z
loop_
_atom_site_type_symbol
_atom_site_label
_atom_site_fract_x
_atom_site_fract_y
_atom_site_fract_z
Si Si1 0.477431 0.597042 0.924333
Si Si2 0.823425 0.895753 0.023676
Si Si3 0.888711 0.358189 0.599842
Si Si4 0.950340 0.337774 0.260972
Si Si5 0.637078 0.103803 0.809753
Si Si6 0.500000 0.000000 0.500000
Si Si7 0.347125 0.347068 0.503877
Si Si8 0.605377 0.338354 0.335417
O O1 0.439931 0.500000 0.017656
O O2 0.402699 0.636023 0.970414
O O3 0.578098 0.590717 0.687211
O O4 0.500000 0.644224 0.000000
O O5 0.838339 0.855981 0.876032
O O6 0.832072 0.000000 0.999860
O O7 0.719443 0.869599 0.246309
O O8 0.950111 0.381631 0.382242
O O9 0.917706 0.425248 0.641019
O O10 0.903396 0.263406 0.622592
O O11 0.889044 0.382810 0.273256
O O12 0.898000 0.246020 0.384038
O O13 0.056604 0.344605 0.022853
O O14 0.741056 0.142034 0.648787
O O15 0.633001 0.000000 0.841696
O O16 0.349570 0.369837 0.629818
O O17 0.500000 0.374839 0.500000
#
# Coordination Sequence:
#
# PCOD9216801 Si02
#       8
#     8   8   8   8   8   2   8   8
#     4  10  23  40  64 101 139 179 228 288 342 414
#     4  11  24  42  70 100 134 183 232 281 355 413
#     4  11  25  44  69  99 135 180 227 293 346 416
#     4  10  25  45  70 100 141 182 227 287 348 419
#     4  11  25  45  71 106 141 184 230 287 352 416
#     4  12  24  40  68  94 134 164 244 272 344 408
#     4  11  24  43  72 100 134 184 233 285 346 416
#     4  11  23  46  65  96 136 179 224 288 345 408
#
# _framework density 22.135584999999999
#
# number of rings (size 3 to 8) (size 9 to 14) (size 15 to 20)
#    0.000    1.241    2.759    2.069    5.793    4.690 
#    0.000    0.000    0.000    0.000    0.000    0.000 
#    0.000    0.000    0.000    0.000    0.000    0.000 
#
# Total GULP energy -161631.190888 kJ/mol
# GULP energy per Si atom -5573.489341 kJ/mol
# Density = 2.208520 g / cm^3
# Si number density = 22.135585 Si / 1000 Ang^3
#
#
#
# Elastic Constant Matrix: (Units=GPa)
#
#
# Indices 1 2 3 4 5 6 
#
# 1 149.5592 20.7401 65.6653 0.0000 -8.4326 0.0000
# 2 20.7401 58.0338 23.7075 0.0000 2.4514 0.0000
# 3 65.6653 23.7075 88.7286 0.0000 -6.9939 0.0000
# 4 0.0000 0.0000 0.0000 14.5286 0.0000 -25.2096
# 5 -8.4326 2.4514 -6.9939 0.0000 55.2593 0.0000
# 6 0.0000 0.0000 0.0000 -25.2096 0.0000 -25.1049
#
#
#
# Elastic Compliance Matrix: (Units=1/GPa)
#
#
# Indices 1 2 3 4 5 6 
#
# 1 0.009947 -0.000669 -0.007132 0.000000 0.000645 0.000000
# 2 -0.000669 0.019516 -0.004844 0.000000 -0.001581 0.000000
# 3 -0.007132 -0.004844 0.017953 0.000000 0.001399 0.000000
# 4 0.000000 0.000000 0.000000 0.025098 0.000000 -0.025203
# 5 0.000645 -0.001581 0.001399 0.000000 0.018442 0.000000
# 6 0.000000 0.000000 0.000000 -0.025203 0.000000 -0.014525
#
#
# Mechanical properties :
#
#
# Convention : Reuss Voigt Hill
#
# Bulk Modulus (GPa) = 45.19510 57.39416 51.29463
# Shear Modulus (GPa) = 45.83121 21.35051 33.59086
#
# Velocity S-wave (km/s) = 4.55519 3.10906 3.89974
# Velocity P-wave (km/s) = 6.93744 6.23483 6.59550
#
# Compressibility (1/GPa) = 0.02212629
#
# Stress axis : x y z
#
# Youngs Moduli (GPa) = 100.53648 51.23998 55.70122
#
# Poissons Ratio (x) = 0.03426 0.39725
# Poissons Ratio (y) = 0.06722 0.26984
# Poissons Ratio (z) = 0.71700 0.24822
#
# Static dielectric constant tensor:
#      x y z
#    x 1.911250 0.000000 -0.019980 
#    y 0.000000 1.836770 0.000000 
#    z -0.019980 0.000000 1.861010 
# 
# From -- ./inp_files/184429.got.cif
#   From: 2010.05.17/outbox.cif.g08.bks.cpg/sg12_93_cif.got.tgz:184429.got - 2010.06.03 13:09:07.
