data_PCOD9216702
_publ_section_title
;
Structure prediction by ZEFSAII (Michael W. Deem and Ramdas Pophale) SiO2 
 PCOD9216702
Probable space group: C 2/M
;
_chemical_formula_sum "Si O2"
_cell_formula_units_Z 58
_cell_length_a 19.428490
_cell_length_b 14.514236
_cell_length_c 11.595922
_cell_angle_alpha 90.000000
_cell_angle_beta 64.598638
_cell_angle_gamma 90.000000
_cell_volume 2953.810228
_symmetry_space_group_name_H-M "C 2/M"
_symmetry_group_IT_number 12
_symmetry_cell_setting 'monoclinic'
loop_
_space_group_symop_operation_xyz
x,y,z
-x,y,-z
-x,-y,-z
x,-y,z
1/2+x,1/2+y,z
1/2-x,1/2+y,-z
1/2-x,1/2-y,-z
1/2+x,1/2-y,z
loop_
_atom_site_type_symbol
_atom_site_label
_atom_site_fract_x
_atom_site_fract_y
_atom_site_fract_z
Si Si1 0.000000 0.500000 0.000000
Si Si2 0.504888 0.230560 0.370923
Si Si3 0.249275 0.107664 0.360713
Si Si4 0.278431 0.606713 0.054530
Si Si5 0.102083 0.898901 0.601810
Si Si6 0.679338 0.277634 0.201910
Si Si7 0.421057 0.844290 0.213282
Si Si8 0.920004 0.140902 0.117686
O O1 0.046009 0.420888 0.893446
O O2 0.500000 0.184238 0.500000
O O3 0.448821 0.318805 0.415150
O O4 0.589864 0.264606 0.284758
O O5 0.475442 0.171532 0.284161
O O6 0.190852 0.118131 0.509077
O O7 0.218216 0.174920 0.283960
O O8 0.336760 0.132108 0.319771
O O9 0.245550 0.000000 0.326974
O O10 0.253863 0.500000 0.058010
O O11 0.215447 0.677346 0.149436
O O12 0.350566 0.610102 0.088001
O O13 0.304100 0.653772 0.916391
O O14 0.087366 0.898381 0.748575
O O15 0.082544 0.000000 0.568441
O O16 0.416221 0.750438 0.142950
O O17 0.000000 0.117947 0.000000
#
# Coordination Sequence:
#
# PCOD9216702 Si02
#       8
#     2   8   8   8   8   8   8   8
#     4  12  24  44  74 104 134 178 234 288 324 412
#     4  11  24  44  66  94 136 181 219 273 344 403
#     4  11  22  42  70 102 131 175 231 285 336 403
#     4  11  24  41  63  93 133 174 221 280 347 411
#     4  10  23  39  66 101 132 171 225 278 334 413
#     4  11  24  43  65  97 134 177 224 280 346 409
#     4  11  24  42  70 101 132 179 230 280 332 403
#     4  11  22  40  66  97 132 173 219 275 345 414
#
# _framework density 19.635656000000001
#
# number of rings (size 3 to 8) (size 9 to 14) (size 15 to 20)
#    0.000    1.103    4.138    2.483    0.000    6.897 
#    3.724    0.345    0.000    0.000    0.000    0.000 
#    0.000    0.000    0.000    0.000    0.000    0.000 
#
# Total GULP energy -161782.268257 kJ/mol
# GULP energy per Si atom -5578.698905 kJ/mol
# Density = 1.959096 g / cm^3
# Si number density = 19.635656 Si / 1000 Ang^3
#
#
#
# Elastic Constant Matrix: (Units=GPa)
#
#
# Indices 1 2 3 4 5 6 
#
# 1 73.0240 17.0289 27.0467 0.0000 -7.5131 0.0000
# 2 17.0289 126.5936 25.1694 0.0000 -6.5848 0.0000
# 3 27.0467 25.1694 106.4101 0.0000 -13.5825 0.0000
# 4 0.0000 0.0000 0.0000 -55.8655 0.0000 48.4580
# 5 -7.5131 -6.5848 -13.5825 0.0000 28.6753 0.0000
# 6 0.0000 0.0000 0.0000 48.4580 0.0000 -48.5726
#
#
#
# Elastic Compliance Matrix: (Units=1/GPa)
#
#
# Indices 1 2 3 4 5 6 
#
# 1 0.015460 -0.001302 -0.003345 0.000000 0.002167 0.000000
# 2 -0.001302 0.008428 -0.001553 0.000000 0.000859 0.000000
# 3 -0.003345 -0.001553 0.011131 0.000000 0.004039 0.000000
# 4 0.000000 0.000000 0.000000 -0.132946 0.000000 -0.132633
# 5 0.002167 0.000859 0.004039 0.000000 0.037551 0.000000
# 6 0.000000 0.000000 0.000000 -0.132633 0.000000 -0.152907
#
#
# Mechanical properties :
#
#
# Convention : Reuss Voigt Hill
#
# Bulk Modulus (GPa) = 44.21105 49.39087 46.80096
# Shear Modulus (GPa) = -25.86047 0.63296 -12.61376
#
# Velocity S-wave (km/s) = -3.63301 0.56837 -2.53729
# Velocity P-wave (km/s) = 2.22851 5.06350 3.91186
#
# Compressibility (1/GPa) = 0.02261878
#
# Stress axis : x y z
#
# Youngs Moduli (GPa) = 64.68494 118.65452 89.84165
#
# Poissons Ratio (x) = 0.15446 0.30051
# Poissons Ratio (y) = 0.08421 0.13952
# Poissons Ratio (z) = 0.21636 0.18427
#
# Static dielectric constant tensor:
#      x y z
#    x 1.659540 0.000000 0.005250 
#    y 0.000000 1.678690 0.000000 
#    z 0.005250 0.000000 1.680300 
# 
# From -- ./inp_files/167208.got.cif
#   From: 2010.05.17/outbox.cif.g08.bks.cpg/sg12_84_cif.got.tgz:167208.got - 2010.06.03 13:09:07.
