data_PCOD9216258
_publ_section_title
;
Structure prediction by ZEFSAII (Michael W. Deem and Ramdas Pophale) SiO2 
 PCOD9216258
Probable space group: C 2/M
;
_chemical_formula_sum "Si O2"
_cell_formula_units_Z 44
_cell_length_a 24.827173
_cell_length_b 7.658918
_cell_length_c 20.974762
_cell_angle_alpha 90.000000
_cell_angle_beta 26.652387
_cell_angle_gamma 90.000000
_cell_volume 1789.073571
_symmetry_space_group_name_H-M "C 2/M"
_symmetry_group_IT_number 12
_symmetry_cell_setting 'monoclinic'
loop_
_space_group_symop_operation_xyz
x,y,z
-x,y,-z
-x,-y,-z
x,-y,z
1/2+x,1/2+y,z
1/2-x,1/2+y,-z
1/2-x,1/2-y,-z
1/2+x,1/2-y,z
loop_
_atom_site_type_symbol
_atom_site_label
_atom_site_fract_x
_atom_site_fract_y
_atom_site_fract_z
Si Si1 0.213080 0.800277 0.611634
Si Si2 0.529514 0.290895 0.635965
Si Si3 0.363162 0.795632 0.924044
Si Si4 0.611560 0.710866 0.338000
Si Si5 0.375298 0.312181 0.053693
Si Si6 0.547540 0.000000 0.853624
O O1 0.250000 0.750000 0.500000
O O2 0.341222 0.790914 0.512503
O O3 0.127210 0.655573 0.733150
O O4 0.166842 0.000000 0.661865
O O5 0.542151 0.500000 0.619108
O O6 0.478601 0.241088 0.758843
O O7 0.430069 0.238373 0.689127
O O8 0.362409 0.000000 0.943137
O O9 0.250000 0.750000 0.000000
O O10 0.361219 0.693438 0.991499
O O11 0.500000 0.760795 0.500000
O O12 0.622820 0.500000 0.327514
O O13 0.739792 0.784158 0.221926
O O14 0.420598 0.500000 0.025569
O O15 0.460553 0.151876 0.976485
#
# Coordination Sequence:
#
# PCOD9216258 Si02
#       6
#     8   8   8   8   8   4
#     4  12  24  42  64  92 131 180 225 269 325 388
#     4  11  22  39  63  96 135 173 216 269 328 392
#     4  12  22  35  56  91 133 171 208 258 321 404
#     4  10  22  43  71 101 134 172 217 274 341 403
#     4  12  24  41  65  96 132 175 219 269 334 400
#     4  12  24  44  61  89 129 172 223 272 315 384
#
# _framework density 24.593734000000001
#
# number of rings (size 3 to 8) (size 9 to 14) (size 15 to 20)
#    0.000    0.545    5.455    3.818    0.000    1.091 
#    0.000    0.000    0.000    2.182    0.000    2.545 
#    0.000    0.000    0.000    0.000    0.000    0.000 
#
# Total GULP energy -122819.882902 kJ/mol
# GULP energy per Si atom -5582.721950 kJ/mol
# Density = 2.453776 g / cm^3
# Si number density = 24.593734 Si / 1000 Ang^3
#
#
#
# Elastic Constant Matrix: (Units=GPa)
#
#
# Indices 1 2 3 4 5 6 
#
# 1 66.7957 24.2366 31.7613 0.0032 -4.6859 -0.0023
# 2 24.2366 233.2615 66.8959 0.0086 -15.9982 -0.0047
# 3 31.7613 66.8959 167.8725 0.0047 -11.9494 -0.0037
# 4 0.0032 0.0086 0.0047 42.7303 -0.0025 -11.2027
# 5 -4.6859 -15.9982 -11.9494 -0.0025 21.8837 0.0023
# 6 -0.0023 -0.0047 -0.0037 -11.2027 0.0023 0.2895
#
#
#
# Elastic Compliance Matrix: (Units=1/GPa)
#
#
# Indices 1 2 3 4 5 6 
#
# 1 0.016672 -0.000855 -0.002709 -0.000002 0.001466 -0.000005
# 2 -0.000855 0.005029 -0.001658 -0.000001 0.002588 -0.000001
# 3 -0.002709 -0.001658 0.007286 -0.000001 0.002186 -0.000002
# 4 -0.000002 -0.000001 -0.000001 -0.002559 0.000009 -0.099025
# 5 0.001466 0.002588 0.002186 0.000009 0.049096 0.000026
# 6 -0.000005 -0.000001 -0.000002 -0.099025 0.000026 -0.377709
#
#
# Mechanical properties :
#
#
# Convention : Reuss Voigt Hill
#
# Bulk Modulus (GPa) = 53.92992 79.30192 66.61592
# Shear Modulus (GPa) = -17.50944 35.98310 9.23683
#
# Velocity S-wave (km/s) = -2.67113 3.82920 1.94008
# Velocity P-wave (km/s) = 3.53025 7.20174 5.67132
#
# Compressibility (1/GPa) = 0.01854258
#
# Stress axis : x y z
#
# Youngs Moduli (GPa) = 59.97960 198.85316 137.25251
#
# Poissons Ratio (x) = 0.16997 0.37188
# Poissons Ratio (y) = 0.05127 0.22757
# Poissons Ratio (z) = 0.16251 0.32970
#
# Static dielectric constant tensor:
#      x y z
#    x 1.967650 0.000000 -0.029600 
#    y 0.000000 1.889150 0.000000 
#    z -0.029600 0.000000 1.928520 
# 
# From -- ./inp_files/353212.got.cif
#   From: 2010.05.17/outbox.cif.g08.bks.cpg/sg12_177_cif.got.tgz:353212.got - 2010.06.03 13:09:07.
