data_PCOD9216720
_publ_section_title
;
Structure prediction by ZEFSAII (Michael W. Deem and Ramdas Pophale) SiO2 
 PCOD9216720
Probable space group: C 2/M
;
_chemical_formula_sum "Si O2"
_cell_formula_units_Z 64
_cell_length_a 22.973495
_cell_length_b 29.068963
_cell_length_c 16.207068
_cell_angle_alpha 90.000000
_cell_angle_beta 162.102865
_cell_angle_gamma 90.000000
_cell_volume 3326.108341
_symmetry_space_group_name_H-M "C 2/M"
_symmetry_group_IT_number 12
_symmetry_cell_setting 'monoclinic'
loop_
_space_group_symop_operation_xyz
x,y,z
-x,y,-z
-x,-y,-z
x,-y,z
1/2+x,1/2+y,z
1/2-x,1/2+y,-z
1/2-x,1/2-y,-z
1/2+x,1/2-y,z
loop_
_atom_site_type_symbol
_atom_site_label
_atom_site_fract_x
_atom_site_fract_y
_atom_site_fract_z
Si Si1 0.907700 0.195542 0.461944
Si Si2 0.782916 0.298114 0.502990
Si Si3 0.142044 0.143297 0.919725
Si Si4 0.202649 0.551016 0.136839
Si Si5 0.521902 0.857690 0.935070
Si Si6 0.529292 0.801943 0.410536
Si Si7 0.423252 0.649273 0.977624
Si Si8 0.578408 0.448805 0.741418
O O1 0.690769 0.179845 0.161721
O O2 0.941628 0.250281 0.516258
O O3 0.000000 0.179479 0.500000
O O4 0.000527 0.170996 0.667088
O O5 0.750000 0.250000 0.500000
O O6 0.949961 0.297486 0.660595
O O7 0.583606 0.311218 0.193833
O O8 0.842055 0.334695 0.651107
O O9 0.336135 0.173403 0.177773
O O10 0.077661 0.134759 0.927278
O O11 0.159151 0.092916 0.902759
O O12 0.117906 0.500000 0.035145
O O13 0.070421 0.595000 0.955424
O O14 0.313134 0.550080 0.199439
O O15 0.359154 0.558963 0.419714
O O16 0.500000 0.870153 0.000000
O O17 0.709910 0.833072 0.677404
O O18 0.500000 0.620840 0.000000
O O19 0.594993 0.500000 0.801050
#
# Coordination Sequence:
#
# PCOD9216720 Si02
#       8
#     8   8   8   8   8   8   8   8
#     4  12  23  36  55  86 122 150 187 236 291 348
#     4  11  22  38  55  77 115 162 202 235 287 347
#     4  12  21  36  61  87 114 147 195 239 290 345
#     4   9  18  35  56  85 122 153 180 225 288 354
#     4  12  23  35  55  85 120 156 192 233 285 350
#     4  11  23  38  57  81 112 154 203 249 282 328
#     4  10  23  40  56  76 110 154 198 244 290 334
#     4   9  18  34  60  88 116 147 183 228 289 356
#
# _framework density 19.241706000000001
#
# number of rings (size 3 to 8) (size 9 to 14) (size 15 to 20)
#    0.000    1.250    1.250    7.500    0.000    1.250 
#    0.000    0.000    0.000    1.875    0.000    1.750 
#    0.000    0.000    0.000    0.000    0.000    0.000 
#
# Total GULP energy -178475.781651 kJ/mol
# GULP energy per Si atom -5577.368177 kJ/mol
# Density = 1.919791 g / cm^3
# Si number density = 19.241706 Si / 1000 Ang^3
#
#
#
# Elastic Constant Matrix: (Units=GPa)
#
#
# Indices 1 2 3 4 5 6 
#
# 1 112.3548 18.8574 13.5820 0.0000 -8.6693 0.0000
# 2 18.8574 120.5788 32.9018 0.0000 -2.8648 0.0000
# 3 13.5820 32.9018 89.6500 -0.0002 -4.5158 0.0000
# 4 0.0000 0.0000 -0.0002 10.2192 0.0000 -0.3948
# 5 -8.6693 -2.8648 -4.5158 0.0000 24.1513 0.0000
# 6 0.0000 0.0000 0.0000 -0.3948 0.0000 17.6200
#
#
#
# Elastic Compliance Matrix: (Units=1/GPa)
#
#
# Indices 1 2 3 4 5 6 
#
# 1 0.009438 -0.001172 -0.000844 0.000000 0.003091 0.000000
# 2 -0.001172 0.009367 -0.003256 0.000000 0.000081 0.000000
# 3 -0.000844 -0.003256 0.012561 0.000000 0.001659 0.000000
# 4 0.000000 0.000000 0.000000 0.097940 0.000000 0.002194
# 5 0.003091 0.000081 0.001659 0.000000 0.042835 0.000000
# 6 0.000000 0.000000 0.000000 0.002194 0.000000 0.056803
#
#
# Mechanical properties :
#
#
# Convention : Reuss Voigt Hill
#
# Bulk Modulus (GPa) = 48.02790 50.36289 49.19540
# Shear Modulus (GPa) = 20.28990 27.54759 23.91874
#
# Velocity S-wave (km/s) = 3.25079 3.78783 3.52954
# Velocity P-wave (km/s) = 6.25337 6.73505 6.49868
#
# Compressibility (1/GPa) = 0.02082123
#
# Stress axis : x y z
#
# Youngs Moduli (GPa) = 105.95879 106.75705 79.61209
#
# Poissons Ratio (x) = 0.12515 0.06718
# Poissons Ratio (y) = 0.12421 0.25922
# Poissons Ratio (z) = 0.08942 0.34761
#
# Static dielectric constant tensor:
#      x y z
#    x 1.737860 -0.000010 0.029230 
#    y -0.000010 1.951200 0.000010 
#    z 0.029230 0.000010 1.637220 
# 
# From -- ./inp_files/236002.got.cif
#   From: 2010.05.17/outbox.cif.g08.bks.cpg/sg12_119_cif.got.tgz:236002.got - 2010.06.03 13:09:07.
