data_PCOD9216409
_publ_section_title
;
Structure prediction by ZEFSAII (Michael W. Deem and Ramdas Pophale) SiO2 
 PCOD9216409
Probable space group: C 2/M
;
_chemical_formula_sum "Si O2"
_cell_formula_units_Z 52
_cell_length_a 8.920848
_cell_length_b 14.316148
_cell_length_c 28.897018
_cell_angle_alpha 90.000000
_cell_angle_beta 140.790928
_cell_angle_gamma 90.000000
_cell_volume 2332.957684
_symmetry_space_group_name_H-M "C 2/M"
_symmetry_group_IT_number 12
_symmetry_cell_setting 'monoclinic'
loop_
_space_group_symop_operation_xyz
x,y,z
-x,y,-z
-x,-y,-z
x,-y,z
1/2+x,1/2+y,z
1/2-x,1/2+y,-z
1/2-x,1/2-y,-z
1/2+x,1/2-y,z
loop_
_atom_site_type_symbol
_atom_site_label
_atom_site_fract_x
_atom_site_fract_y
_atom_site_fract_z
Si Si1 0.262092 0.803970 0.823590
Si Si2 0.631794 0.500000 0.217769
Si Si3 0.221838 0.804668 0.083207
Si Si4 0.616559 0.187894 0.705826
Si Si5 0.394148 0.712914 0.385791
Si Si6 0.261013 0.500000 0.201908
Si Si7 0.245929 0.500000 0.863301
Si Si8 0.135214 0.396612 0.483743
O O1 0.544290 0.822413 0.891178
O O2 0.202921 0.772876 0.861107
O O3 0.196664 0.718702 0.775647
O O4 0.154399 0.893965 0.771283
O O5 0.352207 0.500000 0.167523
O O6 0.699370 0.500000 0.178936
O O7 0.760238 0.589259 0.271246
O O8 0.154483 0.902443 0.092304
O O9 0.000000 0.773392 0.000000
O O10 0.686750 0.267493 0.685919
O O11 0.331821 0.186013 0.638047
O O12 0.598431 0.637309 0.441917
O O13 0.504657 0.813444 0.425681
O O14 0.023491 0.500000 0.178505
O O15 0.129863 0.500000 0.460926
O O16 0.000000 0.401565 0.500000
#
# Coordination Sequence:
#
# PCOD9216409 Si02
#       8
#     8   4   8   8   8   4   4   8
#     4  11  23  43  63  95 135 170 218 284 332 396
#     4  12  24  43  67  98 137 173 220 276 343 399
#     4  11  22  41  67  94 128 177 225 276 340 402
#     4  12  25  42  66  99 132 171 219 274 334 397
#     4  11  24  43  65 100 129 172 216 272 325 399
#     4  10  24  43  64  92 132 179 212 266 348 396
#     4  10  23  42  68  96 133 177 220 281 341 399
#     4  10  22  45  67  92 131 172 217 268 322 389
#
# _framework density 22.289303
#
# number of rings (size 3 to 8) (size 9 to 14) (size 15 to 20)
#    0.000    1.077    3.077    3.462    4.308    0.000 
#    2.769    1.154    0.000    0.000    0.000    0.000 
#    0.000    0.000    0.000    0.000    0.000    0.000 
#
# Total GULP energy -144801.446483 kJ/mol
# GULP energy per Si atom -5569.286403 kJ/mol
# Density = 2.223857 g / cm^3
# Si number density = 22.289303 Si / 1000 Ang^3
#
#
#
# Elastic Constant Matrix: (Units=GPa)
#
#
# Indices 1 2 3 4 5 6 
#
# 1 124.8454 -18.1590 20.0027 0.0000 9.3025 0.0000
# 2 -18.1590 75.2849 -3.4593 0.0000 -4.5479 0.0000
# 3 20.0027 -3.4593 55.1905 0.0000 4.3547 0.0000
# 4 0.0000 0.0000 0.0000 6.3667 0.0000 7.7842
# 5 9.3025 -4.5479 4.3547 0.0000 30.2364 0.0000
# 6 0.0000 0.0000 0.0000 7.7842 0.0000 -1.4706
#
#
#
# Elastic Compliance Matrix: (Units=1/GPa)
#
#
# Indices 1 2 3 4 5 6 
#
# 1 0.008909 0.001891 -0.002950 0.000000 -0.002032 0.000000
# 2 0.001891 0.013832 0.000064 0.000000 0.001490 0.000000
# 3 -0.002950 0.000064 0.019340 0.000000 -0.001868 0.000000
# 4 0.000000 0.000000 0.000000 0.021022 0.000000 0.111272
# 5 -0.002032 0.001490 -0.001868 0.000000 0.034191 0.000000
# 6 0.000000 0.000000 0.000000 0.111272 0.000000 -0.091010
#
#
# Mechanical properties :
#
#
# Convention : Reuss Voigt Hill
#
# Bulk Modulus (GPa) = 24.94392 28.00997 26.47695
# Shear Modulus (GPa) = 231.08468 24.15561 127.62014
#
# Velocity S-wave (km/s) = 10.19315 3.29558 7.57499
# Velocity P-wave (km/s) = 12.23719 5.20336 9.40276
#
# Compressibility (1/GPa) = 0.04008993
#
# Stress axis : x y z
#
# Youngs Moduli (GPa) = 112.24687 72.29706 51.70722
#
# Poissons Ratio (x) = -0.13668 0.15254
# Poissons Ratio (y) = -0.21221 -0.00332
# Poissons Ratio (z) = 0.33114 -0.00464
#
# Static dielectric constant tensor:
#      x y z
#    x 1.872020 0.000000 0.005560 
#    y 0.000000 1.819380 0.000000 
#    z 0.005560 0.000000 1.832880 
# 
# From -- ./inp_files/372521.got.cif
#   From: 2010.05.17/outbox.cif.g08.bks.cpg/sg12_187_cif.got.tgz:372521.got - 2010.06.03 13:09:07.
