data_PCOD9216715
_publ_section_title
;
Structure prediction by ZEFSAII (Michael W. Deem and Ramdas Pophale) SiO2 
 PCOD9216715
Probable space group: C 2/M
;
_chemical_formula_sum "Si O2"
_cell_formula_units_Z 52
_cell_length_a 20.735498
_cell_length_b 17.286248
_cell_length_c 15.381190
_cell_angle_alpha 90.000000
_cell_angle_beta 29.678484
_cell_angle_gamma 90.000000
_cell_volume 2729.772965
_symmetry_space_group_name_H-M "C 2/M"
_symmetry_group_IT_number 12
_symmetry_cell_setting 'monoclinic'
loop_
_space_group_symop_operation_xyz
x,y,z
-x,y,-z
-x,-y,-z
x,-y,z
1/2+x,1/2+y,z
1/2-x,1/2+y,-z
1/2-x,1/2-y,-z
1/2+x,1/2-y,z
loop_
_atom_site_type_symbol
_atom_site_label
_atom_site_fract_x
_atom_site_fract_y
_atom_site_fract_z
Si Si1 0.073874 0.327837 0.998595
Si Si2 0.304680 0.588314 0.640021
Si Si3 0.769377 0.722962 0.878626
Si Si4 0.866573 0.092655 0.041582
Si Si5 0.841116 0.408614 0.366519
Si Si6 0.500000 0.292414 0.500000
Si Si7 0.660818 0.406071 0.727049
O O1 0.170290 0.394194 0.848882
O O2 0.163677 0.267813 0.943243
O O3 0.000000 0.295235 0.000000
O O4 0.966531 0.362758 0.188148
O O5 0.347271 0.500000 0.605230
O O6 0.266718 0.597389 0.583532
O O7 0.407830 0.650987 0.551453
O O8 0.727482 0.634221 0.915699
O O9 0.908204 0.743210 0.672441
O O10 0.750000 0.750000 0.000000
O O11 0.826132 0.114925 0.187514
O O12 0.860824 0.000000 0.040926
O O13 0.018671 0.116364 0.857329
O O14 0.872236 0.500000 0.338456
O O15 0.776488 0.378334 0.530451
O O16 0.661685 0.500000 0.723232
#
# Coordination Sequence:
#
# PCOD9216715 Si02
#       7
#     8   8   8   8   8   4   8
#     4   9  19  35  54  82 116 150 186 231 293 339
#     4   9  17  32  55  80 113 156 193 231 278 336
#     4  11  25  41  58  81 118 152 189 236 290 348
#     4   9  19  38  59  80 110 146 188 237 287 337
#     4   9  16  29  55  88 115 141 187 239 278 333
#     4  10  23  40  51  76 116 154 194 238 285 344
#     4   8  16  31  57  89 110 135 183 239 287 330
#
# _framework density 19.049202000000001
#
# number of rings (size 3 to 8) (size 9 to 14) (size 15 to 20)
#    0.000    2.769    0.000    1.615    4.308    3.077 
#    0.000    5.000    0.000    0.000    0.000    0.000 
#    0.000    0.000    0.000    0.000    0.000    0.000 
#
# Total GULP energy -145040.303866 kJ/mol
# GULP energy per Si atom -5578.473226 kJ/mol
# Density = 1.900585 g / cm^3
# Si number density = 19.049202 Si / 1000 Ang^3
#
#
#
# Elastic Constant Matrix: (Units=GPa)
#
#
# Indices 1 2 3 4 5 6 
#
# 1 54.0225 25.0445 45.7970 0.0000 -1.5520 0.0000
# 2 25.0445 44.6792 25.1510 0.0000 0.1924 0.0000
# 3 45.7970 25.1510 137.8776 -0.0001 12.8735 0.0000
# 4 0.0000 0.0000 -0.0001 17.4954 0.0000 -2.1265
# 5 -1.5520 0.1924 12.8735 0.0000 22.5859 0.0000
# 6 0.0000 0.0000 0.0000 -2.1265 0.0000 28.8311
#
#
#
# Elastic Compliance Matrix: (Units=1/GPa)
#
#
# Indices 1 2 3 4 5 6 
#
# 1 0.032553 -0.013146 -0.009119 0.000000 0.007547 0.000000
# 2 -0.013146 0.030388 -0.001128 0.000000 -0.000519 0.000000
# 3 -0.009119 -0.001128 0.011138 0.000000 -0.006965 0.000000
# 4 0.000000 0.000000 0.000000 0.057675 0.000000 0.004254
# 5 0.007547 -0.000519 -0.006965 0.000000 0.048769 0.000000
# 6 0.000000 0.000000 0.000000 0.004254 0.000000 0.034999
#
#
# Mechanical properties :
#
#
# Convention : Reuss Voigt Hill
#
# Bulk Modulus (GPa) = 36.64119 47.61824 42.12972
# Shear Modulus (GPa) = 18.42263 23.15492 20.78877
#
# Velocity S-wave (km/s) = 3.11321 3.49023 3.30710
# Velocity P-wave (km/s) = 5.67446 6.42604 6.06191
#
# Compressibility (1/GPa) = 0.02729169
#
# Stress axis : x y z
#
# Youngs Moduli (GPa) = 30.71932 32.90762 89.78303
#
# Poissons Ratio (x) = 0.43261 0.81875
# Poissons Ratio (y) = 0.40384 0.10129
# Poissons Ratio (z) = 0.28014 0.03713
#
# Static dielectric constant tensor:
#      x y z
#    x 1.647850 0.000000 0.004840 
#    y 0.000000 1.689370 0.000000 
#    z 0.004840 0.000000 1.662000 
# 
# From -- ./inp_files/234427.got.cif
#   From: 2010.05.17/outbox.cif.g08.bks.cpg/sg12_118_cif.got.tgz:234427.got - 2010.06.03 13:09:07.
