data_PCOD9216035
_publ_section_title
;
Structure prediction by ZEFSAII (Michael W. Deem and Ramdas Pophale) SiO2 
 PCOD9216035
Probable space group: C 2/M
;
_chemical_formula_sum "Si O2"
_cell_formula_units_Z 40
_cell_length_a 17.990006
_cell_length_b 10.166019
_cell_length_c 25.132413
_cell_angle_alpha 90.000000
_cell_angle_beta 157.584397
_cell_angle_gamma 90.000000
_cell_volume 1752.703414
_symmetry_space_group_name_H-M "C 2/M"
_symmetry_group_IT_number 12
_symmetry_cell_setting 'monoclinic'
loop_
_space_group_symop_operation_xyz
x,y,z
-x,y,-z
-x,-y,-z
x,-y,z
1/2+x,1/2+y,z
1/2-x,1/2+y,-z
1/2-x,1/2-y,-z
1/2+x,1/2-y,z
loop_
_atom_site_type_symbol
_atom_site_label
_atom_site_fract_x
_atom_site_fract_y
_atom_site_fract_z
Si Si1 0.369102 0.853826 0.241269
Si Si2 0.165124 0.737986 0.202181
Si Si3 0.257715 0.714144 0.066809
Si Si4 0.321309 0.357545 0.672623
Si Si5 0.071597 0.849916 0.442653
O O1 0.200329 0.826327 0.173052
O O2 0.292561 0.832299 0.131295
O O3 0.524918 0.740827 0.360261
O O4 0.445984 0.000000 0.299278
O O5 0.169098 0.825036 0.258179
O O6 0.358579 0.649318 0.330064
O O7 0.958521 0.663826 0.062516
O O8 0.458043 0.635409 0.202961
O O9 0.250000 0.750000 0.000000
O O10 0.224352 0.500000 0.599908
O O11 0.213036 0.236244 0.573007
O O12 0.132614 0.000000 0.473203
#
# Coordination Sequence:
#
# PCOD9216035 Si02
#       5
#     8   8   8   8   8
#     4  10  22  42  71 100 130 170 225 277 326 390
#     4   9  22  41  70 100 130 169 223 273 325 390
#     4  10  23  42  63 102 134 168 210 275 335 390
#     4  11  23  41  68 100 136 175 218 271 329 393
#     4  10  24  43  67  97 134 175 221 273 330 393
#
# _framework density 22.821888000000001
#
# number of rings (size 3 to 8) (size 9 to 14) (size 15 to 20)
#    1.200    0.800    0.000    2.400    0.000   10.400 
#    0.000    7.000    0.000    0.000    0.000    0.000 
#    0.000    0.000    0.000    0.000    0.000    0.000 
#
# Total GULP energy -111445.638495 kJ/mol
# GULP energy per Si atom -5572.281925 kJ/mol
# Density = 2.276994 g / cm^3
# Si number density = 22.821888 Si / 1000 Ang^3
#
#
#
# Elastic Constant Matrix: (Units=GPa)
#
#
# Indices 1 2 3 4 5 6 
#
# 1 133.5118 46.0172 46.5549 -0.0002 -10.4113 -0.0006
# 2 46.0172 186.9999 54.0550 -0.0054 -14.0443 0.0008
# 3 46.5549 54.0550 122.9946 -0.0058 14.3398 0.0002
# 4 -0.0002 -0.0054 -0.0058 7.4451 0.0006 -3.7825
# 5 -10.4113 -14.0443 14.3398 0.0006 51.8895 0.0002
# 6 -0.0006 0.0008 0.0002 -3.7825 0.0002 1.6737
#
#
#
# Elastic Compliance Matrix: (Units=1/GPa)
#
#
# Indices 1 2 3 4 5 6 
#
# 1 0.009214 -0.001138 -0.003273 0.000009 0.002445 0.000024
# 2 -0.001138 0.006592 -0.002736 -0.000005 0.002312 -0.000014
# 3 -0.003273 -0.002736 0.011092 -0.000044 -0.004462 -0.000101
# 4 0.000009 -0.000005 -0.000044 -0.906819 0.000032 -2.049294
# 5 0.002445 0.002312 -0.004462 0.000032 0.021621 0.000070
# 6 0.000024 -0.000014 -0.000101 -2.049294 0.000070 -4.033676
#
#
# Mechanical properties :
#
#
# Convention : Reuss Voigt Hill
#
# Bulk Modulus (GPa) = 79.33324 81.86229 80.59777
# Shear Modulus (GPa) = -1.02596 31.99362 15.48383
#
# Velocity S-wave (km/s) = -0.67121 3.74823 2.60756
# Velocity P-wave (km/s) = 5.85121 7.39461 6.66772
#
# Compressibility (1/GPa) = 0.01260506
#
# Stress axis : x y z
#
# Youngs Moduli (GPa) = 108.53111 151.69629 90.15560
#
# Poissons Ratio (x) = 0.17259 0.29505
# Poissons Ratio (y) = 0.12348 0.24667
# Poissons Ratio (z) = 0.35518 0.41506
#
# Static dielectric constant tensor:
#      x y z
#    x 1.858080 0.000000 0.039590 
#    y 0.000000 1.824930 0.000000 
#    z 0.039590 0.000000 1.894820 
# 
# From -- ./inp_files/380877.got.cif
#   From: 2010.05.17/outbox.cif.g08.bks.cpg/sg12_191_cif.got.tgz:380877.got - 2010.06.03 13:09:07.
