data_PCOD9216333
_publ_section_title
;
Structure prediction by ZEFSAII (Michael W. Deem and Ramdas Pophale) SiO2 
 PCOD9216333
Probable space group: C 2/M
;
_chemical_formula_sum "Si O2"
_cell_formula_units_Z 32
_cell_length_a 10.595428
_cell_length_b 22.195795
_cell_length_c 5.394179
_cell_angle_alpha 90.000000
_cell_angle_beta 97.816029
_cell_angle_gamma 90.000000
_cell_volume 1256.785141
_symmetry_space_group_name_H-M "C 2/M"
_symmetry_group_IT_number 12
_symmetry_cell_setting 'monoclinic'
loop_
_space_group_symop_operation_xyz
x,y,z
-x,y,-z
-x,-y,-z
x,-y,z
1/2+x,1/2+y,z
1/2-x,1/2+y,-z
1/2-x,1/2-y,-z
1/2+x,1/2-y,z
loop_
_atom_site_type_symbol
_atom_site_label
_atom_site_fract_x
_atom_site_fract_y
_atom_site_fract_z
Si Si1 0.649479 0.885249 0.616212
Si Si2 0.108614 0.000000 0.743244
Si Si3 0.919285 0.262505 0.222585
Si Si4 0.646110 0.000000 0.963025
Si Si5 0.376010 0.370825 0.291428
O O1 0.500000 0.889578 0.500000
O O2 0.666886 0.820770 0.754389
O O3 0.672123 0.941331 0.802679
O O4 0.749741 0.882301 0.420122
O O5 0.097301 0.067364 0.851555
O O6 0.000000 0.000000 0.500000
O O7 0.263853 0.000000 0.770486
O O8 0.864845 0.195467 0.173446
O O9 0.000000 0.259890 0.500000
O O10 0.000000 0.276144 0.000000
O O11 0.500000 0.000000 0.000000
O O12 0.500000 0.366975 0.500000
#
# Coordination Sequence:
#
# PCOD9216333 Si02
#       5
#     8   4   8   4   8
#     4  11  23  43  69 104 146 191 244 308 372 445
#     4  10  23  43  67  98 143 189 242 299 363 437
#     4  10  23  44  70 104 145 193 246 305 371 444
#     4  12  24  41  72 110 145 197 249 307 376 447
#     4  10  22  44  68  99 142 192 241 304 369 438
#
# _framework density 25.461791000000002
#
# number of rings (size 3 to 8) (size 9 to 14) (size 15 to 20)
#    0.000    1.500    0.000    4.125    0.000    6.000 
#    0.000   20.625    0.000    0.000    0.000    0.000 
#    0.000    0.000    0.000    0.000    0.000    0.000 
#
# Total GULP energy -89276.191004 kJ/mol
# GULP energy per Si atom -5579.761938 kJ/mol
# Density = 2.540384 g / cm^3
# Si number density = 25.461791 Si / 1000 Ang^3
#
#
#
# Elastic Constant Matrix: (Units=GPa)
#
#
# Indices 1 2 3 4 5 6 
#
# 1 187.1126 -5.7851 55.1715 0.0000 17.2128 0.0000
# 2 -5.7851 301.7694 30.8240 0.0000 -14.1502 0.0000
# 3 55.1715 30.8240 106.2834 0.0000 -23.9447 0.0000
# 4 0.0000 0.0000 0.0000 38.7562 0.0000 -41.3000
# 5 17.2128 -14.1502 -23.9447 0.0000 72.5110 0.0000
# 6 0.0000 0.0000 0.0000 -41.3000 0.0000 -18.4597
#
#
#
# Elastic Compliance Matrix: (Units=1/GPa)
#
#
# Indices 1 2 3 4 5 6 
#
# 1 0.006935 0.000442 -0.004407 0.000000 -0.003015 0.000000
# 2 0.000442 0.003452 -0.001191 0.000000 0.000176 0.000000
# 3 -0.004407 -0.001191 0.013208 0.000000 0.005175 0.000000
# 4 0.000000 0.000000 0.000000 0.007624 0.000000 -0.017058
# 5 -0.003015 0.000176 0.005175 0.000000 0.016250 0.000000
# 6 0.000000 0.000000 0.000000 -0.017058 0.000000 -0.016008
#
#
# Mechanical properties :
#
#
# Convention : Reuss Voigt Hill
#
# Bulk Modulus (GPa) = 75.29005 83.95402 79.62203
# Shear Modulus (GPa) = 108.21885 52.89183 80.55534
#
# Velocity S-wave (km/s) = 6.52646 4.56269 5.63085
# Velocity P-wave (km/s) = 9.29661 7.79754 8.57988
#
# Compressibility (1/GPa) = 0.01328197
#
# Stress axis : x y z
#
# Youngs Moduli (GPa) = 144.19649 289.67575 75.71141
#
# Poissons Ratio (x) = -0.12796 0.33369
# Poissons Ratio (y) = -0.06370 0.09017
# Poissons Ratio (z) = 0.63553 0.34499
#
# Static dielectric constant tensor:
#      x y z
#    x 2.057880 0.000000 -0.037050 
#    y 0.000000 2.064790 0.000000 
#    z -0.037050 0.000000 1.971310 
# 
# From -- ./inp_files/6828.got.cif
#   From: 2010.05.17/outbox.cif.g08.bks.cpg/sg12_4_cif.got.tgz:6828.got - 2010.06.03 13:09:07.
