data_PCOD9216790
_publ_section_title
;
Structure prediction by ZEFSAII (Michael W. Deem and Ramdas Pophale) SiO2 
 PCOD9216790
Probable space group: C 2/M
;
_chemical_formula_sum "Si O2"
_cell_formula_units_Z 32
_cell_length_a 13.399547
_cell_length_b 5.378399
_cell_length_c 19.603187
_cell_angle_alpha 90.000000
_cell_angle_beta 70.512643
_cell_angle_gamma 90.000000
_cell_volume 1331.834597
_symmetry_space_group_name_H-M "C 2/M"
_symmetry_group_IT_number 12
_symmetry_cell_setting 'monoclinic'
loop_
_space_group_symop_operation_xyz
x,y,z
-x,y,-z
-x,-y,-z
x,-y,z
1/2+x,1/2+y,z
1/2-x,1/2+y,-z
1/2-x,1/2-y,-z
1/2+x,1/2-y,z
loop_
_atom_site_type_symbol
_atom_site_label
_atom_site_fract_x
_atom_site_fract_y
_atom_site_fract_z
Si Si1 0.818567 0.500000 0.001131
Si Si2 0.891113 0.000000 0.773051
Si Si3 0.159180 0.000000 0.373637
Si Si4 0.555295 0.000000 0.886132
Si Si5 0.334965 0.000000 0.770950
Si Si6 0.601377 0.500000 0.790662
Si Si7 0.300181 0.000000 0.457285
Si Si8 0.953480 0.500000 0.606117
O O1 0.932433 0.500000 0.936443
O O2 0.750000 0.250000 0.000000
O O3 0.863275 0.500000 0.068808
O O4 0.847051 0.254457 0.812692
O O5 0.845062 0.000000 0.706962
O O6 0.018128 0.000000 0.747585
O O7 0.099304 0.750611 0.408988
O O8 0.272029 0.000000 0.383163
O O9 0.576838 0.250244 0.838409
O O10 0.227228 0.000000 0.751714
O O11 0.429020 0.000000 0.693496
O O12 0.250000 0.250000 0.500000
O O13 0.424413 0.000000 0.436533
#
# Coordination Sequence:
#
# PCOD9216790 Si02
#       8
#     4   4   4   4   4   4   4   4
#     4  11  24  45  70  94 134 181 218 263 330 378
#     4  10  23  40  63  93 127 171 213 257 322 388
#     4  10  23  42  65  91 126 165 209 261 325 391
#     4  11  26  42  65 102 133 171 222 269 316 385
#     4  10  23  40  63  93 127 171 213 257 322 388
#     4  12  24  41  65  98 136 165 217 275 316 377
#     4  12  26  42  66  96 125 164 215 273 324 377
#     4  10  23  42  65  91 126 165 209 261 325 391
#
# _framework density 24.027006
#
# number of rings (size 3 to 8) (size 9 to 14) (size 15 to 20)
#    0.000    1.250    0.000    4.500    0.000   19.000 
#    0.000    0.000    0.000    0.000    0.000    0.000 
#    0.000    0.000    0.000    0.000    0.000    0.000 
#
# Total GULP energy -89538.408906 kJ/mol
# GULP energy per Si atom -5596.150557 kJ/mol
# Density = 2.397232 g / cm^3
# Si number density = 24.027006 Si / 1000 Ang^3
#
#
#
# Elastic Constant Matrix: (Units=GPa)
#
#
# Indices 1 2 3 4 5 6 
#
# 1 125.9348 49.2754 19.6997 -0.0001 4.9832 0.0000
# 2 49.2754 245.6863 22.4296 0.0000 -10.3241 0.0000
# 3 19.6997 22.4296 69.3428 -0.0005 -0.7523 -0.0001
# 4 -0.0001 0.0000 -0.0005 525.6447 0.0001 110.1991
# 5 4.9832 -10.3241 -0.7523 0.0001 57.2551 0.0000
# 6 0.0000 0.0000 -0.0001 110.1991 0.0000 71.3270
#
#
#
# Elastic Compliance Matrix: (Units=1/GPa)
#
#
# Indices 1 2 3 4 5 6 
#
# 1 0.008948 -0.001657 -0.002018 0.000000 -0.001104 0.000000
# 2 -0.001657 0.004532 -0.000985 0.000000 0.000949 0.000000
# 3 -0.002018 -0.000985 0.015315 0.000000 0.000199 0.000000
# 4 0.000000 0.000000 0.000000 0.002814 0.000000 -0.004347
# 5 -0.001104 0.000949 0.000199 0.000000 0.017735 0.000000
# 6 0.000000 0.000000 0.000000 -0.004347 0.000000 0.020736
#
#
# Mechanical properties :
#
#
# Convention : Reuss Voigt Hill
#
# Bulk Modulus (GPa) = 51.34597 69.30814 60.32705
# Shear Modulus (GPa) = 58.21153 154.14929 106.18041
#
# Velocity S-wave (km/s) = 4.92749 8.01848 6.65493
# Velocity P-wave (km/s) = 7.33417 10.70684 9.17678
#
# Compressibility (1/GPa) = 0.01947573
#
# Stress axis : x y z
#
# Youngs Moduli (GPa) = 111.75322 220.63770 65.29440
#
# Poissons Ratio (x) = 0.36556 0.13178
# Poissons Ratio (y) = 0.18516 0.06432
# Poissons Ratio (z) = 0.22554 0.21734
#
# Static dielectric constant tensor:
#      x y z
#    x 1.882140 0.000000 0.021090 
#    y 0.000000 2.014500 0.000000 
#    z 0.021090 0.000000 1.925500 
# 
# From -- ./inp_files/334424.got.cif
#   From: 2010.05.17/outbox.cif.g08.bks.cpg/sg12_168_cif.got.tgz:334424.got - 2010.06.03 13:09:07.
