data_PCOD9216940
_publ_section_title
;
Structure prediction by ZEFSAII (Michael W. Deem and Ramdas Pophale) SiO2 
 PCOD9216940
Probable space group: C 2/M
;
_chemical_formula_sum "Si O2"
_cell_formula_units_Z 34
_cell_length_a 13.353317
_cell_length_b 12.350641
_cell_length_c 12.202045
_cell_angle_alpha 90.000000
_cell_angle_beta 120.266047
_cell_angle_gamma 90.000000
_cell_volume 1738.086443
_symmetry_space_group_name_H-M "C 2/M"
_symmetry_group_IT_number 12
_symmetry_cell_setting 'monoclinic'
loop_
_space_group_symop_operation_xyz
x,y,z
-x,y,-z
-x,-y,-z
x,-y,z
1/2+x,1/2+y,z
1/2-x,1/2+y,-z
1/2-x,1/2-y,-z
1/2+x,1/2-y,z
loop_
_atom_site_type_symbol
_atom_site_label
_atom_site_fract_x
_atom_site_fract_y
_atom_site_fract_z
Si Si1 0.000000 0.000000 0.500000
Si Si2 0.651140 0.765404 0.796914
Si Si3 0.585521 0.679672 0.392496
Si Si4 0.127123 0.628630 0.019933
Si Si5 0.321137 0.124593 0.418827
O O1 0.080735 0.905451 0.488190
O O2 0.541735 0.684596 0.729617
O O3 0.770228 0.697482 0.867503
O O4 0.650084 0.837242 0.687345
O O5 0.634779 0.836823 0.896790
O O6 0.617075 0.796335 0.460258
O O7 0.684498 0.643706 0.363766
O O8 0.147004 0.500000 0.043316
O O9 0.000000 0.653090 0.000000
O O10 0.351228 0.000000 0.452985
#
# Coordination Sequence:
#
# PCOD9216940 Si02
#       5
#     2   8   8   8   8
#     4  12  20  44  58  88 126 164 198 238 284 384
#     4  11  22  40  61  87 118 155 201 245 299 354
#     4  11  24  39  62  91 123 165 199 235 299 363
#     4  10  23  41  61  85 115 154 200 251 299 351
#     4  11  23  39  61  92 126 156 198 248 294 352
#
# _framework density 19.561744000000001
#
# number of rings (size 3 to 8) (size 9 to 14) (size 15 to 20)
#    0.000    1.176    3.529    2.118    1.647    2.824 
#    0.000    2.353    0.000    7.765    0.000    0.000 
#    0.000    0.000    0.000    0.000    0.000    0.000 
#
# Total GULP energy -94731.832338 kJ/mol
# GULP energy per Si atom -5572.460726 kJ/mol
# Density = 1.951722 g / cm^3
# Si number density = 19.561744 Si / 1000 Ang^3
#
#
#
# Elastic Constant Matrix: (Units=GPa)
#
#
# Indices 1 2 3 4 5 6 
#
# 1 136.2431 32.6292 3.0619 0.0000 2.3051 0.0000
# 2 32.6292 112.6528 -4.1205 0.0000 4.1203 0.0000
# 3 3.0619 -4.1205 7.0870 0.0000 1.9494 0.0000
# 4 0.0000 0.0000 0.0000 -185.5431 0.0000 157.0978
# 5 2.3051 4.1203 1.9494 0.0000 31.0662 0.0000
# 6 0.0000 0.0000 0.0000 157.0978 0.0000 -104.9740
#
#
#
# Elastic Compliance Matrix: (Units=1/GPa)
#
#
# Indices 1 2 3 4 5 6 
#
# 1 0.008053 -0.002515 -0.004955 0.000000 0.000047 0.000000
# 2 -0.002515 0.009930 0.007297 0.000000 -0.001588 0.000000
# 3 -0.004955 0.007297 0.150246 0.000000 -0.010028 0.000000
# 4 0.000000 0.000000 0.000000 0.020177 0.000000 0.030196
# 5 0.000047 -0.001588 -0.010028 0.000000 0.033026 0.000000
# 6 0.000000 0.000000 0.000000 0.030196 0.000000 0.035664
#
#
# Mechanical properties :
#
#
# Convention : Reuss Voigt Hill
#
# Bulk Modulus (GPa) = 5.95651 35.45826 20.70739
# Shear Modulus (GPa) = 15.95393 -36.92935 -10.48771
#
# Velocity S-wave (km/s) = 2.85891 -4.34964 -2.31797
# Velocity P-wave (km/s) = 3.73489 2.65708 1.85598
#
# Compressibility (1/GPa) = 0.16788346
#
# Stress axis : x y z
#
# Youngs Moduli (GPa) = 124.18054 100.70078 6.65577
#
# Poissons Ratio (x) = 0.25330 0.03298
# Poissons Ratio (y) = 0.31236 -0.04857
# Poissons Ratio (z) = 0.61527 -0.73485
#
# Static dielectric constant tensor:
#      x y z
#    x 1.703560 0.000000 0.009670 
#    y 0.000000 1.658080 0.000000 
#    z 0.009670 0.000000 1.693720 
# 
# From -- ./inp_files/127957.got.cif
#   From: 2010.05.17/outbox.cif.g08.bks.cpg/sg12_64_cif.got.tgz:127957.got - 2010.06.03 13:09:07.
