data_PCOD9216265
_publ_section_title
;
Structure prediction by ZEFSAII (Michael W. Deem and Ramdas Pophale) SiO2 
 PCOD9216265
Probable space group: C 2/M
;
_chemical_formula_sum "Si O2"
_cell_formula_units_Z 40
_cell_length_a 21.516151
_cell_length_b 14.265964
_cell_length_c 18.206214
_cell_angle_alpha 90.000000
_cell_angle_beta 162.150217
_cell_angle_gamma 90.000000
_cell_volume 1712.961773
_symmetry_space_group_name_H-M "C 2/M"
_symmetry_group_IT_number 12
_symmetry_cell_setting 'monoclinic'
loop_
_space_group_symop_operation_xyz
x,y,z
-x,y,-z
-x,-y,-z
x,-y,z
1/2+x,1/2+y,z
1/2-x,1/2+y,-z
1/2-x,1/2-y,-z
1/2+x,1/2-y,z
loop_
_atom_site_type_symbol
_atom_site_label
_atom_site_fract_x
_atom_site_fract_y
_atom_site_fract_z
Si Si1 0.649754 0.107517 0.453406
Si Si2 0.729260 0.389233 0.730026
Si Si3 0.516771 0.714208 0.934681
Si Si4 0.214249 0.843436 0.007675
Si Si5 0.788873 0.107408 0.458342
O O1 0.427376 0.105607 0.237012
O O2 0.646437 0.141067 0.364616
O O3 0.731531 0.000000 0.547751
O O4 0.796870 0.182336 0.656603
O O5 0.500000 0.380238 0.500000
O O6 0.784554 0.500000 0.799765
O O7 0.881998 0.318074 0.941538
O O8 0.718345 0.357635 0.632760
O O9 0.661787 0.670267 0.034454
O O10 0.500000 0.678036 0.000000
O O11 0.250000 0.750000 0.000000
O O12 0.015953 0.887128 0.746196
O O13 0.731077 0.000000 0.384146
#
# Coordination Sequence:
#
# PCOD9216265 Si02
#       5
#     8   8   8   8   8
#     4  10  24  47  72 100 136 185 239 291 347 410
#     4  10  22  43  71 105 145 183 222 281 359 428
#     4  11  27  42  70 103 145 180 233 284 347 418
#     4  11  24  41  69  99 135 184 231 285 342 410
#     4   9  20  41  70 101 132 172 228 286 346 418
#
# _framework density 23.351367
#
# number of rings (size 3 to 8) (size 9 to 14) (size 15 to 20)
#    0.000    1.800    0.000    1.800    8.400    3.200 
#    0.000    2.000    0.000    0.000    0.000    0.000 
#    0.000    0.000    0.000    0.000    0.000    0.000 
#
# Total GULP energy -111633.088501 kJ/mol
# GULP energy per Si atom -5581.654425 kJ/mol
# Density = 2.329822 g / cm^3
# Si number density = 23.351367 Si / 1000 Ang^3
#
#
#
# Elastic Constant Matrix: (Units=GPa)
#
#
# Indices 1 2 3 4 5 6 
#
# 1 200.3103 52.2183 111.7474 -0.0052 -0.1878 -0.0022
# 2 52.2183 112.7667 50.0034 -0.0043 -10.0067 -0.0032
# 3 111.7474 50.0034 155.1820 0.0033 12.3807 -0.0067
# 4 -0.0052 -0.0043 0.0033 38.2951 -0.0067 0.8199
# 5 -0.1878 -10.0067 12.3807 -0.0067 57.4569 -0.0064
# 6 -0.0022 -0.0032 -0.0067 0.8199 -0.0064 32.6611
#
#
#
# Elastic Compliance Matrix: (Units=1/GPa)
#
#
# Indices 1 2 3 4 5 6 
#
# 1 0.008600 -0.001288 -0.005863 0.000002 0.001067 -0.000001
# 2 -0.001288 0.010924 -0.002792 0.000002 0.002500 0.000001
# 3 -0.005863 -0.002792 0.011809 -0.000003 -0.003050 0.000001
# 4 0.000002 0.000002 -0.000003 0.026127 0.000004 -0.000656
# 5 0.001067 0.002500 -0.003050 0.000004 0.018500 0.000003
# 6 -0.000001 0.000001 0.000001 -0.000656 0.000003 0.030634
#
#
# Mechanical properties :
#
#
# Convention : Reuss Voigt Hill
#
# Bulk Modulus (GPa) = 87.35750 99.57746 93.46748
# Shear Modulus (GPa) = 38.37430 42.63528 40.50479
#
# Velocity S-wave (km/s) = 4.05821 4.27759 4.16935
# Velocity P-wave (km/s) = 7.71038 8.19346 7.95559
#
# Compressibility (1/GPa) = 0.01144721
#
# Stress axis : x y z
#
# Youngs Moduli (GPa) = 116.28324 91.54041 84.68144
#
# Poissons Ratio (x) = 0.11788 0.49648
# Poissons Ratio (y) = 0.14975 0.23644
# Poissons Ratio (z) = 0.68175 0.25559
#
# Static dielectric constant tensor:
#      x y z
#    x 1.892400 -0.000010 0.012470 
#    y -0.000010 2.000590 0.000000 
#    z 0.012470 0.000000 1.912030 
# 
# From -- ./inp_files/284639.got.cif
#   From: 2010.05.17/outbox.cif.g08.bks.cpg/sg12_143_cif.got.tgz:284639.got - 2010.06.03 13:09:07.
