data_PCOD9216737
_publ_section_title
;
Structure prediction by ZEFSAII (Michael W. Deem and Ramdas Pophale) SiO2 
 PCOD9216737
Probable space group: C 2/M
;
_chemical_formula_sum "Si O2"
_cell_formula_units_Z 64
_cell_length_a 27.040587
_cell_length_b 13.989397
_cell_length_c 8.218512
_cell_angle_alpha 90.000000
_cell_angle_beta 75.318369
_cell_angle_gamma 90.000000
_cell_volume 3007.402225
_symmetry_space_group_name_H-M "C 2/M"
_symmetry_group_IT_number 12
_symmetry_cell_setting 'monoclinic'
loop_
_space_group_symop_operation_xyz
x,y,z
-x,y,-z
-x,-y,-z
x,-y,z
1/2+x,1/2+y,z
1/2-x,1/2+y,-z
1/2-x,1/2-y,-z
1/2+x,1/2-y,z
loop_
_atom_site_type_symbol
_atom_site_label
_atom_site_fract_x
_atom_site_fract_y
_atom_site_fract_z
Si Si1 0.330525 0.608911 0.275429
Si Si2 0.032498 0.846128 0.116306
Si Si3 0.807203 0.610944 0.118687
Si Si4 0.905220 0.716690 0.147916
Si Si5 0.707240 0.690444 0.350877
Si Si6 0.111197 0.892251 0.305816
Si Si7 0.542431 0.252154 0.579372
Si Si8 0.279144 0.108143 0.766231
O O1 0.349120 0.500000 0.266506
O O2 0.374425 0.683996 0.200718
O O3 0.307062 0.640373 0.468790
O O4 0.282461 0.612639 0.193195
O O5 0.081404 0.892416 0.160167
O O6 0.991974 0.828035 0.292606
O O7 0.053054 0.746463 0.021407
O O8 0.000000 0.893663 0.000000
O O9 0.798514 0.500000 0.162461
O O10 0.863869 0.642501 0.119281
O O11 0.765254 0.670473 0.252751
O O12 0.797540 0.625073 0.934756
O O13 0.930221 0.692563 0.301316
O O14 0.669552 0.642165 0.250432
O O15 0.699649 0.804592 0.358763
O O16 0.083169 0.812583 0.440747
O O17 0.108575 0.000000 0.375457
O O18 0.500000 0.202264 0.500000
O O19 0.293666 0.000000 0.703297
#
# Coordination Sequence:
#
# PCOD9216737 Si02
#       8
#     8   8   8   8   8   8   8   8
#     4  11  23  37  56  86 124 165 209 247 288 351
#     4   9  21  38  58  83 113 158 210 259 312 366
#     4  11  24  40  61  92 126 161 204 254 302 364
#     4  11  21  39  62  86 120 164 203 252 305 370
#     4  12  22  39  59  89 125 169 206 243 298 361
#     4  11  22  35  57  87 123 166 206 249 304 370
#     4   9  20  39  60  84 116 156 204 260 313 365
#     4  10  23  40  59  85 122 164 205 249 298 351
#
# _framework density 21.280823999999999
#
# number of rings (size 3 to 8) (size 9 to 14) (size 15 to 20)
#    0.000    1.500    2.500    2.625    1.750    3.000 
#    0.000    3.750    0.000    3.750    0.000    3.500 
#    0.000    0.000    0.000    0.000    0.000    0.000 
#
# Total GULP energy -178733.803639 kJ/mol
# GULP energy per Si atom -5585.431364 kJ/mol
# Density = 2.123239 g / cm^3
# Si number density = 21.280824 Si / 1000 Ang^3
#
#
#
# Elastic Constant Matrix: (Units=GPa)
#
#
# Indices 1 2 3 4 5 6 
#
# 1 107.0624 9.4671 17.8966 0.0000 32.5708 0.0000
# 2 9.4671 64.8950 13.7444 0.0000 9.4464 0.0000
# 3 17.8966 13.7444 46.9915 0.0000 16.8594 0.0000
# 4 0.0000 0.0000 0.0000 13.3836 0.0000 9.8297
# 5 32.5708 9.4464 16.8594 0.0000 43.7072 0.0000
# 6 0.0000 0.0000 0.0000 9.8297 0.0000 -54.4630
#
#
#
# Elastic Compliance Matrix: (Units=1/GPa)
#
#
# Indices 1 2 3 4 5 6 
#
# 1 0.012185 -0.000222 -0.001550 0.000000 -0.008435 0.000000
# 2 -0.000222 0.016579 -0.004107 0.000000 -0.001834 0.000000
# 3 -0.001550 -0.004107 0.025927 0.000000 -0.007959 0.000000
# 4 0.000000 0.000000 0.000000 0.065973 0.000000 0.011907
# 5 -0.008435 -0.001834 -0.007959 0.000000 0.032631 0.000000
# 6 0.000000 0.000000 0.000000 0.011907 0.000000 -0.016212
#
#
# Mechanical properties :
#
#
# Convention : Reuss Voigt Hill
#
# Bulk Modulus (GPa) = 23.29109 33.46279 28.37694
# Shear Modulus (GPa) = 30.64659 12.38162 21.51410
#
# Velocity S-wave (km/s) = 3.79899 2.41471 3.18301
# Velocity P-wave (km/s) = 5.49650 4.85108 5.18384
#
# Compressibility (1/GPa) = 0.04293487
#
# Stress axis : x y z
#
# Youngs Moduli (GPa) = 82.06811 60.31891 38.56958
#
# Poissons Ratio (x) = 0.01337 0.05977
# Poissons Ratio (y) = 0.01819 0.15839
# Poissons Ratio (z) = 0.12718 0.24771
#
# Static dielectric constant tensor:
#      x y z
#    x 1.807530 0.000000 0.046800 
#    y 0.000000 1.735070 0.000000 
#    z 0.046800 0.000000 1.801200 
# 
# From -- ./inp_files/104593.got.cif
#   From: 2010.05.17/outbox.cif.g08.bks.cpg/sg12_53_cif.got.tgz:104593.got - 2010.06.03 13:09:07.
