data_PCOD9216802
_publ_section_title
;
Structure prediction by ZEFSAII (Michael W. Deem and Ramdas Pophale) SiO2 
 PCOD9216802
Probable space group: C 2/M
;
_chemical_formula_sum "Si O2"
_cell_formula_units_Z 42
_cell_length_a 14.964696
_cell_length_b 19.107991
_cell_length_c 12.238331
_cell_angle_alpha 90.000000
_cell_angle_beta 27.692888
_cell_angle_gamma 90.000000
_cell_volume 1626.326844
_symmetry_space_group_name_H-M "C 2/M"
_symmetry_group_IT_number 12
_symmetry_cell_setting 'monoclinic'
loop_
_space_group_symop_operation_xyz
x,y,z
-x,y,-z
-x,-y,-z
x,-y,z
1/2+x,1/2+y,z
1/2-x,1/2+y,-z
1/2-x,1/2-y,-z
1/2+x,1/2-y,z
loop_
_atom_site_type_symbol
_atom_site_label
_atom_site_fract_x
_atom_site_fract_y
_atom_site_fract_z
Si Si1 0.000000 0.000000 0.500000
Si Si2 0.352198 0.130986 0.412513
Si Si3 0.944997 0.846012 0.860263
Si Si4 0.597844 0.000000 0.488454
Si Si5 0.106440 0.000000 0.980861
Si Si6 0.721955 0.791210 0.903123
Si Si7 0.714195 0.104512 0.746605
O O1 0.840856 0.940125 0.688914
O O2 0.416571 0.072189 0.427242
O O3 0.251285 0.092226 0.417241
O O4 0.164655 0.172272 0.656379
O O5 0.529097 0.174687 0.169461
O O6 0.893759 0.822293 0.791347
O O7 0.909331 0.925995 0.935271
O O8 0.799824 0.791773 0.075501
O O9 0.360335 0.000000 0.693189
O O10 0.862631 0.000000 0.193496
O O11 0.734006 0.817315 0.766971
O O12 0.500000 0.082009 0.000000
#
# Coordination Sequence:
#
# PCOD9216802 Si02
#       7
#     2   8   8   4   4   8   8
#     4  12  20  36  64  96 130 174 226 268 336 436
#     4  11  22  43  68  98 137 183 232 285 354 423
#     4  11  23  44  70 100 142 181 242 287 350 427
#     4  12  25  44  69 103 138 182 246 297 355 422
#     4  12  24  44  68  98 129 188 234 295 349 400
#     4  10  24  43  66 104 142 186 227 291 353 427
#     4  10  23  40  64 101 139 180 226 283 359 419
#
# _framework density 25.825067000000001
#
# number of rings (size 3 to 8) (size 9 to 14) (size 15 to 20)
#    0.000    1.143    1.905    3.714    0.000    6.857 
#    3.429    0.000    2.095    0.000    0.000    0.000 
#    0.000    0.000    0.000    0.000    0.000    0.000 
#
# Total GULP energy -116942.235683 kJ/mol
# GULP energy per Si atom -5568.677890 kJ/mol
# Density = 2.576629 g / cm^3
# Si number density = 25.825067 Si / 1000 Ang^3
#
#
#
# Elastic Constant Matrix: (Units=GPa)
#
#
# Indices 1 2 3 4 5 6 
#
# 1 124.8591 73.4071 31.6927 0.0853 -10.0608 0.0500
# 2 73.4071 163.6417 27.9025 0.5709 -3.8927 0.2992
# 3 31.6927 27.9025 119.4235 0.9983 -21.3812 0.5889
# 4 0.0853 0.5709 0.9983 -129.2236 -0.1978 -126.6504
# 5 -10.0608 -3.8927 -21.3812 -0.1978 45.0221 -0.1326
# 6 0.0500 0.2992 0.5889 -126.6504 -0.1326 -60.8332
#
#
#
# Elastic Compliance Matrix: (Units=1/GPa)
#
#
# Indices 1 2 3 4 5 6 
#
# 1 0.011344 -0.004775 -0.001656 -0.000004 0.001336 -0.000025
# 2 -0.004775 0.008375 -0.000821 0.000002 -0.000733 0.000028
# 3 -0.001656 -0.000821 0.009755 0.000014 0.004192 0.000052
# 4 -0.000004 0.000002 0.000014 0.007438 -0.000007 -0.015484
# 5 0.001336 -0.000733 0.004192 -0.000007 0.024437 0.000000
# 6 -0.000025 0.000028 0.000052 -0.015484 0.000000 0.015799
#
#
# Mechanical properties :
#
#
# Convention : Reuss Voigt Hill
#
# Bulk Modulus (GPa) = 66.79312 74.88099 70.83705
# Shear Modulus (GPa) = 51.73769 -10.67882 20.52944
#
# Velocity S-wave (km/s) = 4.48078 -2.03569 2.82253
# Velocity P-wave (km/s) = 7.25877 4.85109 6.17344
#
# Compressibility (1/GPa) = 0.01497160
#
# Stress axis : x y z
#
# Youngs Moduli (GPa) = 88.15231 119.39956 102.51258
#
# Poissons Ratio (x) = 0.57009 0.16972
# Poissons Ratio (y) = 0.42089 0.08417
# Poissons Ratio (z) = 0.14595 0.09803
#
# Static dielectric constant tensor:
#      x y z
#    x 2.141930 0.000020 -0.085350 
#    y 0.000020 1.853190 0.000060 
#    z -0.085350 0.000060 2.313680 
# 
# From -- ./inp_files/285147.got.cif
#   From: 2010.05.17/outbox.cif.g08.bks.cpg/sg12_143_cif.got.tgz:285147.got - 2010.06.03 13:09:07.
