data_PCOD9216479
_publ_section_title
;
Structure prediction by ZEFSAII (Michael W. Deem and Ramdas Pophale) SiO2 
 PCOD9216479
Probable space group: C 2/M
;
_chemical_formula_sum "Si O2"
_cell_formula_units_Z 32
_cell_length_a 11.911386
_cell_length_b 18.043940
_cell_length_c 14.081358
_cell_angle_alpha 90.000000
_cell_angle_beta 151.437300
_cell_angle_gamma 90.000000
_cell_volume 1447.022519
_symmetry_space_group_name_H-M "C 2/M"
_symmetry_group_IT_number 12
_symmetry_cell_setting 'monoclinic'
loop_
_space_group_symop_operation_xyz
x,y,z
-x,y,-z
-x,-y,-z
x,-y,z
1/2+x,1/2+y,z
1/2-x,1/2+y,-z
1/2-x,1/2-y,-z
1/2+x,1/2-y,z
loop_
_atom_site_type_symbol
_atom_site_label
_atom_site_fract_x
_atom_site_fract_y
_atom_site_fract_z
Si Si1 0.741276 0.849880 0.847900
Si Si2 0.973254 0.500000 0.596756
Si Si3 0.259406 0.000000 0.641370
Si Si4 0.680421 0.697044 0.715060
Si Si5 0.605696 0.864209 0.953681
O O1 0.601696 0.923486 0.716901
O O2 0.620855 0.775388 0.718395
O O3 0.748070 0.848938 0.966020
O O4 0.000000 0.856187 0.000000
O O5 0.000000 0.500000 0.500000
O O6 0.767053 0.500000 0.529155
O O7 0.424320 0.931150 0.799162
O O8 0.000000 0.000000 0.500000
O O9 0.500000 0.676529 0.500000
O O10 0.931692 0.703378 0.849657
O O11 0.723783 0.635295 0.828609
#
# Coordination Sequence:
#
# PCOD9216479 Si02
#       5
#     8   4   4   8   8
#     4  11  22  43  68  94 137 184 220 279 340 397
#     4  10  23  45  67 107 133 175 238 276 339 416
#     4  10  22  46  76 101 136 181 228 288 345 402
#     4  11  23  40  65  99 136 177 223 275 336 397
#     4  10  23  44  65  98 138 171 233 275 341 401
#
# _framework density 22.114376
#
# number of rings (size 3 to 8) (size 9 to 14) (size 15 to 20)
#    0.000    1.500    2.500    2.625    0.000    3.000 
#   18.000    1.875    0.000    0.000    0.000    0.000 
#    0.000    0.000    0.000    0.000    0.000    0.000 
#
# Total GULP energy -89146.911927 kJ/mol
# GULP energy per Si atom -5571.681995 kJ/mol
# Density = 2.206404 g / cm^3
# Si number density = 22.114376 Si / 1000 Ang^3
#
#
#
# Elastic Constant Matrix: (Units=GPa)
#
#
# Indices 1 2 3 4 5 6 
#
# 1 245.4325 45.0599 81.9083 -0.0022 -19.5606 -0.0031
# 2 45.0599 102.1833 28.8134 -0.0060 0.8767 -0.0087
# 3 81.9083 28.8134 111.9557 -0.0119 -25.0410 -0.0168
# 4 -0.0022 -0.0060 -0.0119 -84.0110 -0.0007 -163.6373
# 5 -19.5606 0.8767 -25.0410 -0.0007 41.7483 -0.0010
# 6 -0.0031 -0.0087 -0.0168 -163.6373 -0.0010 -232.2270
#
#
#
# Elastic Compliance Matrix: (Units=1/GPa)
#
#
# Indices 1 2 3 4 5 6 
#
# 1 0.005581 -0.001450 -0.003602 0.000000 0.000485 0.000000
# 2 -0.001450 0.011096 -0.002309 0.000000 -0.002297 0.000000
# 3 -0.003602 -0.002309 0.013622 0.000000 0.006532 -0.000001
# 4 0.000000 0.000000 0.000000 0.031954 0.000000 -0.022516
# 5 0.000485 -0.002297 0.006532 0.000000 0.028146 -0.000001
# 6 0.000000 0.000000 -0.000001 -0.022516 -0.000001 0.011560
#
#
# Mechanical properties :
#
#
# Convention : Reuss Voigt Hill
#
# Bulk Modulus (GPa) = 64.18827 85.68164 74.93495
# Shear Modulus (GPa) = 41.02593 -34.64527 3.19033
#
# Velocity S-wave (km/s) = 4.31184 -3.96237 1.20241
# Velocity P-wave (km/s) = 7.34016 4.23025 5.99053
#
# Compressibility (1/GPa) = 0.01557917
#
# Stress axis : x y z
#
# Youngs Moduli (GPa) = 179.17075 90.11920 73.40868
#
# Poissons Ratio (x) = 0.13065 0.26440
# Poissons Ratio (y) = 0.25975 0.16950
# Poissons Ratio (z) = 0.64532 0.20808
#
# Static dielectric constant tensor:
#      x y z
#    x 1.865900 0.000000 -0.018320 
#    y 0.000000 1.882210 0.000000 
#    z -0.018320 0.000000 1.869700 
# 
# From -- ./inp_files/206815.got.cif
#   From: 2010.05.17/outbox.cif.g08.bks.cpg/sg12_104_cif.got.tgz:206815.got - 2010.06.03 13:09:07.
