data_PCOD9216180
_publ_section_title
;
Structure prediction by ZEFSAII (Michael W. Deem and Ramdas Pophale) SiO2 
 PCOD9216180
Probable space group: C 2/M
;
_chemical_formula_sum "Si O2"
_cell_formula_units_Z 38
_cell_length_a 10.682555
_cell_length_b 26.554950
_cell_length_c 10.539548
_cell_angle_alpha 90.000000
_cell_angle_beta 39.022680
_cell_angle_gamma 90.000000
_cell_volume 1882.463753
_symmetry_space_group_name_H-M "C 2/M"
_symmetry_group_IT_number 12
_symmetry_cell_setting 'monoclinic'
loop_
_space_group_symop_operation_xyz
x,y,z
-x,y,-z
-x,-y,-z
x,-y,z
1/2+x,1/2+y,z
1/2-x,1/2+y,-z
1/2-x,1/2-y,-z
1/2+x,1/2-y,z
loop_
_atom_site_type_symbol
_atom_site_label
_atom_site_fract_x
_atom_site_fract_y
_atom_site_fract_z
Si Si1 0.609572 0.440258 0.781392
Si Si2 0.270273 0.696531 0.134298
Si Si3 0.000000 0.500000 0.000000
Si Si4 0.000000 0.621109 0.500000
Si Si5 0.771790 0.308978 0.136088
Si Si6 0.861981 0.920160 0.724647
O O1 0.641791 0.500000 0.761680
O O2 0.469667 0.427134 0.774367
O O3 0.820652 0.413580 0.592263
O O4 0.500000 0.425853 0.000000
O O5 0.204060 0.752839 0.228797
O O6 0.114844 0.656649 0.311212
O O7 0.500000 0.689626 0.000000
O O8 0.259525 0.691579 0.991094
O O9 0.171006 0.455573 0.875618
O O10 0.679543 0.360583 0.258960
O O11 0.000000 0.310848 0.000000
O O12 0.000000 0.936578 0.500000
#
# Coordination Sequence:
#
# PCOD9216180 Si02
#       6
#     8   8   2   4   8   8
#     4  11  26  47  67 100 137 176 225 283 335 403
#     4  10  23  44  65  98 140 176 222 274 334 402
#     4  12  26  48  66  98 142 180 210 286 358 382
#     4  12  23  40  74  98 130 179 222 278 330 396
#     4  10  22  43  67  98 138 177 216 277 339 396
#     4  12  26  45  72 103 133 174 229 278 335 409
#
# _framework density 20.186311
#
# number of rings (size 3 to 8) (size 9 to 14) (size 15 to 20)
#    0.000    1.053    2.105    3.789    4.421    1.684 
#    0.000    4.211    0.000    0.000    0.000    0.000 
#    0.000    0.000    0.000    0.000    0.000    0.000 
#
# Total GULP energy -105834.059282 kJ/mol
# GULP energy per Si atom -5570.213646 kJ/mol
# Density = 2.014037 g / cm^3
# Si number density = 20.186311 Si / 1000 Ang^3
#
#
#
# Elastic Constant Matrix: (Units=GPa)
#
#
# Indices 1 2 3 4 5 6 
#
# 1 139.6271 31.1727 73.6987 0.0000 -25.1606 0.0000
# 2 31.1727 166.9539 54.0529 0.0000 -28.2937 0.0000
# 3 73.6987 54.0529 93.5519 0.0000 -35.2363 0.0000
# 4 0.0000 0.0000 0.0000 40.6087 0.0000 -11.8445
# 5 -25.1606 -28.2937 -35.2363 0.0000 28.8409 0.0000
# 6 0.0000 0.0000 0.0000 -11.8445 0.0000 30.5516
#
#
#
# Elastic Compliance Matrix: (Units=1/GPa)
#
#
# Indices 1 2 3 4 5 6 
#
# 1 0.012444 0.000953 -0.010953 0.000000 -0.001591 0.000000
# 2 0.000953 0.007667 -0.003769 0.000000 0.003748 0.000000
# 3 -0.010953 -0.003769 0.030572 0.000000 0.024099 0.000000
# 4 0.000000 0.000000 0.000000 0.027765 0.000000 0.010764
# 5 -0.001591 0.003748 0.024099 0.000000 0.066405 0.000000
# 6 0.000000 0.000000 0.000000 0.010764 0.000000 0.036905
#
#
# Mechanical properties :
#
#
# Convention : Reuss Voigt Hill
#
# Bulk Modulus (GPa) = 43.20446 79.77573 61.49009
# Shear Modulus (GPa) = 23.04040 36.08081 29.56061
#
# Velocity S-wave (km/s) = 3.38211 4.23234 3.83088
# Velocity P-wave (km/s) = 6.05812 7.96801 7.07778
#
# Compressibility (1/GPa) = 0.02314576
#
# Stress axis : x y z
#
# Youngs Moduli (GPa) = 80.36249 130.42551 32.70957
#
# Poissons Ratio (x) = -0.12430 0.35826
# Poissons Ratio (y) = -0.07659 0.12328
# Poissons Ratio (z) = 0.88019 0.49156
#
# Static dielectric constant tensor:
#      x y z
#    x 1.680310 0.000000 0.011450 
#    y 0.000000 1.754990 0.000000 
#    z 0.011450 0.000000 1.659190 
# 
# From -- ./inp_files/137129.got.cif
#   From: 2010.05.17/outbox.cif.g08.bks.cpg/sg12_69_cif.got.tgz:137129.got - 2010.06.03 13:09:07.
