data_PCOD9216283
_publ_section_title
;
Structure prediction by ZEFSAII (Michael W. Deem and Ramdas Pophale) SiO2 
 PCOD9216283
Probable space group: C 2/M
;
_chemical_formula_sum "Si O2"
_cell_formula_units_Z 64
_cell_length_a 11.377959
_cell_length_b 29.707800
_cell_length_c 16.809440
_cell_angle_alpha 90.000000
_cell_angle_beta 147.854828
_cell_angle_gamma 90.000000
_cell_volume 3023.109248
_symmetry_space_group_name_H-M "C 2/M"
_symmetry_group_IT_number 12
_symmetry_cell_setting 'monoclinic'
loop_
_space_group_symop_operation_xyz
x,y,z
-x,y,-z
-x,-y,-z
x,-y,z
1/2+x,1/2+y,z
1/2-x,1/2+y,-z
1/2-x,1/2-y,-z
1/2+x,1/2-y,z
loop_
_atom_site_type_symbol
_atom_site_label
_atom_site_fract_x
_atom_site_fract_y
_atom_site_fract_z
Si Si1 0.246629 0.835041 0.438477
Si Si2 0.001089 0.347555 0.807435
Si Si3 0.062139 0.872626 0.875299
Si Si4 0.821578 0.632877 0.242759
Si Si5 0.419997 0.613518 0.364389
Si Si6 0.764125 0.051644 0.140373
Si Si7 0.136373 0.251712 0.316018
Si Si8 0.788350 0.237860 0.829364
O O1 0.473390 0.862091 0.579632
O O2 0.302448 0.781885 0.457786
O O3 0.106173 0.847413 0.280065
O O4 0.084678 0.851384 0.416161
O O5 0.070713 0.382760 0.778335
O O6 0.823859 0.365333 0.767693
O O7 0.880603 0.305895 0.694273
O O8 0.239003 0.339440 0.984528
O O9 0.169640 0.914206 0.891380
O O10 0.898225 0.889613 0.850482
O O11 0.741153 0.684058 0.180142
O O12 0.500000 0.604341 0.500000
O O13 0.390408 0.570585 0.290686
O O14 0.824186 0.000000 0.158980
O O15 0.500000 0.053849 0.000000
O O16 0.171622 0.245432 0.241466
O O17 0.913909 0.239915 0.238150
O O18 0.000000 0.252624 0.000000
#
# Coordination Sequence:
#
# PCOD9216283 Si02
#       8
#     8   8   8   8   8   8   8   8
#     4  11  24  38  61  88 125 180 218 273 327 376
#     4  11  23  39  63  91 123 175 225 269 325 380
#     4  11  22  39  67  92 124 163 215 266 324 402
#     4  11  22  40  58  86 126 172 221 253 333 391
#     4  11  22  44  64  98 132 167 217 271 333 393
#     4  10  22  43  74 104 129 161 205 268 340 410
#     4  11  24  39  57  82 129 169 235 283 325 377
#     4  11  23  37  56  82 115 170 224 287 332 377
#
# _framework density 21.170256999999999
#
# number of rings (size 3 to 8) (size 9 to 14) (size 15 to 20)
#    0.000    1.125    3.750    3.375    1.750    2.250 
#    2.250    0.000    0.000    8.250    0.000    0.000 
#    0.000    0.000    0.000    0.000    0.000    0.000 
#
# Total GULP energy -178478.458343 kJ/mol
# GULP energy per Si atom -5577.451823 kJ/mol
# Density = 2.112207 g / cm^3
# Si number density = 21.170257 Si / 1000 Ang^3
#
#
#
# Elastic Constant Matrix: (Units=GPa)
#
#
# Indices 1 2 3 4 5 6 
#
# 1 145.5300 21.7537 25.9176 0.0000 11.5935 0.0000
# 2 21.7537 67.5271 6.7084 0.0000 0.3095 0.0000
# 3 25.9176 6.7084 109.3556 0.0000 3.8579 0.0000
# 4 0.0000 0.0000 0.0000 18.5792 0.0000 3.5138
# 5 11.5935 0.3095 3.8579 0.0000 39.0226 0.0000
# 6 0.0000 0.0000 0.0000 3.5138 0.0000 17.3702
#
#
#
# Elastic Compliance Matrix: (Units=1/GPa)
#
#
# Indices 1 2 3 4 5 6 
#
# 1 0.007668 -0.002302 -0.001602 0.000000 -0.002102 0.000000
# 2 -0.002302 0.015590 -0.000432 0.000000 0.000603 0.000000
# 3 -0.001602 -0.000432 0.009567 0.000000 -0.000466 0.000000
# 4 0.000000 0.000000 0.000000 0.055965 0.000000 -0.011321
# 5 -0.002102 0.000603 -0.000466 0.000000 0.026292 0.000000
# 6 0.000000 0.000000 0.000000 -0.011321 0.000000 0.059860
#
#
# Mechanical properties :
#
#
# Convention : Reuss Voigt Hill
#
# Bulk Modulus (GPa) = 41.40052 47.90800 44.65426
# Shear Modulus (GPa) = 26.08713 32.86327 29.47520
#
# Velocity S-wave (km/s) = 3.51416 3.94424 3.73539
# Velocity P-wave (km/s) = 6.00534 6.58951 6.30420
#
# Compressibility (1/GPa) = 0.02415428
#
# Stress axis : x y z
#
# Youngs Moduli (GPa) = 130.40883 64.14176 104.52442
#
# Poissons Ratio (x) = 0.14762 0.16745
# Poissons Ratio (y) = 0.30014 0.04517
# Poissons Ratio (z) = 0.20892 0.02772
#
# Static dielectric constant tensor:
#      x y z
#    x 1.870940 0.000000 -0.022180 
#    y 0.000000 1.733130 0.000000 
#    z -0.022180 0.000000 1.820580 
# 
# From -- ./inp_files/266291.got.cif
#   From: 2010.05.17/outbox.cif.g08.bks.cpg/sg12_134_cif.got.tgz:266291.got - 2010.06.03 13:09:07.
