data_PCOD9216500
_publ_section_title
;
Structure prediction by ZEFSAII (Michael W. Deem and Ramdas Pophale) SiO2 
 PCOD9216500
Probable space group: C 2/M
;
_chemical_formula_sum "Si O2"
_cell_formula_units_Z 64
_cell_length_a 26.251445
_cell_length_b 22.812447
_cell_length_c 5.130474
_cell_angle_alpha 90.000000
_cell_angle_beta 108.829028
_cell_angle_gamma 90.000000
_cell_volume 2908.015464
_symmetry_space_group_name_H-M "C 2/M"
_symmetry_group_IT_number 12
_symmetry_cell_setting 'monoclinic'
loop_
_space_group_symop_operation_xyz
x,y,z
-x,y,-z
-x,-y,-z
x,-y,z
1/2+x,1/2+y,z
1/2-x,1/2+y,-z
1/2-x,1/2-y,-z
1/2+x,1/2-y,z
loop_
_atom_site_type_symbol
_atom_site_label
_atom_site_fract_x
_atom_site_fract_y
_atom_site_fract_z
Si Si1 0.058507 0.928713 0.188394
Si Si2 0.172347 0.343097 0.107960
Si Si3 0.378193 0.571027 0.196801
Si Si4 0.825122 0.222852 0.188555
Si Si5 0.231565 0.169826 0.400526
Si Si6 0.763645 0.930806 0.258517
Si Si7 0.057084 0.684693 0.036128
Si Si8 0.556382 0.733205 0.540107
O O1 0.101949 0.907183 0.049601
O O2 0.056768 0.000000 0.179970
O O3 0.078931 0.913209 0.507622
O O4 0.000000 0.907736 0.000000
O O5 0.206440 0.321461 0.414759
O O6 0.209307 0.397508 0.074581
O O7 0.111550 0.352689 0.103971
O O8 0.172337 0.290798 0.897533
O O9 0.380065 0.500000 0.184692
O O10 0.317617 0.583314 0.187285
O O11 0.799708 0.203036 0.417956
O O12 0.710399 0.306164 0.097167
O O13 0.887214 0.202969 0.299411
O O14 0.225150 0.100336 0.444154
O O15 0.756816 0.000000 0.263633
O O16 0.062283 0.736275 0.264955
O O17 0.051721 0.715372 0.747494
O O18 0.000000 0.654225 0.000000
O O19 0.500000 0.700094 0.500000
#
# Coordination Sequence:
#
# PCOD9216500 Si02
#       8
#     8   8   8   8   8   8   8   8
#     4   9  16  27  48  74  95 121 167 227 281 323
#     4   9  20  35  59  87 119 155 193 242 290 353
#     4   9  17  31  48  69  98 130 170 219 268 326
#     4  11  19  37  56  91 118 147 191 242 295 348
#     4  10  23  34  59  82 120 149 193 240 296 344
#     4   9  21  40  57  81 118 159 199 239 294 350
#     4   9  17  32  52  84 117 154 191 228 281 348
#     4   9  18  31  54  82 120 154 184 229 289 356
#
# _framework density 22.008137000000001
#
# number of rings (size 3 to 8) (size 9 to 14) (size 15 to 20)
#    0.750    1.875    0.000    2.625    0.000    4.500 
#    0.000    1.875    0.000    3.375    0.000    3.500 
#    0.000   14.000    0.000    0.000    0.000    4.000 
#
# Total GULP energy -178632.135073 kJ/mol
# GULP energy per Si atom -5582.254221 kJ/mol
# Density = 2.195805 g / cm^3
# Si number density = 22.008137 Si / 1000 Ang^3
#
#
#
# Elastic Constant Matrix: (Units=GPa)
#
#
# Indices 1 2 3 4 5 6 
#
# 1 178.5631 24.1985 16.6944 0.0000 32.2642 0.0000
# 2 24.1985 87.0227 6.0611 0.0000 3.7957 0.0000
# 3 16.6944 6.0611 80.2843 0.0000 -4.7645 0.0000
# 4 0.0000 0.0000 0.0000 18.7204 0.0000 -2.5295
# 5 32.2642 3.7957 -4.7645 0.0000 28.8974 0.0000
# 6 0.0000 0.0000 0.0000 -2.5295 0.0000 7.4847
#
#
#
# Elastic Compliance Matrix: (Units=1/GPa)
#
#
# Indices 1 2 3 4 5 6 
#
# 1 0.007540 -0.001588 -0.001954 0.000000 -0.008532 0.000000
# 2 -0.001588 0.011968 -0.000567 0.000000 0.000108 0.000000
# 3 -0.001954 -0.000567 0.013168 0.000000 0.004427 0.000000
# 4 0.000000 0.000000 0.000000 0.055974 0.000000 0.018917
# 5 -0.008532 0.000108 0.004427 0.000000 0.044847 0.000000
# 6 0.000000 0.000000 0.000000 0.018917 0.000000 0.139999
#
#
# Mechanical properties :
#
#
# Convention : Reuss Voigt Hill
#
# Bulk Modulus (GPa) = 40.88920 48.86422 44.87671
# Shear Modulus (GPa) = 17.24938 30.94823 24.09880
#
# Velocity S-wave (km/s) = 2.80263 3.75402 3.31266
# Velocity P-wave (km/s) = 5.39374 6.40635 5.92173
#
# Compressibility (1/GPa) = 0.02445633
#
# Stress axis : x y z
#
# Youngs Moduli (GPa) = 132.62904 83.55821 75.94377
#
# Poissons Ratio (x) = 0.13272 0.14841
# Poissons Ratio (y) = 0.21066 0.04305
# Poissons Ratio (z) = 0.25919 0.04736
#
# Static dielectric constant tensor:
#      x y z
#    x 1.881970 0.000000 0.011780 
#    y 0.000000 1.849830 0.000000 
#    z 0.011780 0.000000 1.818900 
# 
# From -- ./inp_files/26103.got.cif
#   From: 2010.05.17/outbox.cif.g08.bks.cpg/sg12_14_cif.got.tgz:26103.got - 2010.06.03 13:09:07.
