data_PCOD9216173
_publ_section_title
;
Structure prediction by ZEFSAII (Michael W. Deem and Ramdas Pophale) SiO2 
 PCOD9216173
Probable space group: C 2/M
;
_chemical_formula_sum "Si O2"
_cell_formula_units_Z 56
_cell_length_a 14.062169
_cell_length_b 28.977691
_cell_length_c 11.306902
_cell_angle_alpha 90.000000
_cell_angle_beta 32.547080
_cell_angle_gamma 90.000000
_cell_volume 2478.768069
_symmetry_space_group_name_H-M "C 2/M"
_symmetry_group_IT_number 12
_symmetry_cell_setting 'monoclinic'
loop_
_space_group_symop_operation_xyz
x,y,z
-x,y,-z
-x,-y,-z
x,-y,z
1/2+x,1/2+y,z
1/2-x,1/2+y,-z
1/2-x,1/2-y,-z
1/2+x,1/2-y,z
loop_
_atom_site_type_symbol
_atom_site_label
_atom_site_fract_x
_atom_site_fract_y
_atom_site_fract_z
Si Si1 0.288930 0.366060 0.724624
Si Si2 0.917402 0.282215 0.954825
Si Si3 0.156802 0.903556 0.576837
Si Si4 0.782896 0.052031 0.897937
Si Si5 0.466697 0.172174 0.660775
Si Si6 0.539433 0.069174 0.591057
Si Si7 0.067446 0.174869 0.062707
O O1 0.500000 0.364932 0.500000
O O2 0.237689 0.380061 0.644323
O O3 0.224497 0.409306 0.866879
O O4 0.232825 0.319599 0.852796
O O5 0.006080 0.302128 0.741986
O O6 0.898033 0.228535 0.940353
O O7 0.000000 0.280017 0.000000
O O8 0.281574 0.938308 0.521417
O O9 0.982220 0.933029 0.724150
O O10 0.068212 0.857930 0.728362
O O11 0.786267 0.000000 0.847573
O O12 0.634630 0.055338 0.154555
O O13 0.500000 0.198007 0.500000
O O14 0.568471 0.124527 0.549748
O O15 0.263626 0.155853 0.872320
O O16 0.500000 0.052365 0.500000
O O17 0.000000 0.174871 0.000000
#
# Coordination Sequence:
#
# PCOD9216173 Si02
#       7
#     8   8   8   8   8   8   8
#     4  10  22  43  67  96 137 182 223 285 346 403
#     4  11  23  39  65  97 140 180 232 280 334 408
#     4  11  24  43  70  99 139 181 226 279 346 401
#     4  11  25  46  72 102 134 172 227 289 344 413
#     4  11  21  38  62  92 130 179 225 278 335 396
#     4  11  23  42  70  97 132 179 221 275 343 409
#     4  11  23  40  63  99 139 181 230 278 330 409
#
# _framework density 22.591867000000001
#
# number of rings (size 3 to 8) (size 9 to 14) (size 15 to 20)
#    0.000    1.143    2.857    3.857    0.000    5.143 
#    0.000    5.000    0.000    0.000    0.000    0.000 
#    0.000    0.000    0.000    0.000    0.000    0.000 
#
# Total GULP energy -155971.181654 kJ/mol
# GULP energy per Si atom -5570.399345 kJ/mol
# Density = 2.254045 g / cm^3
# Si number density = 22.591867 Si / 1000 Ang^3
#
#
#
# Elastic Constant Matrix: (Units=GPa)
#
#
# Indices 1 2 3 4 5 6 
#
# 1 86.5578 3.9085 33.8388 0.0001 5.6497 0.0002
# 2 3.9085 108.1202 30.5780 0.0000 5.2379 0.0000
# 3 33.8388 30.5780 74.8955 0.0000 19.3360 0.0001
# 4 0.0001 0.0000 0.0000 -22.8963 -0.0001 -44.6608
# 5 5.6497 5.2379 19.3360 -0.0001 41.9156 -0.0002
# 6 0.0002 0.0000 0.0001 -44.6608 -0.0002 -139.2548
#
#
#
# Elastic Compliance Matrix: (Units=1/GPa)
#
#
# Indices 1 2 3 4 5 6 
#
# 1 0.014299 0.001517 -0.007417 0.000000 0.001304 0.000000
# 2 0.001517 0.010638 -0.005259 0.000000 0.000892 0.000000
# 3 -0.007417 -0.005259 0.020913 0.000000 -0.007991 0.000000
# 4 0.000000 0.000000 0.000000 -0.116645 0.000000 0.037410
# 5 0.001304 0.000892 -0.007991 0.000000 0.027256 0.000000
# 6 0.000000 0.000000 0.000000 0.037410 0.000000 -0.019179
#
#
# Mechanical properties :
#
#
# Convention : Reuss Voigt Hill
#
# Bulk Modulus (GPa) = 42.49344 45.13602 43.81473
# Shear Modulus (GPa) = -153.58044 -10.63055 -82.10549
#
# Velocity S-wave (km/s) = -8.25397 -2.17156 -6.03505
# Velocity P-wave (km/s) = 8.48453 3.70603 5.39688
#
# Compressibility (1/GPa) = 0.02353304
#
# Stress axis : x y z
#
# Youngs Moduli (GPa) = 69.93598 93.99999 47.81690
#
# Poissons Ratio (x) = -0.14264 0.35464
# Poissons Ratio (y) = -0.10613 0.25148
# Poissons Ratio (z) = 0.51870 0.49438
#
# Static dielectric constant tensor:
#      x y z
#    x 1.990500 0.000000 0.006800 
#    y 0.000000 1.885650 0.000000 
#    z 0.006800 0.000000 1.832830 
# 
# From -- ./inp_files/150426.got.cif
#   From: 2010.05.17/outbox.cif.g08.bks.cpg/sg12_76_cif.got.tgz:150426.got - 2010.06.03 13:09:07.
