data_PCOD9216560
_publ_section_title
;
Structure prediction by ZEFSAII (Michael W. Deem and Ramdas Pophale) SiO2 
 PCOD9216560
Probable space group: C 2/M
;
_chemical_formula_sum "Si O2"
_cell_formula_units_Z 48
_cell_length_a 20.846978
_cell_length_b 15.918544
_cell_length_c 22.430915
_cell_angle_alpha 90.000000
_cell_angle_beta 161.225532
_cell_angle_gamma 90.000000
_cell_volume 2395.734097
_symmetry_space_group_name_H-M "C 2/M"
_symmetry_group_IT_number 12
_symmetry_cell_setting 'monoclinic'
loop_
_space_group_symop_operation_xyz
x,y,z
-x,y,-z
-x,-y,-z
x,-y,z
1/2+x,1/2+y,z
1/2-x,1/2+y,-z
1/2-x,1/2-y,-z
1/2+x,1/2-y,z
loop_
_atom_site_type_symbol
_atom_site_label
_atom_site_fract_x
_atom_site_fract_y
_atom_site_fract_z
Si Si1 0.342261 0.677960 0.123167
Si Si2 0.038874 0.717150 0.662015
Si Si3 0.834212 0.904353 0.674940
Si Si4 0.444518 0.095899 0.037924
Si Si5 0.682294 0.351996 0.697223
Si Si6 0.907511 0.902833 0.981019
O O1 0.464672 0.720108 0.285114
O O2 0.488109 0.619460 0.213684
O O3 0.250000 0.750000 0.000000
O O4 0.163992 0.627658 0.998452
O O5 0.091095 0.769086 0.648067
O O6 0.224072 0.655413 0.836135
O O7 0.841316 0.662602 0.484216
O O8 0.765511 0.000000 0.603576
O O9 0.927371 0.899820 0.822707
O O10 0.629221 0.155078 0.181490
O O11 0.515197 0.000000 0.105375
O O12 0.282972 0.100200 0.841896
O O13 0.500000 0.391752 0.500000
O O14 0.842635 0.000000 0.917106
O O15 0.000000 0.874415 0.000000
#
# Coordination Sequence:
#
# PCOD9216560 Si02
#       6
#     8   8   8   8   8   8
#     4  11  23  42  67  91 126 169 216 258 311 369
#     4  11  24  38  66  93 126 161 215 260 316 371
#     4  11  24  43  65  91 130 171 209 259 316 376
#     4  10  23  43  64  92 128 164 205 257 313 373
#     4  10  23  37  65  96 125 161 203 256 318 373
#     4  10  23  40  61  91 126 165 210 261 316 373
#
# _framework density 20.035613000000001
#
# number of rings (size 3 to 8) (size 9 to 14) (size 15 to 20)
#    0.000    1.500    1.667    2.500    9.333    1.333 
#    0.000    2.500    0.000    0.000    0.000    0.000 
#    0.000    0.000    0.000    0.000    0.000    0.000 
#
# Total GULP energy -134081.748443 kJ/mol
# GULP energy per Si atom -5586.739518 kJ/mol
# Density = 1.999001 g / cm^3
# Si number density = 20.035613 Si / 1000 Ang^3
#
#
#
# Elastic Constant Matrix: (Units=GPa)
#
#
# Indices 1 2 3 4 5 6 
#
# 1 113.6144 42.6346 39.0469 0.0568 14.4027 0.0762
# 2 42.6346 64.2074 23.3815 0.1504 15.3992 0.2012
# 3 39.0469 23.3815 77.5997 0.2984 5.5824 0.4236
# 4 0.0568 0.1504 0.2984 118.6749 0.0942 126.5698
# 5 14.4027 15.3992 5.5824 0.0942 24.5794 0.1244
# 6 0.0762 0.2012 0.4236 126.5698 0.1244 185.3309
#
#
#
# Elastic Compliance Matrix: (Units=1/GPa)
#
#
# Indices 1 2 3 4 5 6 
#
# 1 0.013079 -0.006434 -0.004454 0.000003 -0.002621 0.000012
# 2 -0.006434 0.023416 -0.003084 -0.000005 -0.010200 -0.000006
# 3 -0.004454 -0.003084 0.015992 -0.000003 0.000910 -0.000030
# 4 0.000003 -0.000005 -0.000003 0.031022 -0.000010 -0.021186
# 5 -0.002621 -0.010200 0.000910 -0.000010 0.048404 -0.000016
# 6 0.000012 -0.000006 -0.000030 -0.021186 -0.000016 0.019865
#
#
# Mechanical properties :
#
#
# Convention : Reuss Voigt Hill
#
# Bulk Modulus (GPa) = 40.74552 51.72749 46.23651
# Shear Modulus (GPa) = 26.60938 75.74095 51.17516
#
# Velocity S-wave (km/s) = 3.64827 6.15510 5.05940
# Velocity P-wave (km/s) = 6.17472 8.73999 7.56686
#
# Compressibility (1/GPa) = 0.02454258
#
# Stress axis : x y z
#
# Youngs Moduli (GPa) = 76.45713 42.70524 62.53184
#
# Poissons Ratio (x) = 0.27477 0.27852
# Poissons Ratio (y) = 0.49193 0.19286
# Poissons Ratio (z) = 0.34055 0.13171
#
# Static dielectric constant tensor:
#      x y z
#    x 1.708100 0.000000 -0.002970 
#    y 0.000000 1.734140 -0.000030 
#    z -0.002970 -0.000030 1.676760 
# 
# From -- ./inp_files/317546.got.cif
#   From: 2010.05.17/outbox.cif.g08.bks.cpg/sg12_159_cif.got.tgz:317546.got - 2010.06.03 13:09:07.
