data_PCOD9216995
_publ_section_title
;
Structure prediction by ZEFSAII (Michael W. Deem and Ramdas Pophale) SiO2 
 PCOD9216995
Probable space group: C 2/M
;
_chemical_formula_sum "Si O2"
_cell_formula_units_Z 48
_cell_length_a 14.144858
_cell_length_b 14.461287
_cell_length_c 17.300923
_cell_angle_alpha 90.000000
_cell_angle_beta 140.063303
_cell_angle_gamma 90.000000
_cell_volume 2271.798601
_symmetry_space_group_name_H-M "C 2/M"
_symmetry_group_IT_number 12
_symmetry_cell_setting 'monoclinic'
loop_
_space_group_symop_operation_xyz
x,y,z
-x,y,-z
-x,-y,-z
x,-y,z
1/2+x,1/2+y,z
1/2-x,1/2+y,-z
1/2-x,1/2-y,-z
1/2+x,1/2-y,z
loop_
_atom_site_type_symbol
_atom_site_label
_atom_site_fract_x
_atom_site_fract_y
_atom_site_fract_z
Si Si1 0.330143 0.110904 0.252359
Si Si2 0.634943 0.171610 0.902186
Si Si3 0.078039 0.744446 0.473394
Si Si4 0.653163 0.896337 0.074706
Si Si5 0.020325 0.106798 0.701853
Si Si6 0.371891 0.309640 0.744245
O O1 0.330214 0.135390 0.161375
O O2 0.476463 0.160500 0.378730
O O3 0.193564 0.153873 0.215844
O O4 0.333549 0.000000 0.264926
O O5 0.473612 0.218396 0.807803
O O6 0.750000 0.250000 0.000000
O O7 0.651843 0.099096 0.981470
O O8 0.231894 0.709530 0.602010
O O9 0.000000 0.785875 0.500000
O O10 0.077984 0.824925 0.410449
O O11 0.810551 0.857421 0.199572
O O12 0.648592 0.000000 0.105430
O O13 0.500000 0.847285 0.000000
O O14 0.971182 0.116705 0.759981
O O15 0.011826 0.000000 0.673399
#
# Coordination Sequence:
#
# PCOD9216995 Si02
#       6
#     8   8   8   8   8   8
#     4  11  25  45  69 100 136 177 222 272 335 400
#     4  12  24  41  67  92 133 172 218 269 332 389
#     4  10  23  42  65  96 134 172 220 275 330 401
#     4  10  23  41  63  91 127 169 217 267 327 396
#     4  11  22  42  66  96 132 172 223 277 335 396
#     4  11  24  42  67  97 132 172 223 274 333 394
#
# _framework density 21.128633000000001
#
# number of rings (size 3 to 8) (size 9 to 14) (size 15 to 20)
#    0.000    1.167    3.333    1.500    7.000    4.000 
#    0.000    1.667    0.000    0.000    0.000    0.000 
#    0.000    0.000    0.000    0.000    0.000    0.000 
#
# Total GULP energy -133923.994879 kJ/mol
# GULP energy per Si atom -5580.166453 kJ/mol
# Density = 2.108054 g / cm^3
# Si number density = 21.128633 Si / 1000 Ang^3
#
#
#
# Elastic Constant Matrix: (Units=GPa)
#
#
# Indices 1 2 3 4 5 6 
#
# 1 123.9238 21.6068 29.2439 0.0000 -8.6299 0.0000
# 2 21.6068 92.7126 1.6916 0.0000 -5.2842 0.0000
# 3 29.2439 1.6916 57.9803 0.0001 -1.7153 0.0001
# 4 0.0000 0.0000 0.0001 1.6435 0.0001 -3.8367
# 5 -8.6299 -5.2842 -1.7153 0.0001 40.0634 0.0000
# 6 0.0000 0.0000 0.0001 -3.8367 0.0000 27.3963
#
#
#
# Elastic Compliance Matrix: (Units=1/GPa)
#
#
# Indices 1 2 3 4 5 6 
#
# 1 0.009668 -0.002075 -0.004768 0.000000 0.001605 0.000000
# 2 -0.002075 0.011317 0.000748 -0.000001 0.001078 0.000000
# 3 -0.004768 0.000748 0.019628 -0.000002 -0.000088 0.000000
# 4 0.000000 -0.000001 -0.000002 0.904015 -0.000002 0.126603
# 5 0.001605 0.001078 -0.000088 -0.000002 0.025445 0.000000
# 6 0.000000 0.000000 0.000000 0.126603 0.000000 0.054231
#
#
# Mechanical properties :
#
#
# Convention : Reuss Voigt Hill
#
# Bulk Modulus (GPa) = 35.18225 42.18902 38.68563
# Shear Modulus (GPa) = 4.78026 28.62559 16.70292
#
# Velocity S-wave (km/s) = 1.50578 3.68479 2.81470
# Velocity P-wave (km/s) = 4.43968 6.17370 5.37705
#
# Compressibility (1/GPa) = 0.02842343
#
# Stress axis : x y z
#
# Youngs Moduli (GPa) = 103.43143 88.36015 50.94795
#
# Poissons Ratio (x) = 0.18332 0.24294
# Poissons Ratio (y) = 0.21459 -0.03812
# Poissons Ratio (z) = 0.49321 -0.06611
#
# Static dielectric constant tensor:
#      x y z
#    x 1.828720 0.000000 0.019670 
#    y 0.000000 1.778580 0.000000 
#    z 0.019670 0.000000 1.759210 
# 
# From -- ./inp_files/270445.got.cif
#   From: 2010.05.17/outbox.cif.g08.bks.cpg/sg12_136_cif.got.tgz:270445.got - 2010.06.03 13:09:07.
