data_PCOD9216787
_publ_section_title
;
Structure prediction by ZEFSAII (Michael W. Deem and Ramdas Pophale) SiO2 
 PCOD9216787
Probable space group: C 2/M
;
_chemical_formula_sum "Si O2"
_cell_formula_units_Z 64
_cell_length_a 28.723689
_cell_length_b 19.127080
_cell_length_c 9.082194
_cell_angle_alpha 90.000000
_cell_angle_beta 139.472264
_cell_angle_gamma 90.000000
_cell_volume 3242.426303
_symmetry_space_group_name_H-M "C 2/M"
_symmetry_group_IT_number 12
_symmetry_cell_setting 'monoclinic'
loop_
_space_group_symop_operation_xyz
x,y,z
-x,y,-z
-x,-y,-z
x,-y,z
1/2+x,1/2+y,z
1/2-x,1/2+y,-z
1/2-x,1/2-y,-z
1/2+x,1/2-y,z
loop_
_atom_site_type_symbol
_atom_site_label
_atom_site_fract_x
_atom_site_fract_y
_atom_site_fract_z
Si Si1 0.159901 0.424871 0.972352
Si Si2 0.315710 0.419296 0.848384
Si Si3 0.073784 0.706708 0.758900
Si Si4 0.691129 0.307546 0.917821
Si Si5 0.330760 0.578993 0.356066
Si Si6 0.584890 0.370482 0.163670
Si Si7 0.577492 0.790762 0.119443
Si Si8 0.166246 0.423588 0.339339
O O1 0.139237 0.500000 0.861924
O O2 0.109168 0.365474 0.789842
O O3 0.244342 0.414827 0.150951
O O4 0.153513 0.425261 0.133846
O O5 0.324488 0.500000 0.918885
O O6 0.386833 0.395236 0.929401
O O7 0.250171 0.418067 0.575159
O O8 0.289091 0.368325 0.915980
O O9 0.132057 0.763704 0.860011
O O10 0.000000 0.719919 0.500000
O O11 0.068061 0.704987 0.920877
O O12 0.651299 0.352764 0.696200
O O13 0.750000 0.250000 0.000000
O O14 0.347650 0.500000 0.342770
O O15 0.368843 0.588317 0.604171
O O16 0.602595 0.287735 0.216766
O O17 0.500000 0.379093 0.000000
O O18 0.627687 0.853070 0.297879
O O19 0.500000 0.800804 0.000000
O O20 0.142089 0.500000 0.340903
#
# Coordination Sequence:
#
# PCOD9216787 Si02
#       8
#     8   8   8   8   8   8   8   8
#     4   9  18  38  63  92 123 159 206 255 311 375
#     4  11  23  42  66  96 130 164 211 267 321 379
#     4  11  24  41  62  91 129 169 210 260 315 375
#     4  12  26  41  63  93 130 171 212 258 315 381
#     4  11  23  41  65  92 126 165 207 259 317 380
#     4  11  24  41  67  99 126 164 220 271 324 380
#     4  10  23  40  63  92 127 165 213 264 318 382
#     4   9  19  36  64  95 125 161 205 263 321 378
#
# _framework density 19.738306000000001
#
# number of rings (size 3 to 8) (size 9 to 14) (size 15 to 20)
#    0.000    1.500    3.750    0.750    5.250    2.000 
#    0.000    0.000    0.000    2.250    0.000    0.000 
#    0.000    0.000    0.000    0.000    0.000    0.000 
#
# Total GULP energy -178308.402138 kJ/mol
# GULP energy per Si atom -5572.137567 kJ/mol
# Density = 1.969338 g / cm^3
# Si number density = 19.738306 Si / 1000 Ang^3
#
#
#
# Elastic Constant Matrix: (Units=GPa)
#
#
# Indices 1 2 3 4 5 6 
#
# 1 86.5498 59.1866 21.8855 0.0000 3.5361 0.0000
# 2 59.1866 130.0947 17.6163 0.0000 9.8566 0.0000
# 3 21.8855 17.6163 41.3285 0.0000 1.4199 0.0000
# 4 0.0000 0.0000 0.0000 21.9024 0.0000 -14.8136
# 5 3.5361 9.8566 1.4199 0.0000 20.7924 0.0000
# 6 0.0000 0.0000 0.0000 -14.8136 0.0000 -3.8070
#
#
#
# Elastic Compliance Matrix: (Units=1/GPa)
#
#
# Indices 1 2 3 4 5 6 
#
# 1 0.018303 -0.007512 -0.006521 0.000000 0.000893 0.000000
# 2 -0.007512 0.011525 -0.000793 0.000000 -0.004132 0.000000
# 3 -0.006521 -0.000793 0.028002 0.000000 -0.000427 0.000000
# 4 0.000000 0.000000 0.000000 0.012572 0.000000 -0.048918
# 5 0.000893 -0.004132 -0.000427 0.000000 0.049930 0.000000
# 6 0.000000 0.000000 0.000000 -0.048918 0.000000 -0.072327
#
#
# Mechanical properties :
#
#
# Convention : Reuss Voigt Hill
#
# Bulk Modulus (GPa) = 35.48761 50.59443 43.04102
# Shear Modulus (GPa) = 57.43869 18.39654 37.91761
#
# Velocity S-wave (km/s) = 5.40030 3.05622 4.38770
# Velocity P-wave (km/s) = 7.54337 6.17594 6.89364
#
# Compressibility (1/GPa) = 0.02817885
#
# Stress axis : x y z
#
# Youngs Moduli (GPa) = 54.63445 86.77137 35.71139
#
# Poissons Ratio (x) = 0.65181 0.23289
# Poissons Ratio (y) = 0.41040 0.02830
# Poissons Ratio (z) = 0.35629 0.06877
#
# Static dielectric constant tensor:
#      x y z
#    x 1.736250 0.000000 -0.038300 
#    y 0.000000 1.771590 0.000000 
#    z -0.038300 0.000000 1.671980 
# 
# From -- ./inp_files/112915.got.cif
#   From: 2010.05.17/outbox.cif.g08.bks.cpg/sg12_57_cif.got.tgz:112915.got - 2010.06.03 13:09:07.
