data_PCOD9216825
_publ_section_title
;
Structure prediction by ZEFSAII (Michael W. Deem and Ramdas Pophale) SiO2 
 PCOD9216825
Probable space group: C 2/M
;
_chemical_formula_sum "Si O2"
_cell_formula_units_Z 52
_cell_length_a 23.003026
_cell_length_b 18.635186
_cell_length_c 4.993100
_cell_angle_alpha 90.000000
_cell_angle_beta 72.033083
_cell_angle_gamma 90.000000
_cell_volume 2035.994920
_symmetry_space_group_name_H-M "C 2/M"
_symmetry_group_IT_number 12
_symmetry_cell_setting 'monoclinic'
loop_
_space_group_symop_operation_xyz
x,y,z
-x,y,-z
-x,-y,-z
x,-y,z
1/2+x,1/2+y,z
1/2-x,1/2+y,-z
1/2-x,1/2-y,-z
1/2+x,1/2-y,z
loop_
_atom_site_type_symbol
_atom_site_label
_atom_site_fract_x
_atom_site_fract_y
_atom_site_fract_z
Si Si1 0.428635 0.075995 0.152166
Si Si2 0.930889 0.081260 0.724635
Si Si3 0.675043 0.082079 0.307438
Si Si4 0.709261 0.178491 0.759844
Si Si5 0.500000 0.660409 0.000000
Si Si6 0.158220 0.210965 0.199265
Si Si7 0.551047 0.791554 0.622449
O O1 0.395832 0.076054 0.493075
O O2 0.429236 0.163284 0.140751
O O3 0.402249 0.000000 0.071525
O O4 0.500000 0.066793 0.000000
O O5 0.945079 0.108070 0.005377
O O6 0.879239 0.137475 0.721867
O O7 0.000000 0.085241 0.500000
O O8 0.910568 0.000000 0.730315
O O9 0.684581 0.118416 0.006984
O O10 0.699291 0.000000 0.281983
O O11 0.704603 0.135937 0.486143
O O12 0.675086 0.253448 0.886746
O O13 0.778570 0.198182 0.737429
O O14 0.519591 0.717133 0.749913
O O15 0.112596 0.269296 0.388361
O O16 0.500000 0.827355 0.500000
#
# Coordination Sequence:
#
# PCOD9216825 Si02
#       7
#     8   8   8   8   4   8   8
#     4  10  23  40  65 103 139 179 228 286 348 414
#     4  11  24  43  65  96 133 170 220 287 359 418
#     4  11  25  48  72 103 146 186 232 288 349 414
#     4  11  27  45  74 102 140 190 240 287 346 414
#     4  12  21  38  69 100 132 174 220 278 359 424
#     4  11  24  46  66  99 137 179 237 294 345 422
#     4  12  23  40  67 100 131 181 225 285 346 417
#
# _framework density 25.540336
#
# number of rings (size 3 to 8) (size 9 to 14) (size 15 to 20)
#    0.000    0.923    5.385    0.692    4.308    5.231 
#    0.000    0.000    0.000    0.000    0.000    0.000 
#    0.000    0.000    0.000    0.000    0.000    0.000 
#
# Total GULP energy -144859.371016 kJ/mol
# GULP energy per Si atom -5571.514270 kJ/mol
# Density = 2.548221 g / cm^3
# Si number density = 25.540336 Si / 1000 Ang^3
#
#
#
# Elastic Constant Matrix: (Units=GPa)
#
#
# Indices 1 2 3 4 5 6 
#
# 1 118.0951 60.4406 22.2516 0.0000 -10.2249 0.0000
# 2 60.4406 226.3076 26.6524 0.0000 2.5280 0.0000
# 3 22.2516 26.6524 61.7036 0.0000 3.4180 0.0000
# 4 0.0000 0.0000 0.0000 1103.5519 0.0000 -913.1601
# 5 -10.2249 2.5280 3.4180 0.0000 36.0078 0.0000
# 6 0.0000 0.0000 0.0000 -913.1601 0.0000 860.4965
#
#
#
# Elastic Compliance Matrix: (Units=1/GPa)
#
#
# Indices 1 2 3 4 5 6 
#
# 1 0.010614 -0.002529 -0.002928 0.000000 0.003469 0.000000
# 2 -0.002529 0.005259 -0.001306 0.000000 -0.000963 0.000000
# 3 -0.002928 -0.001306 0.017962 0.000000 -0.002445 0.000000
# 4 0.000000 0.000000 0.000000 0.007435 0.000000 0.007890
# 5 0.003469 -0.000963 -0.002445 0.000000 0.029057 0.000000
# 6 0.000000 0.000000 0.000000 0.007890 0.000000 0.009535
#
#
# Mechanical properties :
#
#
# Convention : Reuss Voigt Hill
#
# Bulk Modulus (GPa) = 49.23770 69.42173 59.32972
# Shear Modulus (GPa) = 49.92258 419.79535 234.85897
#
# Velocity S-wave (km/s) = 4.42595 12.83442 9.59978
# Velocity P-wave (km/s) = 6.74084 15.71210 12.08944
#
# Compressibility (1/GPa) = 0.02030964
#
# Stress axis : x y z
#
# Youngs Moduli (GPa) = 94.21605 190.16123 55.67352
#
# Poissons Ratio (x) = 0.48085 0.16299
# Poissons Ratio (y) = 0.23824 0.07272
# Poissons Ratio (z) = 0.27582 0.24839
#
# Static dielectric constant tensor:
#      x y z
#    x 2.136920 0.000000 0.072290 
#    y 0.000000 2.058510 0.000000 
#    z 0.072290 0.000000 2.119630 
# 
# From -- ./inp_files/28475.got.cif
#   From: 2010.05.17/outbox.cif.g08.bks.cpg/sg12_15_cif.got.tgz:28475.got - 2010.06.03 13:09:07.
