data_PCOD9216610
_publ_section_title
;
Structure prediction by ZEFSAII (Michael W. Deem and Ramdas Pophale) SiO2 
 PCOD9216610
Probable space group: C 2/M
;
_chemical_formula_sum "Si O2"
_cell_formula_units_Z 56
_cell_length_a 14.095175
_cell_length_b 21.701989
_cell_length_c 8.143715
_cell_angle_alpha 90.000000
_cell_angle_beta 77.013408
_cell_angle_gamma 90.000000
_cell_volume 2427.392253
_symmetry_space_group_name_H-M "C 2/M"
_symmetry_group_IT_number 12
_symmetry_cell_setting 'monoclinic'
loop_
_space_group_symop_operation_xyz
x,y,z
-x,y,-z
-x,-y,-z
x,-y,z
1/2+x,1/2+y,z
1/2-x,1/2+y,-z
1/2-x,1/2-y,-z
1/2+x,1/2-y,z
loop_
_atom_site_type_symbol
_atom_site_label
_atom_site_fract_x
_atom_site_fract_y
_atom_site_fract_z
Si Si1 0.743738 0.176798 0.044001
Si Si2 0.555241 0.870661 0.643855
Si Si3 0.153778 0.568579 0.883172
Si Si4 0.143467 0.932333 0.403462
Si Si5 0.450412 0.264256 0.344473
Si Si6 0.263639 0.332070 0.420170
Si Si7 0.453273 0.624612 0.860090
O O1 0.735843 0.169013 0.241115
O O2 0.750000 0.250000 0.000000
O O3 0.666191 0.130546 0.987711
O O4 0.846890 0.148841 0.949188
O O5 0.500000 0.891050 0.500000
O O6 0.568006 0.918651 0.785071
O O7 0.515278 0.804124 0.716763
O O8 0.664370 0.850571 0.548949
O O9 0.143313 0.500000 0.964417
O O10 0.255454 0.565764 0.740890
O O11 0.162794 0.884976 0.542146
O O12 0.062679 0.912234 0.302275
O O13 0.124455 0.000000 0.475653
O O14 0.500000 0.276782 0.500000
O O15 0.334972 0.273249 0.414337
O O16 0.483969 0.314579 0.201964
O O17 0.500000 0.591749 0.000000
#
# Coordination Sequence:
#
# PCOD9216610 Si02
#       7
#     8   8   8   8   8   8   8
#     4  11  24  37  62  95 127 166 201 253 315 376
#     4  10  23  38  63  91 112 159 207 257 307 362
#     4   9  20  41  62  86 123 163 204 256 313 367
#     4   9  20  39  62  86 121 167 210 247 297 369
#     4  11  21  36  60  90 126 157 199 252 305 367
#     4  11  21  39  60  87 124 158 205 254 305 364
#     4  11  22  38  58  91 130 161 197 252 311 370
#
# _framework density 23.070025999999999
#
# number of rings (size 3 to 8) (size 9 to 14) (size 15 to 20)
#    0.000    1.714    2.857    1.286    4.000    1.143 
#    0.000    2.143    0.000    0.857    0.000    0.000 
#    0.000    0.000    0.000    0.000    0.000    0.000 
#
# Total GULP energy -156287.428300 kJ/mol
# GULP energy per Si atom -5581.693868 kJ/mol
# Density = 2.301752 g / cm^3
# Si number density = 23.070026 Si / 1000 Ang^3
#
#
#
# Elastic Constant Matrix: (Units=GPa)
#
#
# Indices 1 2 3 4 5 6 
#
# 1 76.1910 11.1701 7.4368 0.0000 28.3885 0.0000
# 2 11.1701 114.7650 47.7145 0.0000 39.4414 0.0000
# 3 7.4368 47.7145 78.5119 0.0000 37.9689 0.0000
# 4 0.0000 0.0000 0.0000 110.1206 0.0000 -1.0568
# 5 28.3885 39.4414 37.9689 0.0000 50.3313 0.0000
# 6 0.0000 0.0000 0.0000 -1.0568 0.0000 10.4202
#
#
#
# Elastic Compliance Matrix: (Units=1/GPa)
#
#
# Indices 1 2 3 4 5 6 
#
# 1 0.017925 0.001399 0.004521 0.000000 -0.014617 0.000000
# 2 0.001399 0.013031 -0.004301 0.000000 -0.007756 0.000000
# 3 0.004521 -0.004301 0.022869 0.000000 -0.016431 0.000000
# 4 0.000000 0.000000 0.000000 0.009090 0.000000 0.000922
# 5 -0.014617 -0.007756 -0.016431 0.000000 0.046586 0.000000
# 6 0.000000 0.000000 0.000000 0.000922 0.000000 0.096061
#
#
# Mechanical properties :
#
#
# Convention : Reuss Voigt Hill
#
# Bulk Modulus (GPa) = 17.52469 44.67896 31.10183
# Shear Modulus (GPa) = 22.58926 47.71753 35.15339
#
# Velocity S-wave (km/s) = 3.13255 4.55288 3.90778
# Velocity P-wave (km/s) = 4.54935 6.85908 5.81995
#
# Compressibility (1/GPa) = 0.05706234
#
# Stress axis : x y z
#
# Youngs Moduli (GPa) = 55.78882 76.73992 43.72775
#
# Poissons Ratio (x) = -0.10739 -0.19767
# Poissons Ratio (y) = -0.07807 0.18807
# Poissons Ratio (z) = -0.25220 0.33006
#
# Static dielectric constant tensor:
#      x y z
#    x 2.269940 0.000000 -0.212190 
#    y 0.000000 1.883230 0.000000 
#    z -0.212190 0.000000 1.958800 
# 
# From -- ./inp_files/64100.got.cif
#   From: 2010.05.17/outbox.cif.g08.bks.cpg/sg12_33_cif.got.tgz:64100.got - 2010.06.03 13:09:07.
