data_PCOD9216294
_publ_section_title
;
Structure prediction by ZEFSAII (Michael W. Deem and Ramdas Pophale) SiO2 
 PCOD9216294
Probable space group: C 2/M
;
_chemical_formula_sum "Si O2"
_cell_formula_units_Z 44
_cell_length_a 15.074115
_cell_length_b 9.967743
_cell_length_c 25.219236
_cell_angle_alpha 90.000000
_cell_angle_beta 146.879898
_cell_angle_gamma 90.000000
_cell_volume 2070.465338
_symmetry_space_group_name_H-M "C 2/M"
_symmetry_group_IT_number 12
_symmetry_cell_setting 'monoclinic'
loop_
_space_group_symop_operation_xyz
x,y,z
-x,y,-z
-x,-y,-z
x,-y,z
1/2+x,1/2+y,z
1/2-x,1/2+y,-z
1/2-x,1/2-y,-z
1/2+x,1/2-y,z
loop_
_atom_site_type_symbol
_atom_site_label
_atom_site_fract_x
_atom_site_fract_y
_atom_site_fract_z
Si Si1 0.630340 0.500000 0.947509
Si Si2 0.187010 0.000000 0.857965
Si Si3 0.769149 0.839993 0.630679
Si Si4 0.573870 0.720301 0.095610
Si Si5 0.078577 0.744170 0.739723
Si Si6 0.974834 0.500000 0.079691
Si Si7 0.979754 0.342495 0.401948
O O1 0.588712 0.500000 0.864054
O O2 0.550079 0.627369 0.934413
O O3 0.827294 0.500000 0.048597
O O4 0.153934 0.873551 0.805704
O O5 0.366623 0.000000 0.971762
O O6 0.631482 0.819495 0.516907
O O7 0.681226 0.823059 0.643052
O O8 0.914484 0.735662 0.692367
O O9 0.816570 0.000000 0.649527
O O10 0.755186 0.658978 0.181487
O O11 0.573112 0.862348 0.126575
O O12 0.500000 0.732840 0.000000
O O13 0.018473 0.748375 0.649160
O O14 0.985672 0.500000 0.388851
#
# Coordination Sequence:
#
# PCOD9216294 Si02
#       7
#     4   4   8   8   8   4   8
#     4  10  25  42  65  86 130 168 221 261 315 367
#     4  10  23  41  62  86 117 174 206 260 302 385
#     4   9  19  39  63  91 122 162 210 256 316 377
#     4  12  23  40  64  95 130 168 209 263 317 376
#     4  12  22  34  67  89 128 157 215 250 313 376
#     4  10  22  44  62  86 126 172 212 252 317 373
#     4   9  21  39  64  91 122 161 207 264 317 374
#
# _framework density 21.251261
#
# number of rings (size 3 to 8) (size 9 to 14) (size 15 to 20)
#    0.545    1.091    2.727    3.273    3.818    0.000 
#    0.000    0.000    4.000    1.091    0.000    0.000 
#    0.000    0.000    0.000    0.000    0.000    0.000 
#
# Total GULP energy -122545.008138 kJ/mol
# GULP energy per Si atom -5570.227643 kJ/mol
# Density = 2.120289 g / cm^3
# Si number density = 21.251261 Si / 1000 Ang^3
#
#
#
# Elastic Constant Matrix: (Units=GPa)
#
#
# Indices 1 2 3 4 5 6 
#
# 1 114.6812 37.9446 4.8589 0.0000 30.7714 0.0000
# 2 37.9446 56.9951 -5.4471 0.0000 6.0691 0.0000
# 3 4.8589 -5.4471 36.8781 0.0000 27.8731 0.0000
# 4 0.0000 0.0000 0.0000 -78.0771 0.0000 -60.6201
# 5 30.7714 6.0691 27.8731 0.0000 49.8085 0.0000
# 6 0.0000 0.0000 0.0000 -60.6201 0.0000 -21.3967
#
#
#
# Elastic Compliance Matrix: (Units=1/GPa)
#
#
# Indices 1 2 3 4 5 6 
#
# 1 0.013806 -0.007630 0.004849 0.000000 -0.010313 0.000000
# 2 -0.007630 0.023235 0.005224 0.000000 -0.001041 0.000000
# 3 0.004849 0.005224 0.051979 0.000000 -0.032720 0.000000
# 4 0.000000 0.000000 0.000000 0.010676 0.000000 -0.030247
# 5 -0.010313 -0.001041 -0.032720 0.000000 0.044885 0.000000
# 6 0.000000 0.000000 0.000000 -0.030247 0.000000 0.038957
#
#
# Mechanical properties :
#
#
# Convention : Reuss Voigt Hill
#
# Bulk Modulus (GPa) = 10.64895 31.47414 21.06154
# Shear Modulus (GPa) = 23.81463 1.48015 12.64739
#
# Velocity S-wave (km/s) = 3.35120 0.83547 2.44219
# Velocity P-wave (km/s) = 4.47168 3.97156 4.22902
#
# Compressibility (1/GPa) = 0.09390601
#
# Stress axis : x y z
#
# Youngs Moduli (GPa) = 72.43184 43.03845 19.23838
#
# Poissons Ratio (x) = 0.32838 -0.09328
# Poissons Ratio (y) = 0.55264 -0.10050
# Poissons Ratio (z) = -0.35120 -0.22483
#
# Static dielectric constant tensor:
#      x y z
#    x 1.801420 0.000000 0.067170 
#    y 0.000000 1.771120 0.000000 
#    z 0.067170 0.000000 1.815190 
# 
# From -- ./inp_files/335764.got.cif
#   From: 2010.05.17/outbox.cif.g08.bks.cpg/sg12_168_cif.got.tgz:335764.got - 2010.06.03 13:09:07.
