data_PCOD9216701
_publ_section_title
;
Structure prediction by ZEFSAII (Michael W. Deem and Ramdas Pophale) SiO2 
 PCOD9216701
Probable space group: C 2/M
;
_chemical_formula_sum "Si O2"
_cell_formula_units_Z 40
_cell_length_a 29.832516
_cell_length_b 9.113795
_cell_length_c 11.398997
_cell_angle_alpha 90.000000
_cell_angle_beta 37.385957
_cell_angle_gamma 90.000000
_cell_volume 1881.802457
_symmetry_space_group_name_H-M "C 2/M"
_symmetry_group_IT_number 12
_symmetry_cell_setting 'monoclinic'
loop_
_space_group_symop_operation_xyz
x,y,z
-x,y,-z
-x,-y,-z
x,-y,z
1/2+x,1/2+y,z
1/2-x,1/2+y,-z
1/2-x,1/2-y,-z
1/2+x,1/2-y,z
loop_
_atom_site_type_symbol
_atom_site_label
_atom_site_fract_x
_atom_site_fract_y
_atom_site_fract_z
Si Si1 0.123682 0.737310 0.755921
Si Si2 0.240876 0.844256 0.685755
Si Si3 0.513165 0.167003 0.807663
Si Si4 0.207129 0.675525 0.980902
Si Si5 0.950649 0.169385 0.718270
O O1 0.167424 0.836014 0.758343
O O2 0.191312 0.663666 0.545902
O O3 0.068544 0.774401 0.763357
O O4 0.064213 0.655912 0.961328
O O5 0.243301 0.000000 0.744459
O O6 0.242101 0.718590 0.781292
O O7 0.494691 0.238941 0.723460
O O8 0.543434 0.000000 0.737382
O O9 0.204347 0.500000 0.999371
O O10 0.126123 0.747942 0.144481
O O11 0.250000 0.750000 0.000000
O O12 0.000000 0.166656 0.500000
O O13 0.937573 0.000000 0.782484
#
# Coordination Sequence:
#
# PCOD9216701 Si02
#       5
#     8   8   8   8   8
#     4  10  23  39  66 100 137 176 221 268 327 395
#     4  11  23  42  67  99 138 177 221 273 334 396
#     4  11  22  41  68  98 133 175 225 272 324 394
#     4  12  27  47  72  98 132 176 225 278 335 397
#     4  11  26  47  69  99 135 171 220 280 338 399
#
# _framework density 21.256215000000001
#
# number of rings (size 3 to 8) (size 9 to 14) (size 15 to 20)
#    0.000    1.000    2.000    4.800    2.800    6.400 
#    0.000    2.000    0.000    0.000    0.000    0.000 
#    0.000    0.000    0.000    0.000    0.000    0.000 
#
# Total GULP energy -111516.649726 kJ/mol
# GULP energy per Si atom -5575.832486 kJ/mol
# Density = 2.120783 g / cm^3
# Si number density = 21.256215 Si / 1000 Ang^3
#
#
#
# Elastic Constant Matrix: (Units=GPa)
#
#
# Indices 1 2 3 4 5 6 
#
# 1 151.9049 39.8679 24.0975 0.0000 7.3299 0.0000
# 2 39.8679 113.9486 23.7148 0.0000 8.7390 0.0000
# 3 24.0975 23.7148 75.7133 0.0000 3.4031 0.0000
# 4 0.0000 0.0000 0.0000 44.5569 0.0000 9.5573
# 5 7.3299 8.7390 3.4031 0.0000 34.0382 0.0000
# 6 0.0000 0.0000 0.0000 9.5573 0.0000 18.5093
#
#
#
# Elastic Compliance Matrix: (Units=1/GPa)
#
#
# Indices 1 2 3 4 5 6 
#
# 1 0.007464 -0.002202 -0.001647 0.000000 -0.000878 0.000000
# 2 -0.002202 0.010193 -0.002406 0.000000 -0.001902 0.000000
# 3 -0.001647 -0.002406 0.014507 0.000000 -0.000478 0.000000
# 4 0.000000 0.000000 0.000000 0.025238 0.000000 -0.013032
# 5 -0.000878 -0.001902 -0.000478 0.000000 0.030104 0.000000
# 6 0.000000 0.000000 0.000000 -0.013032 0.000000 0.060756
#
#
# Mechanical properties :
#
#
# Convention : Reuss Voigt Hill
#
# Bulk Modulus (GPa) = 50.87777 57.43635 54.15706
# Shear Modulus (GPa) = 29.88217 36.34666 33.11441
#
# Velocity S-wave (km/s) = 3.75348 4.13962 3.95127
# Velocity P-wave (km/s) = 6.54005 7.06599 6.80810
#
# Compressibility (1/GPa) = 0.01965495
#
# Stress axis : x y z
#
# Youngs Moduli (GPa) = 133.96813 98.10768 68.93211
#
# Poissons Ratio (x) = 0.21600 0.11351
# Poissons Ratio (y) = 0.29495 0.16588
# Poissons Ratio (z) = 0.22061 0.23608
#
# Static dielectric constant tensor:
#      x y z
#    x 1.763840 0.000000 -0.003160 
#    y 0.000000 1.795550 0.000000 
#    z -0.003160 0.000000 1.766540 
# 
# From -- ./inp_files/186188.got.cif
#   From: 2010.05.17/outbox.cif.g08.bks.cpg/sg12_94_cif.got.tgz:186188.got - 2010.06.03 13:09:07.
