data_PCOD9216464
_publ_section_title
;
Structure prediction by ZEFSAII (Michael W. Deem and Ramdas Pophale) SiO2 
 PCOD9216464
Probable space group: C 2/M
;
_chemical_formula_sum "Si O2"
_cell_formula_units_Z 52
_cell_length_a 14.486732
_cell_length_b 28.591984
_cell_length_c 6.462364
_cell_angle_alpha 90.000000
_cell_angle_beta 125.487532
_cell_angle_gamma 90.000000
_cell_volume 2179.513496
_symmetry_space_group_name_H-M "C 2/M"
_symmetry_group_IT_number 12
_symmetry_cell_setting 'monoclinic'
loop_
_space_group_symop_operation_xyz
x,y,z
-x,y,-z
-x,-y,-z
x,-y,z
1/2+x,1/2+y,z
1/2-x,1/2+y,-z
1/2-x,1/2-y,-z
1/2+x,1/2-y,z
loop_
_atom_site_type_symbol
_atom_site_label
_atom_site_fract_x
_atom_site_fract_y
_atom_site_fract_z
Si Si1 0.341520 0.946184 0.481115
Si Si2 0.340379 0.697156 0.969786
Si Si3 0.000000 0.750531 0.500000
Si Si4 0.120678 0.283831 0.270137
Si Si5 0.908212 0.445012 0.088010
Si Si6 0.757181 0.861218 0.235695
Si Si7 0.109603 0.109351 0.243510
O O1 0.457621 0.932578 0.752183
O O2 0.226027 0.918283 0.357906
O O3 0.317205 0.000000 0.497781
O O4 0.378933 0.943785 0.293216
O O5 0.430627 0.718952 0.246598
O O6 0.258294 0.670374 0.027685
O O7 0.323907 0.739699 0.782302
O O8 0.385039 0.655656 0.888174
O O9 0.913306 0.722482 0.533968
O O10 0.198010 0.328129 0.327963
O O11 0.000000 0.291682 0.000000
O O12 0.894253 0.500000 0.012709
O O13 0.817559 0.407443 0.889687
O O14 0.877689 0.875831 0.497406
O O15 0.000000 0.084086 0.000000
#
# Coordination Sequence:
#
# PCOD9216464 Si02
#       7
#     8   8   4   8   8   8   8
#     4   9  20  44  74 103 145 188 235 304 370 437
#     4  11  22  44  65  98 142 195 241 298 362 426
#     4  10  22  46  70  94 144 198 238 302 368 434
#     4  10  24  42  67 103 140 183 242 308 369 429
#     4   9  20  44  76 110 143 184 236 304 381 434
#     4  12  25  41  73 107 138 192 248 300 364 442
#     4  12  26  41  65 102 143 194 248 292 362 430
#
# _framework density 23.858536999999998
#
# number of rings (size 3 to 8) (size 9 to 14) (size 15 to 20)
#    0.000    1.538    1.538    4.615    2.154    5.846 
#    0.000    1.538    0.000    1.846    0.000    0.538 
#    0.000    0.000    0.000    0.000    0.000    0.000 
#
# Total GULP energy -145228.713018 kJ/mol
# GULP energy per Si atom -5585.719731 kJ/mol
# Density = 2.380423 g / cm^3
# Si number density = 23.858537 Si / 1000 Ang^3
#
#
#
# Elastic Constant Matrix: (Units=GPa)
#
#
# Indices 1 2 3 4 5 6 
#
# 1 125.3984 59.0924 64.9041 0.0000 9.7006 0.0000
# 2 59.0924 88.6644 72.3847 0.0000 5.3314 0.0000
# 3 64.9041 72.3847 172.2369 0.0000 4.6806 0.0000
# 4 0.0000 0.0000 0.0000 33.1650 0.0000 -3.5028
# 5 9.7006 5.3314 4.6806 0.0000 35.4382 0.0000
# 6 0.0000 0.0000 0.0000 -3.5028 0.0000 44.3730
#
#
#
# Elastic Compliance Matrix: (Units=1/GPa)
#
#
# Indices 1 2 3 4 5 6 
#
# 1 0.012121 -0.006499 -0.001779 0.000000 -0.002105 0.000000
# 2 -0.006499 0.020749 -0.006257 0.000000 -0.000516 0.000000
# 3 -0.001779 -0.006257 0.009100 0.000000 0.000226 0.000000
# 4 0.000000 0.000000 0.000000 0.030406 0.000000 0.002400
# 5 -0.002105 -0.000516 0.000226 0.000000 0.028842 0.000000
# 6 0.000000 0.000000 0.000000 0.002400 0.000000 0.022726
#
#
# Mechanical properties :
#
#
# Convention : Reuss Voigt Hill
#
# Bulk Modulus (GPa) = 77.52267 86.56245 82.04256
# Shear Modulus (GPa) = 31.78362 35.25648 33.52005
#
# Velocity S-wave (km/s) = 3.65385 3.84830 3.75233
# Velocity P-wave (km/s) = 7.09676 7.49040 7.29624
#
# Compressibility (1/GPa) = 0.01289945
#
# Stress axis : x y z
#
# Youngs Moduli (GPa) = 82.50205 48.19439 109.89385
#
# Poissons Ratio (x) = 0.31324 0.19549
# Poissons Ratio (y) = 0.53622 0.68760
# Poissons Ratio (z) = 0.14676 0.30155
#
# Static dielectric constant tensor:
#      x y z
#    x 1.979910 0.000000 -0.007060 
#    y 0.000000 1.862770 0.000000 
#    z -0.007060 0.000000 2.066900 
# 
# From -- ./inp_files/13203.got.cif
#   From: 2010.05.17/outbox.cif.g08.bks.cpg/sg12_7_cif.got.tgz:13203.got - 2010.06.03 13:09:07.
