data_PCOD9216897
_publ_section_title
;
Structure prediction by ZEFSAII (Michael W. Deem and Ramdas Pophale) SiO2 
 PCOD9216897
Probable space group: C 2/M
;
_chemical_formula_sum "Si O2"
_cell_formula_units_Z 48
_cell_length_a 9.039654
_cell_length_b 29.974898
_cell_length_c 8.151836
_cell_angle_alpha 90.000000
_cell_angle_beta 88.478164
_cell_angle_gamma 90.000000
_cell_volume 2208.064434
_symmetry_space_group_name_H-M "C 2/M"
_symmetry_group_IT_number 12
_symmetry_cell_setting 'monoclinic'
loop_
_space_group_symop_operation_xyz
x,y,z
-x,y,-z
-x,-y,-z
x,-y,z
1/2+x,1/2+y,z
1/2-x,1/2+y,-z
1/2-x,1/2-y,-z
1/2+x,1/2-y,z
loop_
_atom_site_type_symbol
_atom_site_label
_atom_site_fract_x
_atom_site_fract_y
_atom_site_fract_z
Si Si1 0.696732 0.903937 0.320040
Si Si2 0.308050 0.197120 0.167313
Si Si3 0.839935 0.401415 0.296321
Si Si4 0.633460 0.671269 0.875824
Si Si5 0.813934 0.500000 0.682166
Si Si6 0.345379 0.000000 0.282693
Si Si7 0.033264 0.755396 0.313758
O O1 0.519464 0.903100 0.297032
O O2 0.715713 0.897035 0.514438
O O3 0.777021 0.867700 0.210362
O O4 0.756294 0.953039 0.273024
O O5 0.298959 0.144266 0.207260
O O6 0.470750 0.215909 0.200042
O O7 0.199215 0.227025 0.283429
O O8 0.240623 0.200098 0.988478
O O9 0.790061 0.450566 0.231631
O O10 0.561759 0.701760 0.738520
O O11 0.500000 0.656705 0.000000
O O12 0.831085 0.500000 0.482660
O O13 0.978484 0.500000 0.753452
O O14 0.000000 0.741950 0.500000
#
# Coordination Sequence:
#
# PCOD9216897 Si02
#       7
#     8   8   8   8   4   4   8
#     4   9  17  33  59  86 119 152 198 243 292 345
#     4  11  24  39  58  89 122 155 198 240 305 354
#     4   9  18  32  60  91 115 149 196 246 296 345
#     4  10  23  41  56  81 120 165 194 237 296 356
#     4   7  12  26  52  86 114 150 189 242 291 340
#     4   7  12  28  51  86 121 142 183 247 296 339
#     4  11  24  41  62  83 116 155 207 251 289 348
#
# _framework density 21.738498
#
# number of rings (size 3 to 8) (size 9 to 14) (size 15 to 20)
#    0.000    2.500    0.000    4.000    4.667    0.667 
#    0.000    1.250    0.000    6.000    0.000   15.167 
#    0.000    0.000    0.000    0.000    0.000    0.000 
#
# Total GULP energy -133952.843725 kJ/mol
# GULP energy per Si atom -5581.368489 kJ/mol
# Density = 2.168902 g / cm^3
# Si number density = 21.738498 Si / 1000 Ang^3
#
#
#
# Elastic Constant Matrix: (Units=GPa)
#
#
# Indices 1 2 3 4 5 6 
#
# 1 54.5903 35.4760 29.0863 0.0000 -11.0837 0.0000
# 2 35.4760 125.5147 10.4771 0.0000 -23.7471 0.0000
# 3 29.0863 10.4771 30.7234 0.0000 -7.8486 0.0000
# 4 0.0000 0.0000 0.0000 -459.2985 0.0000 -195.7332
# 5 -11.0837 -23.7471 -7.8486 0.0000 24.0130 0.0000
# 6 0.0000 0.0000 0.0000 -195.7332 0.0000 -49.7060
#
#
#
# Elastic Compliance Matrix: (Units=1/GPa)
#
#
# Indices 1 2 3 4 5 6 
#
# 1 0.046156 -0.010005 -0.040774 0.000000 -0.001917 0.000000
# 2 -0.010005 0.011995 0.007891 0.000000 0.009823 0.000000
# 3 -0.040774 0.007891 0.071625 0.000000 0.012393 0.000000
# 4 0.000000 0.000000 0.000000 0.003211 0.000000 -0.012643
# 5 -0.001917 0.009823 0.012393 0.000000 0.054524 0.000000
# 6 0.000000 0.000000 0.000000 -0.012643 0.000000 0.029667
#
#
# Mechanical properties :
#
#
# Convention : Reuss Voigt Hill
#
# Bulk Modulus (GPa) = 22.72771 40.10081 31.41426
# Shear Modulus (GPa) = 15.74202 -87.94569 -36.10183
#
# Velocity S-wave (km/s) = 2.69393 -6.36742 -4.07963
# Velocity P-wave (km/s) = 4.48933 5.96420 2.77648
#
# Compressibility (1/GPa) = 0.04399916
#
# Stress axis : x y z
#
# Youngs Moduli (GPa) = 21.66579 83.36932 13.96157
#
# Poissons Ratio (x) = 0.83409 0.56927
# Poissons Ratio (y) = 0.21676 -0.11017
# Poissons Ratio (z) = 0.88340 -0.65784
#
# Static dielectric constant tensor:
#      x y z
#    x 1.807800 0.000000 -0.002960 
#    y 0.000000 1.826070 0.000000 
#    z -0.002960 0.000000 1.777230 
# 
# From -- ./inp_files/42315.got.cif
#   From: 2010.05.17/outbox.cif.g08.bks.cpg/sg12_22_cif.got.tgz:42315.got - 2010.06.03 13:09:07.
