data_PCOD9216210
_publ_section_title
;
Structure prediction by ZEFSAII (Michael W. Deem and Ramdas Pophale) SiO2 
 PCOD9216210
Probable space group: C 2/M
;
_chemical_formula_sum "Si O2"
_cell_formula_units_Z 48
_cell_length_a 10.005823
_cell_length_b 14.408377
_cell_length_c 31.969872
_cell_angle_alpha 90.000000
_cell_angle_beta 145.589511
_cell_angle_gamma 90.000000
_cell_volume 2604.641479
_symmetry_space_group_name_H-M "C 2/M"
_symmetry_group_IT_number 12
_symmetry_cell_setting 'monoclinic'
loop_
_space_group_symop_operation_xyz
x,y,z
-x,y,-z
-x,-y,-z
x,-y,z
1/2+x,1/2+y,z
1/2-x,1/2+y,-z
1/2-x,1/2-y,-z
1/2+x,1/2-y,z
loop_
_atom_site_type_symbol
_atom_site_label
_atom_site_fract_x
_atom_site_fract_y
_atom_site_fract_z
Si Si1 0.667963 0.609247 0.144021
Si Si2 0.950501 0.731589 0.377667
Si Si3 0.817706 0.392239 0.491653
Si Si4 0.189230 0.113180 0.013686
Si Si5 0.565307 0.108385 0.173759
Si Si6 0.569299 0.765978 0.722909
O O1 0.646836 0.500000 0.148352
O O2 0.762365 0.665153 0.207771
O O3 0.866608 0.617828 0.158693
O O4 0.419877 0.641815 0.058939
O O5 0.055147 0.653638 0.435504
O O6 0.097975 0.825917 0.423923
O O7 0.678307 0.751198 0.317941
O O8 0.976503 0.702911 0.336244
O O9 0.754040 0.500000 0.481873
O O10 0.000000 0.387482 0.500000
O O11 0.443181 0.138232 0.098216
O O12 0.184450 0.000000 0.012228
O O13 0.000000 0.142966 0.000000
O O14 0.789279 0.169474 0.242245
O O15 0.624954 0.000000 0.186404
#
# Coordination Sequence:
#
# PCOD9216210 Si02
#       6
#     8   8   8   8   8   8
#     4   9  18  33  54  80 113 154 195 237 284 326
#     4  11  24  40  59  91 120 141 181 236 275 331
#     4  10  22  43  69  87 108 150 188 219 274 342
#     4   7  12  27  50  76 106 145 200 245 266 315
#     4   9  18  33  55  80 110 156 201 232 275 334
#     4  12  22  36  57  87 123 149 179 233 287 333
#
# _framework density 18.428640000000001
#
# number of rings (size 3 to 8) (size 9 to 14) (size 15 to 20)
#    0.000    2.333    3.333    2.000    0.000    3.333 
#    0.000    0.833    0.000    0.000    0.000    3.500 
#    0.000    0.000    0.000    0.000    0.000    0.000 
#
# Total GULP energy -133814.495322 kJ/mol
# GULP energy per Si atom -5575.603972 kJ/mol
# Density = 1.838670 g / cm^3
# Si number density = 18.428640 Si / 1000 Ang^3
#
#
#
# Elastic Constant Matrix: (Units=GPa)
#
#
# Indices 1 2 3 4 5 6 
#
# 1 23.8492 14.5367 -0.0818 0.0000 -8.6797 0.0000
# 2 14.5367 84.6766 31.4726 0.0000 -17.3854 0.0000
# 3 -0.0818 31.4726 78.2512 0.0001 -23.6601 -0.0001
# 4 0.0000 0.0000 0.0001 20.8940 0.0000 3.1900
# 5 -8.6797 -17.3854 -23.6601 0.0000 32.6907 0.0000
# 6 0.0000 0.0000 -0.0001 3.1900 0.0000 6.4953
#
#
#
# Elastic Compliance Matrix: (Units=1/GPa)
#
#
# Indices 1 2 3 4 5 6 
#
# 1 0.053046 -0.009061 0.008322 0.000000 0.015289 0.000000
# 2 -0.009061 0.015917 -0.005862 0.000000 0.001816 0.000000
# 3 0.008322 -0.005862 0.019037 0.000000 0.012871 0.000000
# 4 0.000000 0.000000 0.000000 0.051740 0.000000 -0.025411
# 5 0.015289 0.001816 0.012871 0.000000 0.044930 0.000000
# 6 0.000000 0.000000 0.000000 -0.025411 0.000000 0.166437
#
#
# Mechanical properties :
#
#
# Convention : Reuss Voigt Hill
#
# Bulk Modulus (GPa) = 13.36913 30.95912 22.16412
# Shear Modulus (GPa) = 12.84553 21.40597 17.12575
#
# Velocity S-wave (km/s) = 2.64302 3.41186 3.05175
# Velocity P-wave (km/s) = 4.07239 5.68832 4.94679
#
# Compressibility (1/GPa) = 0.07479918
#
# Stress axis : x y z
#
# Youngs Moduli (GPa) = 18.85169 62.82652 52.52850
#
# Poissons Ratio (x) = 0.56925 -0.43716
# Poissons Ratio (y) = 0.17081 0.30792
# Poissons Ratio (z) = -0.15689 0.36829
#
# Static dielectric constant tensor:
#      x y z
#    x 1.617900 0.000000 -0.021100 
#    y 0.000000 1.625020 0.000000 
#    z -0.021100 0.000000 1.657120 
# 
# From -- ./inp_files/262496.got.cif
#   From: 2010.05.17/outbox.cif.g08.bks.cpg/sg12_132_cif.got.tgz:262496.got - 2010.06.03 13:09:07.
