data_PCOD9216589
_publ_section_title
;
Structure prediction by ZEFSAII (Michael W. Deem and Ramdas Pophale) SiO2 
 PCOD9216589
Probable space group: C 2/M
;
_chemical_formula_sum "Si O2"
_cell_formula_units_Z 44
_cell_length_a 8.856926
_cell_length_b 13.356856
_cell_length_c 18.222363
_cell_angle_alpha 90.000000
_cell_angle_beta 95.605740
_cell_angle_gamma 90.000000
_cell_volume 2145.408564
_symmetry_space_group_name_H-M "C 2/M"
_symmetry_group_IT_number 12
_symmetry_cell_setting 'monoclinic'
loop_
_space_group_symop_operation_xyz
x,y,z
-x,y,-z
-x,-y,-z
x,-y,z
1/2+x,1/2+y,z
1/2-x,1/2+y,-z
1/2-x,1/2-y,-z
1/2+x,1/2-y,z
loop_
_atom_site_type_symbol
_atom_site_label
_atom_site_fract_x
_atom_site_fract_y
_atom_site_fract_z
Si Si1 0.000000 0.677119 0.500000
Si Si2 0.500000 0.746813 0.000000
Si Si3 0.257292 0.500000 0.383013
Si Si4 0.739607 0.000000 0.538783
Si Si5 0.728219 0.674916 0.252494
Si Si6 0.773879 0.623385 0.086498
Si Si7 0.453240 0.814124 0.654080
Si Si8 0.551880 0.500000 0.308655
O O1 0.133972 0.599832 0.530437
O O2 0.031731 0.739327 0.426083
O O3 0.375542 0.673050 0.957593
O O4 0.585758 0.821666 0.947600
O O5 0.329480 0.500000 0.466709
O O6 0.144355 0.408407 0.372757
O O7 0.380722 0.500000 0.326077
O O8 0.842796 0.000000 0.614456
O O9 0.771169 0.662196 0.170201
O O10 0.644971 0.769374 0.284080
O O11 0.600463 0.593394 0.263382
O O12 0.881714 0.661954 0.306551
O O13 0.777554 0.500000 0.083408
#
# Coordination Sequence:
#
# PCOD9216589 Si02
#       8
#     4   4   4   4   8   8   8   4
#     4   9  18  36  60  83 118 166 220 267 326 371
#     4  10  24  44  74 106 134 174 218 258 326 406
#     4  10  23  38  60  84 121 163 229 267 330 375
#     4   9  17  36  60  82 114 164 215 275 324 380
#     4  12  24  40  65  90 131 163 213 260 333 376
#     4  11  23  45  72 103 139 174 214 270 326 399
#     4  11  23  41  59  90 123 172 215 278 315 393
#     4  12  21  40  58  90 119 170 206 268 322 388
#
# _framework density 20.508914999999998
#
# number of rings (size 3 to 8) (size 9 to 14) (size 15 to 20)
#    0.000    1.273    2.727    4.091    0.000    0.727 
#    3.273    0.000    2.000    0.000    0.000    0.000 
#    0.000    0.000    0.000    0.000    0.000    0.000 
#
# Total GULP energy -122678.655779 kJ/mol
# GULP energy per Si atom -5576.302535 kJ/mol
# Density = 2.046224 g / cm^3
# Si number density = 20.508915 Si / 1000 Ang^3
#
#
#
# Elastic Constant Matrix: (Units=GPa)
#
#
# Indices 1 2 3 4 5 6 
#
# 1 111.3172 8.9612 41.4027 0.0000 -26.4782 0.0000
# 2 8.9612 72.6976 35.1029 0.0000 -17.7865 0.0000
# 3 41.4027 35.1029 138.6000 0.0000 -37.5670 0.0000
# 4 0.0000 0.0000 0.0000 22.3292 0.0000 -9.9217
# 5 -26.4782 -17.7865 -37.5670 0.0000 36.9126 0.0000
# 6 0.0000 0.0000 0.0000 -9.9217 0.0000 21.5835
#
#
#
# Elastic Compliance Matrix: (Units=1/GPa)
#
#
# Indices 1 2 3 4 5 6 
#
# 1 0.011160 0.001138 -0.001800 0.000000 0.006722 0.000000
# 2 0.001138 0.016443 -0.002949 0.000000 0.005738 0.000000
# 3 -0.001800 -0.002949 0.010722 0.000000 0.008200 0.000000
# 4 0.000000 0.000000 0.000000 0.056280 0.000000 0.025871
# 5 0.006722 0.005738 0.008200 0.000000 0.043023 0.000000
# 6 0.000000 0.000000 0.000000 0.025871 0.000000 0.058225
#
#
# Mechanical properties :
#
#
# Convention : Reuss Voigt Hill
#
# Bulk Modulus (GPa) = 32.15094 54.83869 43.49482
# Shear Modulus (GPa) = 23.42540 31.97492 27.70016
#
# Velocity S-wave (km/s) = 3.38332 3.95280 3.67909
# Velocity P-wave (km/s) = 5.56535 6.90143 6.26909
#
# Compressibility (1/GPa) = 0.03110329
#
# Stress axis : x y z
#
# Youngs Moduli (GPa) = 89.60506 60.81494 93.26391
#
# Poissons Ratio (x) = -0.06921 0.16788
# Poissons Ratio (y) = -0.10198 0.27506
# Poissons Ratio (z) = 0.16130 0.17936
#
# Static dielectric constant tensor:
#      x y z
#    x 1.728020 0.000000 -0.038900 
#    y 0.000000 1.903830 0.000000 
#    z -0.038900 0.000000 1.750080 
# 
# From -- ./inp_files/255486.got.cif
#   From: 2010.05.17/outbox.cif.g08.bks.cpg/sg12_128_cif.got.tgz:255486.got - 2010.06.03 13:09:07.
