data_PCOD9216971
_publ_section_title
;
Structure prediction by ZEFSAII (Michael W. Deem and Ramdas Pophale) SiO2 
 PCOD9216971
Probable space group: C 2/M
;
_chemical_formula_sum "Si O2"
_cell_formula_units_Z 32
_cell_length_a 9.439241
_cell_length_b 22.317033
_cell_length_c 9.492999
_cell_angle_alpha 90.000000
_cell_angle_beta 133.773515
_cell_angle_gamma 90.000000
_cell_volume 1443.983858
_symmetry_space_group_name_H-M "C 2/M"
_symmetry_group_IT_number 12
_symmetry_cell_setting 'monoclinic'
loop_
_space_group_symop_operation_xyz
x,y,z
-x,y,-z
-x,-y,-z
x,-y,z
1/2+x,1/2+y,z
1/2-x,1/2+y,-z
1/2-x,1/2-y,-z
1/2+x,1/2-y,z
loop_
_atom_site_type_symbol
_atom_site_label
_atom_site_fract_x
_atom_site_fract_y
_atom_site_fract_z
Si Si1 0.217931 0.295935 0.319043
Si Si2 0.822882 0.066364 0.765042
Si Si3 0.196952 0.682539 0.823258
Si Si4 0.964929 0.846948 0.267784
O O1 0.256527 0.236535 0.252125
O O2 0.291061 0.348158 0.261727
O O3 0.371720 0.303178 0.552834
O O4 0.998460 0.306621 0.773215
O O5 0.688673 0.120033 0.732447
O O6 0.924203 0.092022 0.693903
O O7 0.738073 0.000000 0.691596
O O8 0.000000 0.062326 0.000000
O O9 0.369359 0.676701 0.057499
#
# Coordination Sequence:
#
# PCOD9216971 Si02
#       4
#     8   8   8   8
#     4  11  24  39  61  95 128 160 205 249 308 376
#     4   9  20  42  67  88 118 164 211 252 302 362
#     4  11  23  40  63  92 127 164 202 253 308 362
#     4  10  23  41  62  91 126 164 201 254 310 359
#
# _framework density 22.160913000000001
#
# number of rings (size 3 to 8) (size 9 to 14) (size 15 to 20)
#    0.000    1.750    0.000    3.000    0.000   16.000 
#    0.000    6.250    0.000    6.000    0.000    0.000 
#    0.000    2.000    0.000    0.000    0.000    0.000 
#
# Total GULP energy -89487.179447 kJ/mol
# GULP energy per Si atom -5592.948715 kJ/mol
# Density = 2.211047 g / cm^3
# Si number density = 22.160913 Si / 1000 Ang^3
#
#
#
# Elastic Constant Matrix: (Units=GPa)
#
#
# Indices 1 2 3 4 5 6 
#
# 1 173.3375 80.7726 36.5215 0.0000 -26.6960 0.0000
# 2 80.7726 173.5414 41.3175 0.0000 -20.3206 0.0000
# 3 36.5215 41.3175 129.5213 0.0000 -1.0473 0.0000
# 4 0.0000 0.0000 0.0000 8.1877 0.0000 -7.2674
# 5 -26.6960 -20.3206 -1.0473 0.0000 43.8046 0.0000
# 6 0.0000 0.0000 0.0000 -7.2674 0.0000 19.1079
#
#
#
# Elastic Compliance Matrix: (Units=1/GPa)
#
#
# Indices 1 2 3 4 5 6 
#
# 1 0.007963 -0.003005 -0.001259 0.000000 0.003429 0.000000
# 2 -0.003005 0.007746 -0.001610 0.000000 0.001724 0.000000
# 3 -0.001259 -0.001610 0.008579 0.000000 -0.001309 0.000000
# 4 0.000000 0.000000 0.000000 0.184379 0.000000 0.070126
# 5 0.003429 0.001724 -0.001309 0.000000 0.025686 0.000000
# 6 0.000000 0.000000 0.000000 0.070126 0.000000 0.079006
#
#
# Mechanical properties :
#
#
# Convention : Reuss Voigt Hill
#
# Bulk Modulus (GPa) = 79.74433 88.18039 83.96236
# Shear Modulus (GPa) = 15.18438 35.40593 25.29516
#
# Velocity S-wave (km/s) = 2.62045 4.00143 3.38217
# Velocity P-wave (km/s) = 6.72443 7.82470 7.29534
#
# Compressibility (1/GPa) = 0.01254008
#
# Stress axis : x y z
#
# Youngs Moduli (GPa) = 125.58653 129.09929 116.56836
#
# Poissons Ratio (x) = 0.38793 0.14675
# Poissons Ratio (y) = 0.37737 0.18765
# Poissons Ratio (z) = 0.15811 0.20782
#
# Static dielectric constant tensor:
#      x y z
#    x 1.874200 0.000000 -0.004540 
#    y 0.000000 1.858230 0.000000 
#    z -0.004540 0.000000 1.877710 
# 
# From -- ./inp_files/72039.got.cif
#   From: 2010.05.17/outbox.cif.g08.bks.cpg/sg12_37_cif.got.tgz:72039.got - 2010.06.03 13:09:07.
