data_PCOD9216718
_publ_section_title
;
Structure prediction by ZEFSAII (Michael W. Deem and Ramdas Pophale) SiO2 
 PCOD9216718
Probable space group: C 2/M
;
_chemical_formula_sum "Si O2"
_cell_formula_units_Z 56
_cell_length_a 19.370591
_cell_length_b 7.703406
_cell_length_c 26.109382
_cell_angle_alpha 90.000000
_cell_angle_beta 40.807988
_cell_angle_gamma 90.000000
_cell_volume 2546.157188
_symmetry_space_group_name_H-M "C 2/M"
_symmetry_group_IT_number 12
_symmetry_cell_setting 'monoclinic'
loop_
_space_group_symop_operation_xyz
x,y,z
-x,y,-z
-x,-y,-z
x,-y,z
1/2+x,1/2+y,z
1/2-x,1/2+y,-z
1/2-x,1/2-y,-z
1/2+x,1/2-y,z
loop_
_atom_site_type_symbol
_atom_site_label
_atom_site_fract_x
_atom_site_fract_y
_atom_site_fract_z
Si Si1 0.439413 0.697444 0.486639
Si Si2 0.243452 0.793839 0.774528
Si Si3 0.450903 0.800198 0.263354
Si Si4 0.871684 0.209174 0.419340
Si Si5 0.812234 0.291848 0.851456
Si Si6 0.233420 0.302453 0.349170
Si Si7 0.418947 0.000000 0.115897
Si Si8 0.150866 0.500000 0.963786
O O1 0.500000 0.782436 0.500000
O O2 0.478640 0.500000 0.459482
O O3 0.436754 0.775763 0.432056
O O4 0.320372 0.693360 0.575940
O O5 0.303235 0.761117 0.794679
O O6 0.301581 0.751281 0.688421
O O7 0.140572 0.672198 0.831832
O O8 0.219628 0.000000 0.786164
O O9 0.413613 0.785819 0.343251
O O10 0.571736 0.739107 0.194338
O O11 0.359716 0.708199 0.282480
O O12 0.450302 0.000000 0.247556
O O13 0.750000 0.250000 0.500000
O O14 0.881443 0.000000 0.410620
O O15 0.797431 0.500000 0.867457
O O16 0.723453 0.171296 0.927148
O O17 0.203248 0.500000 0.376052
O O18 0.392598 0.000000 0.070055
O O19 0.543557 0.000000 0.056697
#
# Coordination Sequence:
#
# PCOD9216718 Si02
#       8
#     8   8   8   8   8   8   4   4
#     4  10  23  40  55  79 110 148 191 236 291 337
#     4   9  20  37  56  87 119 148 192 237 280 341
#     4  11  23  37  57  81 109 151 191 235 287 336
#     4  11  22  37  56  78 109 145 190 238 282 336
#     4   9  20  37  57  87 119 149 187 238 287 331
#     4  11  23  37  57  82 109 150 193 234 284 342
#     4   9  18  34  60  92 116 157 179 228 290 337
#     4   9  18  34  60  92 121 144 193 223 283 351
#
# _framework density 21.993926999999999
#
# number of rings (size 3 to 8) (size 9 to 14) (size 15 to 20)
#    0.000    2.000    1.429    1.286    6.000    1.429 
#    0.000    2.857    0.000    0.857    0.000    0.000 
#    0.000    0.000    0.000    0.000    0.000    0.000 
#
# Total GULP energy -156303.408255 kJ/mol
# GULP energy per Si atom -5582.264581 kJ/mol
# Density = 2.194387 g / cm^3
# Si number density = 21.993927 Si / 1000 Ang^3
#
#
#
# Elastic Constant Matrix: (Units=GPa)
#
#
# Indices 1 2 3 4 5 6 
#
# 1 71.2815 7.2798 -2.1763 0.0003 -17.7640 -0.0012
# 2 7.2798 64.7566 13.6105 0.0015 -7.4086 -0.0035
# 3 -2.1763 13.6105 40.2144 0.0000 -23.9230 -0.0002
# 4 0.0003 0.0015 0.0000 24.3253 0.0000 -5.0201
# 5 -17.7640 -7.4086 -23.9230 0.0000 34.5138 0.0003
# 6 -0.0012 -0.0035 -0.0002 -5.0201 0.0003 18.0179
#
#
#
# Elastic Compliance Matrix: (Units=1/GPa)
#
#
# Indices 1 2 3 4 5 6 
#
# 1 0.019228 -0.002770 0.012783 0.000000 0.018162 0.000001
# 2 -0.002770 0.017031 -0.007806 0.000000 -0.003181 0.000003
# 3 0.012783 -0.007806 0.052952 0.000000 0.041606 -0.000001
# 4 0.000000 0.000000 0.000000 0.043617 0.000000 0.012153
# 5 0.018162 -0.003181 0.041606 0.000000 0.066478 0.000000
# 6 0.000001 0.000003 -0.000001 0.012153 0.000000 0.058886
#
#
# Mechanical properties :
#
#
# Convention : Reuss Voigt Hill
#
# Bulk Modulus (GPa) = 10.68121 23.74227 17.21174
# Shear Modulus (GPa) = 17.54461 25.87396 21.70928
#
# Velocity S-wave (km/s) = 2.82743 3.43361 3.14516
# Velocity P-wave (km/s) = 3.94032 5.15150 4.58607
#
# Compressibility (1/GPa) = 0.09362234
#
# Stress axis : x y z
#
# Youngs Moduli (GPa) = 52.00690 58.71754 18.88519
#
# Poissons Ratio (x) = 0.16267 -0.24140
# Poissons Ratio (y) = 0.14408 0.14742
# Poissons Ratio (z) = -0.66478 0.45836
#
# Static dielectric constant tensor:
#      x y z
#    x 1.848950 0.000000 -0.032990 
#    y 0.000000 1.785910 0.000000 
#    z -0.032990 0.000000 1.827240 
# 
# From -- ./inp_files/377709.got.cif
#   From: 2010.05.17/outbox.cif.g08.bks.cpg/sg12_189_cif.got.tgz:377709.got - 2010.06.03 13:09:07.
