data_PCOD9216526
_publ_section_title
;
Structure prediction by ZEFSAII (Michael W. Deem and Ramdas Pophale) SiO2 
 PCOD9216526
Probable space group: C 2/M
;
_chemical_formula_sum "Si O2"
_cell_formula_units_Z 46
_cell_length_a 20.241102
_cell_length_b 10.108698
_cell_length_c 17.283298
_cell_angle_alpha 90.000000
_cell_angle_beta 44.929674
_cell_angle_gamma 90.000000
_cell_volume 2497.510249
_symmetry_space_group_name_H-M "C 2/M"
_symmetry_group_IT_number 12
_symmetry_cell_setting 'monoclinic'
loop_
_space_group_symop_operation_xyz
x,y,z
-x,y,-z
-x,-y,-z
x,-y,z
1/2+x,1/2+y,z
1/2-x,1/2+y,-z
1/2-x,1/2-y,-z
1/2+x,1/2-y,z
loop_
_atom_site_type_symbol
_atom_site_label
_atom_site_fract_x
_atom_site_fract_y
_atom_site_fract_z
Si Si1 0.176399 0.851853 0.891872
Si Si2 0.706142 0.500000 0.407537
Si Si3 0.332405 0.232238 0.868922
Si Si4 0.452014 0.850333 0.905894
Si Si5 0.862820 0.000000 0.360105
Si Si6 0.000000 0.000000 0.500000
Si Si7 0.836984 0.753099 0.269933
Si Si8 0.433938 0.500000 0.736434
O O1 0.279891 0.839305 0.842584
O O2 0.180010 0.819753 0.798916
O O3 0.140731 0.000000 0.935418
O O4 0.108414 0.748359 0.990956
O O5 0.683559 0.500000 0.517370
O O6 0.610529 0.500000 0.437756
O O7 0.765247 0.632682 0.341266
O O8 0.412629 0.159674 0.850963
O O9 0.372956 0.371049 0.806575
O O10 0.250000 0.250000 0.000000
O O11 0.559049 0.807526 0.817453
O O12 0.440440 0.000000 0.943679
O O13 0.834677 0.131406 0.336069
O O14 0.974580 0.000000 0.284019
O O15 0.965981 0.000000 0.620757
#
# Coordination Sequence:
#
# PCOD9216526 Si02
#       8
#     8   4   8   8   4   2   8   4
#     4  11  25  38  61  92 134 177 215 259 321 395
#     4  11  25  44  70  96 123 165 220 272 331 380
#     4  10  23  36  64  90 136 170 218 265 326 390
#     4  11  24  39  62  95 131 171 214 260 324 389
#     4  11  24  43  68  93 127 169 214 273 319 395
#     4  10  24  44  72  92 128 170 228 276 324 386
#     4  12  23  42  66  94 131 163 214 271 324 385
#     4  11  21  42  64 100 123 178 224 270 326 394
#
# _framework density 18.418343
#
# number of rings (size 3 to 8) (size 9 to 14) (size 15 to 20)
#    0.000    1.043    3.478    2.609   12.174    1.391 
#    0.000    0.000    0.000    0.522    0.000    0.000 
#    0.000    0.000    0.000    0.000    0.000    0.000 
#
# Total GULP energy -128225.764815 kJ/mol
# GULP energy per Si atom -5575.033253 kJ/mol
# Density = 1.837642 g / cm^3
# Si number density = 18.418343 Si / 1000 Ang^3
#
#
#
# Elastic Constant Matrix: (Units=GPa)
#
#
# Indices 1 2 3 4 5 6 
#
# 1 152.7866 41.7757 44.0517 0.0000 14.0018 0.0000
# 2 41.7757 155.3551 41.8040 0.0000 3.6888 0.0000
# 3 44.0517 41.8040 66.2670 0.0000 2.0253 0.0000
# 4 0.0000 0.0000 0.0000 28.3388 0.0000 -1.1136
# 5 14.0018 3.6888 2.0253 0.0000 22.0321 0.0000
# 6 0.0000 0.0000 0.0000 -1.1136 0.0000 27.1065
#
#
#
# Elastic Compliance Matrix: (Units=1/GPa)
#
#
# Indices 1 2 3 4 5 6 
#
# 1 0.008697 -0.000851 -0.005094 0.000000 -0.004916 0.000000
# 2 -0.000851 0.007852 -0.004376 0.000000 -0.000371 0.000000
# 3 -0.005094 -0.004376 0.021176 0.000000 0.002024 0.000000
# 4 0.000000 0.000000 0.000000 0.035344 0.000000 0.001452
# 5 -0.004916 -0.000371 0.002024 0.000000 0.048389 0.000000
# 6 0.000000 0.000000 0.000000 0.001452 0.000000 0.036951
#
#
# Mechanical properties :
#
#
# Convention : Reuss Voigt Hill
#
# Bulk Modulus (GPa) = 58.54241 69.96351 64.25296
# Shear Modulus (GPa) = 27.06401 31.94730 29.50565
#
# Velocity S-wave (km/s) = 3.83744 4.16930 4.00681
# Velocity P-wave (km/s) = 7.17554 7.82596 7.50780
#
# Compressibility (1/GPa) = 0.01708163
#
# Stress axis : x y z
#
# Youngs Moduli (GPa) = 114.98007 127.35324 47.22352
#
# Poissons Ratio (x) = 0.10840 0.24057
# Poissons Ratio (y) = 0.09787 0.20667
# Poissons Ratio (z) = 0.58575 0.55734
#
# Static dielectric constant tensor:
#      x y z
#    x 1.665690 0.000000 0.004220 
#    y 0.000000 1.632280 0.000000 
#    z 0.004220 0.000000 1.605150 
# 
# From -- ./inp_files/280843.got.cif
#   From: 2010.05.17/outbox.cif.g08.bks.cpg/sg12_141_cif.got.tgz:280843.got - 2010.06.03 13:09:07.
