data_PCOD9216351
_publ_section_title
;
Structure prediction by ZEFSAII (Michael W. Deem and Ramdas Pophale) SiO2 
 PCOD9216351
Probable space group: C 2/M
;
_chemical_formula_sum "Si O2"
_cell_formula_units_Z 36
_cell_length_a 12.064441
_cell_length_b 21.940380
_cell_length_c 6.354548
_cell_angle_alpha 90.000000
_cell_angle_beta 91.288262
_cell_angle_gamma 90.000000
_cell_volume 1681.613657
_symmetry_space_group_name_H-M "C 2/M"
_symmetry_group_IT_number 12
_symmetry_cell_setting 'monoclinic'
loop_
_space_group_symop_operation_xyz
x,y,z
-x,y,-z
-x,-y,-z
x,-y,z
1/2+x,1/2+y,z
1/2-x,1/2+y,-z
1/2-x,1/2-y,-z
1/2+x,1/2-y,z
loop_
_atom_site_type_symbol
_atom_site_label
_atom_site_fract_x
_atom_site_fract_y
_atom_site_fract_z
Si Si1 0.601508 0.069667 0.164941
Si Si2 0.672795 0.266196 0.794312
Si Si3 0.671002 0.155945 0.507626
Si Si4 0.204661 0.928357 0.164020
Si Si5 0.000000 0.852152 0.000000
O O1 0.592758 0.119543 0.345412
O O2 0.601648 0.000000 0.247659
O O3 0.500000 0.074881 0.000000
O O4 0.714290 0.078839 0.035185
O O5 0.631310 0.204856 0.678102
O O6 0.747178 0.304989 0.637062
O O7 0.750000 0.250000 0.000000
O O8 0.570036 0.307692 0.854549
O O9 0.736322 0.104299 0.639060
O O10 0.089444 0.894496 0.118357
O O11 0.190181 0.000000 0.199547
#
# Coordination Sequence:
#
# PCOD9216351 Si02
#       5
#     8   8   8   8   4
#     4  10  22  44  70 101 143 185 237 300 353 417
#     4  11  24  47  67  96 144 188 233 289 344 419
#     4  11  22  46  68 102 136 187 243 283 349 431
#     4  11  24  45  72 105 144 182 232 297 360 422
#     4  12  23  48  70 102 147 182 226 292 364 422
#
# _framework density 21.408007999999999
#
# number of rings (size 3 to 8) (size 9 to 14) (size 15 to 20)
#    0.000    1.111    4.444    1.000    0.000    1.778 
#   12.000    4.444    0.000    0.000    0.000    0.000 
#    0.000    0.000    0.000    0.000    0.000    0.000 
#
# Total GULP energy -100738.288645 kJ/mol
# GULP energy per Si atom -5596.571591 kJ/mol
# Density = 2.135928 g / cm^3
# Si number density = 21.408008 Si / 1000 Ang^3
#
#
#
# Elastic Constant Matrix: (Units=GPa)
#
#
# Indices 1 2 3 4 5 6 
#
# 1 56.8826 58.7655 10.0701 0.0000 -1.9125 0.0000
# 2 58.7655 199.1432 90.6127 0.0000 10.0235 0.0000
# 3 10.0701 90.6127 88.4787 0.0000 1.7045 0.0000
# 4 0.0000 0.0000 0.0000 36.9475 0.0000 15.5822
# 5 -1.9125 10.0235 1.7045 0.0000 25.6244 0.0000
# 6 0.0000 0.0000 0.0000 15.5822 0.0000 25.9276
#
#
#
# Elastic Compliance Matrix: (Units=1/GPa)
#
#
# Indices 1 2 3 4 5 6 
#
# 1 0.030983 -0.014685 0.011372 0.000000 0.007300 0.000000
# 2 -0.014685 0.016606 -0.015209 0.000000 -0.006580 0.000000
# 3 0.011372 -0.015209 0.025485 0.000000 0.005103 0.000000
# 4 0.000000 0.000000 0.000000 0.036255 0.000000 -0.021789
# 5 0.007300 -0.006580 0.005103 0.000000 0.041805 0.000000
# 6 0.000000 0.000000 0.000000 -0.021789 0.000000 0.051664
#
#
# Mechanical properties :
#
#
# Convention : Reuss Voigt Hill
#
# Bulk Modulus (GPa) = 27.75347 73.71123 50.73235
# Shear Modulus (GPa) = 19.85305 30.03697 24.94501
#
# Velocity S-wave (km/s) = 3.04857 3.74982 3.41723
# Velocity P-wave (km/s) = 5.03825 7.29757 6.27051
#
# Compressibility (1/GPa) = 0.03603152
#
# Stress axis : x y z
#
# Youngs Moduli (GPa) = 32.27567 60.21877 39.23886
#
# Poissons Ratio (x) = 0.88429 -0.44622
# Poissons Ratio (y) = 0.47396 0.59677
# Poissons Ratio (z) = -0.36704 0.91584
#
# Static dielectric constant tensor:
#      x y z
#    x 4.383400 0.000000 1.282860 
#    y 0.000000 1.757270 0.000000 
#    z 1.282860 0.000000 2.411630 
# 
# From -- ./inp_files/7063.got.cif
#   From: 2010.05.17/outbox.cif.g08.bks.cpg/sg12_4_cif.got.tgz:7063.got - 2010.06.03 13:09:07.
