data_PCOD9216147
_publ_section_title
;
Structure prediction by ZEFSAII (Michael W. Deem and Ramdas Pophale) SiO2 
 PCOD9216147
Probable space group: C 2/M
;
_chemical_formula_sum "Si O2"
_cell_formula_units_Z 64
_cell_length_a 9.916110
_cell_length_b 14.164231
_cell_length_c 23.878469
_cell_angle_alpha 90.000000
_cell_angle_beta 95.328123
_cell_angle_gamma 90.000000
_cell_volume 3339.337130
_symmetry_space_group_name_H-M "C 2/M"
_symmetry_group_IT_number 12
_symmetry_cell_setting 'monoclinic'
loop_
_space_group_symop_operation_xyz
x,y,z
-x,y,-z
-x,-y,-z
x,-y,z
1/2+x,1/2+y,z
1/2-x,1/2+y,-z
1/2-x,1/2-y,-z
1/2+x,1/2-y,z
loop_
_atom_site_type_symbol
_atom_site_label
_atom_site_fract_x
_atom_site_fract_y
_atom_site_fract_z
Si Si1 0.942714 0.237527 0.831375
Si Si2 0.989562 0.112576 0.623203
Si Si3 0.157424 0.390907 0.988265
Si Si4 0.678130 0.612576 0.272242
Si Si5 0.017541 0.387711 0.745741
Si Si6 0.887762 0.268635 0.538543
Si Si7 0.303355 0.112895 0.642480
Si Si8 0.203992 0.781312 0.907783
O O1 0.061921 0.194221 0.873551
O O2 0.890964 0.166884 0.781564
O O3 0.003504 0.327909 0.801389
O O4 0.819107 0.269229 0.865568
O O5 0.892860 0.136390 0.671773
O O6 0.944054 0.172176 0.567996
O O7 0.145146 0.136520 0.643882
O O8 0.981327 0.000000 0.612920
O O9 0.183435 0.500000 0.975084
O O10 0.185795 0.318491 0.939171
O O11 0.247381 0.356168 0.044075
O O12 0.000000 0.381549 0.000000
O O13 0.661933 0.500000 0.263851
O O14 0.838322 0.633345 0.277589
O O15 0.011858 0.500000 0.756434
O O16 0.894826 0.362163 0.699452
O O17 0.750000 0.250000 0.500000
O O18 0.858897 0.337252 0.589293
O O19 0.000000 0.306454 0.500000
O O20 0.313183 0.000000 0.636186
#
# Coordination Sequence:
#
# PCOD9216147 Si02
#       8
#     8   8   8   8   8   8   8   8
#     4  12  23  39  63  93 130 159 196 256 304 352
#     4  10  23  43  64  86 122 164 199 245 305 366
#     4  10  22  43  67  88 121 168 209 248 302 362
#     4  10  23  41  62  90 123 162 201 242 302 366
#     4  10  23  41  63  90 122 163 203 241 299 369
#     4  12  25  40  62  91 118 155 205 254 303 360
#     4  10  23  43  63  87 122 161 201 247 302 366
#     4  11  24  40  62  96 124 159 206 253 301 355
#
# _framework density 19.165481
#
# number of rings (size 3 to 8) (size 9 to 14) (size 15 to 20)
#    0.000    1.375    3.750    0.750    3.500    5.000 
#    0.000    0.625    0.000    0.000    0.000    0.000 
#    0.000    0.000    0.000    0.000    0.000    0.000 
#
# Total GULP energy -178907.503407 kJ/mol
# GULP energy per Si atom -5590.859481 kJ/mol
# Density = 1.912186 g / cm^3
# Si number density = 19.165481 Si / 1000 Ang^3
#
#
#
# Elastic Constant Matrix: (Units=GPa)
#
#
# Indices 1 2 3 4 5 6 
#
# 1 101.5330 21.7996 20.9348 0.0000 7.0651 0.0000
# 2 21.7996 63.5023 17.0370 0.0000 0.9449 0.0000
# 3 20.9348 17.0370 66.4957 0.0000 3.2388 0.0000
# 4 0.0000 0.0000 0.0000 14.9849 0.0000 -3.0895
# 5 7.0651 0.9449 3.2388 0.0000 53.6730 0.0000
# 6 0.0000 0.0000 0.0000 -3.0895 0.0000 20.6319
#
#
#
# Elastic Compliance Matrix: (Units=1/GPa)
#
#
# Indices 1 2 3 4 5 6 
#
# 1 0.011148 -0.003096 -0.002656 0.000000 -0.001253 0.000000
# 2 -0.003096 0.017770 -0.003593 0.000000 0.000312 0.000000
# 3 -0.002656 -0.003593 0.016825 0.000000 -0.000602 0.000000
# 4 0.000000 0.000000 0.000000 0.068860 0.000000 0.010311
# 5 -0.001253 0.000312 -0.000602 0.000000 0.018827 0.000000
# 6 0.000000 0.000000 0.000000 0.010311 0.000000 0.050013
#
#
# Mechanical properties :
#
#
# Convention : Reuss Voigt Hill
#
# Bulk Modulus (GPa) = 36.96450 39.00819 37.98635
# Shear Modulus (GPa) = 23.67989 29.30860 26.49424
#
# Velocity S-wave (km/s) = 3.51885 3.91479 3.72209
# Velocity P-wave (km/s) = 5.98654 6.38997 6.19154
#
# Compressibility (1/GPa) = 0.02705298
#
# Stress axis : x y z
#
# Youngs Moduli (GPa) = 89.69842 56.27563 59.43673
#
# Poissons Ratio (x) = 0.17423 0.15784
# Poissons Ratio (y) = 0.27771 0.21357
# Poissons Ratio (z) = 0.23820 0.20221
#
# Static dielectric constant tensor:
#      x y z
#    x 1.655610 0.000000 0.004130 
#    y 0.000000 1.661870 0.000000 
#    z 0.004130 0.000000 1.630680 
# 
# From -- ./inp_files/332919.got.cif
#   From: 2010.05.17/outbox.cif.g08.bks.cpg/sg12_167_cif.got.tgz:332919.got - 2010.06.03 13:09:07.
