data_PCOD9216880
_publ_section_title
;
Structure prediction by ZEFSAII (Michael W. Deem and Ramdas Pophale) SiO2 
 PCOD9216880
Probable space group: C 2/M
;
_chemical_formula_sum "Si O2"
_cell_formula_units_Z 42
_cell_length_a 12.675986
_cell_length_b 18.966628
_cell_length_c 12.624886
_cell_angle_alpha 90.000000
_cell_angle_beta 131.932859
_cell_angle_gamma 90.000000
_cell_volume 2258.034092
_symmetry_space_group_name_H-M "C 2/M"
_symmetry_group_IT_number 12
_symmetry_cell_setting 'monoclinic'
loop_
_space_group_symop_operation_xyz
x,y,z
-x,y,-z
-x,-y,-z
x,-y,z
1/2+x,1/2+y,z
1/2-x,1/2+y,-z
1/2-x,1/2-y,-z
1/2+x,1/2-y,z
loop_
_atom_site_type_symbol
_atom_site_label
_atom_site_fract_x
_atom_site_fract_y
_atom_site_fract_z
Si Si1 0.500000 0.500000 0.500000
Si Si2 0.327704 0.000000 0.786916
Si Si3 0.050422 0.500000 0.366160
Si Si4 0.582401 0.630918 0.163463
Si Si5 0.500000 0.878248 0.000000
Si Si6 0.915269 0.268713 0.124475
Si Si7 0.625768 0.500000 0.344028
Si Si8 0.913504 0.648602 0.337228
O O1 0.664056 0.500000 0.651029
O O2 0.557757 0.500000 0.414030
O O3 0.416762 0.000000 0.737022
O O4 0.373699 0.069463 0.881675
O O5 0.202913 0.500000 0.527071
O O6 0.965828 0.570237 0.340712
O O7 0.507323 0.699994 0.160244
O O8 0.580907 0.568227 0.246938
O O9 0.745967 0.647140 0.246499
O O10 0.500000 0.611786 0.000000
O O11 0.456385 0.828768 0.067768
O O12 0.942200 0.299027 0.259286
O O13 0.750000 0.250000 0.000000
O O14 0.000000 0.669624 0.500000
#
# Coordination Sequence:
#
# PCOD9216880 Si02
#       8
#     2   4   4   8   4   8   4   8
#     4  10  26  44  66 102 142 166 224 286 336 388
#     4  10  23  40  71 102 124 184 221 273 337 400
#     4  11  21  45  71  97 138 172 222 284 335 401
#     4  12  25  45  70 103 133 178 231 284 337 401
#     4  11  22  44  70  97 134 174 232 269 336 418
#     4  12  25  45  69  98 144 176 224 286 339 403
#     4  11  25  47  69 103 136 172 231 283 338 404
#     4  12  24  44  71 101 133 184 225 278 343 403
#
# _framework density 18.600251
#
# number of rings (size 3 to 8) (size 9 to 14) (size 15 to 20)
#    0.000    0.571    6.667    1.143    2.667    0.762 
#    1.714    0.000    0.000    0.000    0.000    0.000 
#    0.000    0.000    0.000    0.000    0.000    0.000 
#
# Total GULP energy -117201.173075 kJ/mol
# GULP energy per Si atom -5581.008242 kJ/mol
# Density = 1.855792 g / cm^3
# Si number density = 18.600251 Si / 1000 Ang^3
#
#
#
# Elastic Constant Matrix: (Units=GPa)
#
#
# Indices 1 2 3 4 5 6 
#
# 1 140.8895 71.2002 73.3568 0.0000 12.7316 0.0000
# 2 71.2002 149.7525 70.4819 0.0000 -3.7496 0.0000
# 3 73.3568 70.4819 158.5533 0.0000 -0.1284 0.0000
# 4 0.0000 0.0000 0.0000 19.2215 0.0000 -0.5261
# 5 12.7316 -3.7496 -0.1284 0.0000 34.0521 0.0000
# 6 0.0000 0.0000 0.0000 -0.5261 0.0000 11.7906
#
#
#
# Elastic Compliance Matrix: (Units=1/GPa)
#
#
# Indices 1 2 3 4 5 6 
#
# 1 0.011286 -0.003823 -0.003526 0.000000 -0.004654 0.000000
# 2 -0.003823 0.009768 -0.002571 0.000000 0.002495 0.000000
# 3 -0.003526 -0.002571 0.009082 0.000000 0.001069 0.000000
# 4 0.000000 0.000000 0.000000 0.052089 0.000000 0.002324
# 5 -0.004654 0.002495 0.001069 0.000000 0.031386 0.000000
# 6 0.000000 0.000000 0.000000 0.002324 0.000000 0.084917
#
#
# Mechanical properties :
#
#
# Convention : Reuss Voigt Hill
#
# Bulk Modulus (GPa) = 97.12825 97.69702 97.41263
# Shear Modulus (GPa) = 22.54273 28.62327 25.58300
#
# Velocity S-wave (km/s) = 3.48510 3.92709 3.71268
# Velocity P-wave (km/s) = 8.27808 8.55578 8.41808
#
# Compressibility (1/GPa) = 0.01029567
#
# Stress axis : x y z
#
# Youngs Moduli (GPa) = 88.60339 102.37404 110.10387
#
# Poissons Ratio (x) = 0.39138 0.38823
# Poissons Ratio (y) = 0.33874 0.28312
# Poissons Ratio (z) = 0.31242 0.26325
#
# Static dielectric constant tensor:
#      x y z
#    x 1.628130 0.000000 -0.010920 
#    y 0.000000 1.614700 0.000000 
#    z -0.010920 0.000000 1.626850 
# 
# From -- ./inp_files/133543.got.cif
#   From: 2010.05.17/outbox.cif.g08.bks.cpg/sg12_67_cif.got.tgz:133543.got - 2010.06.03 13:09:07.
