data_PCOD9216309
_publ_section_title
;
Structure prediction by ZEFSAII (Michael W. Deem and Ramdas Pophale) SiO2 
 PCOD9216309
Probable space group: C 2/M
;
_chemical_formula_sum "Si O2"
_cell_formula_units_Z 40
_cell_length_a 24.050019
_cell_length_b 15.930571
_cell_length_c 9.749300
_cell_angle_alpha 90.000000
_cell_angle_beta 25.262164
_cell_angle_gamma 90.000000
_cell_volume 1594.060015
_symmetry_space_group_name_H-M "C 2/M"
_symmetry_group_IT_number 12
_symmetry_cell_setting 'monoclinic'
loop_
_space_group_symop_operation_xyz
x,y,z
-x,y,-z
-x,-y,-z
x,-y,z
1/2+x,1/2+y,z
1/2-x,1/2+y,-z
1/2-x,1/2-y,-z
1/2+x,1/2-y,z
loop_
_atom_site_type_symbol
_atom_site_label
_atom_site_fract_x
_atom_site_fract_y
_atom_site_fract_z
Si Si1 0.852206 0.500000 0.376064
Si Si2 0.252732 0.822853 0.602124
Si Si3 0.472302 0.000000 0.399549
Si Si4 0.610413 0.829390 0.427358
Si Si5 0.001792 0.097008 0.158703
Si Si6 0.375585 0.641979 0.694449
O O1 0.789363 0.414557 0.462410
O O2 0.861446 0.500000 0.521858
O O3 0.000000 0.500000 0.000000
O O4 0.250000 0.750000 0.500000
O O5 0.352259 0.805024 0.501129
O O6 0.108547 0.839202 0.981537
O O7 0.500000 0.000000 0.500000
O O8 0.503386 0.101146 0.310481
O O9 0.602490 0.742263 0.365339
O O10 0.737242 0.874069 0.074752
O O11 0.878141 0.108418 0.532371
O O12 0.041833 0.000000 0.084114
O O13 0.000000 0.114726 0.000000
O O14 0.500000 0.605751 0.500000
#
# Coordination Sequence:
#
# PCOD9216309 Si02
#       6
#     4   8   4   8   8   8
#     4  10  24  46  64 100 134 174 234 284 333 422
#     4  11  22  42  69  94 135 178 221 280 341 402
#     4  10  22  44  66  91 132 172 214 279 333 402
#     4  10  23  40  63  99 129 168 226 265 333 410
#     4  11  24  42  64  95 130 167 219 271 329 399
#     4  11  22  40  65  92 131 167 213 275 325 392
#
# _framework density 25.093157999999999
#
# number of rings (size 3 to 8) (size 9 to 14) (size 15 to 20)
#    0.000    1.400    3.000    1.800    1.400    4.400 
#   10.800    0.000    0.000    0.000    0.000    0.000 
#    0.000    0.000    0.000    0.000    0.000    0.000 
#
# Total GULP energy -111471.513384 kJ/mol
# GULP energy per Si atom -5573.575669 kJ/mol
# Density = 2.503604 g / cm^3
# Si number density = 25.093158 Si / 1000 Ang^3
#
#
#
# Elastic Constant Matrix: (Units=GPa)
#
#
# Indices 1 2 3 4 5 6 
#
# 1 119.1555 30.1736 11.9233 0.0000 26.1193 0.0000
# 2 30.1736 124.0587 29.3021 0.0000 14.3831 0.0000
# 3 11.9233 29.3021 100.8364 0.0000 20.0942 0.0000
# 4 0.0000 0.0000 0.0000 17.1575 0.0000 8.9585
# 5 26.1193 14.3831 20.0942 0.0000 33.4820 0.0000
# 6 0.0000 0.0000 0.0000 8.9585 0.0000 38.3864
#
#
#
# Elastic Compliance Matrix: (Units=1/GPa)
#
#
# Indices 1 2 3 4 5 6 
#
# 1 0.010510 -0.001843 0.000873 0.000000 -0.007932 0.000000
# 2 -0.001843 0.009167 -0.002212 0.000000 -0.001173 0.000000
# 3 0.000873 -0.002212 0.011816 0.000000 -0.006822 0.000000
# 4 0.000000 0.000000 0.000000 0.066371 0.000000 -0.015490
# 5 -0.007932 -0.001173 -0.006822 0.000000 0.040652 0.000000
# 6 0.000000 0.000000 0.000000 -0.015490 0.000000 0.029666
#
#
# Mechanical properties :
#
#
# Convention : Reuss Voigt Hill
#
# Bulk Modulus (GPa) = 39.79331 54.09429 46.94380
# Shear Modulus (GPa) = 27.33370 35.98194 31.65782
#
# Velocity S-wave (km/s) = 3.30402 3.79084 3.55577
# Velocity P-wave (km/s) = 5.51797 6.38473 5.96711
#
# Compressibility (1/GPa) = 0.02512985
#
# Stress axis : x y z
#
# Youngs Moduli (GPa) = 95.14453 109.08135 84.62951
#
# Poissons Ratio (x) = 0.20104 -0.07391
# Poissons Ratio (y) = 0.17535 0.18723
# Poissons Ratio (z) = -0.08309 0.24133
#
# Static dielectric constant tensor:
#      x y z
#    x 2.031790 0.000000 -0.044800 
#    y 0.000000 1.982820 0.000000 
#    z -0.044800 0.000000 2.211350 
# 
# From -- ./inp_files/98300.got.cif
#   From: 2010.05.17/outbox.cif.g08.bks.cpg/sg12_50_cif.got.tgz:98300.got - 2010.06.03 13:09:07.
