data_PCOD9216157
_publ_section_title
;
Structure prediction by ZEFSAII (Michael W. Deem and Ramdas Pophale) SiO2 
 PCOD9216157
Probable space group: C 2/M
;
_chemical_formula_sum "Si O2"
_cell_formula_units_Z 56
_cell_length_a 9.189521
_cell_length_b 23.689010
_cell_length_c 13.301969
_cell_angle_alpha 90.000000
_cell_angle_beta 66.571262
_cell_angle_gamma 90.000000
_cell_volume 2656.978076
_symmetry_space_group_name_H-M "C 2/M"
_symmetry_group_IT_number 12
_symmetry_cell_setting 'monoclinic'
loop_
_space_group_symop_operation_xyz
x,y,z
-x,y,-z
-x,-y,-z
x,-y,z
1/2+x,1/2+y,z
1/2-x,1/2+y,-z
1/2-x,1/2-y,-z
1/2+x,1/2-y,z
loop_
_atom_site_type_symbol
_atom_site_label
_atom_site_fract_x
_atom_site_fract_y
_atom_site_fract_z
Si Si1 0.511006 0.627065 0.108448
Si Si2 0.938677 0.934219 0.332225
Si Si3 0.346107 0.839653 0.109793
Si Si4 0.845282 0.375712 0.474779
Si Si5 0.536109 0.242231 0.599892
Si Si6 0.195327 0.434069 0.721197
Si Si7 0.188695 0.775478 0.757395
O O1 0.458385 0.584978 0.211429
O O2 0.686626 0.649740 0.088765
O O3 0.389930 0.679609 0.147607
O O4 0.500000 0.602493 0.000000
O O5 0.808343 0.897625 0.424993
O O6 0.113366 0.926785 0.331527
O O7 0.895417 0.000000 0.351496
O O8 0.368677 0.895196 0.171754
O O9 0.322123 0.786500 0.190645
O O10 0.500000 0.829502 0.000000
O O11 0.841275 0.309076 0.450071
O O12 0.864795 0.410576 0.367515
O O13 0.000000 0.383839 0.500000
O O14 0.500000 0.268303 0.500000
O O15 0.371177 0.214033 0.681349
O O16 0.592508 0.278083 0.678980
O O17 0.160825 0.500000 0.744754
#
# Coordination Sequence:
#
# PCOD9216157 Si02
#       7
#     8   8   8   8   8   8   8
#     4  11  25  42  66  94 126 168 218 273 323 373
#     4  10  23  44  67  94 128 171 217 261 320 388
#     4  11  25  42  64  92 126 169 219 269 320 383
#     4  11  22  39  64  99 131 165 208 263 317 384
#     4  11  24  40  64  96 134 170 209 258 316 384
#     4  10  22  43  67  93 127 171 218 264 320 384
#     4  12  23  44  64  95 131 171 215 262 319 386
#
# _framework density 21.076577
#
# number of rings (size 3 to 8) (size 9 to 14) (size 15 to 20)
#    0.000    1.143    2.857    3.429    2.000    5.143 
#    0.000    0.000    0.000    0.000    0.000    0.000 
#    0.000    0.000    0.000    0.000    0.000    0.000 
#
# Total GULP energy -156717.382102 kJ/mol
# GULP energy per Si atom -5597.049361 kJ/mol
# Density = 2.102861 g / cm^3
# Si number density = 21.076577 Si / 1000 Ang^3
#
#
#
# Elastic Constant Matrix: (Units=GPa)
#
#
# Indices 1 2 3 4 5 6 
#
# 1 44.2905 7.8450 25.8665 0.0000 5.5804 0.0000
# 2 7.8450 65.4195 16.1904 0.0000 7.0765 0.0000
# 3 25.8665 16.1904 99.4182 0.0000 2.6827 0.0000
# 4 0.0000 0.0000 0.0000 16.2696 0.0000 -4.3409
# 5 5.5804 7.0765 2.6827 0.0000 40.6219 0.0000
# 6 0.0000 0.0000 0.0000 -4.3409 0.0000 26.7805
#
#
#
# Elastic Compliance Matrix: (Units=1/GPa)
#
#
# Indices 1 2 3 4 5 6 
#
# 1 0.027142 -0.001246 -0.006776 0.000000 -0.003064 0.000000
# 2 -0.001246 0.016266 -0.002257 0.000000 -0.002513 0.000000
# 3 -0.006776 -0.002257 0.012175 0.000000 0.000520 0.000000
# 4 0.000000 0.000000 0.000000 0.064243 0.000000 0.010413
# 5 -0.003064 -0.002513 0.000520 0.000000 0.025442 0.000000
# 6 0.000000 0.000000 0.000000 0.010413 0.000000 0.039028
#
#
# Mechanical properties :
#
#
# Convention : Reuss Voigt Hill
#
# Bulk Modulus (GPa) = 28.55151 34.32577 31.43864
# Shear Modulus (GPa) = 23.09151 27.34949 25.22050
#
# Velocity S-wave (km/s) = 3.31358 3.60616 3.46296
# Velocity P-wave (km/s) = 5.31184 5.80179 5.56222
#
# Compressibility (1/GPa) = 0.03502442
#
# Stress axis : x y z
#
# Youngs Moduli (GPa) = 36.84265 61.47865 82.13524
#
# Poissons Ratio (x) = 0.07663 0.55657
# Poissons Ratio (y) = 0.04592 0.18536
# Poissons Ratio (z) = 0.24965 0.13874
#
# Static dielectric constant tensor:
#      x y z
#    x 1.754140 0.000000 0.000760 
#    y 0.000000 1.744290 0.000000 
#    z 0.000760 0.000000 1.729010 
# 
# From -- ./inp_files/124236.got.cif
#   From: 2010.05.17/outbox.cif.g08.bks.cpg/sg12_63_cif.got.tgz:124236.got - 2010.06.03 13:09:07.
