data_PCOD9216739
_publ_section_title
;
Structure prediction by ZEFSAII (Michael W. Deem and Ramdas Pophale) SiO2 
 PCOD9216739
Probable space group: C 2/M
;
_chemical_formula_sum "Si O2"
_cell_formula_units_Z 40
_cell_length_a 19.642076
_cell_length_b 18.208121
_cell_length_c 4.965588
_cell_angle_alpha 90.000000
_cell_angle_beta 87.127660
_cell_angle_gamma 90.000000
_cell_volume 1773.688043
_symmetry_space_group_name_H-M "C 2/M"
_symmetry_group_IT_number 12
_symmetry_cell_setting 'monoclinic'
loop_
_space_group_symop_operation_xyz
x,y,z
-x,y,-z
-x,-y,-z
x,-y,z
1/2+x,1/2+y,z
1/2-x,1/2+y,-z
1/2-x,1/2-y,-z
1/2+x,1/2-y,z
loop_
_atom_site_type_symbol
_atom_site_label
_atom_site_fract_x
_atom_site_fract_y
_atom_site_fract_z
Si Si1 0.355827 0.205034 0.057669
Si Si2 0.176319 0.085735 0.240052
Si Si3 0.731760 0.662261 0.720167
Si Si4 0.549251 0.916078 0.732586
Si Si5 0.545640 0.679085 0.235364
O O1 0.304934 0.176348 0.836861
O O2 0.414682 0.251735 0.898333
O O3 0.312612 0.263144 0.244523
O O4 0.390524 0.140291 0.218117
O O5 0.227695 0.129407 0.424979
O O6 0.102409 0.120338 0.310416
O O7 0.179080 0.000000 0.288955
O O8 0.195054 0.105303 0.930216
O O9 0.500000 0.893287 0.500000
O O10 0.573654 0.000000 0.675877
O O11 0.500000 0.917854 0.000000
O O12 0.500000 0.698987 0.500000
O O13 0.500000 0.648975 0.000000
#
# Coordination Sequence:
#
# PCOD9216739 Si02
#       5
#     8   8   8   8   8
#     4  10  23  42  66  92 128 162 210 268 308 371
#     4  11  24  43  64  93 132 166 209 263 310 374
#     4  10  24  41  65  95 122 167 213 255 320 370
#     4  10  23  40  59  87 121 158 199 248 308 366
#     4  11  24  40  64  96 126 168 214 253 316 376
#
# _framework density 22.551877999999999
#
# number of rings (size 3 to 8) (size 9 to 14) (size 15 to 20)
#    0.000    1.600    0.000    3.600    0.000   20.800 
#    0.000    2.000    0.000    0.000    0.000    0.000 
#    0.000    0.000    0.000    0.000    0.000    0.000 
#
# Total GULP energy -112097.563922 kJ/mol
# GULP energy per Si atom -5604.878196 kJ/mol
# Density = 2.250055 g / cm^3
# Si number density = 22.551878 Si / 1000 Ang^3
#
#
#
# Elastic Constant Matrix: (Units=GPa)
#
#
# Indices 1 2 3 4 5 6 
#
# 1 89.7197 60.3756 29.5275 0.0000 24.9779 0.0000
# 2 60.3756 157.2813 30.5252 0.0000 27.9185 0.0000
# 3 29.5275 30.5252 97.0030 0.0000 18.6896 0.0000
# 4 0.0000 0.0000 0.0000 22.6950 0.0000 14.2193
# 5 24.9779 27.9185 18.6896 0.0000 40.9757 0.0000
# 6 0.0000 0.0000 0.0000 14.2193 0.0000 31.3528
#
#
#
# Elastic Compliance Matrix: (Units=1/GPa)
#
#
# Indices 1 2 3 4 5 6 
#
# 1 0.016930 -0.004992 -0.002466 0.000000 -0.005794 0.000000
# 2 -0.004992 0.008897 -0.000766 0.000000 -0.002670 0.000000
# 3 -0.002466 -0.000766 0.011962 0.000000 -0.003431 0.000000
# 4 0.000000 0.000000 0.000000 0.061553 0.000000 -0.027916
# 5 -0.005794 -0.002670 -0.003431 0.000000 0.031320 0.000000
# 6 0.000000 0.000000 0.000000 -0.027916 0.000000 0.044556
#
#
# Mechanical properties :
#
#
# Convention : Reuss Voigt Hill
#
# Bulk Modulus (GPa) = 46.85915 64.98448 55.92181
# Shear Modulus (GPa) = 25.15375 33.90975 29.53175
#
# Velocity S-wave (km/s) = 3.34334 3.88188 3.62263
# Velocity P-wave (km/s) = 5.97724 6.99786 6.50759
#
# Compressibility (1/GPa) = 0.02134055
#
# Stress axis : x y z
#
# Youngs Moduli (GPa) = 59.06827 112.40147 83.60037
#
# Poissons Ratio (x) = 0.56107 0.20618
# Poissons Ratio (y) = 0.29485 0.06402
# Poissons Ratio (z) = 0.14567 0.08608
#
# Static dielectric constant tensor:
#      x y z
#    x 1.819220 0.000000 -0.012830 
#    y 0.000000 1.806890 0.000000 
#    z -0.012830 0.000000 1.792840 
# 
# From -- ./inp_files/15215.got.cif
#   From: 2010.05.17/outbox.cif.g08.bks.cpg/sg12_8_cif.got.tgz:15215.got - 2010.06.03 13:09:07.
