data_PCOD9216776
_publ_section_title
;
Structure prediction by ZEFSAII (Michael W. Deem and Ramdas Pophale) SiO2 
 PCOD9216776
Probable space group: C 2/M
;
_chemical_formula_sum "Si O2"
_cell_formula_units_Z 40
_cell_length_a 12.896837
_cell_length_b 24.461960
_cell_length_c 9.086443
_cell_angle_alpha 90.000000
_cell_angle_beta 140.786028
_cell_angle_gamma 90.000000
_cell_volume 1812.322174
_symmetry_space_group_name_H-M "C 2/M"
_symmetry_group_IT_number 12
_symmetry_cell_setting 'monoclinic'
loop_
_space_group_symop_operation_xyz
x,y,z
-x,y,-z
-x,-y,-z
x,-y,z
1/2+x,1/2+y,z
1/2-x,1/2+y,-z
1/2-x,1/2-y,-z
1/2+x,1/2-y,z
loop_
_atom_site_type_symbol
_atom_site_label
_atom_site_fract_x
_atom_site_fract_y
_atom_site_fract_z
Si Si1 0.368218 0.651724 0.470767
Si Si2 0.418173 0.562953 0.753791
Si Si3 0.475346 0.717879 0.144643
Si Si4 0.472972 0.059752 0.643472
Si Si5 0.665037 0.835985 0.972421
O O1 0.500000 0.674546 0.500000
O O2 0.442616 0.598142 0.632389
O O3 0.364329 0.694985 0.596779
O O4 0.214892 0.647895 0.195191
O O5 0.470899 0.500000 0.791715
O O6 0.221697 0.565759 0.550823
O O7 0.500000 0.581125 0.000000
O O8 0.319628 0.682865 0.038304
O O9 0.500000 0.710067 0.000000
O O10 0.441281 0.781005 0.139400
O O11 0.500000 0.057663 0.500000
O O12 0.523067 0.000000 0.761372
O O13 0.572348 0.111337 0.810317
#
# Coordination Sequence:
#
# PCOD9216776 Si02
#       5
#     8   8   8   8   8
#     4  10  23  40  62  97 132 168 225 274 328 395
#     4  10  23  43  68  97 130 176 224 267 329 404
#     4  10  23  42  66  96 134 184 223 267 329 405
#     4  10  24  43  68  99 132 172 219 272 332 392
#     4  10  24  43  66 100 136 171 222 283 330 384
#
# _framework density 22.071131999999999
#
# number of rings (size 3 to 8) (size 9 to 14) (size 15 to 20)
#    0.000    2.000    0.000    0.600   11.200    6.000 
#    0.000    2.000    0.000    0.600    0.000    0.000 
#    0.000    0.000    0.000    0.000    0.000    0.000 
#
# Total GULP energy -111578.348545 kJ/mol
# GULP energy per Si atom -5578.917427 kJ/mol
# Density = 2.202090 g / cm^3
# Si number density = 22.071132 Si / 1000 Ang^3
#
#
#
# Elastic Constant Matrix: (Units=GPa)
#
#
# Indices 1 2 3 4 5 6 
#
# 1 63.1114 23.9024 26.9536 0.0000 -17.4532 0.0000
# 2 23.9024 186.2344 95.7201 0.0000 -5.8999 0.0000
# 3 26.9536 95.7201 132.7796 0.0000 -22.9419 0.0000
# 4 0.0000 0.0000 0.0000 11.3139 0.0000 -3.1014
# 5 -17.4532 -5.8999 -22.9419 0.0000 31.3290 0.0000
# 6 0.0000 0.0000 0.0000 -3.1014 0.0000 31.0585
#
#
#
# Elastic Compliance Matrix: (Units=1/GPa)
#
#
# Indices 1 2 3 4 5 6 
#
# 1 0.019659 -0.001642 -0.001108 0.000000 0.009831 0.000000
# 2 -0.001642 0.008979 -0.006876 0.000000 -0.004259 0.000000
# 3 -0.001108 -0.006876 0.014176 0.000000 0.008469 0.000000
# 4 0.000000 0.000000 0.000000 0.090875 0.000000 0.009074
# 5 0.009831 -0.004259 0.008469 0.000000 0.042796 0.000000
# 6 0.000000 0.000000 0.000000 0.009074 0.000000 0.033103
#
#
# Mechanical properties :
#
#
# Convention : Reuss Voigt Hill
#
# Bulk Modulus (GPa) = 42.44048 75.03083 58.73565
# Shear Modulus (GPa) = 21.12429 30.44356 25.78393
#
# Velocity S-wave (km/s) = 3.09706 3.71797 3.42163
# Velocity P-wave (km/s) = 5.66213 7.24568 6.50229
#
# Compressibility (1/GPa) = 0.02356241
#
# Stress axis : x y z
#
# Youngs Moduli (GPa) = 50.86737 111.36683 70.54119
#
# Poissons Ratio (x) = 0.18287 0.07818
# Poissons Ratio (y) = 0.08353 0.48502
# Poissons Ratio (z) = 0.05638 0.76572
#
# Static dielectric constant tensor:
#      x y z
#    x 2.018520 0.000000 0.031480 
#    y 0.000000 1.848780 0.000000 
#    z 0.031480 0.000000 1.851530 
# 
# From -- ./inp_files/65594.got.cif
#   From: 2010.05.17/outbox.cif.g08.bks.cpg/sg12_33_cif.got.tgz:65594.got - 2010.06.03 13:09:07.
