data_PCOD9216287
_publ_section_title
;
Structure prediction by ZEFSAII (Michael W. Deem and Ramdas Pophale) SiO2 
 PCOD9216287
Probable space group: C 2/M
;
_chemical_formula_sum "Si O2"
_cell_formula_units_Z 36
_cell_length_a 8.022644
_cell_length_b 15.940073
_cell_length_c 21.442395
_cell_angle_alpha 90.000000
_cell_angle_beta 145.169411
_cell_angle_gamma 90.000000
_cell_volume 1566.147747
_symmetry_space_group_name_H-M "C 2/M"
_symmetry_group_IT_number 12
_symmetry_cell_setting 'monoclinic'
loop_
_space_group_symop_operation_xyz
x,y,z
-x,y,-z
-x,-y,-z
x,-y,z
1/2+x,1/2+y,z
1/2-x,1/2+y,-z
1/2-x,1/2-y,-z
1/2+x,1/2-y,z
loop_
_atom_site_type_symbol
_atom_site_label
_atom_site_fract_x
_atom_site_fract_y
_atom_site_fract_z
Si Si1 0.169834 0.000000 0.775287
Si Si2 0.136420 0.000000 0.910592
Si Si3 0.029438 0.331934 0.314856
Si Si4 0.938801 0.167127 0.053158
Si Si5 0.210212 0.648087 0.620538
Si Si6 0.054987 0.500000 0.267051
O O1 0.978959 0.083767 0.704764
O O2 0.219367 0.000000 0.864214
O O3 0.422090 0.000000 0.800654
O O4 0.223642 0.913015 0.968616
O O5 0.780565 0.000000 0.811557
O O6 0.736208 0.320115 0.183388
O O7 0.942941 0.353157 0.359002
O O8 0.187124 0.413503 0.333973
O O9 0.196167 0.244355 0.362330
O O10 0.750000 0.250000 0.000000
O O11 0.000000 0.149907 0.000000
O O12 0.000000 0.621930 0.500000
#
# Coordination Sequence:
#
# PCOD9216287 Si02
#       6
#     4   4   8   8   8   4
#     4  12  23  44  73 100 137 189 227 288 352 405
#     4  10  23  49  67  99 144 175 231 290 338 414
#     4  11  23  45  67 100 146 175 235 293 340 414
#     4  11  23  43  71  99 137 183 225 280 352 407
#     4  12  24  43  69 101 140 184 231 288 350 415
#     4  10  22  43  74  96 133 194 221 280 356 400
#
# _framework density 22.986336000000001
#
# number of rings (size 3 to 8) (size 9 to 14) (size 15 to 20)
#    0.000    0.889    4.444    4.000    0.000    1.778 
#    0.000    3.333    0.000    0.000    0.000    0.000 
#    0.000    0.000    0.000    0.000    0.000    0.000 
#
# Total GULP energy -100823.407978 kJ/mol
# GULP energy per Si atom -5601.300443 kJ/mol
# Density = 2.293402 g / cm^3
# Si number density = 22.986336 Si / 1000 Ang^3
#
#
#
# Elastic Constant Matrix: (Units=GPa)
#
#
# Indices 1 2 3 4 5 6 
#
# 1 134.1234 5.3608 41.7158 0.0000 -40.1611 -0.0001
# 2 5.3608 127.6828 12.6642 0.0005 13.3494 0.0005
# 3 41.7158 12.6642 108.1860 0.0006 -38.2275 0.0002
# 4 0.0000 0.0005 0.0006 38.1242 0.0000 0.1305
# 5 -40.1611 13.3494 -38.2275 0.0000 32.2251 -0.0003
# 6 -0.0001 0.0005 0.0002 0.1305 -0.0003 46.8273
#
#
#
# Elastic Compliance Matrix: (Units=1/GPa)
#
#
# Indices 1 2 3 4 5 6 
#
# 1 0.012831 -0.002900 0.002525 0.000000 0.020188 0.000000
# 2 -0.002900 0.009811 -0.004723 0.000000 -0.013281 0.000000
# 3 0.002525 -0.004723 0.018294 0.000000 0.026806 0.000000
# 4 0.000000 0.000000 0.000000 0.026230 0.000000 -0.000073
# 5 0.020188 -0.013281 0.026806 0.000000 0.093492 0.000001
# 6 0.000000 0.000000 0.000000 -0.000073 0.000001 0.021355
#
#
# Mechanical properties :
#
#
# Convention : Reuss Voigt Hill
#
# Bulk Modulus (GPa) = 32.52998 54.38597 43.45798
# Shear Modulus (GPa) = 24.69669 44.11873 34.40771
#
# Velocity S-wave (km/s) = 3.28137 4.38579 3.87315
# Velocity P-wave (km/s) = 5.34220 7.02555 6.24089
#
# Compressibility (1/GPa) = 0.03074087
#
# Stress axis : x y z
#
# Youngs Moduli (GPa) = 77.93401 101.92984 54.66212
#
# Poissons Ratio (x) = 0.29559 -0.13804
# Poissons Ratio (y) = 0.22600 0.25817
# Poissons Ratio (z) = -0.19681 0.48142
#
# Static dielectric constant tensor:
#      x y z
#    x 1.826640 0.000000 0.058220 
#    y 0.000000 1.866350 0.000000 
#    z 0.058220 0.000000 1.855890 
# 
# From -- ./inp_files/300251.got.cif
#   From: 2010.05.17/outbox.cif.g08.bks.cpg/sg12_151_cif.got.tgz:300251.got - 2010.06.03 13:09:07.
