data_PCOD9216605
_publ_section_title
;
Structure prediction by ZEFSAII (Michael W. Deem and Ramdas Pophale) SiO2 
 PCOD9216605
Probable space group: C 2/M
;
_chemical_formula_sum "Si O2"
_cell_formula_units_Z 64
_cell_length_a 13.106375
_cell_length_b 27.314094
_cell_length_c 18.565770
_cell_angle_alpha 90.000000
_cell_angle_beta 28.957798
_cell_angle_gamma 90.000000
_cell_volume 3217.925564
_symmetry_space_group_name_H-M "C 2/M"
_symmetry_group_IT_number 12
_symmetry_cell_setting 'monoclinic'
loop_
_space_group_symop_operation_xyz
x,y,z
-x,y,-z
-x,-y,-z
x,-y,z
1/2+x,1/2+y,z
1/2-x,1/2+y,-z
1/2-x,1/2-y,-z
1/2+x,1/2-y,z
loop_
_atom_site_type_symbol
_atom_site_label
_atom_site_fract_x
_atom_site_fract_y
_atom_site_fract_z
Si Si1 0.976787 0.843156 0.595830
Si Si2 0.673334 0.058808 0.334453
Si Si3 0.059842 0.778297 0.154977
Si Si4 0.150109 0.732364 0.340478
Si Si5 0.241975 0.107322 0.869387
Si Si6 0.842293 0.942978 0.930765
Si Si7 0.055782 0.691406 0.674491
Si Si8 0.735147 0.134614 0.879639
O O1 0.212444 0.830218 0.474942
O O2 0.000000 0.862862 0.500000
O O3 0.847890 0.791553 0.670075
O O4 0.864699 0.874848 0.726111
O O5 0.500000 0.074797 0.500000
O O6 0.662621 0.084900 0.263308
O O7 0.906365 0.067519 0.222585
O O8 0.651818 0.000000 0.336831
O O9 0.150747 0.821257 0.147894
O O10 0.879455 0.791626 0.209175
O O11 0.938911 0.738565 0.278220
O O12 0.250000 0.750000 0.000000
O O13 0.000000 0.721619 0.500000
O O14 0.036413 0.709808 0.342874
O O15 0.387281 0.151820 0.805860
O O16 0.232848 0.070056 0.941973
O O17 0.000000 0.120968 0.000000
O O18 0.736524 0.909928 0.934991
O O19 0.810143 0.000000 0.936430
O O20 0.500000 0.147985 0.000000
#
# Coordination Sequence:
#
# PCOD9216605 Si02
#       8
#     8   8   8   8   8   8   8   8
#     4  11  23  44  64  89 130 176 216 260 319 383
#     4   9  19  38  65  97 129 160 203 265 331 385
#     4  12  25  38  61  90 130 168 212 264 310 365
#     4  11  22  40  59  84 124 174 212 250 303 369
#     4  10  23  38  62  96 132 169 212 256 322 383
#     4  10  23  45  68  91 126 166 212 267 328 395
#     4  12  24  38  63  93 131 172 214 257 312 375
#     4  12  27  43  67  94 123 166 224 270 324 384
#
# _framework density 19.888589
#
# number of rings (size 3 to 8) (size 9 to 14) (size 15 to 20)
#    0.000    1.125    3.750    3.000    8.750    2.250 
#    0.000    0.000    0.000    0.375    0.000    0.000 
#    0.000    0.000    0.000    0.000    0.000    0.000 
#
# Total GULP energy -178895.747894 kJ/mol
# GULP energy per Si atom -5590.492122 kJ/mol
# Density = 1.984332 g / cm^3
# Si number density = 19.888589 Si / 1000 Ang^3
#
#
#
# Elastic Constant Matrix: (Units=GPa)
#
#
# Indices 1 2 3 4 5 6 
#
# 1 111.2053 14.2914 37.6865 0.0074 -1.9274 -0.0100
# 2 14.2914 44.7636 11.3905 0.0183 -2.5393 -0.0278
# 3 37.6865 11.3905 94.0188 -0.0084 11.2106 0.0222
# 4 0.0074 0.0183 -0.0084 18.2192 -0.0014 7.7502
# 5 -1.9274 -2.5393 11.2106 -0.0014 35.5749 -0.0086
# 6 -0.0100 -0.0278 0.0222 7.7502 -0.0086 17.0117
#
#
#
# Elastic Compliance Matrix: (Units=1/GPa)
#
#
# Indices 1 2 3 4 5 6 
#
# 1 0.010751 -0.002252 -0.004247 -0.000010 0.001760 0.000013
# 2 -0.002252 0.023760 -0.002248 -0.000051 0.002282 0.000065
# 3 -0.004247 -0.002248 0.013151 0.000026 -0.004535 -0.000037
# 4 -0.000010 -0.000051 0.000026 0.068081 -0.000017 -0.031017
# 5 0.001760 0.002282 -0.004535 -0.000017 0.029797 0.000033
# 6 0.000013 0.000065 -0.000037 -0.031017 0.000033 0.072914
#
#
# Mechanical properties :
#
#
# Convention : Reuss Voigt Hill
#
# Bulk Modulus (GPa) = 33.14590 41.85825 37.50208
# Shear Modulus (GPa) = 20.32473 26.60244 23.46358
#
# Velocity S-wave (km/s) = 3.20023 3.66125 3.43848
# Velocity P-wave (km/s) = 5.50974 6.24220 5.88737
#
# Compressibility (1/GPa) = 0.03016964
#
# Stress axis : x y z
#
# Youngs Moduli (GPa) = 93.01064 42.08727 76.03704
#
# Poissons Ratio (x) = 0.09478 0.32290
# Poissons Ratio (y) = 0.20947 0.17093
# Poissons Ratio (z) = 0.39498 0.09461
#
# Static dielectric constant tensor:
#      x y z
#    x 1.586700 0.000030 -0.006150 
#    y 0.000030 1.732120 0.000040 
#    z -0.006150 0.000040 1.707220 
# 
# From -- ./inp_files/266266.got.cif
#   From: 2010.05.17/outbox.cif.g08.bks.cpg/sg12_134_cif.got.tgz:266266.got - 2010.06.03 13:09:07.
