data_PCOD9216514
_publ_section_title
;
Structure prediction by ZEFSAII (Michael W. Deem and Ramdas Pophale) SiO2 
 PCOD9216514
Probable space group: C 2/M
;
_chemical_formula_sum "Si O2"
_cell_formula_units_Z 64
_cell_length_a 15.391094
_cell_length_b 23.006353
_cell_length_c 13.768274
_cell_angle_alpha 90.000000
_cell_angle_beta 42.628488
_cell_angle_gamma 90.000000
_cell_volume 3301.722557
_symmetry_space_group_name_H-M "C 2/M"
_symmetry_group_IT_number 12
_symmetry_cell_setting 'monoclinic'
loop_
_space_group_symop_operation_xyz
x,y,z
-x,y,-z
-x,-y,-z
x,-y,z
1/2+x,1/2+y,z
1/2-x,1/2+y,-z
1/2-x,1/2-y,-z
1/2+x,1/2-y,z
loop_
_atom_site_type_symbol
_atom_site_label
_atom_site_fract_x
_atom_site_fract_y
_atom_site_fract_z
Si Si1 0.772935 0.765707 0.304361
Si Si2 0.378691 0.336901 0.045408
Si Si3 0.474171 0.729580 0.784035
Si Si4 0.262829 0.065200 0.446347
Si Si5 0.488361 0.067804 0.896941
Si Si6 0.415081 0.335301 0.485639
Si Si7 0.403419 0.123831 0.493863
Si Si8 0.626036 0.148926 0.162323
O O1 0.839756 0.782623 0.147404
O O2 0.884795 0.753762 0.290652
O O3 0.680869 0.710563 0.384575
O O4 0.688674 0.822984 0.399266
O O5 0.246212 0.368937 0.130154
O O6 0.500000 0.365826 0.000000
O O7 0.425801 0.316663 0.901847
O O8 0.497656 0.701514 0.660323
O O9 0.377053 0.783450 0.863338
O O10 0.376606 0.071181 0.272399
O O11 0.162823 0.116189 0.508210
O O12 0.321438 0.075317 0.505595
O O13 0.210675 0.000000 0.481068
O O14 0.392252 0.108386 0.915691
O O15 0.448578 0.000000 0.927227
O O16 0.500000 0.085368 0.000000
O O17 0.500000 0.362960 0.500000
O O18 0.500000 0.105296 0.500000
O O19 0.499045 0.145908 0.331997
#
# Coordination Sequence:
#
# PCOD9216514 Si02
#       8
#     8   8   8   8   8   8   8   8
#     4  11  19  37  58  88 118 152 189 232 302 352
#     4  10  23  36  53  83 125 153 185 239 292 357
#     4  11  22  35  55  86 124 156 186 239 296 345
#     4  10  23  40  57  86 116 149 201 251 287 335
#     4   9  20  38  60  84 114 152 194 246 295 339
#     4  12  23  36  59  85 118 161 200 234 285 357
#     4  11  19  34  64  87 113 147 186 243 298 348
#     4  11  20  34  59  87 115 151 198 237 287 355
#
# _framework density 19.383821999999999
#
# number of rings (size 3 to 8) (size 9 to 14) (size 15 to 20)
#    0.000    1.375    3.750    3.375    0.000    4.000 
#    0.000    0.000    0.000    1.125    0.000    0.000 
#    0.000    0.000    0.000    0.000    0.000    0.000 
#
# Total GULP energy -178533.195218 kJ/mol
# GULP energy per Si atom -5579.162351 kJ/mol
# Density = 1.933970 g / cm^3
# Si number density = 19.383822 Si / 1000 Ang^3
#
#
#
# Elastic Constant Matrix: (Units=GPa)
#
#
# Indices 1 2 3 4 5 6 
#
# 1 133.9228 37.7124 24.3757 -0.0008 6.7723 0.0001
# 2 37.7124 66.0765 12.6643 -0.0001 -2.2033 0.0000
# 3 24.3757 12.6643 42.1020 -0.0010 -8.2918 0.0003
# 4 -0.0008 -0.0001 -0.0010 8.7901 0.0005 8.8338
# 5 6.7723 -2.2033 -8.2918 0.0005 24.1213 -0.0001
# 6 0.0001 0.0000 0.0003 8.8338 -0.0001 12.0108
#
#
#
# Elastic Compliance Matrix: (Units=1/GPa)
#
#
# Indices 1 2 3 4 5 6 
#
# 1 0.010083 -0.004896 -0.005375 0.000002 -0.005126 -0.000002
# 2 -0.004896 0.018438 -0.002263 -0.000003 0.002281 0.000002
# 3 -0.005375 -0.002263 0.029819 0.000010 0.011553 -0.000008
# 4 0.000002 -0.000003 0.000010 0.436106 -0.000006 -0.320749
# 5 -0.005126 0.002281 0.011553 -0.000006 0.047076 0.000005
# 6 -0.000002 0.000002 -0.000008 -0.320749 0.000005 0.319164
#
#
# Mechanical properties :
#
#
# Convention : Reuss Voigt Hill
#
# Bulk Modulus (GPa) = 30.05275 43.51177 36.78226
# Shear Modulus (GPa) = 5.57511 20.14104 12.85808
#
# Velocity S-wave (km/s) = 1.69777 3.22695 2.57833
# Velocity P-wave (km/s) = 4.40238 6.03162 5.28022
#
# Compressibility (1/GPa) = 0.03327482
#
# Stress axis : x y z
#
# Youngs Moduli (GPa) = 99.17662 54.23657 33.53516
#
# Poissons Ratio (x) = 0.26552 0.18024
# Poissons Ratio (y) = 0.48553 0.07587
# Poissons Ratio (z) = 0.53304 0.12271
#
# Static dielectric constant tensor:
#      x y z
#    x 1.715780 0.000000 -0.018650 
#    y 0.000000 1.659620 0.000000 
#    z -0.018650 0.000000 1.696370 
# 
# From -- ./inp_files/218504.got.cif
#   From: 2010.05.17/outbox.cif.g08.bks.cpg/sg12_110_cif.got.tgz:218504.got - 2010.06.03 13:09:07.
