data_PCOD9216578
_publ_section_title
;
Structure prediction by ZEFSAII (Michael W. Deem and Ramdas Pophale) SiO2 
 PCOD9216578
Probable space group: C 2/M
;
_chemical_formula_sum "Si O2"
_cell_formula_units_Z 42
_cell_length_a 24.677911
_cell_length_b 23.207828
_cell_length_c 11.636885
_cell_angle_alpha 90.000000
_cell_angle_beta 20.403578
_cell_angle_gamma 90.000000
_cell_volume 2323.513013
_symmetry_space_group_name_H-M "C 2/M"
_symmetry_group_IT_number 12
_symmetry_cell_setting 'monoclinic'
loop_
_space_group_symop_operation_xyz
x,y,z
-x,y,-z
-x,-y,-z
x,-y,z
1/2+x,1/2+y,z
1/2-x,1/2+y,-z
1/2-x,1/2-y,-z
1/2+x,1/2-y,z
loop_
_atom_site_type_symbol
_atom_site_label
_atom_site_fract_x
_atom_site_fract_y
_atom_site_fract_z
Si Si1 0.334772 0.771458 0.565454
Si Si2 0.500000 0.000000 0.500000
Si Si3 0.453798 0.567737 0.780314
Si Si4 0.097381 0.288882 0.202135
Si Si5 0.046808 0.169777 0.037815
Si Si6 0.250836 0.406518 0.967242
O O1 0.472112 0.807077 0.353737
O O2 0.423403 0.716102 0.335855
O O3 0.217738 0.752273 0.899380
O O4 0.220574 0.803373 0.704345
O O5 0.387992 0.049931 0.777303
O O6 0.444751 0.500000 0.828149
O O7 0.454710 0.611731 0.884042
O O8 0.608131 0.579440 0.398694
O O9 0.313459 0.582700 0.971807
O O10 0.000000 0.260864 0.500000
O O11 0.189382 0.342638 0.069460
O O12 0.000000 0.159599 0.000000
#
# Coordination Sequence:
#
# PCOD9216578 Si02
#       6
#     8   2   8   8   8   8
#     4  10  23  38  57  86 119 154 194 247 289 349
#     4  12  20  34  60  84 114 158 184 230 284 344
#     4  11  22  40  58  85 121 155 190 235 295 346
#     4  11  20  34  55  88 123 150 183 232 299 357
#     4  11  23  41  62  84 113 158 206 246 289 336
#     4  11  21  35  58  88 118 150 186 232 287 358
#
# _framework density 18.076077000000002
#
# number of rings (size 3 to 8) (size 9 to 14) (size 15 to 20)
#    0.000    1.143    4.762    2.857    0.000    1.905 
#    0.000    0.000    0.000    0.000    0.000    2.667 
#    0.000    0.000    0.000    0.000    0.000    0.000 
#
# Total GULP energy -117006.640916 kJ/mol
# GULP energy per Si atom -5571.744806 kJ/mol
# Density = 1.803494 g / cm^3
# Si number density = 18.076077 Si / 1000 Ang^3
#
#
#
# Elastic Constant Matrix: (Units=GPa)
#
#
# Indices 1 2 3 4 5 6 
#
# 1 110.0653 67.4676 15.1239 -0.0039 -7.9258 0.0025
# 2 67.4676 104.7909 27.9214 0.0027 -9.1969 0.0003
# 3 15.1239 27.9214 52.9477 -0.0014 -13.1581 -0.0044
# 4 -0.0039 0.0027 -0.0014 4.2111 -0.0004 25.2231
# 5 -7.9258 -9.1969 -13.1581 -0.0004 25.5441 0.0006
# 6 0.0025 0.0003 -0.0044 25.2231 0.0006 -25.6673
#
#
#
# Elastic Compliance Matrix: (Units=1/GPa)
#
#
# Indices 1 2 3 4 5 6 
#
# 1 0.015123 -0.009943 0.001377 0.000002 0.001821 0.000003
# 2 -0.009943 0.017669 -0.006495 -0.000004 -0.000069 -0.000003
# 3 0.001377 -0.006495 0.024591 0.000006 0.010756 0.000002
# 4 0.000002 -0.000004 0.000006 0.034485 0.000002 0.033889
# 5 0.001821 -0.000069 0.010756 0.000002 0.045229 0.000001
# 6 0.000003 -0.000003 0.000002 0.033889 0.000001 -0.005658
#
#
# Mechanical properties :
#
#
# Convention : Reuss Voigt Hill
#
# Bulk Modulus (GPa) = 36.68363 54.31440 45.49902
# Shear Modulus (GPa) = 29.29998 11.30364 20.30181
#
# Velocity S-wave (km/s) = 4.03044 2.50339 3.35495
# Velocity P-wave (km/s) = 6.48054 6.20232 6.34296
#
# Compressibility (1/GPa) = 0.02726011
#
# Stress axis : x y z
#
# Youngs Moduli (GPa) = 66.12646 56.59626 40.66498
#
# Poissons Ratio (x) = 0.56275 -0.05598
# Poissons Ratio (y) = 0.65751 0.26410
# Poissons Ratio (z) = -0.09102 0.36757
#
# Static dielectric constant tensor:
#      x y z
#    x 1.633480 0.000000 -0.029070 
#    y 0.000000 1.599060 0.000000 
#    z -0.029070 0.000000 1.645980 
# 
# From -- ./inp_files/121352.got.cif
#   From: 2010.05.17/outbox.cif.g08.bks.cpg/sg12_61_cif.got.tgz:121352.got - 2010.06.03 13:09:07.
