data_PCOD9216743
_publ_section_title
;
Structure prediction by ZEFSAII (Michael W. Deem and Ramdas Pophale) SiO2 
 PCOD9216743
Probable space group: C 2/M
;
_chemical_formula_sum "Si O2"
_cell_formula_units_Z 48
_cell_length_a 12.076144
_cell_length_b 18.373328
_cell_length_c 11.755873
_cell_angle_alpha 90.000000
_cell_angle_beta 114.199644
_cell_angle_gamma 90.000000
_cell_volume 2379.163253
_symmetry_space_group_name_H-M "C 2/M"
_symmetry_group_IT_number 12
_symmetry_cell_setting 'monoclinic'
loop_
_space_group_symop_operation_xyz
x,y,z
-x,y,-z
-x,-y,-z
x,-y,z
1/2+x,1/2+y,z
1/2-x,1/2+y,-z
1/2-x,1/2-y,-z
1/2+x,1/2-y,z
loop_
_atom_site_type_symbol
_atom_site_label
_atom_site_fract_x
_atom_site_fract_y
_atom_site_fract_z
Si Si1 0.257167 0.152215 0.578930
Si Si2 0.213114 0.500000 0.116143
Si Si3 0.530535 0.340831 0.146963
Si Si4 0.293012 0.798545 0.338423
Si Si5 0.523104 0.805563 0.777057
Si Si6 0.858663 0.000000 0.406373
Si Si7 0.951532 0.000000 0.108094
Si Si8 0.000000 0.385690 0.000000
O O1 0.271889 0.163937 0.450815
O O2 0.180402 0.215492 0.610097
O O3 0.389023 0.168361 0.686758
O O4 0.202639 0.073432 0.574071
O O5 0.315670 0.500000 0.256751
O O6 0.304012 0.500000 0.046777
O O7 0.118577 0.566560 0.082131
O O8 0.668185 0.313583 0.219271
O O9 0.461265 0.280710 0.193303
O O10 0.502081 0.422887 0.176426
O O11 0.500000 0.336532 0.000000
O O12 0.394708 0.826109 0.295402
O O13 0.543218 0.840854 0.908753
O O14 0.000000 0.000000 0.500000
O O15 0.000000 0.000000 0.000000
#
# Coordination Sequence:
#
# PCOD9216743 Si02
#       8
#     8   4   8   8   8   4   4   4
#     4  10  24  47  62 101 128 169 234 271 331 405
#     4  11  26  46  67  97 139 180 214 290 335 398
#     4  10  23  40  60 102 133 171 225 268 334 406
#     4  10  24  42  70  91 136 175 218 284 336 390
#     4  11  22  42  70  95 129 179 224 279 330 401
#     4  12  27  43  70  96 130 178 221 269 333 401
#     4  10  25  41  60  94 140 170 214 269 336 399
#     4  11  24  44  70 101 136 174 232 273 346 398
#
# _framework density 20.175160999999999
#
# number of rings (size 3 to 8) (size 9 to 14) (size 15 to 20)
#    0.000    1.500    2.500    0.500    9.333    3.333 
#    0.000    4.167    0.000    0.000    0.000    0.000 
#    0.000    0.000    0.000    0.000    0.000    0.000 
#
# Total GULP energy -133788.010147 kJ/mol
# GULP energy per Si atom -5574.500423 kJ/mol
# Density = 2.012924 g / cm^3
# Si number density = 20.175161 Si / 1000 Ang^3
#
#
#
# Elastic Constant Matrix: (Units=GPa)
#
#
# Indices 1 2 3 4 5 6 
#
# 1 95.2801 43.0801 33.4075 0.0000 -16.2636 0.0000
# 2 43.0801 148.4848 44.9416 0.0000 -0.7556 0.0000
# 3 33.4075 44.9416 123.4742 0.0000 -2.0897 0.0000
# 4 0.0000 0.0000 0.0000 -100.5531 0.0000 71.3162
# 5 -16.2636 -0.7556 -2.0897 0.0000 33.0926 0.0000
# 6 0.0000 0.0000 0.0000 71.3162 0.0000 -26.3118
#
#
#
# Elastic Compliance Matrix: (Units=1/GPa)
#
#
# Indices 1 2 3 4 5 6 
#
# 1 0.013976 -0.003271 -0.002479 0.000000 0.006638 0.000000
# 2 -0.003271 0.008334 -0.002175 0.000000 -0.001555 0.000000
# 3 -0.002479 -0.002175 0.009550 0.000000 -0.000665 0.000000
# 4 0.000000 0.000000 0.000000 0.010782 0.000000 0.029225
# 5 0.006638 -0.001555 -0.000665 0.000000 0.033403 0.000000
# 6 0.000000 0.000000 0.000000 0.029225 0.000000 0.041206
#
#
# Mechanical properties :
#
#
# Convention : Reuss Voigt Hill
#
# Bulk Modulus (GPa) = 62.45476 67.78862 65.12169
# Shear Modulus (GPa) = 36.11754 -2.36712 16.87521
#
# Velocity S-wave (km/s) = 4.23566 -1.08436 2.89526
# Velocity P-wave (km/s) = 7.41246 5.66615 6.59734
#
# Compressibility (1/GPa) = 0.01601159
#
# Stress axis : x y z
#
# Youngs Moduli (GPa) = 71.54936 119.99025 104.71486
#
# Poissons Ratio (x) = 0.39249 0.25954
# Poissons Ratio (y) = 0.23404 0.22772
# Poissons Ratio (z) = 0.17734 0.26094
#
# Static dielectric constant tensor:
#      x y z
#    x 1.719830 0.000000 -0.008830 
#    y 0.000000 1.746740 0.000000 
#    z -0.008830 0.000000 1.742030 
# 
# From -- ./inp_files/131821.got.cif
#   From: 2010.05.17/outbox.cif.g08.bks.cpg/sg12_66_cif.got.tgz:131821.got - 2010.06.03 13:09:07.
