data_PCOD9216133
_publ_section_title
;
Structure prediction by ZEFSAII (Michael W. Deem and Ramdas Pophale) SiO2 
 PCOD9216133
Probable space group: C 2/M
;
_chemical_formula_sum "Si O2"
_cell_formula_units_Z 40
_cell_length_a 15.950401
_cell_length_b 21.020214
_cell_length_c 13.458048
_cell_angle_alpha 90.000000
_cell_angle_beta 158.234383
_cell_angle_gamma 90.000000
_cell_volume 1673.181052
_symmetry_space_group_name_H-M "C 2/M"
_symmetry_group_IT_number 12
_symmetry_cell_setting 'monoclinic'
loop_
_space_group_symop_operation_xyz
x,y,z
-x,y,-z
-x,-y,-z
x,-y,z
1/2+x,1/2+y,z
1/2-x,1/2+y,-z
1/2-x,1/2-y,-z
1/2+x,1/2-y,z
loop_
_atom_site_type_symbol
_atom_site_label
_atom_site_fract_x
_atom_site_fract_y
_atom_site_fract_z
Si Si1 0.917578 0.261458 0.558708
Si Si2 0.761804 0.666841 0.217708
Si Si3 0.999410 0.072177 0.208577
Si Si4 0.714502 0.572885 0.807462
Si Si5 0.375563 0.153047 0.701223
O O1 0.726931 0.300204 0.285771
O O2 0.824042 0.190756 0.461915
O O3 0.943840 0.295268 0.693155
O O4 0.147959 0.275421 0.753051
O O5 0.000000 0.629628 0.500000
O O6 0.602418 0.620445 0.983461
O O7 0.861576 0.076239 0.160717
O O8 0.252902 0.094095 0.512723
O O9 0.992001 0.000000 0.164936
O O10 0.500000 0.582795 0.500000
O O11 0.793624 0.500000 0.875639
O O12 0.910167 0.624497 0.007775
#
# Coordination Sequence:
#
# PCOD9216133 Si02
#       5
#     8   8   8   8   8
#     4   8  20  40  67  93 134 174 219 270 326 400
#     4   8  18  43  63  98 135 177 215 266 332 403
#     4  11  23  39  67  99 136 175 217 279 336 393
#     4  10  22  43  66  93 132 175 226 280 333 395
#     4  11  20  41  66 100 127 175 228 274 328 398
#
# _framework density 23.906556999999999
#
# number of rings (size 3 to 8) (size 9 to 14) (size 15 to 20)
#    1.200    1.000    2.000    0.600    0.000    2.800 
#    3.600   10.000    0.000    0.000    0.000    0.000 
#    0.000    0.000    0.000    0.000    0.000    0.000 
#
# Total GULP energy -111688.975682 kJ/mol
# GULP energy per Si atom -5584.448784 kJ/mol
# Density = 2.385214 g / cm^3
# Si number density = 23.906557 Si / 1000 Ang^3
#
#
#
# Elastic Constant Matrix: (Units=GPa)
#
#
# Indices 1 2 3 4 5 6 
#
# 1 50.8870 48.6262 13.1331 -0.0001 -9.2482 0.0000
# 2 48.6262 159.9042 81.6381 0.0000 -3.7081 0.0000
# 3 13.1331 81.6381 127.1278 0.0000 -18.2485 -0.0001
# 4 -0.0001 0.0000 0.0000 44.7698 0.0000 -0.3381
# 5 -9.2482 -3.7081 -18.2485 0.0000 24.0757 0.0000
# 6 0.0000 0.0000 -0.0001 -0.3381 0.0000 20.3583
#
#
#
# Elastic Compliance Matrix: (Units=1/GPa)
#
#
# Indices 1 2 3 4 5 6 
#
# 1 0.034065 -0.014000 0.007899 0.000000 0.016917 0.000000
# 2 -0.014000 0.015324 -0.009905 0.000000 -0.010525 0.000000
# 3 0.007899 -0.009905 0.015291 0.000000 0.013099 0.000000
# 4 0.000000 0.000000 0.000000 0.022339 0.000000 0.000371
# 5 0.016917 -0.010525 0.013099 0.000000 0.056341 0.000000
# 6 0.000000 0.000000 0.000000 0.000371 0.000000 0.049126
#
#
# Mechanical properties :
#
#
# Convention : Reuss Voigt Hill
#
# Bulk Modulus (GPa) = 30.61009 69.41265 50.01137
# Shear Modulus (GPa) = 21.24157 30.80887 26.02522
#
# Velocity S-wave (km/s) = 2.98405 3.59377 3.30301
# Velocity P-wave (km/s) = 4.97037 6.80575 5.95915
#
# Compressibility (1/GPa) = 0.03266897
#
# Stress axis : x y z
#
# Youngs Moduli (GPa) = 29.35577 65.25710 65.39698
#
# Poissons Ratio (x) = 0.91358 -0.51660
# Poissons Ratio (y) = 0.41097 0.64777
# Poissons Ratio (z) = -0.23189 0.64639
#
# Static dielectric constant tensor:
#      x y z
#    x 1.995830 0.000000 0.065580 
#    y 0.000000 1.856440 0.000000 
#    z 0.065580 0.000000 1.966390 
# 
# From -- ./inp_files/227696.got.cif
#   From: 2010.05.17/outbox.cif.g08.bks.cpg/sg12_114_cif.got.tgz:227696.got - 2010.06.03 13:09:07.
