data_PCOD9216128
_publ_section_title
;
Structure prediction by ZEFSAII (Michael W. Deem and Ramdas Pophale) SiO2 
 PCOD9216128
Probable space group: C 2/M
;
_chemical_formula_sum "Si O2"
_cell_formula_units_Z 32
_cell_length_a 4.901086
_cell_length_b 20.210179
_cell_length_c 12.872283
_cell_angle_alpha 90.000000
_cell_angle_beta 70.260140
_cell_angle_gamma 90.000000
_cell_volume 1200.097418
_symmetry_space_group_name_H-M "C 2/M"
_symmetry_group_IT_number 12
_symmetry_cell_setting 'monoclinic'
loop_
_space_group_symop_operation_xyz
x,y,z
-x,y,-z
-x,-y,-z
x,-y,z
1/2+x,1/2+y,z
1/2-x,1/2+y,-z
1/2-x,1/2-y,-z
1/2+x,1/2-y,z
loop_
_atom_site_type_symbol
_atom_site_label
_atom_site_fract_x
_atom_site_fract_y
_atom_site_fract_z
Si Si1 0.759754 0.000000 0.631002
Si Si2 0.079258 0.210149 0.651869
Si Si3 0.037226 0.838974 0.884527
Si Si4 0.500000 0.895901 0.500000
Si Si5 0.089939 0.573140 0.846540
O O1 0.673569 0.943303 0.556228
O O2 0.787314 0.943392 0.720397
O O3 0.294143 0.273460 0.623852
O O4 0.269325 0.149579 0.588682
O O5 0.000963 0.201075 0.783532
O O6 0.792046 0.896058 0.908380
O O7 0.344430 0.875768 0.845143
O O8 0.000000 0.803591 0.000000
O O9 0.964393 0.500000 0.885979
#
# Coordination Sequence:
#
# PCOD9216128 Si02
#       5
#     4   8   8   4   8
#     4   9  22  44  76 103 146 182 219 292 342 440
#     4  12  27  48  72 100 140 184 238 293 338 406
#     4  12  25  44  70 100 141 183 235 286 340 416
#     4  11  22  48  74 108 138 183 236 276 364 407
#     4  10  22  43  66 106 140 183 222 280 351 411
#
# _framework density 26.664504000000001
#
# number of rings (size 3 to 8) (size 9 to 14) (size 15 to 20)
#    0.750    0.250    2.500    3.750    0.000    4.000 
#    0.000    1.250    0.000    0.000    0.000    0.000 
#    0.000    0.000    0.000    0.000    0.000    0.000 
#
# Total GULP energy -89202.716947 kJ/mol
# GULP energy per Si atom -5575.169809 kJ/mol
# Density = 2.660381 g / cm^3
# Si number density = 26.664504 Si / 1000 Ang^3
#
#
#
# Elastic Constant Matrix: (Units=GPa)
#
#
# Indices 1 2 3 4 5 6 
#
# 1 106.1707 22.0316 -3.0374 0.0000 2.1354 0.0000
# 2 22.0316 84.7395 15.8122 0.0000 -12.3222 0.0000
# 3 -3.0374 15.8122 126.0134 0.0000 19.3666 0.0000
# 4 0.0000 0.0000 0.0000 44.6767 0.0000 17.1054
# 5 2.1354 -12.3222 19.3666 0.0000 41.9393 0.0000
# 6 0.0000 0.0000 0.0000 17.1054 0.0000 -1.7384
#
#
#
# Elastic Compliance Matrix: (Units=1/GPa)
#
#
# Indices 1 2 3 4 5 6 
#
# 1 0.010118 -0.003068 0.000911 0.000000 -0.001837 0.000000
# 2 -0.003068 0.013889 -0.002656 0.000000 0.005463 0.000000
# 3 0.000911 -0.002656 0.009061 0.000000 -0.005011 0.000000
# 4 0.000000 0.000000 0.000000 0.004695 0.000000 0.046198
# 5 -0.001837 0.005463 -0.005011 0.000000 0.027857 0.000000
# 6 0.000000 0.000000 0.000000 0.046198 0.000000 -0.120662
#
#
# Mechanical properties :
#
#
# Convention : Reuss Voigt Hill
#
# Bulk Modulus (GPa) = 42.65838 42.94850 42.80344
# Shear Modulus (GPa) = -132.97223 35.78333 -48.59445
#
# Velocity S-wave (km/s) = -7.06943 3.66728 -4.27364
# Velocity P-wave (km/s) = 7.11357 5.83729 2.87481
#
# Compressibility (1/GPa) = 0.02344205
#
# Stress axis : x y z
#
# Youngs Moduli (GPa) = 98.82941 72.00131 110.36209
#
# Poissons Ratio (x) = 0.22089 -0.10057
# Poissons Ratio (y) = 0.30320 0.29316
# Poissons Ratio (z) = -0.09006 0.19126
#
# Static dielectric constant tensor:
#      x y z
#    x 2.016830 0.000000 -0.139130 
#    y 0.000000 2.043420 0.000000 
#    z -0.139130 0.000000 2.203660 
# 
# From -- ./inp_files/190882.got.cif
#   From: 2010.05.17/outbox.cif.g08.bks.cpg/sg12_96_cif.got.tgz:190882.got - 2010.06.03 13:09:07.
