data_PCOD9216047
_publ_section_title
;
Structure prediction by ZEFSAII (Michael W. Deem and Ramdas Pophale) SiO2 
 PCOD9216047
Probable space group: C 2/M
;
_chemical_formula_sum "Si O2"
_cell_formula_units_Z 52
_cell_length_a 15.112964
_cell_length_b 19.198491
_cell_length_c 13.372234
_cell_angle_alpha 90.000000
_cell_angle_beta 145.486120
_cell_angle_gamma 90.000000
_cell_volume 2198.375000
_symmetry_space_group_name_H-M "C 2/M"
_symmetry_group_IT_number 12
_symmetry_cell_setting 'monoclinic'
loop_
_space_group_symop_operation_xyz
x,y,z
-x,y,-z
-x,-y,-z
x,-y,z
1/2+x,1/2+y,z
1/2-x,1/2+y,-z
1/2-x,1/2-y,-z
1/2+x,1/2-y,z
loop_
_atom_site_type_symbol
_atom_site_label
_atom_site_fract_x
_atom_site_fract_y
_atom_site_fract_z
Si Si1 0.763956 0.921711 0.408726
Si Si2 0.428949 0.612104 0.767263
Si Si3 0.409334 0.118028 0.114656
Si Si4 0.260912 0.323525 0.221315
Si Si5 0.171989 0.310689 0.611981
Si Si6 0.513620 0.260339 0.726688
Si Si7 0.184684 0.000000 0.003826
O O1 0.875398 0.916004 0.608353
O O2 0.589501 0.904634 0.284355
O O3 0.804054 0.869124 0.357326
O O4 0.769853 0.000000 0.374598
O O5 0.274392 0.621045 0.690412
O O6 0.479367 0.691496 0.789609
O O7 0.562702 0.561576 0.928266
O O8 0.390986 0.192086 0.153096
O O9 0.367354 0.135343 0.960935
O O10 0.298841 0.060848 0.060330
O O11 0.232695 0.245528 0.234513
O O12 0.397486 0.309389 0.268885
O O13 0.000000 0.323156 0.500000
O O14 0.131864 0.272609 0.469420
#
# Coordination Sequence:
#
# PCOD9216047 Si02
#       7
#     8   8   8   8   8   8   4
#     4  12  25  41  70 101 149 190 227 276 354 436
#     4  12  23  45  70 104 135 188 237 284 346 422
#     4  12  25  46  65 105 143 192 228 289 354 412
#     4  11  24  39  67 110 140 176 233 292 343 405
#     4  10  22  42  72 102 131 177 244 298 336 408
#     4  11  22  42  74 100 142 186 239 284 342 414
#     4  12  28  42  71  99 144 185 231 281 360 423
#
# _framework density 23.653835000000001
#
# number of rings (size 3 to 8) (size 9 to 14) (size 15 to 20)
#    0.000    0.615    6.154    2.308    1.077    0.615 
#    0.000    1.923    0.000    6.462    0.000    0.000 
#    0.000    0.000    0.000    0.000    0.000    0.000 
#
# Total GULP energy -144940.153066 kJ/mol
# GULP energy per Si atom -5574.621272 kJ/mol
# Density = 2.360000 g / cm^3
# Si number density = 23.653835 Si / 1000 Ang^3
#
#
#
# Elastic Constant Matrix: (Units=GPa)
#
#
# Indices 1 2 3 4 5 6 
#
# 1 103.1751 51.1607 4.1801 0.0000 23.9337 0.0000
# 2 51.1607 144.0501 25.1450 0.0000 25.0983 0.0000
# 3 4.1801 25.1450 42.6521 0.0000 0.8272 0.0000
# 4 0.0000 0.0000 0.0000 17.0585 0.0000 16.8376
# 5 23.9337 25.0983 0.8272 0.0000 25.1778 0.0000
# 6 0.0000 0.0000 0.0000 16.8376 0.0000 32.5947
#
#
#
# Elastic Compliance Matrix: (Units=1/GPa)
#
#
# Indices 1 2 3 4 5 6 
#
# 1 0.013507 -0.003258 0.000784 0.000000 -0.009617 0.000000
# 2 -0.003258 0.010296 -0.005615 0.000000 -0.006982 0.000000
# 3 0.000784 -0.005615 0.026602 0.000000 0.003978 0.000000
# 4 0.000000 0.000000 0.000000 0.119609 0.000000 -0.061787
# 5 -0.009617 -0.006982 0.003978 0.000000 0.055689 0.000000
# 6 0.000000 0.000000 0.000000 -0.061787 0.000000 0.062597
#
#
# Mechanical properties :
#
#
# Convention : Reuss Voigt Hill
#
# Bulk Modulus (GPa) = 29.21804 50.09432 39.65618
# Shear Modulus (GPa) = 15.82844 28.92562 22.37703
#
# Velocity S-wave (km/s) = 2.58964 3.50075 3.07908
# Velocity P-wave (km/s) = 4.61745 6.12898 5.42611
#
# Compressibility (1/GPa) = 0.03422543
#
# Stress axis : x y z
#
# Youngs Moduli (GPa) = 74.03475 97.12702 37.59143
#
# Poissons Ratio (x) = 0.31647 -0.02946
# Poissons Ratio (y) = 0.24123 0.21108
# Poissons Ratio (z) = -0.05802 0.54537
#
# Static dielectric constant tensor:
#      x y z
#    x 1.922650 0.000000 0.004210 
#    y 0.000000 1.852530 0.000000 
#    z 0.004210 0.000000 2.034150 
# 
# From -- ./inp_files/216877.got.cif
#   From: 2010.05.17/outbox.cif.g08.bks.cpg/sg12_109_cif.got.tgz:216877.got - 2010.06.03 13:09:07.
