data_PCOD9216738
_publ_section_title
;
Structure prediction by ZEFSAII (Michael W. Deem and Ramdas Pophale) SiO2 
 PCOD9216738
Probable space group: C 2/M
;
_chemical_formula_sum "Si O2"
_cell_formula_units_Z 40
_cell_length_a 21.575194
_cell_length_b 7.603819
_cell_length_c 25.686716
_cell_angle_alpha 90.000000
_cell_angle_beta 155.252758
_cell_angle_gamma 90.000000
_cell_volume 1764.050083
_symmetry_space_group_name_H-M "C 2/M"
_symmetry_group_IT_number 12
_symmetry_cell_setting 'monoclinic'
loop_
_space_group_symop_operation_xyz
x,y,z
-x,y,-z
-x,-y,-z
x,-y,z
1/2+x,1/2+y,z
1/2-x,1/2+y,-z
1/2-x,1/2-y,-z
1/2+x,1/2-y,z
loop_
_atom_site_type_symbol
_atom_site_label
_atom_site_fract_x
_atom_site_fract_y
_atom_site_fract_z
Si Si1 0.641930 0.214861 0.576509
Si Si2 0.793520 0.788061 0.592151
Si Si3 0.365891 0.713479 0.833429
Si Si4 0.620033 0.300254 0.860491
Si Si5 0.704774 0.713238 0.107363
O O1 0.500000 0.277243 0.500000
O O2 0.670193 0.273321 0.539351
O O3 0.783200 0.267062 0.718626
O O4 0.633693 0.000000 0.569780
O O5 0.750000 0.750000 0.500000
O O6 0.956109 0.716607 0.732767
O O7 0.798612 0.000000 0.599845
O O8 0.368330 0.500000 0.836665
O O9 0.279775 0.766490 0.820450
O O10 0.536493 0.767702 0.965283
O O11 0.591186 0.500000 0.853158
O O12 0.685767 0.285080 0.852447
O O13 0.750000 0.250000 0.000000
O O14 0.714160 0.500000 0.111911
#
# Coordination Sequence:
#
# PCOD9216738 Si02
#       5
#     8   8   8   8   8
#     4   9  17  30  52  80 107 139 186 236 279 330
#     4  10  23  40  59  86 120 153 191 242 294 347
#     4   8  15  29  50  80 112 141 182 235 285 330
#     4  11  23  38  57  83 116 154 195 238 290 349
#     4   9  17  31  55  82 109 143 185 237 288 338
#
# _framework density 22.675091999999999
#
# number of rings (size 3 to 8) (size 9 to 14) (size 15 to 20)
#    0.000    2.600    0.000    3.000    2.800    4.800 
#    0.000    2.000    0.000    1.800    0.000    0.000 
#    0.000    0.000    0.000    0.000    0.000    0.000 
#
# Total GULP energy -111613.739581 kJ/mol
# GULP energy per Si atom -5580.686979 kJ/mol
# Density = 2.262348 g / cm^3
# Si number density = 22.675092 Si / 1000 Ang^3
#
#
#
# Elastic Constant Matrix: (Units=GPa)
#
#
# Indices 1 2 3 4 5 6 
#
# 1 173.3094 -5.9070 71.7046 0.0004 -3.4186 0.0004
# 2 -5.9070 43.7909 9.2128 0.0007 0.4952 0.0018
# 3 71.7046 9.2128 84.7007 0.0006 -7.0686 0.0004
# 4 0.0004 0.0007 0.0006 11.2770 0.0001 -5.3653
# 5 -3.4186 0.4952 -7.0686 0.0001 32.9286 0.0000
# 6 0.0004 0.0018 0.0004 -5.3653 0.0000 22.8455
#
#
#
# Elastic Compliance Matrix: (Units=1/GPa)
#
#
# Indices 1 2 3 4 5 6 
#
# 1 0.009264 0.002993 -0.008239 0.000000 -0.000852 0.000000
# 2 0.002993 0.024364 -0.005283 -0.000003 -0.001190 -0.000003
# 3 -0.008239 -0.005283 0.019643 0.000000 0.003441 0.000000
# 4 0.000000 -0.000003 0.000000 0.099830 0.000000 0.023445
# 5 -0.000852 -0.001190 0.003441 0.000000 0.031037 0.000000
# 6 0.000000 -0.000003 0.000000 0.023445 0.000000 0.049278
#
#
# Mechanical properties :
#
#
# Convention : Reuss Voigt Hill
#
# Bulk Modulus (GPa) = 31.04371 50.20242 40.62307
# Shear Modulus (GPa) = 18.85272 28.52961 23.69117
#
# Velocity S-wave (km/s) = 2.88658 3.55095 3.23586
# Velocity P-wave (km/s) = 4.98299 6.24502 5.64936
#
# Compressibility (1/GPa) = 0.03221264
#
# Stress axis : x y z
#
# Youngs Moduli (GPa) = 107.94317 41.04357 50.90836
#
# Poissons Ratio (x) = -0.12283 0.41945
# Poissons Ratio (y) = -0.32304 0.26894
# Poissons Ratio (z) = 0.88938 0.21683
#
# Static dielectric constant tensor:
#      x y z
#    x 1.830630 0.000000 0.017960 
#    y 0.000000 1.870850 0.000000 
#    z 0.017960 0.000000 1.849980 
# 
# From -- ./inp_files/162586.got.cif
#   From: 2010.05.17/outbox.cif.g08.bks.cpg/sg12_82_cif.got.tgz:162586.got - 2010.06.03 13:09:07.
