data_PCOD9216700
_publ_section_title
;
Structure prediction by ZEFSAII (Michael W. Deem and Ramdas Pophale) SiO2 
 PCOD9216700
Probable space group: C 2/M
;
_chemical_formula_sum "Si O2"
_cell_formula_units_Z 48
_cell_length_a 13.325395
_cell_length_b 27.536106
_cell_length_c 5.611781
_cell_angle_alpha 90.000000
_cell_angle_beta 105.051189
_cell_angle_gamma 90.000000
_cell_volume 1988.487920
_symmetry_space_group_name_H-M "C 2/M"
_symmetry_group_IT_number 12
_symmetry_cell_setting 'monoclinic'
loop_
_space_group_symop_operation_xyz
x,y,z
-x,y,-z
-x,-y,-z
x,-y,z
1/2+x,1/2+y,z
1/2-x,1/2+y,-z
1/2-x,1/2-y,-z
1/2+x,1/2-y,z
loop_
_atom_site_type_symbol
_atom_site_label
_atom_site_fract_x
_atom_site_fract_y
_atom_site_fract_z
Si Si1 0.396030 0.634490 0.070037
Si Si2 0.803074 0.619116 0.381102
Si Si3 0.703112 0.554253 0.697867
Si Si4 0.589945 0.946940 0.862469
Si Si5 0.386468 0.745181 0.985748
Si Si6 0.376078 0.780093 0.477548
O O1 0.294966 0.631991 0.842098
O O2 0.500000 0.618349 0.000000
O O3 0.374168 0.597368 0.271199
O O4 0.406875 0.692120 0.116267
O O5 0.762464 0.573396 0.504180
O O6 0.901151 0.599538 0.296603
O O7 0.837911 0.667006 0.541098
O O8 0.658426 0.500000 0.644986
O O9 0.796540 0.551692 0.945753
O O10 0.575957 0.000000 0.739265
O O11 0.500000 0.941527 0.000000
O O12 0.334139 0.773068 0.176675
O O13 0.500000 0.768106 0.000000
O O14 0.348176 0.744892 0.684384
O O15 0.500000 0.777681 0.500000
#
# Coordination Sequence:
#
# PCOD9216700 Si02
#       6
#     8   8   8   8   8   8
#     4  10  24  45  67  88 124 172 224 276 335 389
#     4  11  24  37  63  97 128 173 217 271 326 399
#     4  10  23  42  63  95 129 163 218 277 332 394
#     4   9  20  38  61  89 129 176 216 264 326 396
#     4   9  21  42  65  96 133 176 221 274 328 397
#     4  10  23  39  65  99 140 175 215 269 331 400
#
# _framework density 24.138945
#
# number of rings (size 3 to 8) (size 9 to 14) (size 15 to 20)
#    0.000    2.167    0.000    0.500    9.333    3.667 
#    0.000    3.333    0.000    0.000    0.000    0.000 
#    0.000    0.000    0.000    0.000    0.000    0.000 
#
# Total GULP energy -133867.499748 kJ/mol
# GULP energy per Si atom -5577.812489 kJ/mol
# Density = 2.408400 g / cm^3
# Si number density = 24.138945 Si / 1000 Ang^3
#
#
#
# Elastic Constant Matrix: (Units=GPa)
#
#
# Indices 1 2 3 4 5 6 
#
# 1 90.6911 27.5158 17.8158 0.0000 -21.5449 0.0000
# 2 27.5158 112.2053 15.5770 0.0000 -29.6477 0.0000
# 3 17.8158 15.5770 75.0428 0.0000 -11.5913 0.0000
# 4 0.0000 0.0000 0.0000 40.9062 0.0000 -12.6417
# 5 -21.5449 -29.6477 -11.5913 0.0000 37.9770 0.0000
# 6 0.0000 0.0000 0.0000 -12.6417 0.0000 31.1502
#
#
#
# Elastic Compliance Matrix: (Units=1/GPa)
#
#
# Indices 1 2 3 4 5 6 
#
# 1 0.013220 -0.001445 -0.001946 0.000000 0.005778 0.000000
# 2 -0.001445 0.011462 -0.000819 0.000000 0.007878 0.000000
# 3 -0.001946 -0.000819 0.014366 0.000000 0.002641 0.000000
# 4 0.000000 0.000000 0.000000 0.027952 0.000000 0.011344
# 5 0.005778 0.007878 0.002641 0.000000 0.036566 0.000000
# 6 0.000000 0.000000 0.000000 0.011344 0.000000 0.036706
#
#
# Mechanical properties :
#
#
# Convention : Reuss Voigt Hill
#
# Bulk Modulus (GPa) = 32.65129 44.41737 38.53433
# Shear Modulus (GPa) = 31.46613 36.47539 33.97076
#
# Velocity S-wave (km/s) = 3.61438 3.89145 3.75547
# Velocity P-wave (km/s) = 5.56543 6.21545 5.89940
#
# Compressibility (1/GPa) = 0.03062666
#
# Stress axis : x y z
#
# Youngs Moduli (GPa) = 75.64451 87.24499 69.60998
#
# Poissons Ratio (x) = 0.12607 0.13547
# Poissons Ratio (y) = 0.10931 0.05703
# Poissons Ratio (z) = 0.14721 0.07148
#
# Static dielectric constant tensor:
#      x y z
#    x 1.941750 0.000000 0.047330 
#    y 0.000000 1.942150 0.000000 
#    z 0.047330 0.000000 2.073810 
# 
# From -- ./inp_files/12356.got.cif
#   From: 2010.05.17/outbox.cif.g08.bks.cpg/sg12_7_cif.got.tgz:12356.got - 2010.06.03 13:09:07.
