data_PCOD9216411
_publ_section_title
;
Structure prediction by ZEFSAII (Michael W. Deem and Ramdas Pophale) SiO2 
 PCOD9216411
Probable space group: C 2/M
;
_chemical_formula_sum "Si O2"
_cell_formula_units_Z 50
_cell_length_a 14.330807
_cell_length_b 13.770363
_cell_length_c 14.258017
_cell_angle_alpha 90.000000
_cell_angle_beta 115.217870
_cell_angle_gamma 90.000000
_cell_volume 2545.522710
_symmetry_space_group_name_H-M "C 2/M"
_symmetry_group_IT_number 12
_symmetry_cell_setting 'monoclinic'
loop_
_space_group_symop_operation_xyz
x,y,z
-x,y,-z
-x,-y,-z
x,-y,z
1/2+x,1/2+y,z
1/2-x,1/2+y,-z
1/2-x,1/2-y,-z
1/2+x,1/2-y,z
loop_
_atom_site_type_symbol
_atom_site_label
_atom_site_fract_x
_atom_site_fract_y
_atom_site_fract_z
Si Si1 0.736907 0.615016 0.401656
Si Si2 0.500000 0.500000 0.000000
Si Si3 0.823071 0.500000 0.909151
Si Si4 0.040356 0.297245 0.762758
Si Si5 0.089792 0.765240 0.469651
Si Si6 0.010784 0.500000 0.851424
Si Si7 0.252183 0.786905 0.893639
Si Si8 0.403426 0.671787 0.835484
O O1 0.758570 0.500000 0.418015
O O2 0.837163 0.684143 0.451448
O O3 0.662562 0.652206 0.454834
O O4 0.676459 0.637507 0.279215
O O5 0.442738 0.583562 0.912817
O O6 0.754632 0.403241 0.888383
O O7 0.896408 0.500000 0.848505
O O8 0.904648 0.500000 0.029524
O O9 0.030049 0.404675 0.798596
O O10 0.157072 0.263106 0.799651
O O11 0.970346 0.284953 0.641902
O O12 0.996234 0.223707 0.821505
O O13 0.000000 0.802264 0.500000
O O14 0.353003 0.749452 0.883796
O O15 0.250000 0.750000 0.000000
#
# Coordination Sequence:
#
# PCOD9216411 Si02
#       8
#     8   2   4   8   8   4   8   8
#     4  10  22  45  69  95 130 172 217 269 333 395
#     4  12  24  36  66  94 134 178 210 256 338 382
#     4  11  24  43  67  88 133 183 225 265 323 400
#     4  11  24  42  68  94 132 170 225 274 327 391
#     4  10  23  44  68  96 131 167 217 280 333 385
#     4  11  22  43  67  93 126 181 223 265 329 386
#     4  12  24  41  63  95 133 175 224 272 327 393
#     4  11  24  43  63  94 135 180 215 270 322 399
#
# _framework density 19.642330000000001
#
# number of rings (size 3 to 8) (size 9 to 14) (size 15 to 20)
#    0.000    1.120    4.000    1.920    1.120    3.840 
#    4.320    0.000    0.000    0.000    0.000    0.000 
#    0.000    0.000    0.000    0.000    0.000    0.000 
#
# Total GULP energy -139474.448674 kJ/mol
# GULP energy per Si atom -5578.977947 kJ/mol
# Density = 1.959762 g / cm^3
# Si number density = 19.642330 Si / 1000 Ang^3
#
#
#
# Elastic Constant Matrix: (Units=GPa)
#
#
# Indices 1 2 3 4 5 6 
#
# 1 61.6467 0.8300 2.9970 0.0000 -7.2626 0.0000
# 2 0.8300 128.5533 21.1496 0.0000 0.4674 0.0000
# 3 2.9970 21.1496 64.6090 0.0000 10.2920 0.0000
# 4 0.0000 0.0000 0.0000 -97.8823 0.0000 73.4964
# 5 -7.2626 0.4674 10.2920 0.0000 29.7160 0.0000
# 6 0.0000 0.0000 0.0000 73.4964 0.0000 -7.9989
#
#
#
# Elastic Compliance Matrix: (Units=1/GPa)
#
#
# Indices 1 2 3 4 5 6 
#
# 1 0.016845 0.000132 -0.001566 0.000000 0.004657 0.000000
# 2 0.000132 0.008243 -0.002846 0.000000 0.000888 0.000000
# 3 -0.001566 -0.002846 0.017501 0.000000 -0.006400 0.000000
# 4 0.000000 0.000000 0.000000 0.001732 0.000000 0.015913
# 5 0.004657 0.000888 -0.006400 0.000000 0.036993 0.000000
# 6 0.000000 0.000000 0.000000 0.015913 0.000000 0.021192
#
#
# Mechanical properties :
#
#
# Convention : Reuss Voigt Hill
#
# Bulk Modulus (GPa) = 29.38744 33.86249 31.62496
# Shear Modulus (GPa) = 40.84657 0.08911 20.46784
#
# Velocity S-wave (km/s) = 4.56512 0.21323 3.23155
# Velocity P-wave (km/s) = 6.54071 4.16384 5.48263
#
# Compressibility (1/GPa) = 0.03402815
#
# Stress axis : x y z
#
# Youngs Moduli (GPa) = 59.36654 121.31493 57.13814
#
# Poissons Ratio (x) = -0.01602 0.08951
# Poissons Ratio (y) = -0.00784 0.16261
# Poissons Ratio (z) = 0.09300 0.34526
#
# Static dielectric constant tensor:
#      x y z
#    x 1.638730 0.000000 -0.013270 
#    y 0.000000 1.647880 0.000000 
#    z -0.013270 0.000000 1.672600 
# 
# From -- ./inp_files/143686.got.cif
#   From: 2010.05.17/outbox.cif.g08.bks.cpg/sg12_72_cif.got.tgz:143686.got - 2010.06.03 13:09:07.
