data_PCOD9216224
_publ_section_title
;
Structure prediction by ZEFSAII (Michael W. Deem and Ramdas Pophale) SiO2 
 PCOD9216224
Probable space group: C 2/M
;
_chemical_formula_sum "Si O2"
_cell_formula_units_Z 34
_cell_length_a 16.738650
_cell_length_b 19.367224
_cell_length_c 9.731639
_cell_angle_alpha 90.000000
_cell_angle_beta 149.094880
_cell_angle_gamma 90.000000
_cell_volume 1620.369158
_symmetry_space_group_name_H-M "C 2/M"
_symmetry_group_IT_number 12
_symmetry_cell_setting 'monoclinic'
loop_
_space_group_symop_operation_xyz
x,y,z
-x,y,-z
-x,-y,-z
x,-y,z
1/2+x,1/2+y,z
1/2-x,1/2+y,-z
1/2-x,1/2-y,-z
1/2+x,1/2-y,z
loop_
_atom_site_type_symbol
_atom_site_label
_atom_site_fract_x
_atom_site_fract_y
_atom_site_fract_z
Si Si1 0.884574 0.216889 0.954394
Si Si2 0.616979 0.081854 0.295853
Si Si3 0.525988 0.576012 0.253803
Si Si4 0.000000 0.000000 0.500000
Si Si5 0.042747 0.691833 0.405672
O O1 0.914618 0.136560 0.037821
O O2 0.923301 0.261688 0.144887
O O3 0.709919 0.228726 0.649072
O O4 0.000000 0.234113 0.000000
O O5 0.796486 0.096072 0.521664
O O6 0.565252 0.121674 0.354630
O O7 0.603320 0.000000 0.294614
O O8 0.500000 0.101288 0.000000
O O9 0.490019 0.500000 0.138342
O O10 0.514665 0.559544 0.399323
O O11 0.000000 0.680656 0.500000
#
# Coordination Sequence:
#
# PCOD9216224 Si02
#       5
#     8   8   8   2   8
#     4  12  25  45  70  96 133 180 224 278 333 400
#     4  10  22  43  69  96 134 176 220 270 337 404
#     4   9  21  40  68  97 128 172 223 263 334 392
#     4   8  20  40  64 104 124 168 218 284 314 408
#     4  12  28  44  66 101 135 179 224 281 331 392
#
# _framework density 20.982873999999999
#
# number of rings (size 3 to 8) (size 9 to 14) (size 15 to 20)
#    0.706    0.706    2.353    2.118    4.941    3.765 
#    0.000    0.000    0.000    0.000    0.000    0.000 
#    0.000    0.000    0.000    0.000    0.000    0.000 
#
# Total GULP energy -94764.161490 kJ/mol
# GULP energy per Si atom -5574.362441 kJ/mol
# Density = 2.093512 g / cm^3
# Si number density = 20.982874 Si / 1000 Ang^3
#
#
#
# Elastic Constant Matrix: (Units=GPa)
#
#
# Indices 1 2 3 4 5 6 
#
# 1 103.8606 6.1224 5.5939 0.0000 -43.6102 0.0000
# 2 6.1224 55.9202 7.5124 0.0000 -13.3147 0.0000
# 3 5.5939 7.5124 54.0207 0.0000 -16.3690 0.0000
# 4 0.0000 0.0000 0.0000 9.1873 0.0000 17.3798
# 5 -43.6102 -13.3147 -16.3690 0.0000 40.0029 0.0000
# 6 0.0000 0.0000 0.0000 17.3798 0.0000 -53.2656
#
#
#
# Elastic Compliance Matrix: (Units=1/GPa)
#
#
# Indices 1 2 3 4 5 6 
#
# 1 0.019251 0.002943 0.004856 0.000000 0.023954 0.000000
# 2 0.002943 0.019906 -0.000106 0.000000 0.009791 0.000000
# 3 0.004856 -0.000106 0.022393 0.000000 0.014421 0.000000
# 4 0.000000 0.000000 0.000000 0.067303 0.000000 0.021960
# 5 0.023954 0.009791 0.014421 0.000000 0.060272 0.000000
# 6 0.000000 0.000000 0.000000 0.021960 0.000000 -0.011609
#
#
# Mechanical properties :
#
#
# Convention : Reuss Voigt Hill
#
# Bulk Modulus (GPa) = 12.99782 28.02877 20.51330
# Shear Modulus (GPa) = 26.62732 12.15645 19.39188
#
# Velocity S-wave (km/s) = 3.56617 2.40958 3.04333
# Velocity P-wave (km/s) = 4.81297 4.59656 4.70601
#
# Compressibility (1/GPa) = 0.07693595
#
# Stress axis : x y z
#
# Youngs Moduli (GPa) = 51.94451 50.23645 44.65633
#
# Poissons Ratio (x) = -0.14787 -0.21683
# Poissons Ratio (y) = -0.15290 0.00474
# Poissons Ratio (z) = -0.25222 0.00534
#
# Static dielectric constant tensor:
#      x y z
#    x 1.727370 0.000000 0.018630 
#    y 0.000000 1.760270 0.000000 
#    z 0.018630 0.000000 1.754090 
# 
# From -- ./inp_files/78147.got.cif
#   From: 2010.05.17/outbox.cif.g08.bks.cpg/sg12_40_cif.got.tgz:78147.got - 2010.06.03 13:09:07.
