data_PCOD9216555
_publ_section_title
;
Structure prediction by ZEFSAII (Michael W. Deem and Ramdas Pophale) SiO2 
 PCOD9216555
Probable space group: C 2/M
;
_chemical_formula_sum "Si O2"
_cell_formula_units_Z 56
_cell_length_a 20.960424
_cell_length_b 26.131533
_cell_length_c 10.104891
_cell_angle_alpha 90.000000
_cell_angle_beta 33.340457
_cell_angle_gamma 90.000000
_cell_volume 3041.959755
_symmetry_space_group_name_H-M "C 2/M"
_symmetry_group_IT_number 12
_symmetry_cell_setting 'monoclinic'
loop_
_space_group_symop_operation_xyz
x,y,z
-x,y,-z
-x,-y,-z
x,-y,z
1/2+x,1/2+y,z
1/2-x,1/2+y,-z
1/2-x,1/2-y,-z
1/2+x,1/2-y,z
loop_
_atom_site_type_symbol
_atom_site_label
_atom_site_fract_x
_atom_site_fract_y
_atom_site_fract_z
Si Si1 0.769542 0.438914 0.553434
Si Si2 0.864031 0.945124 0.765067
Si Si3 0.765935 0.094940 0.682650
Si Si4 0.045911 0.819360 0.572720
Si Si5 0.498301 0.124434 0.853088
Si Si6 0.686171 0.635972 0.928767
Si Si7 0.082886 0.700763 0.483813
O O1 0.758692 0.500000 0.595640
O O2 0.724685 0.424750 0.483851
O O3 0.705992 0.402045 0.770026
O O4 0.904751 0.420427 0.323827
O O5 0.806003 0.944755 0.723064
O O6 0.000000 0.937958 0.500000
O O7 0.848193 0.000000 0.859911
O O8 0.814438 0.900788 0.942299
O O9 0.848079 0.143695 0.571516
O O10 0.631778 0.106068 0.943446
O O11 0.084006 0.760554 0.517281
O O12 0.000000 0.825504 0.500000
O O13 0.936862 0.835028 0.853354
O O14 0.531068 0.167765 0.692854
O O15 0.500000 0.144716 0.000000
O O16 0.789890 0.676864 0.760059
O O17 0.000000 0.694460 0.500000
#
# Coordination Sequence:
#
# PCOD9216555 Si02
#       7
#     8   8   8   8   8   8   8
#     4  10  23  41  62  88 120 159 198 248 303 346
#     4  11  21  36  59  86 120 158 195 240 294 352
#     4  11  20  39  61  87 120 157 203 241 290 367
#     4  11  23  39  61  90 122 159 198 248 300 352
#     4   9  21  40  60  86 122 152 200 249 292 353
#     4  11  21  42  58  89 126 152 195 256 294 350
#     4  10  23  37  63  90 115 162 201 246 302 350
#
# _framework density 18.409185000000001
#
# number of rings (size 3 to 8) (size 9 to 14) (size 15 to 20)
#    0.000    1.571    2.857    1.714    2.000    4.857 
#    2.571    2.857    0.000    4.714    0.000    0.000 
#    0.000    0.000    0.000    0.000    0.000    0.000 
#
# Total GULP energy -156204.117995 kJ/mol
# GULP energy per Si atom -5578.718500 kJ/mol
# Density = 1.836728 g / cm^3
# Si number density = 18.409185 Si / 1000 Ang^3
#
#
#
# Elastic Constant Matrix: (Units=GPa)
#
#
# Indices 1 2 3 4 5 6 
#
# 1 94.0652 51.1804 49.8487 0.0004 -5.4951 -0.0001
# 2 51.1804 166.7424 61.6830 0.0001 2.6494 0.0001
# 3 49.8487 61.6830 120.3146 0.0009 -1.4691 0.0000
# 4 0.0004 0.0001 0.0009 21.9005 -0.0004 0.7239
# 5 -5.4951 2.6494 -1.4691 -0.0004 23.8894 0.0000
# 6 -0.0001 0.0001 0.0000 0.7239 0.0000 23.3809
#
#
#
# Elastic Compliance Matrix: (Units=1/GPa)
#
#
# Indices 1 2 3 4 5 6 
#
# 1 0.014866 -0.002906 -0.004627 0.000000 0.003457 0.000000
# 2 -0.002906 0.007996 -0.002916 0.000000 -0.001735 0.000000
# 3 -0.004627 -0.002916 0.011724 0.000000 -0.000020 0.000000
# 4 0.000000 0.000000 0.000000 0.045708 0.000001 -0.001415
# 5 0.003457 -0.001735 -0.000020 0.000001 0.042846 0.000000
# 6 0.000000 0.000000 0.000000 -0.001415 0.000000 0.042814
#
#
# Mechanical properties :
#
#
# Convention : Reuss Voigt Hill
#
# Bulk Modulus (GPa) = 73.06722 78.50518 75.78620
# Shear Modulus (GPa) = 26.12129 28.39483 27.25806
#
# Velocity S-wave (km/s) = 3.77095 3.93164 3.85213
# Velocity P-wave (km/s) = 7.66400 7.95911 7.81295
#
# Compressibility (1/GPa) = 0.01368603
#
# Stress axis : x y z
#
# Youngs Moduli (GPa) = 67.26610 125.06665 85.29826
#
# Poissons Ratio (x) = 0.36348 0.39469
# Poissons Ratio (y) = 0.19550 0.24876
# Poissons Ratio (z) = 0.31125 0.36473
#
# Static dielectric constant tensor:
#      x y z
#    x 1.618370 0.000000 0.018070 
#    y 0.000000 1.634780 0.000000 
#    z 0.018070 0.000000 1.619940 
# 
# From -- ./inp_files/80004.got.cif
#   From: 2010.05.17/outbox.cif.g08.bks.cpg/sg12_41_cif.got.tgz:80004.got - 2010.06.03 13:09:07.
