data_PCOD9216596
_publ_section_title
;
Structure prediction by ZEFSAII (Michael W. Deem and Ramdas Pophale) SiO2 
 PCOD9216596
Probable space group: C 2/M
;
_chemical_formula_sum "Si O2"
_cell_formula_units_Z 32
_cell_length_a 22.458754
_cell_length_b 16.145124
_cell_length_c 8.772999
_cell_angle_alpha 90.000000
_cell_angle_beta 30.378481
_cell_angle_gamma 90.000000
_cell_volume 1608.705261
_symmetry_space_group_name_H-M "C 2/M"
_symmetry_group_IT_number 12
_symmetry_cell_setting 'monoclinic'
loop_
_space_group_symop_operation_xyz
x,y,z
-x,y,-z
-x,-y,-z
x,-y,z
1/2+x,1/2+y,z
1/2-x,1/2+y,-z
1/2-x,1/2-y,-z
1/2+x,1/2-y,z
loop_
_atom_site_type_symbol
_atom_site_label
_atom_site_fract_x
_atom_site_fract_y
_atom_site_fract_z
Si Si1 0.116831 0.659809 0.294328
Si Si2 0.871851 0.846867 0.229904
Si Si3 0.036364 0.500000 0.661202
Si Si4 0.191647 0.500000 0.626216
Si Si5 0.765471 0.256491 0.214703
O O1 0.067667 0.578434 0.486217
O O2 0.200392 0.701355 0.233514
O O3 0.000000 0.709488 0.500000
O O4 0.188618 0.662489 0.977158
O O5 0.776025 0.919978 0.440938
O O6 0.863365 0.797006 0.088923
O O7 0.829314 0.781899 0.450711
O O8 0.000000 0.876275 0.000000
O O9 0.119955 0.500000 0.625437
O O10 0.905068 0.500000 0.023753
#
# Coordination Sequence:
#
# PCOD9216596 Si02
#       5
#     8   8   4   4   8
#     4  11  21  39  61  91 123 160 203 260 308 363
#     4  11  22  41  63  90 126 167 205 252 307 374
#     4  11  23  40  65  90 127 160 212 264 305 362
#     4  11  23  40  63  94 121 167 211 256 309 369
#     4  10  23  38  61  93 125 158 211 249 312 369
#
# _framework density 19.891774000000002
#
# number of rings (size 3 to 8) (size 9 to 14) (size 15 to 20)
#    0.000    1.250    2.500    3.750    0.000    3.000 
#    0.000    0.000    0.000    1.500    0.000    0.000 
#    0.000    0.000    0.000    0.000    0.000    0.000 
#
# Total GULP energy -89168.678841 kJ/mol
# GULP energy per Si atom -5573.042428 kJ/mol
# Density = 1.984650 g / cm^3
# Si number density = 19.891774 Si / 1000 Ang^3
#
#
#
# Elastic Constant Matrix: (Units=GPa)
#
#
# Indices 1 2 3 4 5 6 
#
# 1 161.1096 48.8424 68.0630 0.0000 -0.5215 0.0000
# 2 48.8424 83.4257 49.1782 0.0000 11.4674 0.0000
# 3 68.0630 49.1782 102.9027 0.0000 5.2906 0.0000
# 4 0.0000 0.0000 0.0000 119.5528 0.0000 -173.0889
# 5 -0.5215 11.4674 5.2906 0.0000 41.1015 0.0000
# 6 0.0000 0.0000 0.0000 -173.0889 0.0000 378.6472
#
#
#
# Elastic Compliance Matrix: (Units=1/GPa)
#
#
# Indices 1 2 3 4 5 6 
#
# 1 0.009042 -0.002682 -0.004775 0.000000 0.001478 0.000000
# 2 -0.002682 0.018047 -0.006634 0.000000 -0.004215 0.000000
# 3 -0.004775 -0.006634 0.016061 0.000000 -0.000277 0.000000
# 4 0.000000 0.000000 0.000000 0.024734 0.000000 0.011307
# 5 0.001478 -0.004215 -0.000277 0.000000 0.025560 0.000000
# 6 0.000000 0.000000 0.000000 0.011307 0.000000 0.007810
#
#
# Mechanical properties :
#
#
# Convention : Reuss Voigt Hill
#
# Bulk Modulus (GPa) = 66.80986 75.51169 71.16077
# Shear Modulus (GPa) = 37.19521 119.95060 78.57291
#
# Velocity S-wave (km/s) = 4.32890 7.77384 6.29174
# Velocity P-wave (km/s) = 7.65803 10.89130 9.41451
#
# Compressibility (1/GPa) = 0.01496785
#
# Stress axis : x y z
#
# Youngs Moduli (GPa) = 110.59412 55.41048 62.26314
#
# Poissons Ratio (x) = 0.14862 0.29730
# Poissons Ratio (y) = 0.29663 0.41306
# Poissons Ratio (z) = 0.52807 0.36760
#
# Static dielectric constant tensor:
#      x y z
#    x 1.712680 0.000000 -0.010000 
#    y 0.000000 1.723690 0.000000 
#    z -0.010000 0.000000 1.731060 
# 
# From -- ./inp_files/45280.got.cif
#   From: 2010.05.17/outbox.cif.g08.bks.cpg/sg12_23_cif.got.tgz:45280.got - 2010.06.03 13:09:07.
