data_PCOD9216114
_publ_section_title
;
Structure prediction by ZEFSAII (Michael W. Deem and Ramdas Pophale) SiO2 
 PCOD9216114
Probable space group: C 2/M
;
_chemical_formula_sum "Si O2"
_cell_formula_units_Z 32
_cell_length_a 26.558660
_cell_length_b 10.155113
_cell_length_c 9.561855
_cell_angle_alpha 90.000000
_cell_angle_beta 148.342955
_cell_angle_gamma 90.000000
_cell_volume 1353.489034
_symmetry_space_group_name_H-M "C 2/M"
_symmetry_group_IT_number 12
_symmetry_cell_setting 'monoclinic'
loop_
_space_group_symop_operation_xyz
x,y,z
-x,y,-z
-x,-y,-z
x,-y,z
1/2+x,1/2+y,z
1/2-x,1/2+y,-z
1/2-x,1/2-y,-z
1/2+x,1/2-y,z
loop_
_atom_site_type_symbol
_atom_site_label
_atom_site_fract_x
_atom_site_fract_y
_atom_site_fract_z
Si Si1 0.187263 0.851742 0.685881
Si Si2 0.341462 0.000000 0.170045
Si Si3 0.517836 0.710895 0.877731
Si Si4 0.728561 0.351477 0.325561
Si Si5 0.975139 0.500000 0.207959
O O1 0.074155 0.828185 0.433216
O O2 0.223908 0.727265 0.687682
O O3 0.191620 0.000000 0.622806
O O4 0.266527 0.880028 0.991611
O O5 0.400838 0.000000 0.163492
O O6 0.419321 0.000000 0.473644
O O7 0.535052 0.867171 0.903373
O O8 0.500000 0.678708 0.000000
O O9 0.613642 0.644845 0.046986
O O10 0.765419 0.500000 0.429738
O O11 0.750000 0.250000 0.500000
#
# Coordination Sequence:
#
# PCOD9216114 Si02
#       5
#     8   4   8   8   4
#     4  10  22  43  65  93 130 172 217 264 325 384
#     4   9  22  46  69  85 131 187 213 270 319 381
#     4  12  24  37  66  99 135 166 217 267 338 378
#     4  12  25  39  63  95 139 172 212 267 326 399
#     4  11  23  42  68  97 128 176 225 269 315 395
#
# _framework density 23.642600999999999
#
# number of rings (size 3 to 8) (size 9 to 14) (size 15 to 20)
#    0.750    0.250    5.000    1.875    3.500    2.000 
#    0.000    0.000    0.000    1.500    0.000    0.000 
#    0.000    0.000    0.000    0.000    0.000    0.000 
#
# Total GULP energy -89341.277207 kJ/mol
# GULP energy per Si atom -5583.829825 kJ/mol
# Density = 2.358879 g / cm^3
# Si number density = 23.642601 Si / 1000 Ang^3
#
#
#
# Elastic Constant Matrix: (Units=GPa)
#
#
# Indices 1 2 3 4 5 6 
#
# 1 47.0163 25.9174 17.2735 0.0000 9.3236 0.0000
# 2 25.9174 212.3189 24.4691 0.0000 9.3557 0.0000
# 3 17.2735 24.4691 144.1966 0.0000 35.9344 0.0000
# 4 0.0000 0.0000 0.0000 25.3248 0.0000 -2.8312
# 5 9.3236 9.3557 35.9344 0.0000 32.5696 0.0000
# 6 0.0000 0.0000 0.0000 -2.8312 0.0000 16.9992
#
#
#
# Elastic Compliance Matrix: (Units=1/GPa)
#
#
# Indices 1 2 3 4 5 6 
#
# 1 0.024104 -0.002587 -0.001261 0.000000 -0.004766 0.000000
# 2 -0.002587 0.005092 -0.000516 0.000000 -0.000153 0.000000
# 3 -0.001261 -0.000516 0.009719 0.000000 -0.010214 0.000000
# 4 0.000000 0.000000 0.000000 0.040236 0.000000 0.006701
# 5 -0.004766 -0.000153 -0.010214 0.000000 0.043381 0.000000
# 6 0.000000 0.000000 0.000000 0.006701 0.000000 0.059942
#
#
# Mechanical properties :
#
#
# Convention : Reuss Voigt Hill
#
# Bulk Modulus (GPa) = 33.12709 59.87241 46.49975
# Shear Modulus (GPa) = 24.84307 37.37017 31.10662
#
# Velocity S-wave (km/s) = 3.24508 3.98003 3.63120
# Velocity P-wave (km/s) = 5.29932 6.81907 6.10666
#
# Compressibility (1/GPa) = 0.03018678
#
# Stress axis : x y z
#
# Youngs Moduli (GPa) = 41.48762 196.39063 102.89224
#
# Poissons Ratio (x) = 0.50806 0.12972
# Poissons Ratio (y) = 0.10733 0.05310
# Poissons Ratio (z) = 0.05230 0.10136
#
# Static dielectric constant tensor:
#      x y z
#    x 2.002780 0.000000 -0.087420 
#    y 0.000000 1.911510 0.000000 
#    z -0.087420 0.000000 1.968040 
# 
# From -- ./inp_files/187832.got.cif
#   From: 2010.05.17/outbox.cif.g08.bks.cpg/sg12_94_cif.got.tgz:187832.got - 2010.06.03 13:09:07.
