data_PCOD9216342
_publ_section_title
;
Structure prediction by ZEFSAII (Michael W. Deem and Ramdas Pophale) SiO2 
 PCOD9216342
Probable space group: C 2/M
;
_chemical_formula_sum "Si O2"
_cell_formula_units_Z 56
_cell_length_a 9.338134
_cell_length_b 17.524577
_cell_length_c 15.900188
_cell_angle_alpha 90.000000
_cell_angle_beta 103.977604
_cell_angle_gamma 90.000000
_cell_volume 2524.970531
_symmetry_space_group_name_H-M "C 2/M"
_symmetry_group_IT_number 12
_symmetry_cell_setting 'monoclinic'
loop_
_space_group_symop_operation_xyz
x,y,z
-x,y,-z
-x,-y,-z
x,-y,z
1/2+x,1/2+y,z
1/2-x,1/2+y,-z
1/2-x,1/2-y,-z
1/2+x,1/2-y,z
loop_
_atom_site_type_symbol
_atom_site_label
_atom_site_fract_x
_atom_site_fract_y
_atom_site_fract_z
Si Si1 0.043940 0.584190 0.136922
Si Si2 0.552864 0.589090 0.204608
Si Si3 0.230893 0.142512 0.075396
Si Si4 0.323375 0.328909 0.481143
Si Si5 0.797417 0.590881 0.374776
Si Si6 0.102997 0.410266 0.343498
Si Si7 0.204303 0.188347 0.884843
O O1 0.102732 0.500000 0.122905
O O2 0.055799 0.592449 0.239470
O O3 0.137484 0.651352 0.109843
O O4 0.875633 0.591451 0.085187
O O5 0.515609 0.500000 0.214206
O O6 0.621245 0.599531 0.121671
O O7 0.680110 0.614197 0.287136
O O8 0.412597 0.644059 0.188953
O O9 0.286428 0.221558 0.125685
O O10 0.167993 0.168934 0.976890
O O11 0.500000 0.324665 0.500000
O O12 0.250000 0.250000 0.500000
O O13 0.269335 0.386880 0.545739
O O14 0.245126 0.359964 0.385688
O O15 0.809917 0.500000 0.370018
O O16 0.962768 0.619043 0.378191
O O17 0.131603 0.500000 0.366950
#
# Coordination Sequence:
#
# PCOD9216342 Si02
#       7
#     8   8   8   8   8   8   8
#     4  11  23  41  66  95 127 170 222 272 324 388
#     4  11  23  41  66  95 127 170 222 272 324 388
#     4  11  23  43  61  88 131 176 221 265 340 395
#     4  12  27  44  67 101 135 169 213 264 317 384
#     4  10  22  44  69  94 130 173 213 262 328 392
#     4  10  22  44  69  94 130 173 213 262 328 392
#     4  11  25  39  61  94 131 172 217 279 330 389
#
# _framework density 22.178477000000001
#
# number of rings (size 3 to 8) (size 9 to 14) (size 15 to 20)
#    0.000    1.143    1.429    4.286    2.000   10.286 
#    0.000    0.000    0.000    0.000    0.000    0.000 
#    0.000    0.000    0.000    0.000    0.000    0.000 
#
# Total GULP energy -156652.565059 kJ/mol
# GULP energy per Si atom -5594.734466 kJ/mol
# Density = 2.212800 g / cm^3
# Si number density = 22.178477 Si / 1000 Ang^3
#
#
#
# Elastic Constant Matrix: (Units=GPa)
#
#
# Indices 1 2 3 4 5 6 
#
# 1 71.7909 2.8912 1.5323 0.0000 20.4464 0.0000
# 2 2.8912 58.3550 13.4342 0.0000 21.4597 0.0000
# 3 1.5323 13.4342 53.4724 0.0000 11.6156 0.0000
# 4 0.0000 0.0000 0.0000 -15.9272 0.0000 24.4177
# 5 20.4464 21.4597 11.6156 0.0000 39.1890 0.0000
# 6 0.0000 0.0000 0.0000 24.4177 0.0000 -0.1316
#
#
#
# Elastic Compliance Matrix: (Units=1/GPa)
#
#
# Indices 1 2 3 4 5 6 
#
# 1 0.016828 0.002828 0.001123 0.000000 -0.010661 0.000000
# 2 0.002828 0.022403 -0.002912 0.000000 -0.012881 0.000000
# 3 0.001123 -0.002912 0.020501 0.000000 -0.005068 0.000000
# 4 0.000000 0.000000 0.000000 0.000222 0.000000 0.041098
# 5 -0.010661 -0.012881 -0.005068 0.000000 0.039636 0.000000
# 6 0.000000 0.000000 0.000000 0.041098 0.000000 0.026808
#
#
# Mechanical properties :
#
#
# Convention : Reuss Voigt Hill
#
# Bulk Modulus (GPa) = 16.17789 24.37042 20.27415
# Shear Modulus (GPa) = 34.50135 15.67674 25.08905
#
# Velocity S-wave (km/s) = 3.94842 2.66154 3.36703
# Velocity P-wave (km/s) = 5.30065 4.52297 4.92718
#
# Compressibility (1/GPa) = 0.06181276
#
# Stress axis : x y z
#
# Youngs Moduli (GPa) = 59.42512 44.63589 48.77695
#
# Poissons Ratio (x) = -0.12625 -0.05478
# Poissons Ratio (y) = -0.16808 0.14202
# Poissons Ratio (z) = -0.06674 0.12996
#
# Static dielectric constant tensor:
#      x y z
#    x 1.797470 0.000000 0.002240 
#    y 0.000000 1.769250 0.000000 
#    z 0.002240 0.000000 1.817560 
# 
# From -- ./inp_files/257174.got.cif
#   From: 2010.05.17/outbox.cif.g08.bks.cpg/sg12_129_cif.got.tgz:257174.got - 2010.06.03 13:09:07.
