data_PCOD9216507
_publ_section_title
;
Structure prediction by ZEFSAII (Michael W. Deem and Ramdas Pophale) SiO2 
 PCOD9216507
Probable space group: C 2/M
;
_chemical_formula_sum "Si O2"
_cell_formula_units_Z 48
_cell_length_a 16.634532
_cell_length_b 18.564109
_cell_length_c 13.325819
_cell_angle_alpha 90.000000
_cell_angle_beta 35.616242
_cell_angle_gamma 90.000000
_cell_volume 2396.432789
_symmetry_space_group_name_H-M "C 2/M"
_symmetry_group_IT_number 12
_symmetry_cell_setting 'monoclinic'
loop_
_space_group_symop_operation_xyz
x,y,z
-x,y,-z
-x,-y,-z
x,-y,z
1/2+x,1/2+y,z
1/2-x,1/2+y,-z
1/2-x,1/2-y,-z
1/2+x,1/2-y,z
loop_
_atom_site_type_symbol
_atom_site_label
_atom_site_fract_x
_atom_site_fract_y
_atom_site_fract_z
Si Si1 0.139576 0.175292 0.101280
Si Si2 0.857083 0.308002 0.024957
Si Si3 0.542081 0.416826 0.851353
Si Si4 0.815978 0.322847 0.293533
Si Si5 0.449704 0.775134 0.435603
Si Si6 0.339591 0.916388 0.459018
O O1 0.184022 0.226409 0.963287
O O2 0.040723 0.116834 0.155670
O O3 0.048568 0.223963 0.269455
O O4 0.273989 0.148595 0.024276
O O5 0.022613 0.304576 0.853451
O O6 0.809784 0.336505 0.180657
O O7 0.502125 0.500000 0.896148
O O8 0.703998 0.412435 0.666247
O O9 0.500000 0.381858 0.000000
O O10 0.703898 0.259737 0.423396
O O11 0.794414 0.387403 0.394363
O O12 0.500000 0.773456 0.500000
O O13 0.442237 0.856509 0.400893
O O14 0.385681 0.000000 0.408004
#
# Coordination Sequence:
#
# PCOD9216507 Si02
#       6
#     8   8   8   8   8   8
#     4  11  21  39  63  94 125 158 213 267 308 369
#     4  10  23  35  63  95 125 157 209 260 317 361
#     4  10  23  40  63  93 126 168 210 257 317 378
#     4  11  21  41  63  93 124 165 211 259 313 371
#     4  12  23  39  67  95 120 162 216 267 311 366
#     4  11  24  41  62  90 128 171 208 253 319 382
#
# _framework density 20.029771
#
# number of rings (size 3 to 8) (size 9 to 14) (size 15 to 20)
#    0.000    1.167    5.000    1.500    4.667    0.333 
#    0.000    3.333    0.000    3.000    0.000    0.000 
#    0.000    0.000    0.000    0.000    0.000    0.000 
#
# Total GULP energy -133824.986597 kJ/mol
# GULP energy per Si atom -5576.041108 kJ/mol
# Density = 1.998418 g / cm^3
# Si number density = 20.029771 Si / 1000 Ang^3
#
#
#
# Elastic Constant Matrix: (Units=GPa)
#
#
# Indices 1 2 3 4 5 6 
#
# 1 135.7861 55.4953 40.9383 0.0003 12.0194 -0.0004
# 2 55.4953 93.6101 38.4043 0.0003 7.2455 -0.0004
# 3 40.9383 38.4043 87.3619 0.0003 9.2386 -0.0005
# 4 0.0003 0.0003 0.0003 22.8450 -0.0003 2.4307
# 5 12.0194 7.2455 9.2386 -0.0003 38.1443 0.0005
# 6 -0.0004 -0.0004 -0.0005 2.4307 0.0005 12.8128
#
#
#
# Elastic Compliance Matrix: (Units=1/GPa)
#
#
# Indices 1 2 3 4 5 6 
#
# 1 0.010282 -0.004954 -0.002460 0.000000 -0.001703 0.000000
# 2 -0.004954 0.015467 -0.004446 0.000000 -0.000300 0.000000
# 3 -0.002460 -0.004446 0.014761 0.000000 -0.001955 0.000000
# 4 0.000000 0.000000 0.000000 0.044675 0.000001 -0.008475
# 5 -0.001703 -0.000300 -0.001955 0.000001 0.027283 -0.000001
# 6 0.000000 0.000000 0.000000 -0.008475 -0.000001 0.079655
#
#
# Mechanical properties :
#
#
# Convention : Reuss Voigt Hill
#
# Bulk Modulus (GPa) = 59.56391 65.15933 62.36162
# Shear Modulus (GPa) = 22.57955 26.88843 24.73399
#
# Velocity S-wave (km/s) = 3.36117 3.66788 3.51787
# Velocity P-wave (km/s) = 6.69817 7.10913 6.90671
#
# Compressibility (1/GPa) = 0.01678869
#
# Stress axis : x y z
#
# Youngs Moduli (GPa) = 97.25961 64.65430 67.74763
#
# Poissons Ratio (x) = 0.32032 0.16667
# Poissons Ratio (y) = 0.48185 0.30120
# Poissons Ratio (z) = 0.23927 0.28745
#
# Static dielectric constant tensor:
#      x y z
#    x 1.755800 0.000000 0.007090 
#    y 0.000000 1.706200 0.000000 
#    z 0.007090 0.000000 1.778490 
# 
# From -- ./inp_files/147911.got.cif
#   From: 2010.05.17/outbox.cif.g08.bks.cpg/sg12_74_cif.got.tgz:147911.got - 2010.06.03 13:09:07.
