data_PCOD9216274
_publ_section_title
;
Structure prediction by ZEFSAII (Michael W. Deem and Ramdas Pophale) SiO2 
 PCOD9216274
Probable space group: C 2/M
;
_chemical_formula_sum "Si O2"
_cell_formula_units_Z 32
_cell_length_a 11.496528
_cell_length_b 24.442993
_cell_length_c 5.166748
_cell_angle_alpha 90.000000
_cell_angle_beta 103.191314
_cell_angle_gamma 90.000000
_cell_volume 1413.594856
_symmetry_space_group_name_H-M "C 2/M"
_symmetry_group_IT_number 12
_symmetry_cell_setting 'monoclinic'
loop_
_space_group_symop_operation_xyz
x,y,z
-x,y,-z
-x,-y,-z
x,-y,z
1/2+x,1/2+y,z
1/2-x,1/2+y,-z
1/2-x,1/2-y,-z
1/2+x,1/2-y,z
loop_
_atom_site_type_symbol
_atom_site_label
_atom_site_fract_x
_atom_site_fract_y
_atom_site_fract_z
Si Si1 0.419122 0.840501 0.704114
Si Si2 0.144555 0.230607 0.147900
Si Si3 0.370270 0.396324 0.806233
Si Si4 0.258152 0.437720 0.263368
O O1 0.500000 0.848754 0.500000
O O2 0.357407 0.780900 0.652304
O O3 0.334844 0.891886 0.698568
O O4 0.500000 0.838452 0.000000
O O5 0.167140 0.167586 0.233311
O O6 0.250000 0.250000 0.000000
O O7 0.000000 0.227877 0.000000
O O8 0.362746 0.425419 0.525190
O O9 0.500000 0.398225 0.000000
O O10 0.289724 0.425842 0.981620
O O11 0.218421 0.500000 0.272245
#
# Coordination Sequence:
#
# PCOD9216274 Si02
#       4
#     8   8   8   8
#     4  11  25  44  69 102 139 180 227 292 352 421
#     4  10  22  43  72 106 140 182 227 291 359 426
#     4  11  25  44  69 101 139 178 232 291 353 417
#     4  12  26  44  69  98 136 188 238 285 344 414
#
# _framework density 22.637321
#
# number of rings (size 3 to 8) (size 9 to 14) (size 15 to 20)
#    0.000    1.000    2.500    3.000    3.500   11.000 
#    0.000    0.000    0.000    0.000    0.000    0.000 
#    0.000    0.000    0.000    0.000    0.000    0.000 
#
# Total GULP energy -89358.911881 kJ/mol
# GULP energy per Si atom -5584.931993 kJ/mol
# Density = 2.258580 g / cm^3
# Si number density = 22.637321 Si / 1000 Ang^3
#
#
#
# Elastic Constant Matrix: (Units=GPa)
#
#
# Indices 1 2 3 4 5 6 
#
# 1 64.9677 5.9778 13.8497 0.0000 -11.4276 0.0000
# 2 5.9778 159.8813 10.2746 0.0000 8.8131 0.0000
# 3 13.8497 10.2746 89.6303 0.0000 5.7023 0.0000
# 4 0.0000 0.0000 0.0000 18.3153 0.0000 6.7994
# 5 -11.4276 8.8131 5.7023 0.0000 39.5439 0.0000
# 6 0.0000 0.0000 0.0000 6.7994 0.0000 10.1003
#
#
#
# Elastic Compliance Matrix: (Units=1/GPa)
#
#
# Indices 1 2 3 4 5 6 
#
# 1 0.017049 -0.000755 -0.002899 0.000000 0.005513 0.000000
# 2 -0.000755 0.006403 -0.000517 0.000000 -0.001571 0.000000
# 3 -0.002899 -0.000517 0.011819 0.000000 -0.002427 0.000000
# 4 0.000000 0.000000 0.000000 0.072791 0.000000 -0.049002
# 5 0.005513 -0.001571 -0.002427 0.000000 0.027582 0.000000
# 6 0.000000 0.000000 0.000000 -0.049002 0.000000 0.131994
#
#
# Mechanical properties :
#
#
# Convention : Reuss Voigt Hill
#
# Bulk Modulus (GPa) = 37.13552 41.63151 39.38352
# Shear Modulus (GPa) = 17.54659 32.55036 25.04847
#
# Velocity S-wave (km/s) = 2.78711 3.79609 3.33004
# Velocity P-wave (km/s) = 5.17663 6.13549 5.67635
#
# Compressibility (1/GPa) = 0.02692840
#
# Stress axis : x y z
#
# Youngs Moduli (GPa) = 58.65288 156.18430 84.61283
#
# Poissons Ratio (x) = 0.11793 0.24527
# Poissons Ratio (y) = 0.04429 0.04378
# Poissons Ratio (z) = 0.17002 0.08080
#
# Static dielectric constant tensor:
#      x y z
#    x 1.938070 0.000000 0.114950 
#    y 0.000000 1.808230 0.000000 
#    z 0.114950 0.000000 1.885670 
# 
# From -- ./inp_files/6056.got.cif
#   From: 2010.05.17/outbox.cif.g08.bks.cpg/sg12_4_cif.got.tgz:6056.got - 2010.06.03 13:09:07.
