data_PCOD9216338
_publ_section_title
;
Structure prediction by ZEFSAII (Michael W. Deem and Ramdas Pophale) SiO2 
 PCOD9216338
Probable space group: C 2/M
;
_chemical_formula_sum "Si O2"
_cell_formula_units_Z 64
_cell_length_a 8.759574
_cell_length_b 13.762172
_cell_length_c 31.884082
_cell_angle_alpha 90.000000
_cell_angle_beta 125.190928
_cell_angle_gamma 90.000000
_cell_volume 3141.170124
_symmetry_space_group_name_H-M "C 2/M"
_symmetry_group_IT_number 12
_symmetry_cell_setting 'monoclinic'
loop_
_space_group_symop_operation_xyz
x,y,z
-x,y,-z
-x,-y,-z
x,-y,z
1/2+x,1/2+y,z
1/2-x,1/2+y,-z
1/2-x,1/2-y,-z
1/2+x,1/2-y,z
loop_
_atom_site_type_symbol
_atom_site_label
_atom_site_fract_x
_atom_site_fract_y
_atom_site_fract_z
Si Si1 0.501993 0.259029 0.114238
Si Si2 0.433210 0.615548 0.745217
Si Si3 0.639803 0.115451 0.394581
Si Si4 0.403877 0.790937 0.188481
Si Si5 0.523134 0.115523 0.717044
Si Si6 0.804402 0.720849 0.461921
Si Si7 0.269426 0.383635 0.630850
Si Si8 0.869417 0.614411 0.938360
O O1 0.482897 0.202080 0.154882
O O2 0.689632 0.321613 0.150297
O O3 0.324730 0.329916 0.081997
O O4 0.535076 0.181953 0.082284
O O5 0.463190 0.500000 0.753111
O O6 0.583618 0.678996 0.793693
O O7 0.233937 0.639813 0.735551
O O8 0.405574 0.641101 0.691568
O O9 0.612367 0.145511 0.341927
O O10 0.811041 0.174281 0.440425
O O11 0.444295 0.140755 0.387854
O O12 0.661127 0.000000 0.400645
O O13 0.511256 0.844851 0.242400
O O14 0.514513 0.000000 0.716912
O O15 0.750000 0.750000 0.500000
O O16 0.691256 0.661306 0.408663
O O17 0.000000 0.667804 0.500000
O O18 0.275275 0.500000 0.628530
O O19 0.842663 0.500000 0.922334
O O20 0.000000 0.615894 0.000000
#
# Coordination Sequence:
#
# PCOD9216338 Si02
#       8
#     8   8   8   8   8   8   8   8
#     4  10  23  36  60  96 129 162 205 257 311 363
#     4   9  18  34  58  81 108 153 197 229 278 351
#     4   9  19  37  56  76 105 142 184 226 276 342
#     4  11  19  35  55  88 128 155 187 240 299 353
#     4   9  18  33  55  79 109 152 189 223 279 352
#     4  12  23  36  55  80 104 133 175 230 292 343
#     4   9  19  37  58  79 104 142 190 230 273 347
#     4  10  22  44  69  90 123 172 219 266 312 356
#
# _framework density 20.374573000000002
#
# number of rings (size 3 to 8) (size 9 to 14) (size 15 to 20)
#    0.000    2.125    2.500    2.625    0.000    4.000 
#    0.000    1.875    0.000    9.750    0.000    0.000 
#    0.000    0.000    0.000    0.000    0.000    0.000 
#
# Total GULP energy -178327.005224 kJ/mol
# GULP energy per Si atom -5572.718913 kJ/mol
# Density = 2.032820 g / cm^3
# Si number density = 20.374573 Si / 1000 Ang^3
#
#
#
# Elastic Constant Matrix: (Units=GPa)
#
#
# Indices 1 2 3 4 5 6 
#
# 1 44.6283 15.6042 31.0926 0.0000 -7.7262 0.0000
# 2 15.6042 77.1626 39.5897 0.0000 -3.1459 0.0000
# 3 31.0926 39.5897 119.6827 0.0000 -18.2523 0.0000
# 4 0.0000 0.0000 0.0000 17.4396 0.0000 4.6020
# 5 -7.7262 -3.1459 -18.2523 0.0000 30.4134 0.0000
# 6 0.0000 0.0000 0.0000 4.6020 0.0000 16.5546
#
#
#
# Elastic Compliance Matrix: (Units=1/GPa)
#
#
# Indices 1 2 3 4 5 6 
#
# 1 0.027987 -0.002472 -0.005953 0.000000 0.003282 0.000000
# 2 -0.002472 0.015901 -0.004912 0.000000 -0.001931 0.000000
# 3 -0.005953 -0.004912 0.012349 0.000000 0.005391 0.000000
# 4 0.000000 0.000000 0.000000 0.061880 0.000000 -0.017202
# 5 0.003282 -0.001931 0.005391 0.000000 0.036749 0.000000
# 6 0.000000 0.000000 0.000000 -0.017202 0.000000 0.065188
#
#
# Mechanical properties :
#
#
# Convention : Reuss Voigt Hill
#
# Bulk Modulus (GPa) = 33.82543 46.00517 39.91530
# Shear Modulus (GPa) = 19.48692 23.22733 21.35712
#
# Velocity S-wave (km/s) = 3.09598 3.38007 3.24114
# Velocity P-wave (km/s) = 5.42383 6.15320 5.79999
#
# Compressibility (1/GPa) = 0.02956355
#
# Stress axis : x y z
#
# Youngs Moduli (GPa) = 35.73101 62.88876 80.97872
#
# Poissons Ratio (x) = 0.15544 0.48204
# Poissons Ratio (y) = 0.08832 0.39779
# Poissons Ratio (z) = 0.21269 0.30893
#
# Static dielectric constant tensor:
#      x y z
#    x 1.790960 0.000000 -0.005430 
#    y 0.000000 1.736220 0.000000 
#    z -0.005430 0.000000 1.715860 
# 
# From -- ./inp_files/372385.got.cif
#   From: 2010.05.17/outbox.cif.g08.bks.cpg/sg12_187_cif.got.tgz:372385.got - 2010.06.03 13:09:07.
