data_PCOD9216081
_publ_section_title
;
Structure prediction by ZEFSAII (Michael W. Deem and Ramdas Pophale) SiO2 
 PCOD9216081
Probable space group: C 2/M
;
_chemical_formula_sum "Si O2"
_cell_formula_units_Z 48
_cell_length_a 11.173789
_cell_length_b 26.858543
_cell_length_c 14.648550
_cell_angle_alpha 90.000000
_cell_angle_beta 147.229042
_cell_angle_gamma 90.000000
_cell_volume 2379.584873
_symmetry_space_group_name_H-M "C 2/M"
_symmetry_group_IT_number 12
_symmetry_cell_setting 'monoclinic'
loop_
_space_group_symop_operation_xyz
x,y,z
-x,y,-z
-x,-y,-z
x,-y,z
1/2+x,1/2+y,z
1/2-x,1/2+y,-z
1/2-x,1/2-y,-z
1/2+x,1/2-y,z
loop_
_atom_site_type_symbol
_atom_site_label
_atom_site_fract_x
_atom_site_fract_y
_atom_site_fract_z
Si Si1 0.396188 0.056567 0.832943
Si Si2 0.238648 0.689353 0.100689
Si Si3 0.864081 0.000000 0.691143
Si Si4 0.010239 0.093264 0.336223
Si Si5 0.741244 0.300835 0.108167
Si Si6 0.992035 0.602154 0.273377
Si Si7 0.376565 0.000000 0.282597
O O1 0.498965 0.095782 0.829962
O O2 0.140918 0.069719 0.682015
O O3 0.421980 0.000000 0.815094
O O4 0.500000 0.059363 0.000000
O O5 0.396221 0.644261 0.231749
O O6 0.319723 0.744833 0.181403
O O7 0.244549 0.692970 0.993451
O O8 0.000000 0.682944 0.000000
O O9 0.985879 0.050061 0.738046
O O10 0.622746 0.000000 0.486924
O O11 0.812701 0.000000 0.763693
O O12 0.258442 0.100775 0.529368
O O13 0.882219 0.347048 0.234560
O O14 0.500000 0.304939 0.000000
O O15 0.868241 0.552346 0.226059
#
# Coordination Sequence:
#
# PCOD9216081 Si02
#       7
#     8   8   4   8   8   8   4
#     4  11  22  37  58  87 123 160 198 239 295 364
#     4  10  22  43  64  85 119 163 200 249 308 361
#     4   9  20  35  53  83 122 160 188 232 303 352
#     4  11  21  36  64  89 120 156 200 249 298 355
#     4  10  23  42  63  86 120 159 203 251 305 361
#     4  11  22  38  61  91 120 155 200 251 296 356
#     4   9  20  37  52  80 125 159 186 237 300 353
#
# _framework density 20.171585
#
# number of rings (size 3 to 8) (size 9 to 14) (size 15 to 20)
#    0.000    1.667    1.667    3.000    2.333    1.333 
#    0.000    0.417    0.000    6.000    0.000    0.000 
#    0.000    0.000    0.000    0.000    0.000    0.000 
#
# Total GULP energy -133957.574843 kJ/mol
# GULP energy per Si atom -5581.565618 kJ/mol
# Density = 2.012567 g / cm^3
# Si number density = 20.171585 Si / 1000 Ang^3
#
#
#
# Elastic Constant Matrix: (Units=GPa)
#
#
# Indices 1 2 3 4 5 6 
#
# 1 121.2909 57.4823 20.0078 0.0000 4.7872 0.0000
# 2 57.4823 202.6742 52.9453 0.0000 17.4658 0.0000
# 3 20.0078 52.9453 45.1583 0.0000 4.5776 0.0000
# 4 0.0000 0.0000 0.0000 28.2400 0.0000 16.1457
# 5 4.7872 17.4658 4.5776 0.0000 17.9239 0.0000
# 6 0.0000 0.0000 0.0000 16.1457 0.0000 32.5988
#
#
#
# Elastic Compliance Matrix: (Units=1/GPa)
#
#
# Indices 1 2 3 4 5 6 
#
# 1 0.009598 -0.002331 -0.001529 0.000000 0.000099 0.000000
# 2 -0.002331 0.008130 -0.007965 0.000000 -0.005265 0.000000
# 3 -0.001529 -0.007965 0.032165 0.000000 -0.000045 0.000000
# 4 0.000000 0.000000 0.000000 0.049399 0.000000 -0.024467
# 5 0.000099 -0.005265 -0.000045 0.000000 0.060907 0.000000
# 6 0.000000 0.000000 0.000000 -0.024467 0.000000 0.042794
#
#
# Mechanical properties :
#
#
# Convention : Reuss Voigt Hill
#
# Bulk Modulus (GPa) = 38.10756 69.99937 54.05346
# Shear Modulus (GPa) = 21.24132 31.66507 26.45319
#
# Velocity S-wave (km/s) = 3.24857 3.96635 3.62527
# Velocity P-wave (km/s) = 5.74488 7.46681 6.66171
#
# Compressibility (1/GPa) = 0.02624151
#
# Stress axis : x y z
#
# Youngs Moduli (GPa) = 104.19082 123.00711 31.08983
#
# Poissons Ratio (x) = 0.28674 0.04755
# Poissons Ratio (y) = 0.24288 0.24763
# Poissons Ratio (z) = 0.15934 0.97975
#
# Static dielectric constant tensor:
#      x y z
#    x 1.728290 0.000000 -0.007960 
#    y 0.000000 1.722070 0.000000 
#    z -0.007960 0.000000 1.727330 
# 
# From -- ./inp_files/209490.got.cif
#   From: 2010.05.17/outbox.cif.g08.bks.cpg/sg12_105_cif.got.tgz:209490.got - 2010.06.03 13:09:07.
