data_PCOD9216138
_publ_section_title
;
Structure prediction by ZEFSAII (Michael W. Deem and Ramdas Pophale) SiO2 
 PCOD9216138
Probable space group: C 2/M
;
_chemical_formula_sum "Si O2"
_cell_formula_units_Z 46
_cell_length_a 7.235217
_cell_length_b 17.105063
_cell_length_c 19.345748
_cell_angle_alpha 90.000000
_cell_angle_beta 60.038309
_cell_angle_gamma 90.000000
_cell_volume 2074.244356
_symmetry_space_group_name_H-M "C 2/M"
_symmetry_group_IT_number 12
_symmetry_cell_setting 'monoclinic'
loop_
_space_group_symop_operation_xyz
x,y,z
-x,y,-z
-x,-y,-z
x,-y,z
1/2+x,1/2+y,z
1/2-x,1/2+y,-z
1/2-x,1/2-y,-z
1/2+x,1/2-y,z
loop_
_atom_site_type_symbol
_atom_site_label
_atom_site_fract_x
_atom_site_fract_y
_atom_site_fract_z
Si Si1 0.221661 0.351730 0.584912
Si Si2 0.209391 0.344483 0.248467
Si Si3 0.000000 0.000000 0.500000
Si Si4 0.754588 0.090504 0.965940
Si Si5 0.664863 0.324498 0.188039
Si Si6 0.098239 0.411483 0.135073
Si Si7 0.000000 0.715510 0.500000
O O1 0.355155 0.430461 0.563929
O O2 0.364801 0.274986 0.573578
O O3 0.006283 0.352831 0.668393
O O4 0.151394 0.336934 0.518463
O O5 0.423714 0.347419 0.253882
O O6 0.199676 0.263689 0.206489
O O7 0.206544 0.408070 0.188785
O O8 0.835473 0.151635 0.893387
O O9 0.836420 0.000000 0.943799
O O10 0.500000 0.087215 0.000000
O O11 0.755743 0.118543 0.045372
O O12 0.869590 0.369234 0.179936
O O13 0.052981 0.500000 0.123625
#
# Coordination Sequence:
#
# PCOD9216138 Si02
#       7
#     8   8   2   8   8   8   4
#     4  10  22  43  66  97 124 167 203 263 309 399
#     4  12  24  39  63  98 133 161 217 270 329 379
#     4  10  24  46  68  94 136 158 208 250 322 392
#     4   8  17  38  62  83 126 178 227 265 312 381
#     4  11  22  40  62  94 130 174 218 273 320 379
#     4  10  23  43  63  91 130 180 220 269 328 371
#     4   9  20  42  74  89 122 166 212 239 322 388
#
# _framework density 22.176750999999999
#
# number of rings (size 3 to 8) (size 9 to 14) (size 15 to 20)
#    0.000    1.913    1.739    2.609    1.217    3.130 
#    6.261    1.739    0.000    0.000    0.000    0.000 
#    0.000    0.000    0.000    0.000    0.000    0.000 
#
# Total GULP energy -128093.858219 kJ/mol
# GULP energy per Si atom -5569.298183 kJ/mol
# Density = 2.212628 g / cm^3
# Si number density = 22.176751 Si / 1000 Ang^3
#
#
#
# Elastic Constant Matrix: (Units=GPa)
#
#
# Indices 1 2 3 4 5 6 
#
# 1 79.9215 10.6337 21.1359 0.0000 -21.8593 0.0000
# 2 10.6337 81.0678 37.7568 0.0000 -5.5401 0.0000
# 3 21.1359 37.7568 68.2586 0.0000 -29.6895 0.0000
# 4 0.0000 0.0000 0.0000 20.6854 0.0000 -7.1567
# 5 -21.8593 -5.5401 -29.6895 0.0000 37.5642 0.0000
# 6 0.0000 0.0000 0.0000 -7.1567 0.0000 17.6339
#
#
#
# Elastic Compliance Matrix: (Units=1/GPa)
#
#
# Indices 1 2 3 4 5 6 
#
# 1 0.015038 -0.001231 -0.000378 0.000000 0.008271 0.000000
# 2 -0.001231 0.018158 -0.013425 0.000000 -0.008649 0.000000
# 3 -0.000378 -0.013425 0.032361 0.000000 0.023377 0.000000
# 4 0.000000 0.000000 0.000000 0.056240 0.000000 0.022825
# 5 0.008271 -0.008649 0.023377 0.000000 0.048635 0.000000
# 6 0.000000 0.000000 0.000000 0.022825 0.000000 0.065973
#
#
# Mechanical properties :
#
#
# Convention : Reuss Voigt Hill
#
# Bulk Modulus (GPa) = 28.17749 40.92230 34.54989
# Shear Modulus (GPa) = 17.96597 25.82478 21.89537
#
# Velocity S-wave (km/s) = 2.84936 3.41618 3.14556
# Velocity P-wave (km/s) = 4.85372 5.83551 5.36711
#
# Compressibility (1/GPa) = 0.03548932
#
# Stress axis : x y z
#
# Youngs Moduli (GPa) = 66.49740 55.07113 30.90120
#
# Poissons Ratio (x) = 0.06781 0.01168
# Poissons Ratio (y) = 0.08188 0.41484
# Poissons Ratio (z) = 0.02514 0.73932
#
# Static dielectric constant tensor:
#      x y z
#    x 1.879910 0.000000 -0.003540 
#    y 0.000000 1.846690 0.000000 
#    z -0.003540 0.000000 1.866800 
# 
# From -- ./inp_files/300642.got.cif
#   From: 2010.05.17/outbox.cif.g08.bks.cpg/sg12_151_cif.got.tgz:300642.got - 2010.06.03 13:09:07.
