data_PCOD9216476
_publ_section_title
;
Structure prediction by ZEFSAII (Michael W. Deem and Ramdas Pophale) SiO2 
 PCOD9216476
Probable space group: C 2/M
;
_chemical_formula_sum "Si O2"
_cell_formula_units_Z 42
_cell_length_a 14.787451
_cell_length_b 8.648010
_cell_length_c 19.675484
_cell_angle_alpha 90.000000
_cell_angle_beta 127.960694
_cell_angle_gamma 90.000000
_cell_volume 1983.808184
_symmetry_space_group_name_H-M "C 2/M"
_symmetry_group_IT_number 12
_symmetry_cell_setting 'monoclinic'
loop_
_space_group_symop_operation_xyz
x,y,z
-x,y,-z
-x,-y,-z
x,-y,z
1/2+x,1/2+y,z
1/2-x,1/2+y,-z
1/2-x,1/2-y,-z
1/2+x,1/2-y,z
loop_
_atom_site_type_symbol
_atom_site_label
_atom_site_fract_x
_atom_site_fract_y
_atom_site_fract_z
Si Si1 0.218048 0.828436 0.055711
Si Si2 0.269375 0.680522 0.221121
Si Si3 0.624214 0.318304 0.521408
Si Si4 0.500000 0.500000 0.000000
Si Si5 0.163755 0.181318 0.298369
Si Si6 0.017027 0.682218 0.342406
O O1 0.254249 0.724609 0.135950
O O2 0.274621 0.000000 0.087973
O O3 0.250000 0.750000 0.000000
O O4 0.084069 0.867847 0.003936
O O5 0.253860 0.500000 0.226998
O O6 0.182893 0.776285 0.228730
O O7 0.398079 0.730431 0.299736
O O8 0.500000 0.306087 0.500000
O O9 0.654782 0.500000 0.530996
O O10 0.719203 0.230286 0.609111
O O11 0.607401 0.244883 0.439491
O O12 0.064561 0.275625 0.290215
O O13 0.142263 0.000000 0.296256
O O14 0.001019 0.500000 0.343212
#
# Coordination Sequence:
#
# PCOD9216476 Si02
#       6
#     8   8   8   2   8   8
#     4  10  22  46  74 106 141 183 227 284 351 423
#     4  12  25  44  68 101 140 175 223 284 341 409
#     4  11  22  39  64  89 129 179 229 286 342 402
#     4   8  24  44  78 106 144 178 230 278 346 422
#     4  12  25  42  64  94 135 180 231 286 340 404
#     4  12  25  42  65  96 130 180 232 280 346 406
#
# _framework density 21.171402
#
# number of rings (size 3 to 8) (size 9 to 14) (size 15 to 20)
#    0.571    0.190    1.905    6.857    0.000    2.286 
#    0.000    3.810    0.000    0.000    0.000    0.000 
#    0.000    0.000    0.000    0.000    0.000    0.000 
#
# Total GULP energy -117213.470120 kJ/mol
# GULP energy per Si atom -5581.593815 kJ/mol
# Density = 2.112321 g / cm^3
# Si number density = 21.171402 Si / 1000 Ang^3
#
#
#
# Elastic Constant Matrix: (Units=GPa)
#
#
# Indices 1 2 3 4 5 6 
#
# 1 77.7187 -8.9400 15.3434 0.0000 -13.7142 0.0000
# 2 -8.9400 83.8163 -0.4922 0.0000 3.6673 0.0000
# 3 15.3434 -0.4922 57.6740 0.0000 -26.8240 0.0000
# 4 0.0000 0.0000 0.0000 28.0433 0.0000 -4.3250
# 5 -13.7142 3.6673 -26.8240 0.0000 27.4050 0.0000
# 6 0.0000 0.0000 0.0000 -4.3250 0.0000 40.2716
#
#
#
# Elastic Compliance Matrix: (Units=1/GPa)
#
#
# Indices 1 2 3 4 5 6 
#
# 1 0.014266 0.001253 -0.000995 0.000000 0.005997 0.000000
# 2 0.001253 0.012155 -0.001275 0.000000 -0.002247 0.000000
# 3 -0.000995 -0.001275 0.032015 0.000000 0.031008 0.000000
# 4 0.000000 0.000000 0.000000 0.036260 0.000000 0.003894
# 5 0.005997 -0.002247 0.031008 0.000000 0.070142 0.000000
# 6 0.000000 0.000000 0.000000 0.003894 0.000000 0.025250
#
#
# Mechanical properties :
#
#
# Convention : Reuss Voigt Hill
#
# Bulk Modulus (GPa) = 17.72985 25.67015 21.70000
# Shear Modulus (GPa) = 23.70548 33.36385 28.53467
#
# Velocity S-wave (km/s) = 3.34981 3.97406 3.67521
# Velocity P-wave (km/s) = 4.83263 5.76270 5.31804
#
# Compressibility (1/GPa) = 0.05640204
#
# Stress axis : x y z
#
# Youngs Moduli (GPa) = 70.09758 82.26812 31.23579
#
# Poissons Ratio (x) = -0.10311 0.03109
# Poissons Ratio (y) = -0.08786 0.03982
# Poissons Ratio (z) = 0.06977 0.10488
#
# Static dielectric constant tensor:
#      x y z
#    x 1.746700 0.000000 0.027340 
#    y 0.000000 1.710530 0.000000 
#    z 0.027340 0.000000 1.778090 
# 
# From -- ./inp_files/267808.got.cif
#   From: 2010.05.17/outbox.cif.g08.bks.cpg/sg12_134_cif.got.tgz:267808.got - 2010.06.03 13:09:07.
