data_PCOD9216875
_publ_section_title
;
Structure prediction by ZEFSAII (Michael W. Deem and Ramdas Pophale) SiO2 
 PCOD9216875
Probable space group: C 2/M
;
_chemical_formula_sum "Si O2"
_cell_formula_units_Z 44
_cell_length_a 8.668535
_cell_length_b 16.013835
_cell_length_c 22.102197
_cell_angle_alpha 90.000000
_cell_angle_beta 42.903138
_cell_angle_gamma 90.000000
_cell_volume 2088.676411
_symmetry_space_group_name_H-M "C 2/M"
_symmetry_group_IT_number 12
_symmetry_cell_setting 'monoclinic'
loop_
_space_group_symop_operation_xyz
x,y,z
-x,y,-z
-x,-y,-z
x,-y,z
1/2+x,1/2+y,z
1/2-x,1/2+y,-z
1/2-x,1/2-y,-z
1/2+x,1/2-y,z
loop_
_atom_site_type_symbol
_atom_site_label
_atom_site_fract_x
_atom_site_fract_y
_atom_site_fract_z
Si Si1 0.597492 0.728053 0.692073
Si Si2 0.099002 0.323645 0.570565
Si Si3 0.003214 0.500000 0.742003
Si Si4 0.839911 0.656484 0.987415
Si Si5 0.747142 0.000000 0.546475
Si Si6 0.862651 0.652163 0.215358
Si Si7 0.983870 0.000000 0.931451
O O1 0.601407 0.802719 0.641594
O O2 0.393646 0.668784 0.731242
O O3 0.557630 0.765864 0.770254
O O4 0.842215 0.685269 0.622030
O O5 0.250000 0.250000 0.500000
O O6 0.203090 0.413162 0.525606
O O7 0.069491 0.500000 0.653112
O O8 0.111248 0.578378 0.744990
O O9 0.734029 0.500000 0.831091
O O10 0.985934 0.633985 0.886189
O O11 0.750000 0.750000 0.000000
O O12 0.649517 0.584634 0.048568
O O13 0.000000 0.657516 0.000000
O O14 0.000000 0.000000 0.500000
O O15 0.000000 0.000000 0.000000
#
# Coordination Sequence:
#
# PCOD9216875 Si02
#       7
#     8   8   4   8   4   8   4
#     4  10  23  40  69  95 137 184 231 287 352 416
#     4  11  23  44  67 103 138 179 231 294 353 423
#     4  12  26  45  71  99 142 184 237 296 354 433
#     4  12  26  43  70 106 144 189 241 296 359 430
#     4  12  26  43  71 103 137 184 231 282 360 426
#     4  11  23  43  66  98 138 183 236 285 350 420
#     4  12  25  46  70 102 147 192 238 305 361 420
#
# _framework density 21.065973
#
# number of rings (size 3 to 8) (size 9 to 14) (size 15 to 20)
#    0.000    0.727    3.636    3.545    5.091    2.182 
#    0.000    1.818    0.000    0.000    0.000    0.000 
#    0.000    0.000    0.000    0.000    0.000    0.000 
#
# Total GULP energy -123091.175560 kJ/mol
# GULP energy per Si atom -5595.053435 kJ/mol
# Density = 2.101803 g / cm^3
# Si number density = 21.065973 Si / 1000 Ang^3
#
#
#
# Elastic Constant Matrix: (Units=GPa)
#
#
# Indices 1 2 3 4 5 6 
#
# 1 137.0919 56.5429 30.4538 -0.0003 -27.8463 0.0007
# 2 56.5429 152.0599 22.0489 -0.0003 -33.7801 0.0009
# 3 30.4538 22.0489 84.2224 0.0043 -12.2174 -0.0017
# 4 -0.0003 -0.0003 0.0043 25.7711 -0.0011 -1.1487
# 5 -27.8463 -33.7801 -12.2174 -0.0011 44.5116 -0.0003
# 6 0.0007 0.0009 -0.0017 -1.1487 -0.0003 24.3425
#
#
#
# Elastic Compliance Matrix: (Units=1/GPa)
#
#
# Indices 1 2 3 4 5 6 
#
# 1 0.009514 -0.002432 -0.002299 0.000001 0.003475 0.000000
# 2 -0.002432 0.008660 -0.000682 0.000000 0.004863 0.000000
# 3 -0.002299 -0.000682 0.013122 -0.000002 0.001646 0.000001
# 4 0.000001 0.000000 -0.000002 0.038885 0.000001 0.001835
# 5 0.003475 0.004863 0.001646 0.000001 0.028782 0.000000
# 6 0.000000 0.000000 0.000001 0.001835 0.000000 0.041167
#
#
# Mechanical properties :
#
#
# Convention : Reuss Voigt Hill
#
# Bulk Modulus (GPa) = 48.85558 65.71836 57.28697
# Shear Modulus (GPa) = 31.68935 36.54693 34.11814
#
# Velocity S-wave (km/s) = 3.88273 4.16971 4.02877
# Velocity P-wave (km/s) = 6.58353 7.37876 6.99246
#
# Compressibility (1/GPa) = 0.02046849
#
# Stress axis : x y z
#
# Youngs Moduli (GPa) = 105.10543 115.47142 76.20771
#
# Poissons Ratio (x) = 0.28088 0.17523
# Poissons Ratio (y) = 0.25567 0.05199
# Poissons Ratio (z) = 0.24167 0.07877
#
# Static dielectric constant tensor:
#      x y z
#    x 1.734770 0.000000 0.029620 
#    y 0.000000 1.772180 0.000000 
#    z 0.029620 0.000000 1.764770 
# 
# From -- ./inp_files/333289.got.cif
#   From: 2010.05.17/outbox.cif.g08.bks.cpg/sg12_167_cif.got.tgz:333289.got - 2010.06.03 13:09:07.
