data_PCOD9216548
_publ_section_title
;
Structure prediction by ZEFSAII (Michael W. Deem and Ramdas Pophale) SiO2 
 PCOD9216548
Probable space group: C 2/M
;
_chemical_formula_sum "Si O2"
_cell_formula_units_Z 56
_cell_length_a 14.448878
_cell_length_b 18.589022
_cell_length_c 19.861465
_cell_angle_alpha 90.000000
_cell_angle_beta 32.446964
_cell_angle_gamma 90.000000
_cell_volume 2862.113162
_symmetry_space_group_name_H-M "C 2/M"
_symmetry_group_IT_number 12
_symmetry_cell_setting 'monoclinic'
loop_
_space_group_symop_operation_xyz
x,y,z
-x,y,-z
-x,-y,-z
x,-y,z
1/2+x,1/2+y,z
1/2-x,1/2+y,-z
1/2-x,1/2-y,-z
1/2+x,1/2-y,z
loop_
_atom_site_type_symbol
_atom_site_label
_atom_site_fract_x
_atom_site_fract_y
_atom_site_fract_z
Si Si1 0.624497 0.416175 0.482032
Si Si2 0.523900 0.203764 0.372735
Si Si3 0.988457 0.152232 0.699924
Si Si4 0.982984 0.415230 0.731940
Si Si5 0.283312 0.712256 0.335279
Si Si6 0.651356 0.920548 0.960283
Si Si7 0.107886 0.689128 0.105403
O O1 0.500000 0.385006 0.500000
O O2 0.578168 0.500000 0.516385
O O3 0.585266 0.380716 0.577151
O O4 0.829829 0.412794 0.345703
O O5 0.551770 0.265928 0.299632
O O6 0.497691 0.128447 0.350001
O O7 0.678667 0.196889 0.331503
O O8 0.358142 0.227622 0.519401
O O9 0.818611 0.107924 0.819261
O O10 0.102006 0.151949 0.697961
O O11 0.938532 0.500000 0.751909
O O12 0.856474 0.365293 0.854238
O O13 0.425493 0.772371 0.231716
O O14 0.681261 0.000000 0.971511
O O15 0.500000 0.925253 0.000000
O O16 0.599362 0.863054 0.047421
O O17 0.250000 0.750000 0.000000
#
# Coordination Sequence:
#
# PCOD9216548 Si02
#       7
#     8   8   8   8   8   8   8
#     4  10  23  37  60  97 131 165 203 258 330 387
#     4  11  23  40  66  97 129 161 212 264 317 379
#     4  12  21  40  64  91 128 167 214 260 317 376
#     4  11  23  42  64  92 130 168 209 258 321 381
#     4  11  23  39  66  97 124 163 215 259 316 370
#     4  11  25  41  60  91 128 168 210 259 320 380
#     4  12  23  42  65  90 122 167 217 261 310 368
#
# _framework density 19.565963
#
# number of rings (size 3 to 8) (size 9 to 14) (size 15 to 20)
#    0.000    0.857    4.286    3.000    6.000    0.000 
#    0.000    2.857    0.000    0.857    0.000    0.000 
#    0.000    0.000    0.000    0.000    0.000    0.000 
#
# Total GULP energy -156256.284329 kJ/mol
# GULP energy per Si atom -5580.581583 kJ/mol
# Density = 1.952143 g / cm^3
# Si number density = 19.565963 Si / 1000 Ang^3
#
#
#
# Elastic Constant Matrix: (Units=GPa)
#
#
# Indices 1 2 3 4 5 6 
#
# 1 100.2933 50.6419 28.5497 -0.0009 -6.8949 -0.0008
# 2 50.6419 144.1085 62.0363 0.0001 6.1917 0.0003
# 3 28.5497 62.0363 74.0385 -0.0016 0.2186 0.0015
# 4 -0.0009 0.0001 -0.0016 2.4110 0.0016 4.6007
# 5 -6.8949 6.1917 0.2186 0.0016 30.0010 -0.0013
# 6 -0.0008 0.0003 0.0015 4.6007 -0.0013 30.2787
#
#
#
# Elastic Compliance Matrix: (Units=1/GPa)
#
#
# Indices 1 2 3 4 5 6 
#
# 1 0.012664 -0.003916 -0.001613 0.000000 0.003730 0.000001
# 2 -0.003916 0.012209 -0.008710 -0.000008 -0.003356 0.000001
# 3 -0.001613 -0.008710 0.021423 0.000021 0.001271 -0.000004
# 4 0.000000 -0.000008 0.000021 0.584126 -0.000034 -0.088756
# 5 0.003730 -0.003356 0.001271 -0.000034 0.034873 0.000007
# 6 0.000001 0.000001 -0.000004 -0.088756 0.000007 0.046513
#
#
# Mechanical properties :
#
#
# Convention : Reuss Voigt Hill
#
# Bulk Modulus (GPa) = 56.12449 66.76625 61.44537
# Shear Modulus (GPa) = 6.70039 24.35229 15.52634
#
# Velocity S-wave (km/s) = 1.85255 3.53175 2.82004
# Velocity P-wave (km/s) = 5.77260 7.12943 6.48659
#
# Compressibility (1/GPa) = 0.01781753
#
# Stress axis : x y z
#
# Youngs Moduli (GPa) = 78.96537 81.90622 46.67964
#
# Poissons Ratio (x) = 0.32076 0.07529
# Poissons Ratio (y) = 0.30924 0.40657
# Poissons Ratio (z) = 0.12736 0.71339
#
# Static dielectric constant tensor:
#      x y z
#    x 1.681400 -0.000010 0.001720 
#    y -0.000010 1.759500 -0.000010 
#    z 0.001720 -0.000010 1.698950 
# 
# From -- ./inp_files/311697.got.cif
#   From: 2010.05.17/outbox.cif.g08.bks.cpg/sg12_156_cif.got.tgz:311697.got - 2010.06.03 13:09:07.
