data_PCOD9216406
_publ_section_title
;
Structure prediction by ZEFSAII (Michael W. Deem and Ramdas Pophale) SiO2 
 PCOD9216406
Probable space group: C 2/M
;
_chemical_formula_sum "Si O2"
_cell_formula_units_Z 40
_cell_length_a 15.867258
_cell_length_b 21.225389
_cell_length_c 10.387199
_cell_angle_alpha 90.000000
_cell_angle_beta 30.411360
_cell_angle_gamma 90.000000
_cell_volume 1770.851819
_symmetry_space_group_name_H-M "C 2/M"
_symmetry_group_IT_number 12
_symmetry_cell_setting 'monoclinic'
loop_
_space_group_symop_operation_xyz
x,y,z
-x,y,-z
-x,-y,-z
x,-y,z
1/2+x,1/2+y,z
1/2-x,1/2+y,-z
1/2-x,1/2-y,-z
1/2+x,1/2-y,z
loop_
_atom_site_type_symbol
_atom_site_label
_atom_site_fract_x
_atom_site_fract_y
_atom_site_fract_z
Si Si1 0.507630 0.779096 0.644121
Si Si2 0.494448 0.000000 0.852339
Si Si3 0.266852 0.882377 0.079330
Si Si4 0.934742 0.136428 0.395083
Si Si5 0.201769 0.000000 0.735054
Si Si6 0.315715 0.367190 0.278254
O O1 0.500000 0.774002 0.500000
O O2 0.511471 0.709041 0.695194
O O3 0.679102 0.814188 0.449996
O O4 0.361860 0.822833 0.892827
O O5 0.674995 0.000000 0.549803
O O6 0.500000 0.000000 0.000000
O O7 0.394447 0.939037 0.932900
O O8 0.188292 0.865330 0.321288
O O9 0.104733 0.899418 0.207668
O O10 0.842022 0.112406 0.391634
O O11 0.234322 0.928461 0.741302
O O12 0.000000 0.000000 0.000000
O O13 0.500000 0.344706 0.000000
#
# Coordination Sequence:
#
# PCOD9216406 Si02
#       6
#     8   4   8   8   4   8
#     4  12  24  44  68  98 142 178 236 296 352 426
#     4  12  24  46  74 110 145 186 243 295 345 436
#     4  11  25  43  72 100 140 185 234 289 361 408
#     4  11  25  44  66 105 138 186 231 296 357 427
#     4  10  22  45  66 100 143 176 236 294 349 422
#     4  11  24  42  70 100 135 186 232 289 363 425
#
# _framework density 22.588000000000001
#
# number of rings (size 3 to 8) (size 9 to 14) (size 15 to 20)
#    0.000    0.800    4.000    3.600    2.800    2.400 
#    0.000    4.000    0.000    0.000    0.000    0.000 
#    0.000    0.000    0.000    0.000    0.000    0.000 
#
# Total GULP energy -111771.788592 kJ/mol
# GULP energy per Si atom -5588.589430 kJ/mol
# Density = 2.253659 g / cm^3
# Si number density = 22.588000 Si / 1000 Ang^3
#
#
#
# Elastic Constant Matrix: (Units=GPa)
#
#
# Indices 1 2 3 4 5 6 
#
# 1 82.2120 31.3820 22.2799 -0.0009 -5.6320 0.0049
# 2 31.3820 101.8852 33.8609 -0.0262 -15.8765 0.0161
# 3 22.2799 33.8609 138.2351 -0.0255 -4.5571 0.0145
# 4 -0.0009 -0.0262 -0.0255 20.5527 0.0294 -0.6974
# 5 -5.6320 -15.8765 -4.5571 0.0294 35.6260 -0.0169
# 6 0.0049 0.0161 0.0145 -0.6974 -0.0169 22.6523
#
#
#
# Elastic Compliance Matrix: (Units=1/GPa)
#
#
# Indices 1 2 3 4 5 6 
#
# 1 0.014002 -0.003825 -0.001309 -0.000006 0.000342 0.000001
# 2 -0.003825 0.012480 -0.002287 0.000006 0.004664 -0.000003
# 3 -0.001309 -0.002287 0.007998 0.000007 -0.000203 -0.000003
# 4 -0.000006 0.000006 0.000007 0.048706 -0.000037 0.001499
# 5 0.000342 0.004664 -0.000203 -0.000037 0.030176 0.000018
# 6 0.000001 -0.000003 -0.000003 0.001499 0.000018 0.044192
#
#
# Mechanical properties :
#
#
# Convention : Reuss Voigt Hill
#
# Bulk Modulus (GPa) = 50.91635 55.26420 53.09027
# Shear Modulus (GPa) = 27.94221 31.42016 29.68118
#
# Velocity S-wave (km/s) = 3.52097 3.73367 3.62888
# Velocity P-wave (km/s) = 6.25459 6.56554 6.41195
#
# Compressibility (1/GPa) = 0.01964006
#
# Stress axis : x y z
#
# Youngs Moduli (GPa) = 71.42034 80.12939 125.02455
#
# Poissons Ratio (x) = 0.30646 0.16361
# Poissons Ratio (y) = 0.27315 0.28590
# Poissons Ratio (z) = 0.09346 0.18324
#
# Static dielectric constant tensor:
#      x y z
#    x 1.877990 -0.000060 0.023120 
#    y -0.000060 1.852880 0.000040 
#    z 0.023120 0.000040 1.816480 
# 
# From -- ./inp_files/159420.got.cif
#   From: 2010.05.17/outbox.cif.g08.bks.cpg/sg12_80_cif.got.tgz:159420.got - 2010.06.03 13:09:07.
