data_PCOD9216832
_publ_section_title
;
Structure prediction by ZEFSAII (Michael W. Deem and Ramdas Pophale) SiO2 
 PCOD9216832
Probable space group: C 2/M
;
_chemical_formula_sum "Si O2"
_cell_formula_units_Z 36
_cell_length_a 17.597192
_cell_length_b 8.968999
_cell_length_c 10.632245
_cell_angle_alpha 90.000000
_cell_angle_beta 66.897086
_cell_angle_gamma 90.000000
_cell_volume 1543.499372
_symmetry_space_group_name_H-M "C 2/M"
_symmetry_group_IT_number 12
_symmetry_cell_setting 'monoclinic'
loop_
_space_group_symop_operation_xyz
x,y,z
-x,y,-z
-x,-y,-z
x,-y,z
1/2+x,1/2+y,z
1/2-x,1/2+y,-z
1/2-x,1/2-y,-z
1/2+x,1/2-y,z
loop_
_atom_site_type_symbol
_atom_site_label
_atom_site_fract_x
_atom_site_fract_y
_atom_site_fract_z
Si Si1 0.958329 0.000000 0.168174
Si Si2 0.236064 0.000000 0.895239
Si Si3 0.181641 0.500000 0.686519
Si Si4 0.296581 0.251459 0.682265
Si Si5 0.411109 0.000000 0.491436
Si Si6 0.500000 0.745703 0.000000
Si Si7 0.886029 0.500000 0.989275
Si Si8 0.118240 0.000000 0.205516
O O1 0.937782 0.828604 0.150874
O O2 0.020571 0.000000 0.243407
O O3 0.000000 0.000000 0.000000
O O4 0.240201 0.144148 0.804803
O O5 0.159624 0.000000 0.039990
O O6 0.318939 0.000000 0.924081
O O7 0.241046 0.356655 0.630623
O O8 0.101666 0.500000 0.650342
O O9 0.160204 0.500000 0.847275
O O10 0.348675 0.358504 0.740605
O O11 0.359963 0.143700 0.571215
O O12 0.500000 0.000000 0.500000
O O13 0.558768 0.851699 0.044879
#
# Coordination Sequence:
#
# PCOD9216832 Si02
#       8
#     4   4   4   8   4   4   4   4
#     4   8  19  32  48  75 129 168 193 231 297 365
#     4  11  21  33  63  97 133 157 200 242 313 388
#     4  11  24  41  68  93 127 168 217 272 320 372
#     4  10  23  40  65  95 126 168 210 270 318 375
#     4  11  26  49  67  90 120 168 230 278 320 372
#     4   8  20  32  48  82 130 166 198 240 294 384
#     4  11  19  34  58  91 124 164 204 245 315 369
#     4  11  19  35  61  91 128 157 204 247 316 383
#
# _framework density 23.323623000000001
#
# number of rings (size 3 to 8) (size 9 to 14) (size 15 to 20)
#    0.667    1.111    2.222    2.667    3.111    5.333 
#    0.000    2.222    0.000    2.667    0.000    0.000 
#    0.000    0.000    0.000    0.000    0.000    0.000 
#
# Total GULP energy -100244.400448 kJ/mol
# GULP energy per Si atom -5569.133358 kJ/mol
# Density = 2.327054 g / cm^3
# Si number density = 23.323623 Si / 1000 Ang^3
#
#
#
# Elastic Constant Matrix: (Units=GPa)
#
#
# Indices 1 2 3 4 5 6 
#
# 1 176.1047 48.8330 20.7776 0.0000 27.7212 0.0000
# 2 48.8330 135.5542 27.6450 0.0000 10.4118 0.0000
# 3 20.7776 27.6450 35.3289 0.0000 7.4393 0.0000
# 4 0.0000 0.0000 0.0000 -21.8562 0.0000 -25.7557
# 5 27.7212 10.4118 7.4393 0.0000 27.5795 0.0000
# 6 0.0000 0.0000 0.0000 -25.7557 0.0000 -24.3230
#
#
#
# Elastic Compliance Matrix: (Units=1/GPa)
#
#
# Indices 1 2 3 4 5 6 
#
# 1 0.007365 -0.001853 -0.001559 0.000000 -0.006283 0.000000
# 2 -0.001853 0.009307 -0.006197 0.000000 0.000020 0.000000
# 3 -0.001559 -0.006197 0.035251 0.000000 -0.005602 0.000000
# 4 0.000000 0.000000 0.000000 0.184620 0.000000 -0.195495
# 5 -0.006283 0.000020 -0.005602 0.000000 0.044078 0.000000
# 6 0.000000 0.000000 0.000000 -0.195495 0.000000 0.165897
#
#
# Mechanical properties :
#
#
# Convention : Reuss Voigt Hill
#
# Bulk Modulus (GPa) = 30.57573 60.16654 45.37113
# Shear Modulus (GPa) = 10.49015 12.92887 11.70951
#
# Velocity S-wave (km/s) = 2.12307 2.35697 2.24307
# Velocity P-wave (km/s) = 4.37581 5.76710 5.11894
#
# Compressibility (1/GPa) = 0.03270568
#
# Stress axis : x y z
#
# Youngs Moduli (GPa) = 135.77438 107.44720 28.36773
#
# Poissons Ratio (x) = 0.19908 0.04422
# Poissons Ratio (y) = 0.25156 0.17580
# Poissons Ratio (z) = 0.21164 0.66589
#
# Static dielectric constant tensor:
#      x y z
#    x 2.002840 0.000000 -0.064180 
#    y 0.000000 1.710290 0.000000 
#    z -0.064180 0.000000 1.871440 
# 
# From -- ./inp_files/151612.got.cif
#   From: 2010.05.17/outbox.cif.g08.bks.cpg/sg12_76_cif.got.tgz:151612.got - 2010.06.03 13:09:07.
