data_PCOD9216417
_publ_section_title
;
Structure prediction by ZEFSAII (Michael W. Deem and Ramdas Pophale) SiO2 
 PCOD9216417
Probable space group: C 2/M
;
_chemical_formula_sum "Si O2"
_cell_formula_units_Z 52
_cell_length_a 24.733355
_cell_length_b 20.247780
_cell_length_c 5.608429
_cell_angle_alpha 90.000000
_cell_angle_beta 52.862262
_cell_angle_gamma 90.000000
_cell_volume 2239.038595
_symmetry_space_group_name_H-M "C 2/M"
_symmetry_group_IT_number 12
_symmetry_cell_setting 'monoclinic'
loop_
_space_group_symop_operation_xyz
x,y,z
-x,y,-z
-x,-y,-z
x,-y,z
1/2+x,1/2+y,z
1/2-x,1/2+y,-z
1/2-x,1/2-y,-z
1/2+x,1/2-y,z
loop_
_atom_site_type_symbol
_atom_site_label
_atom_site_fract_x
_atom_site_fract_y
_atom_site_fract_z
Si Si1 0.539261 0.000000 0.649675
Si Si2 0.671011 0.240673 0.295412
Si Si3 0.429936 0.795588 0.040132
Si Si4 0.756398 0.926233 0.830933
Si Si5 0.075948 0.833767 0.268872
Si Si6 0.386455 0.889305 0.788336
Si Si7 0.693401 0.579410 0.793630
O O1 0.500000 0.000000 0.500000
O O2 0.581510 0.932307 0.506769
O O3 0.500000 0.000000 0.000000
O O4 0.642003 0.216027 0.629663
O O5 0.622995 0.303624 0.356797
O O6 0.644570 0.179815 0.210023
O O7 0.750000 0.250000 0.000000
O O8 0.500000 0.795421 0.000000
O O9 0.434429 0.730492 0.866997
O O10 0.431372 0.864089 0.887262
O O11 0.787597 0.891095 0.516308
O O12 0.786613 0.000000 0.766504
O O13 0.678462 0.930416 0.962158
O O14 0.762860 0.900979 0.086606
O O15 0.000000 0.858929 0.500000
O O16 0.119964 0.892333 0.043697
O O17 0.697932 0.500000 0.763301
#
# Coordination Sequence:
#
# PCOD9216417 Si02
#       7
#     4   8   8   8   8   8   8
#     4  12  32  50  74 112 150 204 257 310 385 468
#     4  11  26  44  72 107 144 193 254 317 376 450
#     4  11  26  46  73 101 151 201 253 311 386 453
#     4  10  22  45  70 104 145 185 237 298 375 438
#     4  11  24  43  69 102 145 195 242 305 377 450
#     4  11  27  45  72 104 146 197 249 315 374 454
#     4  10  24  42  73 107 145 188 239 305 369 452
#
# _framework density 23.224256
#
# number of rings (size 3 to 8) (size 9 to 14) (size 15 to 20)
#    0.000    1.231    2.308    0.923   12.923    1.538 
#    0.000    0.000    0.000    3.231    0.000    0.000 
#    0.000    0.000    0.000    0.000    0.000    0.000 
#
# Total GULP energy -144869.947106 kJ/mol
# GULP energy per Si atom -5571.921043 kJ/mol
# Density = 2.317140 g / cm^3
# Si number density = 23.224256 Si / 1000 Ang^3
#
#
#
# Elastic Constant Matrix: (Units=GPa)
#
#
# Indices 1 2 3 4 5 6 
#
# 1 105.4675 18.9665 41.9178 0.0000 3.8796 0.0000
# 2 18.9665 42.9040 18.1240 0.0000 1.8654 0.0000
# 3 41.9178 18.1240 143.9905 0.0000 -1.0620 0.0000
# 4 0.0000 0.0000 0.0000 34.7468 0.0000 -14.3620
# 5 3.8796 1.8654 -1.0620 0.0000 40.8645 0.0000
# 6 0.0000 0.0000 0.0000 -14.3620 0.0000 20.6986
#
#
#
# Elastic Compliance Matrix: (Units=1/GPa)
#
#
# Indices 1 2 3 4 5 6 
#
# 1 0.011319 -0.003767 -0.002828 0.000000 -0.000976 0.000000
# 2 -0.003767 0.025930 -0.002174 0.000000 -0.000883 0.000000
# 3 -0.002828 -0.002174 0.008046 0.000000 0.000577 0.000000
# 4 0.000000 0.000000 0.000000 0.040353 0.000000 0.027999
# 5 -0.000976 -0.000883 0.000577 0.000000 0.024619 0.000000
# 6 0.000000 0.000000 0.000000 0.027999 0.000000 0.067740
#
#
# Mechanical properties :
#
#
# Convention : Reuss Voigt Hill
#
# Bulk Modulus (GPa) = 36.02627 50.04207 43.03417
# Shear Modulus (GPa) = 24.41457 33.48555 28.95006
#
# Velocity S-wave (km/s) = 3.24582 3.80127 3.53447
# Velocity P-wave (km/s) = 5.43996 6.39221 5.93521
#
# Compressibility (1/GPa) = 0.02775752
#
# Stress axis : x y z
#
# Youngs Moduli (GPa) = 88.34764 38.56607 124.28382
#
# Poissons Ratio (x) = 0.14526 0.35150
# Poissons Ratio (y) = 0.33277 0.27016
# Poissons Ratio (z) = 0.24987 0.08383
#
# Static dielectric constant tensor:
#      x y z
#    x 1.973500 0.000000 0.044190 
#    y 0.000000 1.359550 0.000000 
#    z 0.044190 0.000000 1.968510 
# 
# From -- ./inp_files/29283.got.cif
#   From: 2010.05.17/outbox.cif.g08.bks.cpg/sg12_15_cif.got.tgz:29283.got - 2010.06.03 13:09:07.
