data_PCOD9216867
_publ_section_title
;
Structure prediction by ZEFSAII (Michael W. Deem and Ramdas Pophale) SiO2 
 PCOD9216867
Probable space group: C 2/M
;
_chemical_formula_sum "Si O2"
_cell_formula_units_Z 44
_cell_length_a 14.103806
_cell_length_b 18.967535
_cell_length_c 23.393904
_cell_angle_alpha 90.000000
_cell_angle_beta 162.020059
_cell_angle_gamma 90.000000
_cell_volume 1931.808458
_symmetry_space_group_name_H-M "C 2/M"
_symmetry_group_IT_number 12
_symmetry_cell_setting 'monoclinic'
loop_
_space_group_symop_operation_xyz
x,y,z
-x,y,-z
-x,-y,-z
x,-y,z
1/2+x,1/2+y,z
1/2-x,1/2+y,-z
1/2-x,1/2-y,-z
1/2+x,1/2-y,z
loop_
_atom_site_type_symbol
_atom_site_label
_atom_site_fract_x
_atom_site_fract_y
_atom_site_fract_z
Si Si1 0.934747 0.000000 0.298698
Si Si2 0.478328 0.606494 0.553513
Si Si3 0.820084 0.419230 0.150924
Si Si4 0.327920 0.608910 0.663209
Si Si5 0.461926 0.765603 0.568098
Si Si6 0.387884 0.326449 0.067417
O O1 0.860826 0.061268 0.305418
O O2 0.034659 0.061313 0.308209
O O3 0.500000 0.581710 0.500000
O O4 0.555602 0.688842 0.599111
O O5 0.114733 0.595611 0.358837
O O6 0.837851 0.500000 0.141433
O O7 0.500000 0.411331 0.000000
O O8 0.812080 0.366315 0.093866
O O9 0.239324 0.686880 0.589690
O O10 0.563983 0.623564 0.850015
O O11 0.000000 0.581088 0.500000
O O12 0.250000 0.750000 0.500000
O O13 0.765789 0.810495 0.755682
O O14 0.250000 0.250000 0.000000
#
# Coordination Sequence:
#
# PCOD9216867 Si02
#       6
#     4   8   8   8   8   8
#     4  12  24  40  67 101 136 169 230 273 337 399
#     4  12  24  44  71  97 134 182 230 276 329 407
#     4  11  25  41  67 100 134 169 218 277 340 392
#     4  10  23  40  67  98 129 176 222 280 327 394
#     4  11  21  42  70  95 127 173 235 277 320 395
#     4  11  24  43  67  97 133 174 217 275 340 396
#
# _framework density 22.776585000000001
#
# number of rings (size 3 to 8) (size 9 to 14) (size 15 to 20)
#    0.000    0.909    2.727    5.455    3.818    0.000 
#    0.000    0.000    0.000    4.364    0.000    0.000 
#    0.000    0.000    0.000    0.000    0.000    0.000 
#
# Total GULP energy -122502.529113 kJ/mol
# GULP energy per Si atom -5568.296778 kJ/mol
# Density = 2.272474 g / cm^3
# Si number density = 22.776585 Si / 1000 Ang^3
#
#
#
# Elastic Constant Matrix: (Units=GPa)
#
#
# Indices 1 2 3 4 5 6 
#
# 1 119.4483 36.5089 -10.8446 0.0137 -1.1870 0.0242
# 2 36.5089 161.3609 -1.9936 -0.1214 -21.0210 0.0877
# 3 -10.8446 -1.9936 44.1092 -0.3515 8.9184 0.5387
# 4 0.0137 -0.1214 -0.3515 -48.7467 -0.1706 45.9289
# 5 -1.1870 -21.0210 8.9184 -0.1706 22.7548 0.2923
# 6 0.0242 0.0877 0.5387 45.9289 0.2923 4.5828
#
#
#
# Elastic Compliance Matrix: (Units=1/GPa)
#
#
# Indices 1 2 3 4 5 6 
#
# 1 0.009344 -0.002453 0.002765 -0.000013 -0.002862 -0.000013
# 2 -0.002453 0.007737 -0.001817 -0.000041 0.007731 -0.000007
# 3 0.002765 -0.001817 0.025608 -0.000216 -0.011571 -0.000082
# 4 -0.000013 -0.000041 -0.000216 -0.001961 -0.000221 0.019689
# 5 -0.002862 0.007731 -0.011571 -0.000221 0.055474 -0.000096
# 6 -0.000013 -0.000007 -0.000082 0.019689 -0.000096 0.020896
#
#
# Mechanical properties :
#
#
# Convention : Reuss Voigt Hill
#
# Bulk Modulus (GPa) = 25.20176 41.36223 33.28199
# Shear Modulus (GPa) = 37.49969 15.80135 26.65052
#
# Velocity S-wave (km/s) = 4.06200 2.63678 3.42436
# Velocity P-wave (km/s) = 5.75227 5.24114 5.50264
#
# Compressibility (1/GPa) = 0.03967977
#
# Stress axis : x y z
#
# Youngs Moduli (GPa) = 107.01875 129.24917 39.05098
#
# Poissons Ratio (x) = 0.31704 -0.10799
# Poissons Ratio (y) = 0.26251 0.07095
# Poissons Ratio (z) = -0.29593 0.23482
#
# Static dielectric constant tensor:
#      x y z
#    x 1.792980 -0.000360 0.210250 
#    y -0.000360 1.812370 0.000520 
#    z 0.210250 0.000520 1.533490 
# 
# From -- ./inp_files/340907.got.cif
#   From: 2010.05.17/outbox.cif.g08.bks.cpg/sg12_171_cif.got.tgz:340907.got - 2010.06.03 13:09:07.
