data_PCOD9216167
_publ_section_title
;
Structure prediction by ZEFSAII (Michael W. Deem and Ramdas Pophale) SiO2 
 PCOD9216167
Probable space group: C 2/M
;
_chemical_formula_sum "Si O2"
_cell_formula_units_Z 28
_cell_length_a 23.033641
_cell_length_b 10.760443
_cell_length_c 5.780573
_cell_angle_alpha 90.000000
_cell_angle_beta 60.761961
_cell_angle_gamma 90.000000
_cell_volume 1250.195249
_symmetry_space_group_name_H-M "C 2/M"
_symmetry_group_IT_number 12
_symmetry_cell_setting 'monoclinic'
loop_
_space_group_symop_operation_xyz
x,y,z
-x,y,-z
-x,-y,-z
x,-y,z
1/2+x,1/2+y,z
1/2-x,1/2+y,-z
1/2-x,1/2-y,-z
1/2+x,1/2-y,z
loop_
_atom_site_type_symbol
_atom_site_label
_atom_site_fract_x
_atom_site_fract_y
_atom_site_fract_z
Si Si1 0.575587 0.761367 0.822263
Si Si2 0.667254 0.141957 0.022815
Si Si3 0.811857 0.861481 0.653341
Si Si4 0.963165 0.500000 0.326268
O O1 0.602484 0.828021 0.999726
O O2 0.631495 0.661912 0.646673
O O3 0.574011 0.868742 0.629185
O O4 0.500000 0.714856 0.000000
O O5 0.734237 0.144081 0.731618
O O6 0.664134 0.000000 0.119135
O O7 0.678552 0.252727 0.179570
O O8 0.821427 0.000000 0.734671
O O9 0.000000 0.500000 0.500000
O O10 0.000000 0.500000 0.000000
#
# Coordination Sequence:
#
# PCOD9216167 Si02
#       4
#     8   8   8   4
#     4  11  24  38  66  97 131 172 222 286 343 409
#     4  10  22  43  67  95 124 173 229 279 343 400
#     4  10  24  42  64  93 134 174 221 279 344 420
#     4  10  24  40  66 106 140 176 229 290 353 412
#
# _framework density 22.396502999999999
#
# number of rings (size 3 to 8) (size 9 to 14) (size 15 to 20)
#    0.000    1.714    1.429    0.857   10.000    1.714 
#    0.000    1.429    0.000    0.000    0.000    0.000 
#    0.000    0.000    0.000    0.000    0.000    0.000 
#
# Total GULP energy -78087.342315 kJ/mol
# GULP energy per Si atom -5577.667308 kJ/mol
# Density = 2.234553 g / cm^3
# Si number density = 22.396503 Si / 1000 Ang^3
#
#
#
# Elastic Constant Matrix: (Units=GPa)
#
#
# Indices 1 2 3 4 5 6 
#
# 1 115.3542 18.5979 29.7785 0.0000 -13.6409 0.0000
# 2 18.5979 117.7590 31.5604 0.0000 -7.2750 0.0000
# 3 29.7785 31.5604 71.1235 0.0000 -28.9444 0.0000
# 4 0.0000 0.0000 0.0000 35.3992 0.0000 -10.5340
# 5 -13.6409 -7.2750 -28.9444 0.0000 53.9470 0.0000
# 6 0.0000 0.0000 0.0000 -10.5340 0.0000 26.7402
#
#
#
# Elastic Compliance Matrix: (Units=1/GPa)
#
#
# Indices 1 2 3 4 5 6 
#
# 1 0.009753 -0.000529 -0.003677 0.000000 0.000422 0.000000
# 2 -0.000529 0.009736 -0.004630 0.000000 -0.001305 0.000000
# 3 -0.003677 -0.004630 0.021776 0.000000 0.010130 0.000000
# 4 0.000000 0.000000 0.000000 0.032001 0.000000 0.012606
# 5 0.000422 -0.001305 0.010130 0.000000 0.023902 0.000000
# 6 0.000000 0.000000 0.000000 0.012606 0.000000 0.042363
#
#
# Mechanical properties :
#
#
# Convention : Reuss Voigt Hill
#
# Bulk Modulus (GPa) = 42.38379 51.56781 46.97580
# Shear Modulus (GPa) = 30.29064 38.17060 34.23062
#
# Velocity S-wave (km/s) = 3.68159 4.13281 3.91371
# Velocity P-wave (km/s) = 6.08584 6.77114 6.43762
#
# Compressibility (1/GPa) = 0.02359393
#
# Stress axis : x y z
#
# Youngs Moduli (GPa) = 102.52860 102.71555 45.92121
#
# Poissons Ratio (x) = 0.05431 0.16887
# Poissons Ratio (y) = 0.05421 0.21260
# Poissons Ratio (z) = 0.37703 0.47554
#
# Static dielectric constant tensor:
#      x y z
#    x 1.821560 0.000000 -0.098060 
#    y 0.000000 1.845960 0.000000 
#    z -0.098060 0.000000 1.938080 
# 
# From -- ./inp_files/18925.got.cif
#   From: 2010.05.17/outbox.cif.g08.bks.cpg/sg12_10_cif.got.tgz:18925.got - 2010.06.03 13:09:07.
