data_PCOD9216306
_publ_section_title
;
Structure prediction by ZEFSAII (Michael W. Deem and Ramdas Pophale) SiO2 
 PCOD9216306
Probable space group: C 2/M
;
_chemical_formula_sum "Si O2"
_cell_formula_units_Z 56
_cell_length_a 11.289322
_cell_length_b 20.132942
_cell_length_c 12.026774
_cell_angle_alpha 90.000000
_cell_angle_beta 58.805907
_cell_angle_gamma 90.000000
_cell_volume 2338.312041
_symmetry_space_group_name_H-M "C 2/M"
_symmetry_group_IT_number 12
_symmetry_cell_setting 'monoclinic'
loop_
_space_group_symop_operation_xyz
x,y,z
-x,y,-z
-x,-y,-z
x,-y,z
1/2+x,1/2+y,z
1/2-x,1/2+y,-z
1/2-x,1/2-y,-z
1/2+x,1/2-y,z
loop_
_atom_site_type_symbol
_atom_site_label
_atom_site_fract_x
_atom_site_fract_y
_atom_site_fract_z
Si Si1 0.703071 0.703939 0.804545
Si Si2 0.298696 0.000000 0.500764
Si Si3 0.283430 0.107924 0.936818
Si Si4 0.388450 0.000000 0.714960
Si Si5 0.983029 0.726874 0.387901
Si Si6 0.870584 0.133607 0.390509
Si Si7 0.420737 0.836911 0.197056
Si Si8 0.675734 0.574666 0.223224
O O1 0.691804 0.664557 0.924550
O O2 0.858264 0.735656 0.728595
O O3 0.682568 0.656981 0.706051
O O4 0.599953 0.764284 0.842694
O O5 0.337808 0.000000 0.613249
O O6 0.444609 0.000000 0.365002
O O7 0.215607 0.930373 0.524253
O O8 0.429992 0.135614 0.908037
O O9 0.327906 0.061501 0.813099
O O10 0.208061 0.074656 0.075828
O O11 0.000000 0.695174 0.500000
O O12 0.893696 0.794673 0.440765
O O13 0.918084 0.677215 0.330751
O O14 0.026960 0.106946 0.310025
O O15 0.297129 0.884001 0.221353
O O16 0.675664 0.500000 0.266901
#
# Coordination Sequence:
#
# PCOD9216306 Si02
#       8
#     8   4   8   4   8   8   8   8
#     4  10  22  44  66 103 142 183 241 294 346 417
#     4  11  24  45  73 100 154 189 233 308 337 420
#     4  11  24  44  71 104 140 190 252 287 344 419
#     4  11  24  45  71 105 138 198 249 284 348 414
#     4  10  23  45  75  98 138 187 240 294 346 430
#     4  11  23  44  68 108 144 184 238 286 369 413
#     4  10  24  44  68 103 135 185 236 289 360 413
#     4  12  25  45  73  99 148 191 230 297 352 431
#
# _framework density 23.948898
#
# number of rings (size 3 to 8) (size 9 to 14) (size 15 to 20)
#    0.000    1.286    4.286    0.429    1.000    7.429 
#    5.143    1.786    0.000    0.429    0.000    0.000 
#    0.000    0.000    0.000    0.000    0.000    0.000 
#
# Total GULP energy -156817.617929 kJ/mol
# GULP energy per Si atom -5600.629212 kJ/mol
# Density = 2.389439 g / cm^3
# Si number density = 23.948898 Si / 1000 Ang^3
#
#
#
# Elastic Constant Matrix: (Units=GPa)
#
#
# Indices 1 2 3 4 5 6 
#
# 1 92.2323 33.2114 14.5795 0.0000 14.9513 0.0000
# 2 33.2114 107.9338 9.2437 0.0000 3.4150 0.0000
# 3 14.5795 9.2437 61.0107 0.0000 9.9521 0.0000
# 4 0.0000 0.0000 0.0000 -85.3019 0.0000 -133.3731
# 5 14.9513 3.4150 9.9521 0.0000 33.9136 0.0000
# 6 0.0000 0.0000 0.0000 -133.3731 0.0000 -115.5441
#
#
#
# Elastic Compliance Matrix: (Units=1/GPa)
#
#
# Indices 1 2 3 4 5 6 
#
# 1 0.013289 -0.003779 -0.001796 0.000000 -0.004951 0.000000
# 2 -0.003779 0.010471 -0.000823 0.000000 0.000853 0.000000
# 3 -0.001796 -0.000823 0.017646 0.000000 -0.004304 0.000000
# 4 0.000000 0.000000 0.000000 0.014566 0.000000 -0.016814
# 5 -0.004951 0.000853 -0.004304 0.000000 0.032847 0.000000
# 6 0.000000 0.000000 0.000000 -0.016814 0.000000 0.010754
#
#
# Mechanical properties :
#
#
# Convention : Reuss Voigt Hill
#
# Bulk Modulus (GPa) = 34.94906 41.69402 38.32154
# Shear Modulus (GPa) = 41.01553 -19.77700 10.61927
#
# Velocity S-wave (km/s) = 4.14288 -2.87679 2.10802
# Velocity P-wave (km/s) = 6.12450 2.53235 4.68627
#
# Compressibility (1/GPa) = 0.02861308
#
# Stress axis : x y z
#
# Youngs Moduli (GPa) = 75.24842 95.50078 56.66895
#
# Poissons Ratio (x) = 0.36087 0.10175
# Poissons Ratio (y) = 0.28434 0.04662
# Poissons Ratio (z) = 0.13511 0.07856
#
# Static dielectric constant tensor:
#      x y z
#    x 1.887760 0.000000 0.012260 
#    y 0.000000 1.938010 0.000000 
#    z 0.012260 0.000000 1.931430 
# 
# From -- ./inp_files/133896.got.cif
#   From: 2010.05.17/outbox.cif.g08.bks.cpg/sg12_67_cif.got.tgz:133896.got - 2010.06.03 13:09:07.
