data_PCOD9216539
_publ_section_title
;
Structure prediction by ZEFSAII (Michael W. Deem and Ramdas Pophale) SiO2 
 PCOD9216539
Probable space group: C 2/M
;
_chemical_formula_sum "Si O2"
_cell_formula_units_Z 64
_cell_length_a 15.304779
_cell_length_b 24.090641
_cell_length_c 13.415558
_cell_angle_alpha 90.000000
_cell_angle_beta 137.629949
_cell_angle_gamma 90.000000
_cell_volume 3333.420636
_symmetry_space_group_name_H-M "C 2/M"
_symmetry_group_IT_number 12
_symmetry_cell_setting 'monoclinic'
loop_
_space_group_symop_operation_xyz
x,y,z
-x,y,-z
-x,-y,-z
x,-y,z
1/2+x,1/2+y,z
1/2-x,1/2+y,-z
1/2-x,1/2-y,-z
1/2+x,1/2-y,z
loop_
_atom_site_type_symbol
_atom_site_label
_atom_site_fract_x
_atom_site_fract_y
_atom_site_fract_z
Si Si1 0.638468 0.363154 0.074717
Si Si2 0.224388 0.366229 0.425372
Si Si3 0.849961 0.783643 0.377309
Si Si4 0.471751 0.874933 0.091310
Si Si5 0.358021 0.847954 0.416855
Si Si6 0.211907 0.933347 0.942516
Si Si7 0.478812 0.565651 0.598820
Si Si8 0.677920 0.236854 0.042677
O O1 0.748460 0.370806 0.250800
O O2 0.674197 0.399341 0.009089
O O3 0.632153 0.297221 0.042380
O O4 0.500000 0.380151 0.000000
O O5 0.272607 0.313110 0.401479
O O6 0.177280 0.358003 0.498300
O O7 0.350083 0.404939 0.528844
O O8 0.100150 0.388283 0.261133
O O9 0.855652 0.718326 0.402007
O O10 0.773715 0.788941 0.207889
O O11 0.000000 0.802841 0.500000
O O12 0.351244 0.911305 0.025575
O O13 0.500000 0.884855 0.000000
O O14 0.431689 0.809629 0.068511
O O15 0.500000 0.867474 0.500000
O O16 0.212004 0.000000 0.957041
O O17 0.105463 0.918758 0.768673
O O18 0.500000 0.576767 0.500000
O O19 0.461771 0.500000 0.595717
O O20 0.750000 0.250000 0.000000
#
# Coordination Sequence:
#
# PCOD9216539 Si02
#       8
#     8   8   8   8   8   8   8   8
#     4  11  23  41  66  92 125 168 216 267 322 382
#     4  12  23  38  65  90 128 163 211 261 316 385
#     4  10  23  37  58  92 127 168 212 252 310 385
#     4  12  24  40  63  98 131 167 211 260 321 394
#     4  10  23  41  57  88 129 168 206 258 319 373
#     4  11  25  45  68  93 124 170 222 270 323 380
#     4  10  23  43  65  93 126 162 209 266 321 376
#     4  11  23  39  63  93 137 172 209 257 322 392
#
# _framework density 19.199497999999998
#
# number of rings (size 3 to 8) (size 9 to 14) (size 15 to 20)
#    0.000    1.125    2.500    3.375    7.000    2.000 
#    0.000    0.625    0.000    1.500    0.000    0.000 
#    0.000    0.000    0.000    0.000    0.000    0.000 
#
# Total GULP energy -178850.161042 kJ/mol
# GULP energy per Si atom -5589.067533 kJ/mol
# Density = 1.915580 g / cm^3
# Si number density = 19.199498 Si / 1000 Ang^3
#
#
#
# Elastic Constant Matrix: (Units=GPa)
#
#
# Indices 1 2 3 4 5 6 
#
# 1 158.3074 23.3612 59.4328 0.0000 3.6658 0.0000
# 2 23.3612 57.3161 26.2403 0.0000 5.7286 0.0000
# 3 59.4328 26.2403 116.1662 0.0000 8.7170 0.0000
# 4 0.0000 0.0000 0.0000 15.8247 0.0000 -0.2510
# 5 3.6658 5.7286 8.7170 0.0000 44.1817 0.0000
# 6 0.0000 0.0000 0.0000 -0.2510 0.0000 -10.6668
#
#
#
# Elastic Compliance Matrix: (Units=1/GPa)
#
#
# Indices 1 2 3 4 5 6 
#
# 1 0.007941 -0.001556 -0.003732 0.000000 0.000279 0.000000
# 2 -0.001556 0.019888 -0.003565 0.000000 -0.001746 0.000000
# 3 -0.003732 -0.003565 0.011435 0.000000 -0.001484 0.000000
# 4 0.000000 0.000000 0.000000 0.063169 0.000000 -0.001486
# 5 0.000279 -0.001746 -0.001484 0.000000 0.023130 0.000000
# 6 0.000000 0.000000 0.000000 -0.001486 0.000000 -0.093714
#
#
# Mechanical properties :
#
#
# Convention : Reuss Voigt Hill
#
# Bulk Modulus (GPa) = 46.38943 61.09539 53.74241
# Shear Modulus (GPa) = 88.11921 24.71829 56.41875
#
# Velocity S-wave (km/s) = 6.78205 3.59199 5.42672
# Velocity P-wave (km/s) = 9.24892 7.00668 8.20476
#
# Compressibility (1/GPa) = 0.02155664
#
# Stress axis : x y z
#
# Youngs Moduli (GPa) = 125.92579 50.28135 87.45359
#
# Poissons Ratio (x) = 0.07823 0.32641
# Poissons Ratio (y) = 0.19593 0.31181
# Poissons Ratio (z) = 0.47000 0.17927
#
# Static dielectric constant tensor:
#      x y z
#    x 1.646090 0.000000 0.002890 
#    y 0.000000 1.665000 0.000000 
#    z 0.002890 0.000000 1.677870 
# 
# From -- ./inp_files/149788.got.cif
#   From: 2010.05.17/outbox.cif.g08.bks.cpg/sg12_75_cif.got.tgz:149788.got - 2010.06.03 13:09:07.
