data_PCOD9216894
_publ_section_title
;
Structure prediction by ZEFSAII (Michael W. Deem and Ramdas Pophale) SiO2 
 PCOD9216894
Probable space group: C 2/M
;
_chemical_formula_sum "Si O2"
_cell_formula_units_Z 48
_cell_length_a 14.286876
_cell_length_b 13.813518
_cell_length_c 11.190703
_cell_angle_alpha 90.000000
_cell_angle_beta 61.859736
_cell_angle_gamma 90.000000
_cell_volume 1947.452596
_symmetry_space_group_name_H-M "C 2/M"
_symmetry_group_IT_number 12
_symmetry_cell_setting 'monoclinic'
loop_
_space_group_symop_operation_xyz
x,y,z
-x,y,-z
-x,-y,-z
x,-y,z
1/2+x,1/2+y,z
1/2-x,1/2+y,-z
1/2-x,1/2-y,-z
1/2+x,1/2-y,z
loop_
_atom_site_type_symbol
_atom_site_label
_atom_site_fract_x
_atom_site_fract_y
_atom_site_fract_z
Si Si1 0.901133 0.612676 0.353264
Si Si2 0.874810 0.760112 0.812356
Si Si3 0.918288 0.113567 0.362028
Si Si4 0.083999 0.608070 0.057008
Si Si5 0.695683 0.113333 0.351134
Si Si6 0.791841 0.113418 0.677436
O O1 0.869343 0.500000 0.387988
O O2 0.885821 0.647792 0.496075
O O3 0.814813 0.656862 0.315756
O O4 0.011993 0.609571 0.220989
O O5 0.860085 0.710534 0.950295
O O6 0.828107 0.682124 0.744924
O O7 0.812828 0.852194 0.797592
O O8 0.994854 0.805964 0.726570
O O9 0.812280 0.119523 0.342918
O O10 0.880761 0.129423 0.521979
O O11 0.955434 0.000000 0.331623
O O12 0.133330 0.500000 0.020148
O O13 0.000000 0.613856 0.000000
O O14 0.678226 0.000000 0.329798
O O15 0.778312 0.000000 0.693136
#
# Coordination Sequence:
#
# PCOD9216894 Si02
#       6
#     8   8   8   8   8   8
#     4   8  17  35  56  75 110 150 180 223 279 333
#     4  12  22  30  61  88 109 146 197 233 268 338
#     4   9  20  37  54  82 129 163 176 213 285 357
#     4  10  23  41  56  75 109 150 190 237 292 338
#     4   9  20  36  54  86 124 151 180 227 289 345
#     4   9  19  34  53  84 119 151 181 217 277 348
#
# _framework density 24.647584999999999
#
# number of rings (size 3 to 8) (size 9 to 14) (size 15 to 20)
#    0.000    2.500    0.000    3.500    7.000    2.667 
#    0.000    3.333    0.000    2.000    0.000    0.000 
#    0.000    0.000    0.000    0.000    0.000    0.000 
#
# Total GULP energy -133884.146699 kJ/mol
# GULP energy per Si atom -5578.506112 kJ/mol
# Density = 2.459149 g / cm^3
# Si number density = 24.647585 Si / 1000 Ang^3
#
#
#
# Elastic Constant Matrix: (Units=GPa)
#
#
# Indices 1 2 3 4 5 6 
#
# 1 84.0550 14.2520 25.2912 0.0000 7.3508 0.0000
# 2 14.2520 160.2132 28.0133 0.0000 -1.8622 0.0000
# 3 25.2912 28.0133 59.9814 0.0000 1.3857 0.0000
# 4 0.0000 0.0000 0.0000 35.8611 0.0000 15.1399
# 5 7.3508 -1.8622 1.3857 0.0000 21.6839 0.0000
# 6 0.0000 0.0000 0.0000 15.1399 0.0000 49.3804
#
#
#
# Elastic Compliance Matrix: (Units=1/GPa)
#
#
# Indices 1 2 3 4 5 6 
#
# 1 0.014044 -0.000308 -0.005675 0.000000 -0.004425 0.000000
# 2 -0.000308 0.006817 -0.003074 0.000000 0.000886 0.000000
# 3 -0.005675 -0.003074 0.020493 0.000000 0.000350 0.000000
# 4 0.000000 0.000000 0.000000 0.032031 0.000000 -0.009821
# 5 -0.004425 0.000886 0.000350 0.000000 0.047671 0.000000
# 6 0.000000 0.000000 0.000000 -0.009821 0.000000 0.023262
#
#
# Mechanical properties :
#
#
# Convention : Reuss Voigt Hill
#
# Bulk Modulus (GPa) = 43.03397 48.81807 45.92602
# Shear Modulus (GPa) = 29.38077 37.16461 33.27269
#
# Velocity S-wave (km/s) = 3.45633 3.88730 3.67814
# Velocity P-wave (km/s) = 5.78151 6.32437 6.05902
#
# Compressibility (1/GPa) = 0.02323745
#
# Stress axis : x y z
#
# Youngs Moduli (GPa) = 71.20557 146.69332 48.79830
#
# Poissons Ratio (x) = 0.04524 0.27695
# Poissons Ratio (y) = 0.02196 0.15002
# Poissons Ratio (z) = 0.40412 0.45096
#
# Static dielectric constant tensor:
#      x y z
#    x 2.118480 0.000000 -0.059450 
#    y 0.000000 2.141310 0.000000 
#    z -0.059450 0.000000 1.962650 
# 
# From -- ./inp_files/142865.got.cif
#   From: 2010.05.17/outbox.cif.g08.bks.cpg/sg12_72_cif.got.tgz:142865.got - 2010.06.03 13:09:07.
