data_PCOD9216881
_publ_section_title
;
Structure prediction by ZEFSAII (Michael W. Deem and Ramdas Pophale) SiO2 
 PCOD9216881
Probable space group: C 2/M
;
_chemical_formula_sum "Si O2"
_cell_formula_units_Z 40
_cell_length_a 9.579298
_cell_length_b 22.430748
_cell_length_c 13.910067
_cell_angle_alpha 90.000000
_cell_angle_beta 37.022123
_cell_angle_gamma 90.000000
_cell_volume 1799.666899
_symmetry_space_group_name_H-M "C 2/M"
_symmetry_group_IT_number 12
_symmetry_cell_setting 'monoclinic'
loop_
_space_group_symop_operation_xyz
x,y,z
-x,y,-z
-x,-y,-z
x,-y,z
1/2+x,1/2+y,z
1/2-x,1/2+y,-z
1/2-x,1/2-y,-z
1/2+x,1/2-y,z
loop_
_atom_site_type_symbol
_atom_site_label
_atom_site_fract_x
_atom_site_fract_y
_atom_site_fract_z
Si Si1 0.500000 0.318147 0.000000
Si Si2 0.564694 0.879241 0.170234
Si Si3 0.503480 0.671196 0.685975
Si Si4 0.774163 0.740952 0.292412
Si Si5 0.500000 0.120541 0.000000
Si Si6 0.140021 0.429729 0.521776
O O1 0.669582 0.360529 0.966298
O O2 0.636255 0.275765 0.852280
O O3 0.430474 0.815841 0.235876
O O4 0.495539 0.912114 0.306186
O O5 0.506710 0.910955 0.100579
O O6 0.463971 0.711723 0.613849
O O7 0.676399 0.708216 0.657545
O O8 0.625576 0.608451 0.601992
O O9 0.241517 0.658232 0.867496
O O10 0.184084 0.500000 0.496069
O O11 0.000000 0.415070 0.500000
#
# Coordination Sequence:
#
# PCOD9216881 Si02
#       6
#     4   8   8   8   4   8
#     4  12  19  38  65 107 150 182 222 289 352 440
#     4  11  23  41  70 105 142 185 233 286 362 417
#     4  11  23  43  69 109 147 186 229 284 360 430
#     4  11  21  35  67 107 150 176 219 281 361 431
#     4  10  23  40  71 109 147 184 225 283 358 432
#     4  11  28  54  73  94 138 198 254 299 340 412
#
# _framework density 22.226334000000001
#
# number of rings (size 3 to 8) (size 9 to 14) (size 15 to 20)
#    0.000    1.000    4.000    4.200    0.000    4.000 
#    3.600   10.500    0.000    0.000    0.000    0.000 
#    0.000    0.000    0.000    0.000    0.000    0.000 
#
# Total GULP energy -111666.720408 kJ/mol
# GULP energy per Si atom -5583.336020 kJ/mol
# Density = 2.217575 g / cm^3
# Si number density = 22.226334 Si / 1000 Ang^3
#
#
#
# Elastic Constant Matrix: (Units=GPa)
#
#
# Indices 1 2 3 4 5 6 
#
# 1 187.8383 67.2904 54.4070 0.0000 23.5707 0.0000
# 2 67.2904 81.3978 37.6184 0.0000 -4.3882 0.0000
# 3 54.4070 37.6184 75.1626 0.0000 3.0072 -0.0001
# 4 0.0000 0.0000 0.0000 -4.4304 0.0000 -15.8556
# 5 23.5707 -4.3882 3.0072 0.0000 49.1026 0.0001
# 6 0.0000 0.0000 -0.0001 -15.8556 0.0001 -6.9730
#
#
#
# Elastic Compliance Matrix: (Units=1/GPa)
#
#
# Indices 1 2 3 4 5 6 
#
# 1 0.009113 -0.006281 -0.003264 0.000000 -0.004736 0.000000
# 2 -0.006281 0.020494 -0.005919 0.000000 0.005209 0.000000
# 3 -0.003264 -0.005919 0.018634 0.000000 -0.000103 0.000000
# 4 0.000000 0.000000 0.000000 0.031622 0.000000 -0.071905
# 5 -0.004736 0.005209 -0.000103 0.000000 0.023111 0.000000
# 6 0.000000 0.000000 0.000000 -0.071905 0.000000 0.020092
#
#
# Mechanical properties :
#
#
# Convention : Reuss Voigt Hill
#
# Bulk Modulus (GPa) = 57.75821 73.67005 65.71413
# Shear Modulus (GPa) = 31.29597 19.87869 25.58733
#
# Velocity S-wave (km/s) = 3.75648 2.99386 3.39664
# Velocity P-wave (km/s) = 6.69759 6.72073 6.70917
#
# Compressibility (1/GPa) = 0.01731356
#
# Stress axis : x y z
#
# Youngs Moduli (GPa) = 109.72812 48.79471 53.66648
#
# Poissons Ratio (x) = 0.30647 0.17516
# Poissons Ratio (y) = 0.68919 0.31766
# Poissons Ratio (z) = 0.35813 0.28882
#
# Static dielectric constant tensor:
#      x y z
#    x 1.846760 0.000000 0.058400 
#    y 0.000000 1.751580 0.000000 
#    z 0.058400 0.000000 1.960770 
# 
# From -- ./inp_files/198203.got.cif
#   From: 2010.05.17/outbox.cif.g08.bks.cpg/sg12_100_cif.got.tgz:198203.got - 2010.06.03 13:09:07.
