data_PCOD9216987
_publ_section_title
;
Structure prediction by ZEFSAII (Michael W. Deem and Ramdas Pophale) SiO2 
 PCOD9216987
Probable space group: C 2/M
;
_chemical_formula_sum "Si O2"
_cell_formula_units_Z 56
_cell_length_a 11.541026
_cell_length_b 18.298947
_cell_length_c 15.555049
_cell_angle_alpha 90.000000
_cell_angle_beta 119.031637
_cell_angle_gamma 90.000000
_cell_volume 2872.289091
_symmetry_space_group_name_H-M "C 2/M"
_symmetry_group_IT_number 12
_symmetry_cell_setting 'monoclinic'
loop_
_space_group_symop_operation_xyz
x,y,z
-x,y,-z
-x,-y,-z
x,-y,z
1/2+x,1/2+y,z
1/2-x,1/2+y,-z
1/2-x,1/2-y,-z
1/2+x,1/2-y,z
loop_
_atom_site_type_symbol
_atom_site_label
_atom_site_fract_x
_atom_site_fract_y
_atom_site_fract_z
Si Si1 0.613059 0.833866 0.979503
Si Si2 0.684383 0.202545 0.736795
Si Si3 0.265841 0.583517 0.328908
Si Si4 0.975464 0.176391 0.900492
Si Si5 0.866558 0.151839 0.193382
Si Si6 0.660751 0.270960 0.551228
Si Si7 0.449631 0.085168 0.213550
O O1 0.562475 0.751700 0.938490
O O2 0.619650 0.878196 0.893974
O O3 0.500000 0.866818 0.000000
O O4 0.742854 0.838016 0.084134
O O5 0.823616 0.197925 0.835869
O O6 0.606034 0.270479 0.750810
O O7 0.713591 0.222706 0.649697
O O8 0.602041 0.129813 0.723283
O O9 0.290022 0.500000 0.364127
O O10 0.331223 0.599185 0.259293
O O11 0.315026 0.644486 0.413549
O O12 0.107661 0.594450 0.260922
O O13 0.016867 0.133264 0.830300
O O14 0.000000 0.137475 0.000000
O O15 0.500000 0.259297 0.500000
O O16 0.750000 0.250000 0.500000
O O17 0.419643 0.000000 0.207936
#
# Coordination Sequence:
#
# PCOD9216987 Si02
#       7
#     8   8   8   8   8   8   8
#     4  11  17  31  52  88 118 157 205 251 293 345
#     4  11  22  37  61  86 124 154 202 246 304 361
#     4  10  23  41  63  90 121 156 196 250 311 365
#     4  11  20  32  56  90 119 159 199 251 295 346
#     4  11  20  33  59  85 120 160 202 253 295 347
#     4  11  25  43  71 100 120 154 204 259 311 368
#     4  11  22  37  57  85 125 164 199 245 301 359
#
# _framework density 19.496645000000001
#
# number of rings (size 3 to 8) (size 9 to 14) (size 15 to 20)
#    0.000    1.143    5.714    3.000    4.000    1.143 
#    0.000    1.429    0.000    4.286    0.000    0.000 
#    0.000    0.000    0.000    0.000    0.000    0.000 
#
# Total GULP energy -156235.718922 kJ/mol
# GULP energy per Si atom -5579.847104 kJ/mol
# Density = 1.945227 g / cm^3
# Si number density = 19.496645 Si / 1000 Ang^3
#
#
#
# Elastic Constant Matrix: (Units=GPa)
#
#
# Indices 1 2 3 4 5 6 
#
# 1 77.1968 31.6455 36.7971 0.0000 -30.2081 0.0000
# 2 31.6455 77.9352 28.0383 0.0000 -15.7806 0.0000
# 3 36.7971 28.0383 78.4932 0.0000 -27.3322 0.0000
# 4 0.0000 0.0000 0.0000 15.0170 0.0000 -5.5411
# 5 -30.2081 -15.7806 -27.3322 0.0000 41.6756 0.0000
# 6 0.0000 0.0000 0.0000 -5.5411 0.0000 18.1748
#
#
#
# Elastic Compliance Matrix: (Units=1/GPa)
#
#
# Indices 1 2 3 4 5 6 
#
# 1 0.021251 -0.004851 -0.004543 0.000000 0.010587 0.000000
# 2 -0.004851 0.016079 -0.003335 0.000000 0.000385 0.000000
# 3 -0.004543 -0.003335 0.018759 0.000000 0.007747 0.000000
# 4 0.000000 0.000000 0.000000 0.075032 0.000000 0.022876
# 5 0.010587 0.000385 0.007747 0.000000 0.036895 0.000000
# 6 0.000000 0.000000 0.000000 0.022876 0.000000 0.061996
#
#
# Mechanical properties :
#
#
# Convention : Reuss Voigt Hill
#
# Bulk Modulus (GPa) = 32.64788 47.39853 40.02321
# Shear Modulus (GPa) = 18.81973 24.11644 21.46809
#
# Velocity S-wave (km/s) = 3.11027 3.52085 3.32191
# Velocity P-wave (km/s) = 5.44794 6.39472 5.94022
#
# Compressibility (1/GPa) = 0.03062986
#
# Stress axis : x y z
#
# Youngs Moduli (GPa) = 47.05714 62.19411 53.30904
#
# Poissons Ratio (x) = 0.30169 0.24218
# Poissons Ratio (y) = 0.22826 0.17781
# Poissons Ratio (z) = 0.21378 0.20745
#
# Static dielectric constant tensor:
#      x y z
#    x 1.758750 0.000000 -0.010720 
#    y 0.000000 1.672080 0.000000 
#    z -0.010720 0.000000 1.703790 
# 
# From -- ./inp_files/206252.got.cif
#   From: 2010.05.17/outbox.cif.g08.bks.cpg/sg12_104_cif.got.tgz:206252.got - 2010.06.03 13:09:07.
