data_PCOD9216698
_publ_section_title
;
Structure prediction by ZEFSAII (Michael W. Deem and Ramdas Pophale) SiO2 
 PCOD9216698
Probable space group: C 2/M
;
_chemical_formula_sum "Si O2"
_cell_formula_units_Z 48
_cell_length_a 17.641141
_cell_length_b 13.339473
_cell_length_c 11.059937
_cell_angle_alpha 90.000000
_cell_angle_beta 50.783331
_cell_angle_gamma 90.000000
_cell_volume 2016.440968
_symmetry_space_group_name_H-M "C 2/M"
_symmetry_group_IT_number 12
_symmetry_cell_setting 'monoclinic'
loop_
_space_group_symop_operation_xyz
x,y,z
-x,y,-z
-x,-y,-z
x,-y,z
1/2+x,1/2+y,z
1/2-x,1/2+y,-z
1/2-x,1/2-y,-z
1/2+x,1/2-y,z
loop_
_atom_site_type_symbol
_atom_site_label
_atom_site_fract_x
_atom_site_fract_y
_atom_site_fract_z
Si Si1 0.056940 0.000000 0.759344
Si Si2 0.721797 0.116625 0.829922
Si Si3 0.894677 0.389710 0.471852
Si Si4 0.786494 0.139159 0.489924
Si Si5 0.689175 0.824463 0.200902
Si Si6 0.151798 0.000000 0.930030
Si Si7 0.043610 0.383841 0.135176
O O1 0.105956 0.096764 0.645227
O O2 0.099695 0.000000 0.852127
O O3 0.939622 0.000000 0.884283
O O4 0.758129 0.116164 0.655856
O O5 0.778333 0.208221 0.838227
O O6 0.731851 0.000000 0.863498
O O7 0.605602 0.145783 0.954132
O O8 0.939345 0.500000 0.449734
O O9 0.786564 0.407968 0.532772
O O10 0.881374 0.332697 0.610466
O O11 0.952643 0.339648 0.301199
O O12 0.750000 0.250000 0.500000
O O13 0.780206 0.900992 0.125843
O O14 0.628740 0.866650 0.149202
O O15 0.017100 0.500000 0.141488
#
# Coordination Sequence:
#
# PCOD9216698 Si02
#       7
#     4   8   8   8   8   4   8
#     4  11  22  40  60  99 131 161 220 271 318 391
#     4  11  24  41  63  92 135 179 208 257 330 393
#     4  11  20  37  67  98 122 163 216 274 329 373
#     4  12  21  40  66  90 133 172 212 263 328 391
#     4  12  20  42  66  93 132 169 214 272 325 377
#     4  11  22  38  69  97 125 166 218 279 325 369
#     4  10  23  39  65  97 128 163 221 270 318 390
#
# _framework density 23.804317000000001
#
# number of rings (size 3 to 8) (size 9 to 14) (size 15 to 20)
#    0.000    0.833    6.667    1.000    0.000    3.333 
#    0.000    2.500    0.000    3.000    0.000    0.000 
#    0.000    0.000    0.000    0.000    0.000    0.000 
#
# Total GULP energy -133773.212004 kJ/mol
# GULP energy per Si atom -5573.883834 kJ/mol
# Density = 2.375014 g / cm^3
# Si number density = 23.804317 Si / 1000 Ang^3
#
#
#
# Elastic Constant Matrix: (Units=GPa)
#
#
# Indices 1 2 3 4 5 6 
#
# 1 35.3314 3.6995 -1.9843 0.0000 -12.4776 0.0000
# 2 3.6995 163.4742 25.3976 0.0000 -11.0829 0.0000
# 3 -1.9843 25.3976 191.3807 0.0000 -26.4212 0.0000
# 4 0.0000 0.0000 0.0000 26.1554 0.0000 6.5387
# 5 -12.4776 -11.0829 -26.4212 0.0000 38.3305 0.0000
# 6 0.0000 0.0000 0.0000 6.5387 0.0000 22.3280
#
#
#
# Elastic Compliance Matrix: (Units=1/GPa)
#
#
# Indices 1 2 3 4 5 6 
#
# 1 0.032665 -0.000243 0.002022 0.000000 0.011957 0.000000
# 2 -0.000243 0.006313 -0.000662 0.000000 0.001290 0.000000
# 3 0.002022 -0.000662 0.005966 0.000000 0.004579 0.000000
# 4 0.000000 0.000000 0.000000 0.041253 0.000000 -0.012081
# 5 0.011957 0.001290 0.004579 0.000000 0.033510 0.000000
# 6 0.000000 0.000000 0.000000 -0.012081 0.000000 0.048325
#
#
# Mechanical properties :
#
#
# Convention : Reuss Voigt Hill
#
# Bulk Modulus (GPa) = 21.19662 49.37913 35.28787
# Shear Modulus (GPa) = 27.54447 41.56768 34.55608
#
# Velocity S-wave (km/s) = 3.40534 4.18332 3.81422
# Velocity P-wave (km/s) = 4.93818 6.64246 5.85269
#
# Compressibility (1/GPa) = 0.04717734
#
# Stress axis : x y z
#
# Youngs Moduli (GPa) = 30.61391 158.40337 167.61090
#
# Poissons Ratio (x) = 0.03844 -0.33883
# Poissons Ratio (y) = 0.00743 0.11100
# Poissons Ratio (z) = -0.06189 0.10490
#
# Static dielectric constant tensor:
#      x y z
#    x 1.912400 0.000000 0.006090 
#    y 0.000000 2.005540 0.000000 
#    z 0.006090 0.000000 2.016020 
# 
# From -- ./inp_files/167562.got.cif
#   From: 2010.05.17/outbox.cif.g08.bks.cpg/sg12_84_cif.got.tgz:167562.got - 2010.06.03 13:09:07.
