data_PCOD9216749
_publ_section_title
;
Structure prediction by ZEFSAII (Michael W. Deem and Ramdas Pophale) SiO2 
 PCOD9216749
Probable space group: C 2/M
;
_chemical_formula_sum "Si O2"
_cell_formula_units_Z 40
_cell_length_a 20.510841
_cell_length_b 17.987032
_cell_length_c 9.253987
_cell_angle_alpha 90.000000
_cell_angle_beta 141.954810
_cell_angle_gamma 90.000000
_cell_volume 2104.029898
_symmetry_space_group_name_H-M "C 2/M"
_symmetry_group_IT_number 12
_symmetry_cell_setting 'monoclinic'
loop_
_space_group_symop_operation_xyz
x,y,z
-x,y,-z
-x,-y,-z
x,-y,z
1/2+x,1/2+y,z
1/2-x,1/2+y,-z
1/2-x,1/2-y,-z
1/2+x,1/2-y,z
loop_
_atom_site_type_symbol
_atom_site_label
_atom_site_fract_x
_atom_site_fract_y
_atom_site_fract_z
Si Si1 0.750720 0.500000 0.106422
Si Si2 0.812893 0.130506 0.546493
Si Si3 0.603057 0.788633 0.270337
Si Si4 0.573503 0.119134 0.492511
Si Si5 0.881420 0.000000 0.858942
Si Si6 0.711706 0.500000 0.701862
Si Si7 0.540849 0.000000 0.908283
O O1 0.827601 0.570106 0.277780
O O2 0.645084 0.500000 0.019134
O O3 0.716267 0.500000 0.880975
O O4 0.699274 0.170900 0.354507
O O5 0.889530 0.199576 0.707129
O O6 0.823083 0.072258 0.694321
O O7 0.833710 0.076362 0.446228
O O8 0.607742 0.815892 0.444415
O O9 0.500000 0.809320 0.000000
O O10 0.500000 0.140439 0.500000
O O11 0.503097 0.068211 0.262502
O O12 0.000000 0.000000 0.000000
O O13 0.833681 0.500000 0.864387
O O14 0.500000 0.000000 0.000000
#
# Coordination Sequence:
#
# PCOD9216749 Si02
#       7
#     4   8   8   8   4   4   4
#     4  11  21  37  60  95 126 157 203 248 307 371
#     4  10  23  40  60  91 120 161 216 253 289 372
#     4  11  22  39  62  89 126 160 204 256 311 355
#     4  11  20  35  57  97 132 152 190 252 315 382
#     4  11  22  43  67  87 120 168 211 256 298 350
#     4  11  20  38  59  85 125 158 203 247 300 353
#     4  11  19  29  59  93 121 159 195 241 309 360
#
# _framework density 19.011137000000002
#
# number of rings (size 3 to 8) (size 9 to 14) (size 15 to 20)
#    0.000    1.200    4.000    4.200    2.800    0.000 
#    0.000    7.500    0.000    0.000    0.000    0.000 
#    0.000    0.000    0.000    0.000    0.000    0.000 
#
# Total GULP energy -111568.077579 kJ/mol
# GULP energy per Si atom -5578.403879 kJ/mol
# Density = 1.896787 g / cm^3
# Si number density = 19.011137 Si / 1000 Ang^3
#
#
#
# Elastic Constant Matrix: (Units=GPa)
#
#
# Indices 1 2 3 4 5 6 
#
# 1 93.3420 6.4243 24.4033 0.0000 -27.0304 0.0000
# 2 6.4243 112.2659 13.7729 0.0000 -17.6930 0.0000
# 3 24.4033 13.7729 67.2695 0.0000 -17.0930 0.0000
# 4 0.0000 0.0000 0.0000 -5.2931 0.0000 9.9064
# 5 -27.0304 -17.6930 -17.0930 0.0000 40.9081 0.0000
# 6 0.0000 0.0000 0.0000 9.9064 0.0000 0.8017
#
#
#
# Elastic Compliance Matrix: (Units=1/GPa)
#
#
# Indices 1 2 3 4 5 6 
#
# 1 0.013851 0.000887 -0.003114 0.000000 0.008235 0.000000
# 2 0.000887 0.009678 -0.001220 0.000000 0.004262 0.000000
# 3 -0.003114 -0.001220 0.017440 0.000000 0.004702 0.000000
# 4 0.000000 0.000000 0.000000 -0.007831 0.000000 0.096761
# 5 0.008235 0.004262 0.004702 0.000000 0.033694 0.000000
# 6 0.000000 0.000000 0.000000 0.096761 0.000000 0.051700
#
#
# Mechanical properties :
#
#
# Convention : Reuss Voigt Hill
#
# Bulk Modulus (GPa) = 29.34730 40.23091 34.78911
# Shear Modulus (GPa) = 36.55383 22.50183 29.52783
#
# Velocity S-wave (km/s) = 4.38968 3.44410 3.94532
# Velocity P-wave (km/s) = 6.41583 6.08469 6.25245
#
# Compressibility (1/GPa) = 0.03407469
#
# Stress axis : x y z
#
# Youngs Moduli (GPa) = 72.19700 103.32623 57.34033
#
# Poissons Ratio (x) = -0.09167 0.17855
# Poissons Ratio (y) = -0.06405 0.06998
# Poissons Ratio (z) = 0.22482 0.12609
#
# Static dielectric constant tensor:
#      x y z
#    x 1.676650 0.000000 0.024210 
#    y 0.000000 1.709870 0.000000 
#    z 0.024210 0.000000 1.642720 
# 
# From -- ./inp_files/87685.got.cif
#   From: 2010.05.17/outbox.cif.g08.bks.cpg/sg12_44_cif.got.tgz:87685.got - 2010.06.03 13:09:07.
