data_PCOD9216607
_publ_section_title
;
Structure prediction by ZEFSAII (Michael W. Deem and Ramdas Pophale) SiO2 
 PCOD9216607
Probable space group: C 2/M
;
_chemical_formula_sum "Si O2"
_cell_formula_units_Z 44
_cell_length_a 14.206454
_cell_length_b 29.494258
_cell_length_c 4.863712
_cell_angle_alpha 90.000000
_cell_angle_beta 93.154185
_cell_angle_gamma 90.000000
_cell_volume 2034.850913
_symmetry_space_group_name_H-M "C 2/M"
_symmetry_group_IT_number 12
_symmetry_cell_setting 'monoclinic'
loop_
_space_group_symop_operation_xyz
x,y,z
-x,y,-z
-x,-y,-z
x,-y,z
1/2+x,1/2+y,z
1/2-x,1/2+y,-z
1/2-x,1/2-y,-z
1/2+x,1/2-y,z
loop_
_atom_site_type_symbol
_atom_site_label
_atom_site_fract_x
_atom_site_fract_y
_atom_site_fract_z
Si Si1 0.000000 0.097632 0.000000
Si Si2 0.161438 0.730665 0.656031
Si Si3 0.396620 0.173832 0.857436
Si Si4 0.252838 0.892273 0.585939
Si Si5 0.813326 0.053457 0.906588
Si Si6 0.403777 0.325455 0.323091
O O1 0.077909 0.066289 0.159593
O O2 0.931481 0.133700 0.131210
O O3 0.250000 0.750000 0.500000
O O4 0.101015 0.708465 0.399734
O O5 0.121436 0.776264 0.792230
O O6 0.167411 0.694675 0.905001
O O7 0.346962 0.129196 0.727499
O O8 0.500000 0.167284 0.000000
O O9 0.255977 0.918551 0.301677
O O10 0.183969 0.848368 0.532985
O O11 0.208557 0.928494 0.791433
O O12 0.801032 0.000000 0.885308
O O13 0.500000 0.318155 0.500000
#
# Coordination Sequence:
#
# PCOD9216607 Si02
#       6
#     4   8   8   8   8   8
#     4  10  23  38  62  98 136 182 208 268 321 414
#     4  12  26  41  65  94 136 181 227 283 315 387
#     4  12  26  46  65  96 131 181 231 275 336 378
#     4  11  24  41  66  91 130 172 214 269 334 397
#     4  11  23  42  67  98 130 168 214 271 342 411
#     4  11  22  37  60  90 134 174 221 255 323 378
#
# _framework density 21.623207000000001
#
# number of rings (size 3 to 8) (size 9 to 14) (size 15 to 20)
#    0.000    0.727    3.636    4.091    3.818    0.000 
#    0.000    2.727    0.000    3.273    0.000    0.000 
#    0.000    0.000    0.000    0.000    0.000    0.000 
#
# Total GULP energy -122750.320087 kJ/mol
# GULP energy per Si atom -5579.560004 kJ/mol
# Density = 2.157399 g / cm^3
# Si number density = 21.623207 Si / 1000 Ang^3
#
#
#
# Elastic Constant Matrix: (Units=GPa)
#
#
# Indices 1 2 3 4 5 6 
#
# 1 80.9201 16.6746 2.9936 0.0000 19.0290 0.0000
# 2 16.6746 141.4648 30.5152 0.0000 14.4579 0.0000
# 3 2.9936 30.5152 93.7843 0.0000 9.1791 0.0000
# 4 0.0000 0.0000 0.0000 34.9394 0.0000 1.7144
# 5 19.0290 14.4579 9.1791 0.0000 38.0521 0.0000
# 6 0.0000 0.0000 0.0000 1.7144 0.0000 32.9161
#
#
#
# Elastic Compliance Matrix: (Units=1/GPa)
#
#
# Indices 1 2 3 4 5 6 
#
# 1 0.014163 -0.001097 0.000571 0.000000 -0.006803 0.000000
# 2 -0.001097 0.007898 -0.002350 0.000000 -0.001885 0.000000
# 3 0.000571 -0.002350 0.011624 0.000000 -0.002197 0.000000
# 4 0.000000 0.000000 0.000000 0.028694 0.000000 -0.001495
# 5 -0.006803 -0.001885 -0.002197 0.000000 0.030928 0.000000
# 6 0.000000 0.000000 0.000000 -0.001495 0.000000 0.030458
#
#
# Mechanical properties :
#
#
# Convention : Reuss Voigt Hill
#
# Bulk Modulus (GPa) = 35.80192 46.28180 41.04186
# Shear Modulus (GPa) = 36.01554 38.91391 37.46472
#
# Velocity S-wave (km/s) = 4.08560 4.24681 4.16699
# Velocity P-wave (km/s) = 6.23292 6.74518 6.49410
#
# Compressibility (1/GPa) = 0.02793146
#
# Stress axis : x y z
#
# Youngs Moduli (GPa) = 70.60818 126.61659 86.02713
#
# Poissons Ratio (x) = 0.13892 -0.04910
# Poissons Ratio (y) = 0.07747 0.20218
# Poissons Ratio (z) = -0.04030 0.29758
#
# Static dielectric constant tensor:
#      x y z
#    x 1.905160 0.000000 -0.032700 
#    y 0.000000 2.065830 0.000000 
#    z -0.032700 0.000000 1.813780 
# 
# From -- ./inp_files/12167.got.cif
#   From: 2010.05.17/outbox.cif.g08.bks.cpg/sg12_7_cif.got.tgz:12167.got - 2010.06.03 13:09:07.
