data_PCOD9216008
_publ_section_title
;
Structure prediction by ZEFSAII (Michael W. Deem and Ramdas Pophale) SiO2 
 PCOD9216008
Probable space group: C 2/M
;
_chemical_formula_sum "Si O2"
_cell_formula_units_Z 42
_cell_length_a 18.811254
_cell_length_b 7.705288
_cell_length_c 14.502110
_cell_angle_alpha 90.000000
_cell_angle_beta 119.320550
_cell_angle_gamma 90.000000
_cell_volume 1832.742091
_symmetry_space_group_name_H-M "C 2/M"
_symmetry_group_IT_number 12
_symmetry_cell_setting 'monoclinic'
loop_
_space_group_symop_operation_xyz
x,y,z
-x,y,-z
-x,-y,-z
x,-y,z
1/2+x,1/2+y,z
1/2-x,1/2+y,-z
1/2-x,1/2-y,-z
1/2+x,1/2-y,z
loop_
_atom_site_type_symbol
_atom_site_label
_atom_site_fract_x
_atom_site_fract_y
_atom_site_fract_z
Si Si1 0.000000 0.500000 0.000000
Si Si2 0.684787 0.294912 0.035976
Si Si3 0.250358 0.203889 0.721558
Si Si4 0.378329 0.790036 0.650670
Si Si5 0.910840 0.294760 0.469167
Si Si6 0.496682 0.295671 0.128070
O O1 0.959581 0.655384 0.909400
O O2 0.676719 0.500000 0.038185
O O3 0.714696 0.232861 0.154325
O O4 0.750000 0.250000 0.000000
O O5 0.596636 0.233294 0.943395
O O6 0.309752 0.276839 0.678761
O O7 0.158824 0.273153 0.651356
O O8 0.244960 0.000000 0.702993
O O9 0.374624 0.726542 0.543277
O O10 0.464977 0.732066 0.747839
O O11 0.374262 0.000000 0.648831
O O12 0.922506 0.500000 0.491169
O O13 0.000000 0.222314 0.500000
O O14 0.505520 0.500000 0.109346
#
# Coordination Sequence:
#
# PCOD9216008 Si02
#       6
#     2   8   8   8   8   8
#     4  12  22  40  68  94 142 176 220 286 328 404
#     4  11  26  44  67  98 138 180 229 281 340 416
#     4  11  24  41  66  98 132 177 226 280 339 400
#     4  10  22  42  69  98 136 182 224 278 344 404
#     4  10  23  43  68  97 131 175 226 278 343 408
#     4  11  25  41  67 104 137 181 231 276 343 411
#
# _framework density 22.916481000000001
#
# number of rings (size 3 to 8) (size 9 to 14) (size 15 to 20)
#    0.000    1.333    0.952    3.143    8.000    4.190 
#    0.000    0.000    0.000    0.000    0.000    0.000 
#    0.000    0.000    0.000    0.000    0.000    0.000 
#
# Total GULP energy -117107.583478 kJ/mol
# GULP energy per Si atom -5576.551594 kJ/mol
# Density = 2.286432 g / cm^3
# Si number density = 22.916481 Si / 1000 Ang^3
#
#
#
# Elastic Constant Matrix: (Units=GPa)
#
#
# Indices 1 2 3 4 5 6 
#
# 1 142.5931 0.2043 52.6869 0.0000 16.1248 0.0000
# 2 0.2043 67.5518 -4.6290 0.0000 -7.2309 0.0000
# 3 52.6869 -4.6290 111.4100 0.0000 16.4141 0.0000
# 4 0.0000 0.0000 0.0000 29.1243 0.0000 1.0723
# 5 16.1248 -7.2309 16.4141 0.0000 35.2607 0.0000
# 6 0.0000 0.0000 0.0000 1.0723 0.0000 -5.6317
#
#
#
# Elastic Compliance Matrix: (Units=1/GPa)
#
#
# Indices 1 2 3 4 5 6 
#
# 1 0.008673 -0.000533 -0.003783 0.000000 -0.002315 0.000000
# 2 -0.000533 0.015172 0.000417 0.000000 0.003161 0.000000
# 3 -0.003783 0.000417 0.011289 0.000000 -0.003440 0.000000
# 4 0.000000 0.000000 0.000000 0.034097 0.000000 0.006492
# 5 -0.002315 0.003161 -0.003440 0.000000 0.031668 0.000000
# 6 0.000000 0.000000 0.000000 0.006492 0.000000 -0.176330
#
#
# Mechanical properties :
#
#
# Convention : Reuss Voigt Hill
#
# Bulk Modulus (GPa) = 36.58217 46.45326 41.51771
# Shear Modulus (GPa) = -85.43987 29.97016 -27.73485
#
# Velocity S-wave (km/s) = -6.11262 3.62027 -3.48265
# Velocity P-wave (km/s) = 5.81557 6.14735 1.40872
#
# Compressibility (1/GPa) = 0.02733572
#
# Stress axis : x y z
#
# Youngs Moduli (GPa) = 115.29805 65.91083 88.58300
#
# Poissons Ratio (x) = 0.03514 0.33509
# Poissons Ratio (y) = 0.06148 -0.03692
# Poissons Ratio (z) = 0.43614 -0.02747
#
# Static dielectric constant tensor:
#      x y z
#    x 1.979180 0.000000 0.017960 
#    y 0.000000 1.690650 0.000000 
#    z 0.017960 0.000000 1.900740 
# 
# From -- ./inp_files/221817.got.cif
#   From: 2010.05.17/outbox.cif.g08.bks.cpg/sg12_111_cif.got.tgz:221817.got - 2010.06.03 13:09:07.
