data_PCOD9216203
_publ_section_title
;
Structure prediction by ZEFSAII (Michael W. Deem and Ramdas Pophale) SiO2 
 PCOD9216203
Probable space group: C 2/M
;
_chemical_formula_sum "Si O2"
_cell_formula_units_Z 48
_cell_length_a 11.994248
_cell_length_b 22.910775
_cell_length_c 9.023501
_cell_angle_alpha 90.000000
_cell_angle_beta 112.955225
_cell_angle_gamma 90.000000
_cell_volume 2283.273118
_symmetry_space_group_name_H-M "C 2/M"
_symmetry_group_IT_number 12
_symmetry_cell_setting 'monoclinic'
loop_
_space_group_symop_operation_xyz
x,y,z
-x,y,-z
-x,-y,-z
x,-y,z
1/2+x,1/2+y,z
1/2-x,1/2+y,-z
1/2-x,1/2-y,-z
1/2+x,1/2-y,z
loop_
_atom_site_type_symbol
_atom_site_label
_atom_site_fract_x
_atom_site_fract_y
_atom_site_fract_z
Si Si1 0.042321 0.300901 0.362587
Si Si2 0.865112 0.820546 0.666074
Si Si3 0.399408 0.500000 0.084412
Si Si4 0.253904 0.115200 0.645755
Si Si5 0.850994 0.500000 0.875812
Si Si6 0.781341 0.696641 0.122884
Si Si7 0.392316 0.627699 0.151813
O O1 0.097769 0.236259 0.408748
O O2 0.137578 0.341795 0.333062
O O3 0.000000 0.323657 0.500000
O O4 0.924262 0.303470 0.200838
O O5 0.821280 0.876648 0.547741
O O6 0.767533 0.799900 0.735371
O O7 0.987525 0.836607 0.815589
O O8 0.246657 0.500000 0.033427
O O9 0.428280 0.560541 0.175959
O O10 0.500000 0.500000 0.000000
O O11 0.309954 0.056264 0.751280
O O12 0.164058 0.142621 0.719712
O O13 0.000000 0.500000 0.000000
O O14 0.750000 0.750000 0.000000
O O15 0.712769 0.640606 0.020187
#
# Coordination Sequence:
#
# PCOD9216203 Si02
#       7
#     8   8   4   8   4   8   8
#     4  12  25  42  67  99 140 183 229 286 359 430
#     4  12  24  43  68  99 143 177 233 287 357 434
#     4  10  22  43  69 100 137 178 230 296 358 409
#     4  11  25  45  70  96 136 186 227 290 358 427
#     4  10  26  49  74 108 142 192 251 303 363 433
#     4  12  25  41  64 101 138 183 235 290 351 419
#     4  11  24  42  68 101 135 180 233 293 351 419
#
# _framework density 21.022452000000001
#
# number of rings (size 3 to 8) (size 9 to 14) (size 15 to 20)
#    0.000    0.667    3.333    4.500    4.667    2.000 
#    0.000    3.750    0.000    0.000    0.000    0.000 
#    0.000    0.000    0.000    0.000    0.000    0.000 
#
# Total GULP energy -133635.780156 kJ/mol
# GULP energy per Si atom -5568.157506 kJ/mol
# Density = 2.097460 g / cm^3
# Si number density = 21.022452 Si / 1000 Ang^3
#
#
#
# Elastic Constant Matrix: (Units=GPa)
#
#
# Indices 1 2 3 4 5 6 
#
# 1 121.5992 37.7080 30.9620 0.0000 -2.6750 0.0000
# 2 37.7080 93.4033 26.7372 0.0000 6.0757 0.0000
# 3 30.9620 26.7372 90.0011 0.0000 9.0776 0.0000
# 4 0.0000 0.0000 0.0000 20.0837 0.0000 6.4960
# 5 -2.6750 6.0757 9.0776 0.0000 48.4402 0.0000
# 6 0.0000 0.0000 0.0000 6.4960 0.0000 23.5104
#
#
#
# Elastic Compliance Matrix: (Units=1/GPa)
#
#
# Indices 1 2 3 4 5 6 
#
# 1 0.009958 -0.003379 -0.002568 0.000000 0.001455 0.000000
# 2 -0.003379 0.012881 -0.002530 0.000000 -0.001328 0.000000
# 3 -0.002568 -0.002530 0.012974 0.000000 -0.002256 0.000000
# 4 0.000000 0.000000 0.000000 0.054678 0.000000 -0.015108
# 5 0.001455 -0.001328 -0.002256 0.000000 0.021314 0.000000
# 6 0.000000 0.000000 0.000000 -0.015108 0.000000 0.046709
#
#
# Mechanical properties :
#
#
# Convention : Reuss Voigt Hill
#
# Bulk Modulus (GPa) = 53.03193 55.09090 54.06141
# Shear Modulus (GPa) = 27.50957 32.37995 29.94476
#
# Velocity S-wave (km/s) = 3.62136 3.92887 3.77824
# Velocity P-wave (km/s) = 6.53963 6.84426 6.69368
#
# Compressibility (1/GPa) = 0.01885657
#
# Stress axis : x y z
#
# Youngs Moduli (GPa) = 100.42477 77.63219 77.07881
#
# Poissons Ratio (x) = 0.26235 0.19797
# Poissons Ratio (y) = 0.33938 0.19502
# Poissons Ratio (z) = 0.25793 0.19642
#
# Static dielectric constant tensor:
#      x y z
#    x 1.778880 0.000000 0.056020 
#    y 0.000000 1.775720 0.000000 
#    z 0.056020 0.000000 1.845800 
# 
# From -- ./inp_files/51487.got.cif
#   From: 2010.05.17/outbox.cif.g08.bks.cpg/sg12_26_cif.got.tgz:51487.got - 2010.06.03 13:09:07.
