data_PCOD9216054
_publ_section_title
;
Structure prediction by ZEFSAII (Michael W. Deem and Ramdas Pophale) SiO2 
 PCOD9216054
Probable space group: C 2/M
;
_chemical_formula_sum "Si O2"
_cell_formula_units_Z 36
_cell_length_a 21.638414
_cell_length_b 13.405798
_cell_length_c 9.420359
_cell_angle_alpha 90.000000
_cell_angle_beta 139.770088
_cell_angle_gamma 90.000000
_cell_volume 1764.905611
_symmetry_space_group_name_H-M "C 2/M"
_symmetry_group_IT_number 12
_symmetry_cell_setting 'monoclinic'
loop_
_space_group_symop_operation_xyz
x,y,z
-x,y,-z
-x,-y,-z
x,-y,z
1/2+x,1/2+y,z
1/2-x,1/2+y,-z
1/2-x,1/2-y,-z
1/2+x,1/2-y,z
loop_
_atom_site_type_symbol
_atom_site_label
_atom_site_fract_x
_atom_site_fract_y
_atom_site_fract_z
Si Si1 0.776562 0.500000 0.402335
Si Si2 0.030430 0.173141 0.400226
Si Si3 0.698509 0.189341 0.733565
Si Si4 0.548733 0.500000 0.935104
Si Si5 0.128362 0.321945 0.924353
Si Si6 0.605914 0.000000 0.108713
O O1 0.817855 0.599957 0.402986
O O2 0.811812 0.500000 0.626329
O O3 0.663223 0.500000 0.163253
O O4 0.139397 0.209389 0.596395
O O5 0.000000 0.132041 0.500000
O O6 0.993291 0.095592 0.221244
O O7 0.975842 0.277822 0.286139
O O8 0.807033 0.227486 0.917276
O O9 0.672252 0.151339 0.846419
O O10 0.500000 0.500000 0.000000
O O11 0.120933 0.405562 0.030657
O O12 0.500000 0.000000 0.000000
#
# Coordination Sequence:
#
# PCOD9216054 Si02
#       6
#     4   8   8   4   8   4
#     4  12  25  44  65 101 132 176 213 268 335 393
#     4  10  22  43  69  95 124 169 220 271 325 382
#     4  10  22  42  72  94 126 167 226 278 322 379
#     4  12  27  42  60  97 139 172 211 264 332 403
#     4  10  22  43  66  97 126 171 223 275 321 383
#     4  12  27  42  64  98 140 178 217 264 337 406
#
# _framework density 20.397691999999999
#
# number of rings (size 3 to 8) (size 9 to 14) (size 15 to 20)
#    0.000    1.333    2.222    2.333    3.111    3.556 
#    0.000    4.444    0.000    0.000    0.000    0.000 
#    0.000    0.000    0.000    0.000    0.000    0.000 
#
# Total GULP energy -100433.971304 kJ/mol
# GULP energy per Si atom -5579.665072 kJ/mol
# Density = 2.035127 g / cm^3
# Si number density = 20.397692 Si / 1000 Ang^3
#
#
#
# Elastic Constant Matrix: (Units=GPa)
#
#
# Indices 1 2 3 4 5 6 
#
# 1 99.4684 60.0290 44.2296 0.0000 -25.2593 0.0000
# 2 60.0290 82.4345 35.4699 0.0000 -33.8133 0.0000
# 3 44.2296 35.4699 107.1966 0.0000 -26.6564 0.0000
# 4 0.0000 0.0000 0.0000 69.4974 0.0000 -27.8683
# 5 -25.2593 -33.8133 -26.6564 0.0000 46.1267 0.0000
# 6 0.0000 0.0000 0.0000 -27.8683 0.0000 19.5121
#
#
#
# Elastic Compliance Matrix: (Units=1/GPa)
#
#
# Indices 1 2 3 4 5 6 
#
# 1 0.019242 -0.012752 -0.003999 0.000000 -0.001121 0.000000
# 2 -0.012752 0.026671 -0.000512 0.000000 0.012272 0.000000
# 3 -0.003999 -0.000512 0.012274 0.000000 0.004528 0.000000
# 4 0.000000 0.000000 0.000000 0.033677 0.000000 0.048099
# 5 -0.001121 0.012272 0.004528 0.000000 0.032678 0.000000
# 6 0.000000 0.000000 0.000000 0.048099 0.000000 0.119948
#
#
# Mechanical properties :
#
#
# Convention : Reuss Voigt Hill
#
# Bulk Modulus (GPa) = 42.26145 63.17293 52.71719
# Shear Modulus (GPa) = 17.42752 36.98530 27.20641
#
# Velocity S-wave (km/s) = 2.92616 4.26280 3.65608
# Velocity P-wave (km/s) = 5.67277 7.43414 6.61237
#
# Compressibility (1/GPa) = 0.02366223
#
# Stress axis : x y z
#
# Youngs Moduli (GPa) = 51.96833 37.49415 81.47314
#
# Poissons Ratio (x) = 0.47811 0.32581
# Poissons Ratio (y) = 0.66268 0.04170
# Poissons Ratio (z) = 0.20782 0.01919
#
# Static dielectric constant tensor:
#      x y z
#    x 1.711720 0.000000 -0.002280 
#    y 0.000000 1.712810 0.000000 
#    z -0.002280 0.000000 1.750400 
# 
# From -- ./inp_files/86453.got.cif
#   From: 2010.05.17/outbox.cif.g08.bks.cpg/sg12_44_cif.got.tgz:86453.got - 2010.06.03 13:09:07.
