data_PCOD9216315
_publ_section_title
;
Structure prediction by ZEFSAII (Michael W. Deem and Ramdas Pophale) SiO2 
 PCOD9216315
Probable space group: C 2/M
;
_chemical_formula_sum "Si O2"
_cell_formula_units_Z 34
_cell_length_a 12.283835
_cell_length_b 14.123160
_cell_length_c 15.528498
_cell_angle_alpha 90.000000
_cell_angle_beta 31.089619
_cell_angle_gamma 90.000000
_cell_volume 1391.115489
_symmetry_space_group_name_H-M "C 2/M"
_symmetry_group_IT_number 12
_symmetry_cell_setting 'monoclinic'
loop_
_space_group_symop_operation_xyz
x,y,z
-x,y,-z
-x,-y,-z
x,-y,z
1/2+x,1/2+y,z
1/2-x,1/2+y,-z
1/2-x,1/2-y,-z
1/2+x,1/2-y,z
loop_
_atom_site_type_symbol
_atom_site_label
_atom_site_fract_x
_atom_site_fract_y
_atom_site_fract_z
Si Si1 0.457189 0.137938 0.930869
Si Si2 0.378880 0.815450 0.497241
Si Si3 0.037215 0.852971 0.123320
Si Si4 0.000000 0.000000 0.000000
Si Si5 0.764927 0.893849 0.568495
O O1 0.427593 0.251143 0.944250
O O2 0.649904 0.109900 0.738339
O O3 0.500000 0.110541 0.000000
O O4 0.243227 0.105084 0.029746
O O5 0.500000 0.846861 0.500000
O O6 0.410293 0.871864 0.387431
O O7 0.407059 0.701627 0.467650
O O8 0.136847 0.834948 0.685923
O O9 0.958364 0.919364 0.101808
O O10 0.852907 0.000000 0.495970
#
# Coordination Sequence:
#
# PCOD9216315 Si02
#       5
#     8   8   8   2   8
#     4  10  22  44  67  93 136 174 216 276 335 393
#     4  10  24  44  66  93 135 175 216 274 329 393
#     4  10  24  40  67  99 131 171 222 272 339 387
#     4  12  24  40  68 108 124 170 224 294 310 408
#     4  10  24  42  65  96 127 172 224 267 331 394
#
# _framework density 24.440816999999999
#
# number of rings (size 3 to 8) (size 9 to 14) (size 15 to 20)
#    0.000    1.882    1.176    0.000    6.588   10.824 
#    0.000    0.000    0.000    0.000    0.000    0.000 
#    0.000    0.000    0.000    0.000    0.000    0.000 
#
# Total GULP energy -94760.800844 kJ/mol
# GULP energy per Si atom -5574.164756 kJ/mol
# Density = 2.438519 g / cm^3
# Si number density = 24.440817 Si / 1000 Ang^3
#
#
#
# Elastic Constant Matrix: (Units=GPa)
#
#
# Indices 1 2 3 4 5 6 
#
# 1 110.7624 -2.8450 33.4619 0.0030 50.5302 0.0175
# 2 -2.8450 157.9921 7.7801 -0.0057 16.6240 0.0122
# 3 33.4619 7.7801 48.7070 -0.0069 30.1470 0.0187
# 4 0.0030 -0.0057 -0.0069 18.8213 0.0024 77.1155
# 5 50.5302 16.6240 30.1470 0.0024 49.1010 -0.0132
# 6 0.0175 0.0122 0.0187 77.1155 -0.0132 257.3198
#
#
#
# Elastic Compliance Matrix: (Units=1/GPa)
#
#
# Indices 1 2 3 4 5 6 
#
# 1 0.017857 0.002319 -0.001255 -0.000038 -0.018391 0.000009
# 2 0.002319 0.006873 0.000365 -0.000024 -0.004937 0.000007
# 3 -0.001255 0.000365 0.033246 -0.000126 -0.019244 0.000034
# 4 -0.000038 -0.000024 -0.000126 -0.233143 0.000154 0.069870
# 5 -0.018391 -0.004937 -0.019244 0.000154 0.052780 -0.000041
# 6 0.000009 0.000007 0.000034 0.069870 -0.000041 -0.017053
#
#
# Mechanical properties :
#
#
# Convention : Reuss Voigt Hill
#
# Bulk Modulus (GPa) = 16.43839 43.80616 30.12228
# Shear Modulus (GPa) = -40.97717 83.65272 21.33777
#
# Velocity S-wave (km/s) = -4.09906 5.85670 2.95793
# Velocity P-wave (km/s) = 3.95760 7.98103 4.90073
#
# Compressibility (1/GPa) = 0.06083320
#
# Stress axis : x y z
#
# Youngs Moduli (GPa) = 55.99946 145.50364 30.07877
#
# Poissons Ratio (x) = -0.33735 0.03775
# Poissons Ratio (y) = -0.12984 -0.01098
# Poissons Ratio (z) = 0.07028 -0.05313
#
# Static dielectric constant tensor:
#      x y z
#    x 1.998320 0.000000 -0.043660 
#    y 0.000000 1.851570 0.000010 
#    z -0.043660 0.000010 1.949220 
# 
# From -- ./inp_files/204789.got.cif
#   From: 2010.05.17/outbox.cif.g08.bks.cpg/sg12_103_cif.got.tgz:204789.got - 2010.06.03 13:09:07.
