data_PCOD9216010
_publ_section_title
;
Structure prediction by ZEFSAII (Michael W. Deem and Ramdas Pophale) SiO2 
 PCOD9216010
Probable space group: C 2/M
;
_chemical_formula_sum "Si O2"
_cell_formula_units_Z 44
_cell_length_a 16.933774
_cell_length_b 13.972548
_cell_length_c 21.221018
_cell_angle_alpha 90.000000
_cell_angle_beta 156.153261
_cell_angle_gamma 90.000000
_cell_volume 2029.972884
_symmetry_space_group_name_H-M "C 2/M"
_symmetry_group_IT_number 12
_symmetry_cell_setting 'monoclinic'
loop_
_space_group_symop_operation_xyz
x,y,z
-x,y,-z
-x,-y,-z
x,-y,z
1/2+x,1/2+y,z
1/2-x,1/2+y,-z
1/2-x,1/2-y,-z
1/2+x,1/2-y,z
loop_
_atom_site_type_symbol
_atom_site_label
_atom_site_fract_x
_atom_site_fract_y
_atom_site_fract_z
Si Si1 0.421554 0.608183 0.146562
Si Si2 0.046910 0.292752 0.917176
Si Si3 0.290301 0.649891 0.867252
Si Si4 0.371038 0.714196 0.344518
Si Si5 0.347864 0.352118 0.556805
Si Si6 0.999316 0.500000 0.714338
O O1 0.443529 0.500000 0.136794
O O2 0.485525 0.699152 0.150945
O O3 0.545588 0.613334 0.301553
O O4 0.191696 0.630583 0.991835
O O5 0.837869 0.328911 0.787599
O O6 0.161532 0.247360 0.059923
O O7 0.175103 0.683073 0.721200
O O8 0.163441 0.582563 0.817667
O O9 0.500000 0.609995 0.000000
O O10 0.500000 0.726130 0.500000
O O11 0.492683 0.656262 0.381782
O O12 0.250000 0.250000 0.500000
O O13 0.171789 0.418176 0.406339
#
# Coordination Sequence:
#
# PCOD9216010 Si02
#       6
#     8   8   8   8   8   4
#     4  11  23  43  70 103 131 178 232 272 345 408
#     4  10  23  44  70  96 140 178 222 286 331 404
#     4  10  22  42  69  99 134 176 223 279 345 397
#     4  11  23  43  69  97 134 181 225 275 343 398
#     4  12  23  42  67  99 136 176 220 279 343 399
#     4  12  23  40  70  97 141 172 223 280 344 401
#
# _framework density 21.675166999999998
#
# number of rings (size 3 to 8) (size 9 to 14) (size 15 to 20)
#    0.000    1.091    4.545    1.364    1.273    1.455 
#    3.273    1.818    0.000    0.000    0.000    0.000 
#    0.000    0.000    0.000    0.000    0.000    0.000 
#
# Total GULP energy -122481.115978 kJ/mol
# GULP energy per Si atom -5567.323454 kJ/mol
# Density = 2.162583 g / cm^3
# Si number density = 21.675167 Si / 1000 Ang^3
#
#
#
# Elastic Constant Matrix: (Units=GPa)
#
#
# Indices 1 2 3 4 5 6 
#
# 1 81.5696 -1.2197 43.5010 0.0067 12.1541 -0.0016
# 2 -1.2197 69.3245 17.7522 -0.0016 16.6350 -0.0014
# 3 43.5010 17.7522 115.7492 0.0007 30.2223 -0.0017
# 4 0.0067 -0.0016 0.0007 34.8458 0.0019 14.0653
# 5 12.1541 16.6350 30.2223 0.0019 57.9787 -0.0002
# 6 -0.0016 -0.0014 -0.0017 14.0653 -0.0002 5.5080
#
#
#
# Elastic Compliance Matrix: (Units=1/GPa)
#
#
# Indices 1 2 3 4 5 6 
#
# 1 0.015580 0.001976 -0.005970 0.000129 -0.000721 -0.000326
# 2 0.001976 0.015943 -0.002182 0.000031 -0.003851 -0.000076
# 3 -0.005970 -0.002182 0.012418 -0.000015 -0.004595 0.000041
# 4 0.000129 0.000031 -0.000015 -0.933263 0.000012 2.383184
# 5 -0.000721 -0.003851 -0.004595 0.000012 0.020899 -0.000033
# 6 -0.000326 -0.000076 0.000041 2.383184 -0.000033 -5.904155
#
#
# Mechanical properties :
#
#
# Convention : Reuss Voigt Hill
#
# Bulk Modulus (GPa) = 31.65810 42.96782 37.31296
# Shear Modulus (GPa) = -0.74077 33.44048 16.34986
#
# Velocity S-wave (km/s) = -0.58524 3.93211 2.74946
# Velocity P-wave (km/s) = 3.76573 6.36254 5.22794
#
# Compressibility (1/GPa) = 0.03158749
#
# Stress axis : x y z
#
# Youngs Moduli (GPa) = 64.18348 62.72531 80.53077
#
# Poissons Ratio (x) = -0.12394 0.48079
# Poissons Ratio (y) = -0.12682 0.17573
# Poissons Ratio (z) = 0.38319 0.13688
#
# Static dielectric constant tensor:
#      x y z
#    x 1.843590 0.000000 -0.031120 
#    y 0.000000 1.901190 -0.000010 
#    z -0.031120 -0.000010 1.795530 
# 
# From -- ./inp_files/344143.got.cif
#   From: 2010.05.17/outbox.cif.g08.bks.cpg/sg12_173_cif.got.tgz:344143.got - 2010.06.03 13:09:07.
