data_PCOD9216163
_publ_section_title
;
Structure prediction by ZEFSAII (Michael W. Deem and Ramdas Pophale) SiO2 
 PCOD9216163
Probable space group: C 2/M
;
_chemical_formula_sum "Si O2"
_cell_formula_units_Z 56
_cell_length_a 8.925653
_cell_length_b 13.776421
_cell_length_c 22.331991
_cell_angle_alpha 90.000000
_cell_angle_beta 68.199852
_cell_angle_gamma 90.000000
_cell_volume 2549.638915
_symmetry_space_group_name_H-M "C 2/M"
_symmetry_group_IT_number 12
_symmetry_cell_setting 'monoclinic'
loop_
_space_group_symop_operation_xyz
x,y,z
-x,y,-z
-x,-y,-z
x,-y,z
1/2+x,1/2+y,z
1/2-x,1/2+y,-z
1/2-x,1/2-y,-z
1/2+x,1/2-y,z
loop_
_atom_site_type_symbol
_atom_site_label
_atom_site_fract_x
_atom_site_fract_y
_atom_site_fract_z
Si Si1 0.845011 0.106615 0.479382
Si Si2 0.722791 0.609088 0.214413
Si Si3 0.761769 0.735611 0.691434
Si Si4 0.005294 0.384889 0.087808
Si Si5 0.920181 0.887528 0.183622
Si Si6 0.855573 0.797791 0.063456
Si Si7 0.904738 0.300558 0.398349
O O1 0.868181 0.193466 0.429834
O O2 0.690814 0.127778 0.544122
O O3 0.000000 0.110213 0.500000
O O4 0.835822 0.000000 0.453185
O O5 0.698863 0.500000 0.240711
O O6 0.672330 0.686614 0.270680
O O7 0.607961 0.619828 0.173677
O O8 0.907908 0.619868 0.165623
O O9 0.669149 0.659671 0.746550
O O10 0.659088 0.797976 0.659737
O O11 0.904900 0.686017 0.633262
O O12 0.017037 0.500000 0.070927
O O13 0.180109 0.333387 0.067637
O O14 0.891712 0.317793 0.062651
O O15 0.879020 0.835382 0.127786
O O16 0.876905 0.000000 0.183919
O O17 0.000000 0.837624 0.000000
#
# Coordination Sequence:
#
# PCOD9216163 Si02
#       7
#     8   8   8   8   8   8   8
#     4  10  22  43  67  94 133 176 220 265 323 398
#     4  10  23  43  68  96 131 178 224 279 350 417
#     4  12  23  41  66  97 135 169 222 282 340 404
#     4  11  25  45  71 103 137 181 235 289 354 427
#     4  11  25  44  68  97 135 180 229 290 357 419
#     4  12  26  47  73 102 142 188 235 295 361 427
#     4  11  24  40  66 100 130 173 219 274 332 395
#
# _framework density 21.963895000000001
#
# number of rings (size 3 to 8) (size 9 to 14) (size 15 to 20)
#    0.000    1.000    4.286    1.714    2.000    3.714 
#    0.000    2.857    0.000    0.000    0.000    0.000 
#    0.000    0.000    0.000    0.000    0.000    0.000 
#
# Total GULP energy -156468.990399 kJ/mol
# GULP energy per Si atom -5588.178229 kJ/mol
# Density = 2.191390 g / cm^3
# Si number density = 21.963895 Si / 1000 Ang^3
#
#
#
# Elastic Constant Matrix: (Units=GPa)
#
#
# Indices 1 2 3 4 5 6 
#
# 1 76.7967 33.3288 14.5946 0.0000 -17.8091 0.0000
# 2 33.3288 121.4401 18.2343 0.0000 -3.0356 0.0000
# 3 14.5946 18.2343 86.7086 0.0000 -22.1546 0.0000
# 4 0.0000 0.0000 0.0000 1.6325 0.0000 -3.0680
# 5 -17.8091 -3.0356 -22.1546 0.0000 49.1508 0.0000
# 6 0.0000 0.0000 0.0000 -3.0680 0.0000 25.6367
#
#
#
# Elastic Compliance Matrix: (Units=1/GPa)
#
#
# Indices 1 2 3 4 5 6 
#
# 1 0.016202 -0.004243 -0.000454 0.000000 0.005404 0.000000
# 2 -0.004243 0.009619 -0.001751 0.000000 -0.001733 0.000000
# 3 -0.000454 -0.001751 0.013458 0.000000 0.005793 0.000000
# 4 0.000000 0.000000 0.000000 0.790316 0.000000 0.094579
# 5 0.005404 -0.001733 0.005793 0.000000 0.024808 0.000000
# 6 0.000000 0.000000 0.000000 0.094579 0.000000 0.050325
#
#
# Mechanical properties :
#
#
# Convention : Reuss Voigt Hill
#
# Bulk Modulus (GPa) = 37.90532 46.36232 42.13382
# Shear Modulus (GPa) = 5.39712 29.86985 17.63349
#
# Velocity S-wave (km/s) = 1.56927 3.69175 2.83652
# Velocity P-wave (km/s) = 4.53640 6.27107 5.47290
#
# Compressibility (1/GPa) = 0.02638152
#
# Stress axis : x y z
#
# Youngs Moduli (GPa) = 61.71902 103.96361 74.30611
#
# Poissons Ratio (x) = 0.44116 0.03374
# Poissons Ratio (y) = 0.26190 0.13013
# Poissons Ratio (z) = 0.02802 0.18207
#
# Static dielectric constant tensor:
#      x y z
#    x 1.822800 0.000000 -0.018940 
#    y 0.000000 1.784960 0.000000 
#    z -0.018940 0.000000 1.802280 
# 
# From -- ./inp_files/332848.got.cif
#   From: 2010.05.17/outbox.cif.g08.bks.cpg/sg12_167_cif.got.tgz:332848.got - 2010.06.03 13:09:07.
