data_PCOD9216676
_publ_section_title
;
Structure prediction by ZEFSAII (Michael W. Deem and Ramdas Pophale) SiO2 
 PCOD9216676
Probable space group: C 2/M
;
_chemical_formula_sum "Si O2"
_cell_formula_units_Z 32
_cell_length_a 11.108077
_cell_length_b 8.195642
_cell_length_c 21.438913
_cell_angle_alpha 90.000000
_cell_angle_beta 49.295747
_cell_angle_gamma 90.000000
_cell_volume 1479.595694
_symmetry_space_group_name_H-M "C 2/M"
_symmetry_group_IT_number 12
_symmetry_cell_setting 'monoclinic'
loop_
_space_group_symop_operation_xyz
x,y,z
-x,y,-z
-x,-y,-z
x,-y,z
1/2+x,1/2+y,z
1/2-x,1/2+y,-z
1/2-x,1/2-y,-z
1/2+x,1/2-y,z
loop_
_atom_site_type_symbol
_atom_site_label
_atom_site_fract_x
_atom_site_fract_y
_atom_site_fract_z
Si Si1 0.919198 0.500000 0.131920
Si Si2 0.239934 0.500000 0.940757
Si Si3 0.134656 0.196944 0.403704
Si Si4 0.009972 0.195329 0.680705
Si Si5 0.098181 0.316042 0.151330
O O1 0.927980 0.348777 0.175628
O O2 0.794198 0.500000 0.121430
O O3 0.082059 0.500000 0.035372
O O4 0.327375 0.672863 0.915294
O O5 0.303959 0.263787 0.370444
O O6 0.000000 0.236973 0.500000
O O7 0.067091 0.252016 0.358777
O O8 0.150873 0.000000 0.395399
O O9 0.923485 0.271377 0.770058
O O10 0.993936 0.000000 0.687834
O O11 0.173498 0.500000 0.122679
#
# Coordination Sequence:
#
# PCOD9216676 Si02
#       5
#     4   4   8   8   8
#     4   9  24  40  65  93 122 167 212 263 315 377
#     4  11  20  46  63  87 132 161 210 271 311 373
#     4  10  23  42  64  91 126 166 214 266 318 379
#     4  11  23  39  63  92 129 169 210 266 318 377
#     4  10  23  39  62  93 125 165 210 258 315 381
#
# _framework density 21.62753
#
# number of rings (size 3 to 8) (size 9 to 14) (size 15 to 20)
#    0.750    1.000    1.250    2.250    3.500    2.500 
#    2.250    1.250    0.000    0.000    0.000    0.000 
#    0.000    0.000    0.000    0.000    0.000    0.000 
#
# Total GULP energy -89097.702717 kJ/mol
# GULP energy per Si atom -5568.606420 kJ/mol
# Density = 2.157830 g / cm^3
# Si number density = 21.627530 Si / 1000 Ang^3
#
#
#
# Elastic Constant Matrix: (Units=GPa)
#
#
# Indices 1 2 3 4 5 6 
#
# 1 118.5328 14.5057 32.7034 0.0000 27.6301 0.0000
# 2 14.5057 91.5841 28.2012 0.0000 -2.9007 0.0000
# 3 32.7034 28.2012 93.3141 0.0000 14.8162 0.0000
# 4 0.0000 0.0000 0.0000 34.5442 0.0000 -0.0190
# 5 27.6301 -2.9007 14.8162 0.0000 45.4722 0.0000
# 6 0.0000 0.0000 0.0000 -0.0190 0.0000 33.8930
#
#
#
# Elastic Compliance Matrix: (Units=1/GPa)
#
#
# Indices 1 2 3 4 5 6 
#
# 1 0.010580 -0.001094 -0.002473 0.000000 -0.005692 0.000000
# 2 -0.001094 0.012338 -0.003771 0.000000 0.002681 0.000000
# 3 -0.002473 -0.003771 0.013206 0.000000 -0.003041 0.000000
# 4 0.000000 0.000000 0.000000 0.028948 0.000000 0.000016
# 5 -0.005692 0.002681 -0.003041 0.000000 0.026612 0.000000
# 6 0.000000 0.000000 0.000000 0.000016 0.000000 0.029505
#
#
# Mechanical properties :
#
#
# Convention : Reuss Voigt Hill
#
# Bulk Modulus (GPa) = 46.62756 50.47241 48.54998
# Shear Modulus (GPa) = 34.96137 37.98324 36.47231
#
# Velocity S-wave (km/s) = 4.02496 4.19530 4.11102
# Velocity P-wave (km/s) = 6.57317 6.84509 6.71051
#
# Compressibility (1/GPa) = 0.02144654
#
# Stress axis : x y z
#
# Youngs Moduli (GPa) = 94.52058 81.04813 75.72481
#
# Poissons Ratio (x) = 0.08870 0.18729
# Poissons Ratio (y) = 0.10344 0.28556
# Poissons Ratio (z) = 0.23377 0.30563
#
# Static dielectric constant tensor:
#      x y z
#    x 1.860210 0.000000 -0.010820 
#    y 0.000000 -5.029530 0.000000 
#    z -0.010820 0.000000 1.795640 
# 
# From -- ./inp_files/303366.got.cif
#   From: 2010.05.17/outbox.cif.g08.bks.cpg/sg12_152_cif.got.tgz:303366.got - 2010.06.03 13:09:07.
