data_PCOD9216408
_publ_section_title
;
Structure prediction by ZEFSAII (Michael W. Deem and Ramdas Pophale) SiO2 
 PCOD9216408
Probable space group: C 2/M
;
_chemical_formula_sum "Si O2"
_cell_formula_units_Z 44
_cell_length_a 14.738705
_cell_length_b 23.430381
_cell_length_c 10.426918
_cell_angle_alpha 90.000000
_cell_angle_beta 140.767504
_cell_angle_gamma 90.000000
_cell_volume 2277.370480
_symmetry_space_group_name_H-M "C 2/M"
_symmetry_group_IT_number 12
_symmetry_cell_setting 'monoclinic'
loop_
_space_group_symop_operation_xyz
x,y,z
-x,y,-z
-x,-y,-z
x,-y,z
1/2+x,1/2+y,z
1/2-x,1/2+y,-z
1/2-x,1/2-y,-z
1/2+x,1/2-y,z
loop_
_atom_site_type_symbol
_atom_site_label
_atom_site_fract_x
_atom_site_fract_y
_atom_site_fract_z
Si Si1 0.212813 0.717379 0.591353
Si Si2 0.667369 0.905427 0.455994
Si Si3 0.338440 0.500000 0.118437
Si Si4 0.020674 0.889056 0.299919
Si Si5 0.826047 0.500000 0.331458
Si Si6 0.530877 0.000000 0.886122
Si Si7 0.500000 0.338667 0.000000
Si Si8 0.500000 0.701048 0.500000
O O1 0.250000 0.750000 0.500000
O O2 0.131377 0.658362 0.464013
O O3 0.127069 0.757624 0.593520
O O4 0.360160 0.698479 0.818439
O O5 0.806816 0.898638 0.517342
O O6 0.711328 0.944175 0.626072
O O7 0.542510 0.943601 0.256513
O O8 0.264474 0.500000 0.896797
O O9 0.200143 0.500000 0.055708
O O10 0.437175 0.445470 0.245720
O O11 0.978031 0.839611 0.352645
O O12 0.979690 0.873703 0.108683
O O13 0.000000 0.500000 0.500000
O O14 0.500000 0.000000 0.000000
#
# Coordination Sequence:
#
# PCOD9216408 Si02
#       8
#     8   8   4   8   4   4   4   4
#     4  11  23  45  69  97 134 178 221 280 332 396
#     4  10  22  45  67  89 139 170 212 275 344 383
#     4  12  23  39  68  97 126 164 229 270 323 406
#     4  11  25  43  68  97 129 178 221 277 329 408
#     4  11  21  40  64 102 123 161 222 276 332 392
#     4  11  26  41  62 103 134 173 216 269 344 402
#     4  10  22  47  70  98 130 171 230 268 342 394
#     4  12  26  45  66 101 136 174 232 270 344 394
#
# _framework density 19.320529000000001
#
# number of rings (size 3 to 8) (size 9 to 14) (size 15 to 20)
#    0.000    1.091    5.455    3.273    3.818    3.636 
#    4.909    0.000    0.000    0.000    0.000    0.000 
#    0.000    0.000    0.000    0.000    0.000    0.000 
#
# Total GULP energy -122857.521777 kJ/mol
# GULP energy per Si atom -5584.432808 kJ/mol
# Density = 1.927655 g / cm^3
# Si number density = 19.320529 Si / 1000 Ang^3
#
#
#
# Elastic Constant Matrix: (Units=GPa)
#
#
# Indices 1 2 3 4 5 6 
#
# 1 133.9358 63.9208 17.8970 0.0000 9.4548 0.0000
# 2 63.9208 161.8702 32.5886 0.0000 11.3394 0.0000
# 3 17.8970 32.5886 40.5384 0.0000 14.4548 0.0000
# 4 0.0000 0.0000 0.0000 11.3008 0.0000 10.9091
# 5 9.4548 11.3394 14.4548 0.0000 32.1205 0.0000
# 6 0.0000 0.0000 0.0000 10.9091 0.0000 33.7985
#
#
#
# Elastic Compliance Matrix: (Units=1/GPa)
#
#
# Indices 1 2 3 4 5 6 
#
# 1 0.009296 -0.003396 -0.000983 0.000000 -0.001095 0.000000
# 2 -0.003396 0.008612 -0.005593 0.000000 0.000477 0.000000
# 3 -0.000983 -0.005593 0.034294 0.000000 -0.013169 0.000000
# 4 0.000000 0.000000 0.000000 0.128540 0.000000 -0.041488
# 5 -0.001095 0.000477 -0.013169 0.000000 0.037213 0.000000
# 6 0.000000 0.000000 0.000000 -0.041488 0.000000 0.042978
#
#
# Mechanical properties :
#
#
# Convention : Reuss Voigt Hill
#
# Bulk Modulus (GPa) = 31.00228 62.79525 46.89877
# Shear Modulus (GPa) = 17.14498 30.23982 23.69240
#
# Velocity S-wave (km/s) = 2.98215 3.96051 3.50563
# Velocity P-wave (km/s) = 5.28571 7.31345 6.38065
#
# Compressibility (1/GPa) = 0.03225569
#
# Stress axis : x y z
#
# Youngs Moduli (GPa) = 107.57610 116.12264 29.15931
#
# Poissons Ratio (x) = 0.39436 0.02868
# Poissons Ratio (y) = 0.36534 0.16310
# Poissons Ratio (z) = 0.10580 0.64953
#
# Static dielectric constant tensor:
#      x y z
#    x 1.701560 0.000000 0.004020 
#    y 0.000000 1.672410 0.000000 
#    z 0.004020 0.000000 1.677510 
# 
# From -- ./inp_files/147824.got.cif
#   From: 2010.05.17/outbox.cif.g08.bks.cpg/sg12_74_cif.got.tgz:147824.got - 2010.06.03 13:09:07.
