data_PCOD9216727
_publ_section_title
;
Structure prediction by ZEFSAII (Michael W. Deem and Ramdas Pophale) SiO2 
 PCOD9216727
Probable space group: C 2/M
;
_chemical_formula_sum "Si O2"
_cell_formula_units_Z 56
_cell_length_a 18.796343
_cell_length_b 23.182122
_cell_length_c 16.358380
_cell_angle_alpha 90.000000
_cell_angle_beta 158.150441
_cell_angle_gamma 90.000000
_cell_volume 2652.828319
_symmetry_space_group_name_H-M "C 2/M"
_symmetry_group_IT_number 12
_symmetry_cell_setting 'monoclinic'
loop_
_space_group_symop_operation_xyz
x,y,z
-x,y,-z
-x,-y,-z
x,-y,z
1/2+x,1/2+y,z
1/2-x,1/2+y,-z
1/2-x,1/2-y,-z
1/2+x,1/2-y,z
loop_
_atom_site_type_symbol
_atom_site_label
_atom_site_fract_x
_atom_site_fract_y
_atom_site_fract_z
Si Si1 0.405313 0.883060 0.598387
Si Si2 0.910740 0.064848 0.627032
Si Si3 0.819315 0.724069 0.766573
Si Si4 0.553889 0.318724 0.710432
Si Si5 0.720359 0.847993 0.707248
Si Si6 0.768694 0.936436 0.895391
Si Si7 0.535983 0.228683 0.833262
O O1 0.289841 0.912853 0.548956
O O2 0.276036 0.871836 0.380833
O O3 0.587316 0.917715 0.757466
O O4 0.478632 0.821546 0.708988
O O5 0.010520 0.113685 0.677589
O O6 0.892330 0.000000 0.572410
O O7 0.051387 0.061037 0.854013
O O8 0.607208 0.699793 0.526330
O O9 0.800797 0.784072 0.794330
O O10 0.885075 0.734590 0.743749
O O11 0.000000 0.690860 0.000000
O O12 0.537946 0.287406 0.782910
O O13 0.764488 0.294263 0.914412
O O14 0.500000 0.844481 0.500000
O O15 0.807529 0.891109 0.865531
O O16 0.729037 0.000000 0.818081
#
# Coordination Sequence:
#
# PCOD9216727 Si02
#       7
#     8   8   8   8   8   8   8
#     4  11  20  39  62  89 122 172 217 261 308 361
#     4  11  23  38  64  93 123 167 217 264 312 376
#     4  12  26  38  62  92 126 160 205 265 331 380
#     4  11  23  41  64  91 127 158 219 266 318 383
#     4  10  24  37  57  88 134 175 210 249 303 370
#     4  10  23  40  57  89 135 179 213 248 300 372
#     4  11  23  39  66  91 123 171 210 275 321 366
#
# _framework density 21.109546999999999
#
# number of rings (size 3 to 8) (size 9 to 14) (size 15 to 20)
#    0.000    1.143    4.286    1.714    6.000    3.143 
#    0.000    1.429    0.000    0.429    0.000    1.000 
#    0.000    0.000    0.000    0.000    0.000    0.000 
#
# Total GULP energy -156390.953766 kJ/mol
# GULP energy per Si atom -5585.391206 kJ/mol
# Density = 2.106150 g / cm^3
# Si number density = 21.109547 Si / 1000 Ang^3
#
#
#
# Elastic Constant Matrix: (Units=GPa)
#
#
# Indices 1 2 3 4 5 6 
#
# 1 50.7720 21.4635 -0.2071 0.0001 7.5916 0.0000
# 2 21.4635 128.9310 15.2408 0.0000 -1.5236 0.0000
# 3 -0.2071 15.2408 91.7266 0.0003 4.2161 0.0000
# 4 0.0001 0.0000 0.0003 6.9811 0.0001 0.7742
# 5 7.5916 -1.5236 4.2161 0.0001 22.4832 0.0000
# 6 0.0000 0.0000 0.0000 0.7742 0.0000 30.6419
#
#
#
# Elastic Compliance Matrix: (Units=1/GPa)
#
#
# Indices 1 2 3 4 5 6 
#
# 1 0.022597 -0.003986 0.001086 0.000000 -0.008104 0.000000
# 2 -0.003986 0.008628 -0.001545 0.000000 0.002220 0.000000
# 3 0.001086 -0.001545 0.011280 0.000000 -0.002587 0.000000
# 4 0.000000 0.000000 0.000000 0.143646 -0.000001 -0.003629
# 5 -0.008104 0.002220 -0.002587 -0.000001 0.047849 0.000000
# 6 0.000000 0.000000 0.000000 -0.003629 0.000000 0.032727
#
#
# Mechanical properties :
#
#
# Convention : Reuss Voigt Hill
#
# Bulk Modulus (GPa) = 29.74793 38.26933 34.00863
# Shear Modulus (GPa) = 17.43241 27.68341 22.55791
#
# Velocity S-wave (km/s) = 2.87680 3.62528 3.27251
# Velocity P-wave (km/s) = 5.01572 5.97426 5.51585
#
# Compressibility (1/GPa) = 0.03361578
#
# Stress axis : x y z
#
# Youngs Moduli (GPa) = 44.25361 115.89549 88.65274
#
# Poissons Ratio (x) = 0.46195 -0.09626
# Poissons Ratio (y) = 0.17639 0.13694
# Poissons Ratio (z) = -0.04805 0.17903
#
# Static dielectric constant tensor:
#      x y z
#    x 1.747760 0.000000 0.021620 
#    y 0.000000 1.774250 0.000000 
#    z 0.021620 0.000000 1.822150 
# 
# From -- ./inp_files/286048.got.cif
#   From: 2010.05.17/outbox.cif.g08.bks.cpg/sg12_144_cif.got.tgz:286048.got - 2010.06.03 13:09:07.
