data_PCOD9216021
_publ_section_title
;
Structure prediction by ZEFSAII (Michael W. Deem and Ramdas Pophale) SiO2 
 PCOD9216021
Probable space group: C 2/M
;
_chemical_formula_sum "Si O2"
_cell_formula_units_Z 44
_cell_length_a 9.247825
_cell_length_b 17.403479
_cell_length_c 16.494109
_cell_angle_alpha 90.000000
_cell_angle_beta 51.117388
_cell_angle_gamma 90.000000
_cell_volume 2066.455977
_symmetry_space_group_name_H-M "C 2/M"
_symmetry_group_IT_number 12
_symmetry_cell_setting 'monoclinic'
loop_
_space_group_symop_operation_xyz
x,y,z
-x,y,-z
-x,-y,-z
x,-y,z
1/2+x,1/2+y,z
1/2-x,1/2+y,-z
1/2-x,1/2-y,-z
1/2+x,1/2-y,z
loop_
_atom_site_type_symbol
_atom_site_label
_atom_site_fract_x
_atom_site_fract_y
_atom_site_fract_z
Si Si1 0.611343 0.839134 0.270682
Si Si2 0.729269 0.500000 0.022580
Si Si3 0.550429 0.410320 0.387432
Si Si4 0.149392 0.411958 0.518038
Si Si5 0.000000 0.371554 0.000000
Si Si6 0.791840 0.000000 0.165379
Si Si7 0.132399 0.701318 0.788548
O O1 0.429251 0.851617 0.390021
O O2 0.695956 0.923552 0.231751
O O3 0.764911 0.782561 0.251930
O O4 0.542451 0.805774 0.209417
O O5 0.508186 0.500000 0.114480
O O6 0.836744 0.426876 0.022524
O O7 0.739698 0.500000 0.920881
O O8 0.500000 0.397225 0.500000
O O9 0.596158 0.500000 0.360723
O O10 0.353872 0.392750 0.414022
O O11 0.716596 0.360361 0.295736
O O12 0.164457 0.500000 0.546434
O O13 0.000000 0.413664 0.500000
O O14 0.926715 0.320652 0.099973
#
# Coordination Sequence:
#
# PCOD9216021 Si02
#       7
#     8   4   8   8   4   4   8
#     4  12  27  47  72 104 146 190 233 299 359 429
#     4  10  24  44  76 107 126 196 245 297 337 426
#     4  10  22  42  72 102 139 189 236 286 353 429
#     4  10  22  42  70 103 141 184 237 293 349 424
#     4  11  26  48  72 109 148 180 246 299 354 416
#     4  11  24  48  77  98 142 188 247 283 362 426
#     4  12  29  45  71 106 149 190 235 303 362 419
#
# _framework density 21.292494000000001
#
# number of rings (size 3 to 8) (size 9 to 14) (size 15 to 20)
#    0.000    1.091    4.545    0.000    8.909    3.636 
#    0.000    0.000    0.000    0.000    0.000    0.000 
#    0.000    0.000    0.000    0.000    0.000    0.000 
#
# Total GULP energy -123059.405888 kJ/mol
# GULP energy per Si atom -5593.609359 kJ/mol
# Density = 2.124403 g / cm^3
# Si number density = 21.292494 Si / 1000 Ang^3
#
#
#
# Elastic Constant Matrix: (Units=GPa)
#
#
# Indices 1 2 3 4 5 6 
#
# 1 105.0030 23.3774 5.7629 0.0000 -14.3564 0.0000
# 2 23.3774 97.0661 25.3237 0.0000 -2.7954 0.0000
# 3 5.7629 25.3237 61.3095 0.0000 3.0750 0.0000
# 4 0.0000 0.0000 0.0000 -5.3276 0.0000 -14.5388
# 5 -14.3564 -2.7954 3.0750 0.0000 28.5831 0.0000
# 6 0.0000 0.0000 0.0000 -14.5388 0.0000 9.3920
#
#
#
# Elastic Compliance Matrix: (Units=1/GPa)
#
#
# Indices 1 2 3 4 5 6 
#
# 1 0.010780 -0.002369 -0.000296 0.000000 0.005215 0.000000
# 2 -0.002369 0.012145 -0.004820 0.000000 0.000517 0.000000
# 3 -0.000296 -0.004820 0.018460 0.000000 -0.002606 0.000000
# 4 0.000000 0.000000 0.000000 -0.035928 0.000000 -0.055616
# 5 0.005215 0.000517 -0.002606 0.000000 0.037936 0.000000
# 6 0.000000 0.000000 0.000000 -0.055616 0.000000 0.020380
#
#
# Mechanical properties :
#
#
# Convention : Reuss Voigt Hill
#
# Bulk Modulus (GPa) = 37.85675 41.36741 39.61208
# Shear Modulus (GPa) = 57.11137 20.45715 38.78426
#
# Velocity S-wave (km/s) = 5.18464 3.10299 4.27253
# Velocity P-wave (km/s) = 7.32521 5.68405 6.55618
#
# Compressibility (1/GPa) = 0.02641537
#
# Stress axis : x y z
#
# Youngs Moduli (GPa) = 92.76304 82.33802 54.17104
#
# Poissons Ratio (x) = 0.19504 0.01606
# Poissons Ratio (y) = 0.21973 0.26109
# Poissons Ratio (z) = 0.02750 0.39685
#
# Static dielectric constant tensor:
#      x y z
#    x 1.812720 0.000000 0.011030 
#    y 0.000000 1.737280 0.000000 
#    z 0.011030 0.000000 1.764780 
# 
# From -- ./inp_files/197284.got.cif
#   From: 2010.05.17/outbox.cif.g08.bks.cpg/sg12_99_cif.got.tgz:197284.got - 2010.06.03 13:09:07.
