data_PCOD9216438
_publ_section_title
;
Structure prediction by ZEFSAII (Michael W. Deem and Ramdas Pophale) SiO2 
 PCOD9216438
Probable space group: C 2/M
;
_chemical_formula_sum "Si O2"
_cell_formula_units_Z 48
_cell_length_a 11.345972
_cell_length_b 11.751549
_cell_length_c 18.528514
_cell_angle_alpha 90.000000
_cell_angle_beta 115.978977
_cell_angle_gamma 90.000000
_cell_volume 2220.829844
_symmetry_space_group_name_H-M "C 2/M"
_symmetry_group_IT_number 12
_symmetry_cell_setting 'monoclinic'
loop_
_space_group_symop_operation_xyz
x,y,z
-x,y,-z
-x,-y,-z
x,-y,z
1/2+x,1/2+y,z
1/2-x,1/2+y,-z
1/2-x,1/2-y,-z
1/2+x,1/2-y,z
loop_
_atom_site_type_symbol
_atom_site_label
_atom_site_fract_x
_atom_site_fract_y
_atom_site_fract_z
Si Si1 0.418026 0.500000 0.904623
Si Si2 0.302165 0.824815 0.125029
Si Si3 0.012762 0.000000 0.235227
Si Si4 0.141514 0.627005 0.022853
Si Si5 0.650618 0.500000 0.525870
Si Si6 0.716153 0.255244 0.616011
Si Si7 0.966764 0.235395 0.290442
Si Si8 0.258102 0.000000 0.398499
O O1 0.322451 0.392067 0.878580
O O2 0.500514 0.500000 0.854119
O O3 0.500000 0.500000 0.000000
O O4 0.253148 0.700234 0.089496
O O5 0.412484 0.821534 0.215248
O O6 0.341808 0.876124 0.058729
O O7 0.951859 0.889481 0.253679
O O8 0.167500 0.000000 0.301899
O O9 0.141099 0.500000 0.052463
O O10 0.000000 0.681285 0.000000
O O11 0.500000 0.500000 0.500000
O O12 0.696191 0.376129 0.569090
O O13 0.669467 0.500000 0.445516
O O14 0.627365 0.261175 0.664889
O O15 0.675401 0.125951 0.578631
O O16 0.875940 0.249830 0.660418
#
# Coordination Sequence:
#
# PCOD9216438 Si02
#       8
#     4   8   4   8   4   8   8   4
#     4  12  26  43  65  93 135 187 241 292 356 428
#     4  11  24  39  64  91 127 184 237 288 353 418
#     4  10  24  44  69  97 137 183 231 283 346 427
#     4  10  23  41  58  89 130 165 240 299 356 407
#     4  12  24  46  79 112 150 189 235 295 355 428
#     4  11  25  47  72 111 150 188 238 290 355 432
#     4  11  25  44  70 101 148 190 234 291 357 423
#     4  10  22  45  74 106 142 188 235 281 354 420
#
# _framework density 21.613541999999999
#
# number of rings (size 3 to 8) (size 9 to 14) (size 15 to 20)
#    0.000    1.167    0.833    5.500   10.500    1.333 
#    0.000    1.250    0.000    0.000    0.000    0.000 
#    0.000    0.000    0.000    0.000    0.000    0.000 
#
# Total GULP energy -133832.982435 kJ/mol
# GULP energy per Si atom -5576.374268 kJ/mol
# Density = 2.156435 g / cm^3
# Si number density = 21.613542 Si / 1000 Ang^3
#
#
#
# Elastic Constant Matrix: (Units=GPa)
#
#
# Indices 1 2 3 4 5 6 
#
# 1 119.2919 27.7855 36.9002 0.0000 -17.7925 0.0000
# 2 27.7855 136.3454 31.8897 0.0000 6.5629 0.0000
# 3 36.9002 31.8897 69.0708 0.0000 -7.1209 0.0000
# 4 0.0000 0.0000 0.0000 -20.0591 0.0000 1.9030
# 5 -17.7925 6.5629 -7.1209 0.0000 41.4825 0.0000
# 6 0.0000 0.0000 0.0000 1.9030 0.0000 34.8794
#
#
#
# Elastic Compliance Matrix: (Units=1/GPa)
#
#
# Indices 1 2 3 4 5 6 
#
# 1 0.010741 -0.001273 -0.004739 0.000000 0.003995 0.000000
# 2 -0.001273 0.008537 -0.003519 0.000000 -0.002501 0.000000
# 3 -0.004739 -0.003519 0.018815 0.000000 0.001754 0.000000
# 4 0.000000 0.000000 0.000000 -0.049596 0.000000 0.002706
# 5 0.003995 -0.002501 0.001754 0.000000 0.026517 0.000000
# 6 0.000000 0.000000 0.000000 0.002706 0.000000 0.028523
#
#
# Mechanical properties :
#
#
# Convention : Reuss Voigt Hill
#
# Bulk Modulus (GPa) = 52.54447 57.53986 55.04217
# Shear Modulus (GPa) = 72.52441 26.46942 49.49691
#
# Velocity S-wave (km/s) = 5.79896 3.50332 4.79068
# Velocity P-wave (km/s) = 8.31871 6.56081 7.49150
#
# Compressibility (1/GPa) = 0.01903150
#
# Stress axis : x y z
#
# Youngs Moduli (GPa) = 93.10200 117.13404 53.14843
#
# Poissons Ratio (x) = 0.14909 0.25185
# Poissons Ratio (y) = 0.11850 0.18705
# Poissons Ratio (z) = 0.44118 0.41224
#
# Static dielectric constant tensor:
#      x y z
#    x 1.826200 0.000000 -0.042890 
#    y 0.000000 1.855750 0.000000 
#    z -0.042890 0.000000 1.925950 
# 
# From -- ./inp_files/262212.got.cif
#   From: 2010.05.17/outbox.cif.g08.bks.cpg/sg12_132_cif.got.tgz:262212.got - 2010.06.03 13:09:07.
