data_PCOD9216899
_publ_section_title
;
Structure prediction by ZEFSAII (Michael W. Deem and Ramdas Pophale) SiO2 
 PCOD9216899
Probable space group: C 2/M
;
_chemical_formula_sum "Si O2"
_cell_formula_units_Z 56
_cell_length_a 23.642852
_cell_length_b 8.294653
_cell_length_c 20.391943
_cell_angle_alpha 90.000000
_cell_angle_beta 52.023957
_cell_angle_gamma 90.000000
_cell_volume 3152.322573
_symmetry_space_group_name_H-M "C 2/M"
_symmetry_group_IT_number 12
_symmetry_cell_setting 'monoclinic'
loop_
_space_group_symop_operation_xyz
x,y,z
-x,y,-z
-x,-y,-z
x,-y,z
1/2+x,1/2+y,z
1/2-x,1/2+y,-z
1/2-x,1/2-y,-z
1/2+x,1/2-y,z
loop_
_atom_site_type_symbol
_atom_site_label
_atom_site_fract_x
_atom_site_fract_y
_atom_site_fract_z
Si Si1 0.841681 0.689149 0.189567
Si Si2 0.940092 0.693633 0.492391
Si Si3 0.518541 0.696643 0.826933
Si Si4 0.959299 0.815599 0.331710
Si Si5 0.309287 0.814436 0.408896
Si Si6 0.926274 0.185118 0.010603
Si Si7 0.222102 0.690897 0.354010
O O1 0.832442 0.500000 0.205886
O O2 0.870645 0.721686 0.095568
O O3 0.765781 0.778972 0.255912
O O4 0.906320 0.747892 0.192754
O O5 0.939955 0.500000 0.495600
O O6 0.960299 0.738580 0.403244
O O7 0.860050 0.742615 0.573730
O O8 0.000000 0.756054 0.500000
O O9 0.521123 0.500000 0.824892
O O10 0.506886 0.752814 0.760072
O O11 0.453571 0.748010 0.920984
O O12 0.876290 0.800995 0.370233
O O13 0.982446 0.000000 0.322339
O O14 0.250000 0.750000 0.500000
O O15 0.272037 0.794373 0.366214
O O16 0.329788 0.000000 0.407441
O O17 0.901988 0.000000 0.020850
O O18 0.000000 0.182017 0.000000
O O19 0.226159 0.500000 0.366917
#
# Coordination Sequence:
#
# PCOD9216899 Si02
#       7
#     8   8   8   8   8   8   8
#     4  11  20  28  44  72 104 135 170 207 248 297
#     4  10  23  41  57  73  97 131 172 217 262 308
#     4   9  18  31  47  69 101 138 172 202 244 301
#     4  11  21  33  53  77 103 136 171 208 252 303
#     4  12  22  32  48  74 104 134 167 207 252 302
#     4   8  15  29  45  63  96 139 172 200 240 296
#     4  11  21  34  52  72 100 135 171 209 252 306
#
# _framework density 17.764679999999998
#
# number of rings (size 3 to 8) (size 9 to 14) (size 15 to 20)
#    0.000    1.714    2.857    4.286    0.000    4.000 
#    0.000    0.000    0.000    0.000    0.000    1.000 
#    0.000    0.000    0.000    0.000    0.000    0.000 
#
# Total GULP energy -155903.213866 kJ/mol
# GULP energy per Si atom -5567.971924 kJ/mol
# Density = 1.772425 g / cm^3
# Si number density = 17.764680 Si / 1000 Ang^3
#
#
#
# Elastic Constant Matrix: (Units=GPa)
#
#
# Indices 1 2 3 4 5 6 
#
# 1 66.1139 3.6049 41.8952 -0.0001 12.7921 0.0002
# 2 3.6049 37.3863 13.2811 -0.0003 0.9797 0.0005
# 3 41.8952 13.2811 149.5080 0.0000 25.7743 0.0001
# 4 -0.0001 -0.0003 0.0000 22.5832 0.0001 6.4222
# 5 12.7921 0.9797 25.7743 0.0001 11.3733 -0.0001
# 6 0.0002 0.0005 0.0001 6.4222 -0.0001 12.6385
#
#
#
# Elastic Compliance Matrix: (Units=1/GPa)
#
#
# Indices 1 2 3 4 5 6 
#
# 1 0.020051 -0.000522 -0.002777 0.000000 -0.016213 -0.000001
# 2 -0.000522 0.027823 -0.003304 0.000001 0.005678 -0.000001
# 3 -0.002777 -0.003304 0.011772 0.000000 -0.023269 0.000000
# 4 0.000000 0.000001 0.000000 0.051760 -0.000002 -0.026302
# 5 -0.016213 0.005678 -0.023269 -0.000002 0.158404 0.000002
# 6 -0.000001 -0.000001 0.000000 -0.026302 0.000002 0.092489
#
#
# Mechanical properties :
#
#
# Convention : Reuss Voigt Hill
#
# Bulk Modulus (GPa) = 21.53366 41.17452 31.35409
# Shear Modulus (GPa) = 12.78820 22.26747 17.52784
#
# Velocity S-wave (km/s) = 2.68594 3.54428 3.14453
# Velocity P-wave (km/s) = 4.66551 6.32276 5.55627
#
# Compressibility (1/GPa) = 0.04643893
#
# Stress axis : x y z
#
# Youngs Moduli (GPa) = 49.87339 35.94140 84.94879
#
# Poissons Ratio (x) = 0.01876 0.23592
# Poissons Ratio (y) = 0.02603 0.28069
# Poissons Ratio (z) = 0.13851 0.11876
#
# Static dielectric constant tensor:
#      x y z
#    x 1.584180 0.000000 0.029110 
#    y 0.000000 1.609210 0.000000 
#    z 0.029110 0.000000 1.704030 
# 
# From -- ./inp_files/319698.got.cif
#   From: 2010.05.17/outbox.cif.g08.bks.cpg/sg12_160_cif.got.tgz:319698.got - 2010.06.03 13:09:07.
