data_PCOD9216078
_publ_section_title
;
Structure prediction by ZEFSAII (Michael W. Deem and Ramdas Pophale) SiO2 
 PCOD9216078
Probable space group: C 2/M
;
_chemical_formula_sum "Si O2"
_cell_formula_units_Z 18
_cell_length_a 10.158661
_cell_length_b 12.764041
_cell_length_c 7.250210
_cell_angle_alpha 90.000000
_cell_angle_beta 46.947172
_cell_angle_gamma 90.000000
_cell_volume 686.956056
_symmetry_space_group_name_H-M "C 2/M"
_symmetry_group_IT_number 12
_symmetry_cell_setting 'monoclinic'
loop_
_space_group_symop_operation_xyz
x,y,z
-x,y,-z
-x,-y,-z
x,-y,z
1/2+x,1/2+y,z
1/2-x,1/2+y,-z
1/2-x,1/2-y,-z
1/2+x,1/2-y,z
loop_
_atom_site_type_symbol
_atom_site_label
_atom_site_fract_x
_atom_site_fract_y
_atom_site_fract_z
Si Si1 0.500000 0.000000 0.500000
Si Si2 0.203411 0.155121 0.777529
Si Si3 0.786314 0.884257 0.666893
O O1 0.637000 0.909288 0.284046
O O2 0.242078 0.130492 0.524937
O O3 0.210387 0.277282 0.822131
O O4 0.000000 0.118085 0.000000
O O5 0.000000 0.883004 0.500000
O O6 0.718192 0.000000 0.782912
#
# Coordination Sequence:
#
# PCOD9216078 Si02
#       3
#     2   8   8
#     4  12  22  44  64  96 122 170 214 266 280 412
#     4  11  24  43  68  91 125 174 209 252 317 374
#     4  10  22  43  63  95 133 157 210 267 306 373
#
# _framework density 26.202549000000001
#
# number of rings (size 3 to 8) (size 9 to 14) (size 15 to 20)
#    0.000    1.333    4.444    0.667    0.000    2.667 
#    0.000    0.000    0.000    0.000    0.000    0.000 
#    0.000    0.000    0.000    0.000    0.000    0.000 
#
# Total GULP energy -50111.868634 kJ/mol
# GULP energy per Si atom -5567.985404 kJ/mol
# Density = 2.614291 g / cm^3
# Si number density = 26.202549 Si / 1000 Ang^3
#
#
#
# Elastic Constant Matrix: (Units=GPa)
#
#
# Indices 1 2 3 4 5 6 
#
# 1 87.1555 19.2760 1.8982 -0.0001 5.6410 0.0000
# 2 19.2760 310.5705 84.0681 0.0000 -20.1574 0.0000
# 3 1.8982 84.0681 143.2869 -0.0003 -45.9732 0.0003
# 4 -0.0001 0.0000 -0.0003 25.6983 0.0001 -16.1144
# 5 5.6410 -20.1574 -45.9732 0.0001 44.4483 -0.0001
# 6 0.0000 0.0000 0.0003 -16.1144 -0.0001 22.6119
#
#
#
# Elastic Compliance Matrix: (Units=1/GPa)
#
#
# Indices 1 2 3 4 5 6 
#
# 1 0.011801 -0.000760 -0.000451 0.000000 -0.002309 0.000000
# 2 -0.000760 0.003900 -0.002514 0.000000 -0.000735 0.000000
# 3 -0.000451 -0.002514 0.012142 0.000000 0.011476 0.000000
# 4 0.000000 0.000000 0.000000 0.070351 0.000000 0.050136
# 5 -0.002309 -0.000735 0.011476 0.000000 0.034327 0.000000
# 6 0.000000 0.000000 0.000000 0.050136 0.000000 0.079954
#
#
# Mechanical properties :
#
#
# Convention : Reuss Voigt Hill
#
# Bulk Modulus (GPa) = 49.03807 83.49969 66.26888
# Shear Modulus (GPa) = 22.05337 47.60308 34.82822
#
# Velocity S-wave (km/s) = 2.90427 4.26694 3.64976
# Velocity P-wave (km/s) = 5.47741 7.49746 6.56559
#
# Compressibility (1/GPa) = 0.02039232
#
# Stress axis : x y z
#
# Youngs Moduli (GPa) = 84.73747 256.42177 82.36014
#
# Poissons Ratio (x) = 0.19493 0.03716
# Poissons Ratio (y) = 0.06442 0.20704
# Poissons Ratio (z) = 0.03823 0.64460
#
# Static dielectric constant tensor:
#      x y z
#    x 2.246540 0.000000 -0.021160 
#    y 0.000000 2.075360 0.000000 
#    z -0.021160 0.000000 1.976930 
# 
# From -- ./inp_files/4299.got.cif
#   From: 2010.05.17/outbox.cif.g08.bks.cpg/sg12_3_cif.got.tgz:4299.got - 2010.06.03 13:09:07.
