data_PCOD9216583
_publ_section_title
;
Structure prediction by ZEFSAII (Michael W. Deem and Ramdas Pophale) SiO2 
 PCOD9216583
Probable space group: C 2/M
;
_chemical_formula_sum "Si O2"
_cell_formula_units_Z 60
_cell_length_a 22.834912
_cell_length_b 26.799288
_cell_length_c 15.330312
_cell_angle_alpha 90.000000
_cell_angle_beta 160.185988
_cell_angle_gamma 90.000000
_cell_volume 3180.037949
_symmetry_space_group_name_H-M "C 2/M"
_symmetry_group_IT_number 12
_symmetry_cell_setting 'monoclinic'
loop_
_space_group_symop_operation_xyz
x,y,z
-x,y,-z
-x,-y,-z
x,-y,z
1/2+x,1/2+y,z
1/2-x,1/2+y,-z
1/2-x,1/2-y,-z
1/2+x,1/2-y,z
loop_
_atom_site_type_symbol
_atom_site_label
_atom_site_fract_x
_atom_site_fract_y
_atom_site_fract_z
Si Si1 0.078790 0.682418 0.979908
Si Si2 0.575055 0.838038 0.420985
Si Si3 0.142953 0.942490 0.460472
Si Si4 0.598971 0.703617 0.021530
Si Si5 0.954641 0.868625 0.529915
Si Si6 0.500000 0.100895 0.000000
Si Si7 0.366749 0.608490 0.741639
Si Si8 0.766387 0.194228 0.987103
O O1 0.052269 0.738929 0.973633
O O2 0.973182 0.639978 0.883265
O O3 0.015478 0.683486 0.792124
O O4 0.273798 0.661674 0.267771
O O5 0.682321 0.885102 0.532013
O O6 0.413946 0.836621 0.261948
O O7 0.729537 0.807462 0.681870
O O8 0.040164 0.907759 0.383768
O O9 0.137166 0.922096 0.353433
O O10 0.092362 0.000000 0.391976
O O11 0.334982 0.934078 0.767786
O O12 0.448849 0.663429 0.832870
O O13 0.653688 0.696185 0.997506
O O14 0.000000 0.892004 0.500000
O O15 0.101783 0.830188 0.760921
O O16 0.500000 0.587208 0.000000
O O17 0.750000 0.250000 0.000000
#
# Coordination Sequence:
#
# PCOD9216583 Si02
#       8
#     8   8   8   8   8   4   8   8
#     4  11  22  35  58  85 122 166 194 245 302 357
#     4  11  22  37  56  81 121 162 201 243 300 349
#     4  11  23  42  66  88 116 160 208 263 314 355
#     4  11  23  37  57  88 123 166 207 241 292 372
#     4  11  22  39  59  88 125 156 208 253 296 368
#     4  10  23  38  58  92 120 152 199 258 306 370
#     4  10  23  41  60  92 122 152 205 256 302 370
#     4  12  21  37  57  86 123 169 205 242 296 364
#
# _framework density 18.867699000000002
#
# number of rings (size 3 to 8) (size 9 to 14) (size 15 to 20)
#    0.000    1.067    5.333    1.400    2.800    1.067 
#    0.000    0.000    0.000    0.800    0.000    1.867 
#    0.000    0.000    0.000    0.000    0.000    0.000 
#
# Total GULP energy -167206.416647 kJ/mol
# GULP energy per Si atom -5573.547222 kJ/mol
# Density = 1.882475 g / cm^3
# Si number density = 18.867699 Si / 1000 Ang^3
#
#
#
# Elastic Constant Matrix: (Units=GPa)
#
#
# Indices 1 2 3 4 5 6 
#
# 1 93.5155 7.9147 -6.6636 0.0000 -11.3595 0.0000
# 2 7.9147 67.9861 4.0842 0.0000 -6.2074 0.0000
# 3 -6.6636 4.0842 40.0257 0.0000 -7.2752 0.0000
# 4 0.0000 0.0000 0.0000 11.8324 0.0000 -4.9626
# 5 -11.3595 -6.2074 -7.2752 0.0000 36.8441 0.0000
# 6 0.0000 0.0000 0.0000 -4.9626 0.0000 13.8911
#
#
#
# Elastic Compliance Matrix: (Units=1/GPa)
#
#
# Indices 1 2 3 4 5 6 
#
# 1 0.011456 -0.001143 0.002729 0.000000 0.003878 0.000000
# 2 -0.001143 0.015100 -0.001382 0.000000 0.001919 0.000000
# 3 0.002729 -0.001382 0.026646 0.000000 0.005870 0.000000
# 4 0.000000 0.000000 0.000000 0.099408 0.000000 0.035514
# 5 0.003878 0.001919 0.005870 0.000000 0.029819 0.000000
# 6 0.000000 0.000000 0.000000 0.035514 0.000000 0.084676
#
#
# Mechanical properties :
#
#
# Convention : Reuss Voigt Hill
#
# Bulk Modulus (GPa) = 18.65402 23.57755 21.11579
# Shear Modulus (GPa) = 17.57041 25.59299 21.58170
#
# Velocity S-wave (km/s) = 3.05494 3.68699 3.38575
# Velocity P-wave (km/s) = 4.72776 5.53612 5.14783
#
# Compressibility (1/GPa) = 0.05360776
#
# Stress axis : x y z
#
# Youngs Moduli (GPa) = 87.29270 66.22418 37.52878
#
# Poissons Ratio (x) = 0.07573 -0.10241
# Poissons Ratio (y) = 0.09982 0.05188
# Poissons Ratio (z) = -0.23820 0.09155
#
# Static dielectric constant tensor:
#      x y z
#    x 1.745170 0.000000 0.020770 
#    y 0.000000 1.623800 0.000000 
#    z 0.020770 0.000000 1.646510 
# 
# From -- ./inp_files/242372.got.cif
#   From: 2010.05.17/outbox.cif.g08.bks.cpg/sg12_122_cif.got.tgz:242372.got - 2010.06.03 13:09:07.
