data_PCOD9216011
_publ_section_title
;
Structure prediction by ZEFSAII (Michael W. Deem and Ramdas Pophale) SiO2 
 PCOD9216011
Probable space group: C 2/M
;
_chemical_formula_sum "Si O2"
_cell_formula_units_Z 64
_cell_length_a 14.265878
_cell_length_b 18.562139
_cell_length_c 18.768631
_cell_angle_alpha 90.000000
_cell_angle_beta 33.691205
_cell_angle_gamma 90.000000
_cell_volume 2756.959423
_symmetry_space_group_name_H-M "C 2/M"
_symmetry_group_IT_number 12
_symmetry_cell_setting 'monoclinic'
loop_
_space_group_symop_operation_xyz
x,y,z
-x,y,-z
-x,-y,-z
x,-y,z
1/2+x,1/2+y,z
1/2-x,1/2+y,-z
1/2-x,1/2-y,-z
1/2+x,1/2-y,z
loop_
_atom_site_type_symbol
_atom_site_label
_atom_site_fract_x
_atom_site_fract_y
_atom_site_fract_z
Si Si1 0.489275 0.915588 0.822804
Si Si2 0.607987 0.579086 0.861268
Si Si3 0.346620 0.080887 0.540473
Si Si4 0.431148 0.144217 0.713067
Si Si5 0.064364 0.702590 0.879673
Si Si6 0.471441 0.666232 0.208328
Si Si7 0.561048 0.691709 0.303441
Si Si8 0.865761 0.918919 0.520751
O O1 0.391462 0.879293 0.818523
O O2 0.480561 0.869573 0.900333
O O3 0.682898 0.908470 0.671677
O O4 0.449767 0.000000 0.855522
O O5 0.684496 0.500000 0.803307
O O6 0.759645 0.634658 0.776669
O O7 0.492855 0.601270 0.868257
O O8 0.500000 0.579009 0.000000
O O9 0.500000 0.085451 0.500000
O O10 0.431030 0.093160 0.410478
O O11 0.211802 0.142400 0.644619
O O12 0.274421 0.000000 0.589732
O O13 0.494517 0.225238 0.665557
O O14 0.031675 0.763130 0.839609
O O15 0.264056 0.689132 0.764099
O O16 0.000000 0.722607 0.000000
O O17 0.587393 0.671638 0.203945
O O18 0.425154 0.640449 0.426747
O O19 0.000000 0.915495 0.500000
O O20 0.874104 0.000000 0.484786
#
# Coordination Sequence:
#
# PCOD9216011 Si02
#       8
#     8   8   8   8   8   8   8   8
#     4  11  24  45  71  98 134 179 227 278 338 405
#     4  11  24  44  69  96 134 183 231 281 338 401
#     4  11  22  39  67 102 141 179 216 273 345 412
#     4  12  24  41  68 103 139 179 222 280 338 411
#     4  12  27  47  68  97 134 180 229 282 337 395
#     4  12  25  43  66  98 137 177 221 280 340 407
#     4  12  26  41  71 102 135 179 226 276 342 410
#     4  10  22  42  69  99 140 183 219 270 339 407
#
# _framework density 23.213978999999998
#
# number of rings (size 3 to 8) (size 9 to 14) (size 15 to 20)
#    0.000    0.625    5.000    2.625    1.750    5.250 
#    0.000    0.000    0.000    0.000    0.000    0.000 
#    0.000    0.000    0.000    0.000    0.000    0.000 
#
# Total GULP energy -179063.106990 kJ/mol
# GULP energy per Si atom -5595.722093 kJ/mol
# Density = 2.316114 g / cm^3
# Si number density = 23.213979 Si / 1000 Ang^3
#
#
#
# Elastic Constant Matrix: (Units=GPa)
#
#
# Indices 1 2 3 4 5 6 
#
# 1 87.5505 25.9814 1.8705 -0.0013 29.5609 0.0004
# 2 25.9814 136.9079 29.9335 -0.0003 14.3216 0.0004
# 3 1.8705 29.9335 74.9949 -0.0027 16.9439 0.0018
# 4 -0.0013 -0.0003 -0.0027 27.2043 0.0019 8.7045
# 5 29.5609 14.3216 16.9439 0.0019 36.1197 -0.0008
# 6 0.0004 0.0004 0.0018 8.7045 -0.0008 24.5097
#
#
#
# Elastic Compliance Matrix: (Units=1/GPa)
#
#
# Indices 1 2 3 4 5 6 
#
# 1 0.017106 -0.002557 0.003946 0.000003 -0.014837 -0.000002
# 2 -0.002557 0.008500 -0.003401 -0.000001 0.000318 0.000000
# 3 0.003946 -0.003401 0.016799 0.000003 -0.009762 -0.000003
# 4 0.000003 -0.000001 0.000003 0.041472 -0.000006 -0.014728
# 5 -0.014837 0.000318 -0.009762 -0.000006 0.044282 0.000005
# 6 -0.000002 0.000000 -0.000003 -0.014728 0.000005 0.046031
#
#
# Mechanical properties :
#
#
# Convention : Reuss Voigt Hill
#
# Bulk Modulus (GPa) = 26.05408 46.11378 36.08393
# Shear Modulus (GPa) = 26.17726 33.67793 29.92760
#
# Velocity S-wave (km/s) = 3.36169 3.81302 3.59445
# Velocity P-wave (km/s) = 5.12989 6.26843 5.72752
#
# Compressibility (1/GPa) = 0.03838170
#
# Stress axis : x y z
#
# Youngs Moduli (GPa) = 58.45842 117.65131 59.52872
#
# Poissons Ratio (x) = 0.30083 -0.23491
# Poissons Ratio (y) = 0.14948 0.20243
# Poissons Ratio (z) = -0.23069 0.40008
#
# Static dielectric constant tensor:
#      x y z
#    x 1.905350 0.000000 -0.002720 
#    y 0.000000 1.855450 0.000000 
#    z -0.002720 0.000000 1.872970 
# 
# From -- ./inp_files/271715.got.cif
#   From: 2010.05.17/outbox.cif.g08.bks.cpg/sg12_136_cif.got.tgz:271715.got - 2010.06.03 13:09:07.
