data_PCOD9216905
_publ_section_title
;
Structure prediction by ZEFSAII (Michael W. Deem and Ramdas Pophale) SiO2 
 PCOD9216905
Probable space group: C 2/M
;
_chemical_formula_sum "Si O2"
_cell_formula_units_Z 40
_cell_length_a 27.395112
_cell_length_b 13.987212
_cell_length_c 14.735680
_cell_angle_alpha 90.000000
_cell_angle_beta 21.635157
_cell_angle_gamma 90.000000
_cell_volume 2081.812763
_symmetry_space_group_name_H-M "C 2/M"
_symmetry_group_IT_number 12
_symmetry_cell_setting 'monoclinic'
loop_
_space_group_symop_operation_xyz
x,y,z
-x,y,-z
-x,-y,-z
x,-y,z
1/2+x,1/2+y,z
1/2-x,1/2+y,-z
1/2-x,1/2-y,-z
1/2+x,1/2-y,z
loop_
_atom_site_type_symbol
_atom_site_label
_atom_site_fract_x
_atom_site_fract_y
_atom_site_fract_z
Si Si1 0.798181 0.391446 0.294847
Si Si2 0.927303 0.888426 0.722123
Si Si3 0.384219 0.250000 0.500000
Si Si4 0.649426 0.111574 0.277877
Si Si5 0.406972 0.891446 0.294847
O O1 0.745669 0.500000 0.383196
O O2 0.717753 0.323559 0.368219
O O3 0.809349 0.361581 0.381302
O O4 0.947373 0.394098 1.000000
O O5 0.000000 0.874133 0.500000
O O6 0.993181 0.813106 0.676344
O O7 0.952004 0.000000 0.705087
O O8 0.767981 0.875676 0.000000
O O9 0.330474 0.186894 0.676344
O O10 0.414028 0.176441 0.368219
O O11 0.500000 0.125867 0.500000
O O12 0.657091 0.000000 0.294913
O O13 0.371135 0.000000 0.383196
#
# Coordination Sequence:
#
# PCOD9216905 Si02
#       5
#     8   8   8   8   8
#     4   9  19  35  53  77 111 147 182 221 267 323
#     4  10  23  41  58  80 113 149 185 229 281 336
#     4  12  20  32  58  86 108 138 186 234 276 320
#     4  10  23  41  58  80 113 149 185 229 281 336
#     4   9  19  35  53  77 111 147 182 221 267 323
#
# _framework density 19.214024999999999
#
# number of rings (size 3 to 8) (size 9 to 14) (size 15 to 20)
#    0.000    2.000    0.000    4.800    0.000    4.800 
#    0.000    4.000    0.000    0.000    0.000   16.800 
#    0.000    0.000    0.000    0.000    0.000    0.000 
#
# Total GULP energy -111548.284792 kJ/mol
# GULP energy per Si atom -5577.414240 kJ/mol
# Density = 1.917029 g / cm^3
# Si number density = 19.214025 Si / 1000 Ang^3
#
#
#
# Elastic Constant Matrix: (Units=GPa)
#
#
# Indices 1 2 3 4 5 6 
#
# 1 109.0307 74.6154 56.4325 0.0000 0.2934 0.0000
# 2 74.6154 121.1087 47.8504 0.0000 -1.5248 0.0000
# 3 56.4325 47.8504 105.1479 0.0000 -0.5146 0.0000
# 4 0.0000 0.0000 0.0000 5.1782 0.0000 -2.5354
# 5 0.2934 -1.5248 -0.5146 0.0000 28.8279 0.0000
# 6 0.0000 0.0000 0.0000 -2.5354 0.0000 49.6832
#
#
#
# Elastic Compliance Matrix: (Units=1/GPa)
#
#
# Indices 1 2 3 4 5 6 
#
# 1 0.018319 -0.009035 -0.005724 0.000000 -0.000766 0.000000
# 2 -0.009035 0.014529 -0.001759 0.000000 0.000829 0.000000
# 3 -0.005724 -0.001759 0.013384 0.000000 0.000204 0.000000
# 4 0.000000 0.000000 0.000000 0.198067 0.000000 0.010108
# 5 -0.000766 0.000829 0.000204 0.000000 0.034744 0.000000
# 6 0.000000 0.000000 0.000000 0.010108 0.000000 0.020643
#
#
# Mechanical properties :
#
#
# Convention : Reuss Voigt Hill
#
# Bulk Modulus (GPa) = 75.77621 77.00933 76.39277
# Shear Modulus (GPa) = 14.83149 27.16377 20.99763
#
# Velocity S-wave (km/s) = 2.78134 3.76406 3.30938
# Velocity P-wave (km/s) = 7.05961 7.68490 7.37888
#
# Compressibility (1/GPa) = 0.01319675
#
# Stress axis : x y z
#
# Youngs Moduli (GPa) = 54.58675 68.82963 74.71617
#
# Poissons Ratio (x) = 0.62185 0.42770
# Poissons Ratio (y) = 0.49317 0.13141
# Poissons Ratio (z) = 0.31247 0.12105
#
# Static dielectric constant tensor:
#      x y z
#    x 1.661320 0.000000 -0.000180 
#    y 0.000000 1.692990 0.000000 
#    z -0.000180 0.000000 1.658130 
# 
# From -- ./inp_files/194664.got.cif
#   From: 2010.05.17/outbox.cif.g08.bks.cpg/sg12_98_cif.got.tgz:194664.got - 2010.06.03 13:09:07.
