data_PCOD9216376
_publ_section_title
;
Structure prediction by ZEFSAII (Michael W. Deem and Ramdas Pophale) SiO2 
 PCOD9216376
Probable space group: C 2/M
;
_chemical_formula_sum "Si O2"
_cell_formula_units_Z 48
_cell_length_a 21.730963
_cell_length_b 16.940592
_cell_length_c 18.613557
_cell_angle_alpha 90.000000
_cell_angle_beta 20.422036
_cell_angle_gamma 90.000000
_cell_volume 2390.993261
_symmetry_space_group_name_H-M "C 2/M"
_symmetry_group_IT_number 12
_symmetry_cell_setting 'monoclinic'
loop_
_space_group_symop_operation_xyz
x,y,z
-x,y,-z
-x,-y,-z
x,-y,z
1/2+x,1/2+y,z
1/2-x,1/2+y,-z
1/2-x,1/2-y,-z
1/2+x,1/2-y,z
loop_
_atom_site_type_symbol
_atom_site_label
_atom_site_fract_x
_atom_site_fract_y
_atom_site_fract_z
Si Si1 0.913868 0.828654 0.759520
Si Si2 0.509621 0.167982 0.404928
Si Si3 0.264186 0.094757 0.320757
Si Si4 0.843138 0.404633 0.072995
Si Si5 0.129841 0.093786 0.794964
Si Si6 0.148370 0.908346 0.025323
O O1 0.946266 0.741326 0.694715
O O2 0.763710 0.866383 0.873796
O O3 0.863428 0.847296 0.896205
O O4 0.097606 0.872980 0.543856
O O5 0.500000 0.189627 0.500000
O O6 0.319598 0.133970 0.590592
O O7 0.671329 0.107310 0.215864
O O8 0.262427 0.118490 0.238752
O O9 0.261428 0.000000 0.324563
O O10 0.451854 0.119218 0.148418
O O11 0.834337 0.500000 0.077523
O O12 0.019772 0.103731 0.842271
O O13 0.156196 0.000000 0.777491
O O14 0.000000 0.123528 0.000000
O O15 0.147224 0.000000 0.051708
#
# Coordination Sequence:
#
# PCOD9216376 Si02
#       6
#     8   8   8   8   8   8
#     4  12  24  38  59  96 138 168 196 258 339 396
#     4  12  25  42  67  99 131 170 213 264 326 386
#     4   9  18  34  56  83 120 175 231 262 295 364
#     4   9  18  34  57  84 120 174 228 264 296 364
#     4  10  22  44  72  95 120 163 222 277 317 367
#     4  11  25  44  68  96 127 170 221 270 318 378
#
# _framework density 20.075340000000001
#
# number of rings (size 3 to 8) (size 9 to 14) (size 15 to 20)
#    0.000    1.500    1.667    5.000    0.000    5.333 
#    3.000    1.667    0.000    0.000    0.000    0.000 
#    0.000    0.000    0.000    0.000    0.000    0.000 
#
# Total GULP energy -134135.980270 kJ/mol
# GULP energy per Si atom -5588.999178 kJ/mol
# Density = 2.002965 g / cm^3
# Si number density = 20.075340 Si / 1000 Ang^3
#
#
#
# Elastic Constant Matrix: (Units=GPa)
#
#
# Indices 1 2 3 4 5 6 
#
# 1 105.3239 45.6686 39.8785 0.0169 -9.5432 -0.0096
# 2 45.6686 60.4782 41.0170 0.0231 -1.0641 -0.0108
# 3 39.8785 41.0170 153.5865 -0.0136 4.8382 0.0061
# 4 0.0169 0.0231 -0.0136 58.0335 -0.0133 -6.4126
# 5 -9.5432 -1.0641 4.8382 -0.0133 31.7732 0.0050
# 6 -0.0096 -0.0108 0.0061 -6.4126 0.0050 26.7110
#
#
#
# Elastic Compliance Matrix: (Units=1/GPa)
#
#
# Indices 1 2 3 4 5 6 
#
# 1 0.014802 -0.010262 -0.001238 0.000001 0.004290 0.000001
# 2 -0.010262 0.027379 -0.004601 -0.000009 -0.001465 0.000007
# 3 -0.001238 -0.004601 0.008117 0.000003 -0.001762 -0.000003
# 4 0.000001 -0.000009 0.000003 0.017701 0.000006 0.004250
# 5 0.004290 -0.001465 -0.001762 0.000006 0.032981 -0.000003
# 6 0.000001 0.000007 -0.000003 0.004250 -0.000003 0.038458
#
#
# Mechanical properties :
#
#
# Convention : Reuss Voigt Hill
#
# Bulk Modulus (GPa) = 55.26364 63.61298 59.43831
# Shear Modulus (GPa) = 28.14194 36.15850 32.15022
#
# Velocity S-wave (km/s) = 3.74815 4.24859 4.00619
# Velocity P-wave (km/s) = 6.80583 7.47150 7.14642
#
# Compressibility (1/GPa) = 0.01809508
#
# Stress axis : x y z
#
# Youngs Moduli (GPa) = 67.56035 36.52454 123.20337
#
# Poissons Ratio (x) = 0.37482 0.15250
# Poissons Ratio (y) = 0.69331 0.56688
# Poissons Ratio (z) = 0.08362 0.16806
#
# Static dielectric constant tensor:
#      x y z
#    x 1.688570 0.000000 0.019280 
#    y 0.000000 1.715000 0.000010 
#    z 0.019280 0.000010 1.690660 
# 
# From -- ./inp_files/285333.got.cif
#   From: 2010.05.17/outbox.cif.g08.bks.cpg/sg12_143_cif.got.tgz:285333.got - 2010.06.03 13:09:07.
