data_PCOD9216648
_publ_section_title
;
Structure prediction by ZEFSAII (Michael W. Deem and Ramdas Pophale) SiO2 
 PCOD9216648
Probable space group: C 2/M
;
_chemical_formula_sum "Si O2"
_cell_formula_units_Z 40
_cell_length_a 18.354197
_cell_length_b 18.656310
_cell_length_c 5.283970
_cell_angle_alpha 90.000000
_cell_angle_beta 89.369619
_cell_angle_gamma 90.000000
_cell_volume 1809.235895
_symmetry_space_group_name_H-M "C 2/M"
_symmetry_group_IT_number 12
_symmetry_cell_setting 'monoclinic'
loop_
_space_group_symop_operation_xyz
x,y,z
-x,y,-z
-x,-y,-z
x,-y,z
1/2+x,1/2+y,z
1/2-x,1/2+y,-z
1/2-x,1/2-y,-z
1/2+x,1/2-y,z
loop_
_atom_site_type_symbol
_atom_site_label
_atom_site_fract_x
_atom_site_fract_y
_atom_site_fract_z
Si Si1 0.451684 0.789924 0.254928
Si Si2 0.217687 0.080701 0.689307
Si Si3 0.366801 0.305147 0.571529
Si Si4 0.916818 0.075291 0.929361
Si Si5 0.186835 0.310191 0.055192
O O1 0.500000 0.815358 0.500000
O O2 0.421211 0.712460 0.341613
O O3 0.500000 0.789772 0.000000
O O4 0.374120 0.822367 0.158573
O O5 0.203051 0.146665 0.497485
O O6 0.276977 0.114674 0.874478
O O7 0.235928 0.000000 0.600387
O O8 0.141192 0.076153 0.841953
O O9 0.406052 0.355013 0.767559
O O10 0.350190 0.229311 0.702977
O O11 0.900683 0.000000 0.784721
O O12 0.000000 0.072501 0.000000
O O13 0.250000 0.250000 0.000000
#
# Coordination Sequence:
#
# PCOD9216648 Si02
#       5
#     8   8   8   8   8
#     4  12  27  44  70 108 138 179 234 297 351 408
#     4  11  25  42  63 100 145 185 231 286 350 415
#     4  12  23  38  71  97 141 177 235 285 340 415
#     4  10  23  39  58  93 145 193 228 271 337 423
#     4  12  24  43  69 103 138 184 237 290 346 411
#
# _framework density 22.108781
#
# number of rings (size 3 to 8) (size 9 to 14) (size 15 to 20)
#    0.000    0.600    6.000    1.200    5.600    0.000 
#    0.000    3.000    0.000    3.000    0.000    0.000 
#    0.000    0.000    0.000    0.000    0.000    0.000 
#
# Total GULP energy -111547.169967 kJ/mol
# GULP energy per Si atom -5577.358498 kJ/mol
# Density = 2.205846 g / cm^3
# Si number density = 22.108781 Si / 1000 Ang^3
#
#
#
# Elastic Constant Matrix: (Units=GPa)
#
#
# Indices 1 2 3 4 5 6 
#
# 1 118.6038 18.5526 38.4560 0.0000 28.8251 0.0000
# 2 18.5526 62.1871 8.8731 0.0000 12.5058 0.0000
# 3 38.4560 8.8731 93.5271 0.0000 18.5267 0.0000
# 4 0.0000 0.0000 0.0000 96.3083 0.0000 242.9363
# 5 28.8251 12.5058 18.5267 0.0000 42.5323 0.0000
# 6 0.0000 0.0000 0.0000 242.9363 0.0000 535.0993
#
#
#
# Elastic Compliance Matrix: (Units=1/GPa)
#
#
# Indices 1 2 3 4 5 6 
#
# 1 0.011134 -0.001724 -0.003305 0.000000 -0.005599 0.000000
# 2 -0.001724 0.017398 -0.000175 0.000000 -0.003871 0.000000
# 3 -0.003305 -0.000175 0.012711 0.000000 -0.003245 0.000000
# 4 0.000000 0.000000 0.000000 -0.071504 0.000000 0.032463
# 5 -0.005599 -0.003871 -0.003245 0.000000 0.029858 0.000000
# 6 0.000000 0.000000 0.000000 0.032463 0.000000 -0.012869
#
#
# Mechanical properties :
#
#
# Convention : Reuss Voigt Hill
#
# Bulk Modulus (GPa) = 32.43174 45.12017 38.77596
# Shear Modulus (GPa) = 674.46514 148.68372 411.57443
#
# Velocity S-wave (km/s) = 17.48511 8.20957 13.65880
# Velocity P-wave (km/s) = 20.55090 10.50310 16.31954
#
# Compressibility (1/GPa) = 0.03083399
#
# Stress axis : x y z
#
# Youngs Moduli (GPa) = 89.81896 57.47709 78.67498
#
# Poissons Ratio (x) = 0.09909 0.26004
# Poissons Ratio (y) = 0.15485 0.01376
# Poissons Ratio (z) = 0.29687 0.01006
#
# Static dielectric constant tensor:
#      x y z
#    x 1.910270 0.000000 0.016700 
#    y 0.000000 1.811860 0.000000 
#    z 0.016700 0.000000 1.973300 
# 
# From -- ./inp_files/15206.got.cif
#   From: 2010.05.17/outbox.cif.g08.bks.cpg/sg12_8_cif.got.tgz:15206.got - 2010.06.03 13:09:07.
