data_PCOD9216691
_publ_section_title
;
Structure prediction by ZEFSAII (Michael W. Deem and Ramdas Pophale) SiO2 
 PCOD9216691
Probable space group: C 2/M
;
_chemical_formula_sum "Si O2"
_cell_formula_units_Z 44
_cell_length_a 18.275098
_cell_length_b 27.129992
_cell_length_c 5.259854
_cell_angle_alpha 90.000000
_cell_angle_beta 50.492660
_cell_angle_gamma 90.000000
_cell_volume 2012.070790
_symmetry_space_group_name_H-M "C 2/M"
_symmetry_group_IT_number 12
_symmetry_cell_setting 'monoclinic'
loop_
_space_group_symop_operation_xyz
x,y,z
-x,y,-z
-x,-y,-z
x,-y,z
1/2+x,1/2+y,z
1/2-x,1/2+y,-z
1/2-x,1/2-y,-z
1/2+x,1/2-y,z
loop_
_atom_site_type_symbol
_atom_site_label
_atom_site_fract_x
_atom_site_fract_y
_atom_site_fract_z
Si Si1 0.936485 0.000000 0.390246
Si Si2 0.583372 0.149152 0.494257
Si Si3 0.274786 0.424363 0.647067
Si Si4 0.404379 0.754038 0.279199
Si Si5 0.337510 0.946537 0.586192
Si Si6 0.760872 0.687063 0.218463
O O1 0.869617 0.048412 0.527272
O O2 0.000000 0.000000 0.500000
O O3 0.000000 0.000000 0.000000
O O4 0.500000 0.130733 0.500000
O O5 0.548471 0.200540 0.677940
O O6 0.604645 0.102298 0.620327
O O7 0.681436 0.168157 0.152778
O O8 0.243791 0.447254 0.446844
O O9 0.276101 0.365526 0.594643
O O10 0.201052 0.436511 0.041934
O O11 0.330683 0.721668 0.605150
O O12 0.336658 0.781668 0.220286
O O13 0.500000 0.723822 0.000000
O O14 0.385804 0.000000 0.477017
#
# Coordination Sequence:
#
# PCOD9216691 Si02
#       6
#     4   8   8   8   8   8
#     4  12  24  40  66  94 129 168 215 276 334 386
#     4  11  22  38  62  93 133 171 220 275 335 398
#     4  11  22  42  64  93 127 171 221 264 327 400
#     4  11  21  40  64  92 129 165 227 271 336 397
#     4  11  21  39  66  93 127 171 218 265 325 395
#     4  10  23  39  64  91 125 179 215 274 334 399
#
# _framework density 21.868020000000001
#
# number of rings (size 3 to 8) (size 9 to 14) (size 15 to 20)
#    0.000    1.091    5.455    1.636    0.000    1.091 
#    0.000    0.909    0.000    3.818    0.000    0.000 
#    0.000    0.000    0.000    0.000    0.000    0.000 
#
# Total GULP energy -122524.714633 kJ/mol
# GULP energy per Si atom -5569.305211 kJ/mol
# Density = 2.181825 g / cm^3
# Si number density = 21.868020 Si / 1000 Ang^3
#
#
#
# Elastic Constant Matrix: (Units=GPa)
#
#
# Indices 1 2 3 4 5 6 
#
# 1 106.3941 23.3855 8.3442 0.0000 -11.2033 0.0000
# 2 23.3855 131.2494 20.5144 0.0000 -11.7113 0.0000
# 3 8.3442 20.5144 75.4059 0.0000 -14.9820 0.0000
# 4 0.0000 0.0000 0.0000 1.7038 0.0000 4.2463
# 5 -11.2033 -11.7113 -14.9820 0.0000 36.4309 0.0000
# 6 0.0000 0.0000 0.0000 4.2463 0.0000 26.0336
#
#
#
# Elastic Compliance Matrix: (Units=1/GPa)
#
#
# Indices 1 2 3 4 5 6 
#
# 1 0.010015 -0.001530 -0.000194 0.000000 0.002508 0.000000
# 2 -0.001530 0.008303 -0.001800 0.000000 0.001458 0.000000
# 3 -0.000194 -0.001800 0.014860 0.000000 0.005473 0.000000
# 4 0.000000 0.000000 0.000000 0.988980 0.000000 -0.161313
# 5 0.002508 0.001458 0.005473 0.000000 0.030940 0.000000
# 6 0.000000 0.000000 0.000000 -0.161313 0.000000 0.064724
#
#
# Mechanical properties :
#
#
# Convention : Reuss Voigt Hill
#
# Bulk Modulus (GPa) = 38.26934 46.39307 42.33120
# Shear Modulus (GPa) = 4.41081 30.22069 17.31575
#
# Velocity S-wave (km/s) = 1.42176 3.72150 2.81700
# Velocity P-wave (km/s) = 4.49815 6.30295 5.47542
#
# Compressibility (1/GPa) = 0.02613058
#
# Stress axis : x y z
#
# Youngs Moduli (GPa) = 99.85349 120.43557 67.29470
#
# Poissons Ratio (x) = 0.18430 0.01302
# Poissons Ratio (y) = 0.15281 0.12112
# Poissons Ratio (z) = 0.01932 0.21676
#
# Static dielectric constant tensor:
#      x y z
#    x 1.809670 0.000000 0.050490 
#    y 0.000000 1.836120 0.000000 
#    z 0.050490 0.000000 1.906800 
# 
# From -- ./inp_files/12131.got.cif
#   From: 2010.05.17/outbox.cif.g08.bks.cpg/sg12_7_cif.got.tgz:12131.got - 2010.06.03 13:09:07.
