data_PCOD9216418
_publ_section_title
;
Structure prediction by ZEFSAII (Michael W. Deem and Ramdas Pophale) SiO2 
 PCOD9216418
Probable space group: C 2/M
;
_chemical_formula_sum "Si O2"
_cell_formula_units_Z 48
_cell_length_a 15.035331
_cell_length_b 12.342597
_cell_length_c 20.121974
_cell_angle_alpha 90.000000
_cell_angle_beta 38.397933
_cell_angle_gamma 90.000000
_cell_volume 2319.344685
_symmetry_space_group_name_H-M "C 2/M"
_symmetry_group_IT_number 12
_symmetry_cell_setting 'monoclinic'
loop_
_space_group_symop_operation_xyz
x,y,z
-x,y,-z
-x,-y,-z
x,-y,z
1/2+x,1/2+y,z
1/2-x,1/2+y,-z
1/2-x,1/2-y,-z
1/2+x,1/2-y,z
loop_
_atom_site_type_symbol
_atom_site_label
_atom_site_fract_x
_atom_site_fract_y
_atom_site_fract_z
Si Si1 0.594814 0.739189 0.313130
Si Si2 0.410730 0.500000 0.665898
Si Si3 0.700612 0.500000 0.408489
Si Si4 0.296252 0.738304 0.548066
Si Si5 0.409767 0.869262 0.819546
Si Si6 0.375731 0.715035 0.234281
Si Si7 0.084535 0.124590 0.012998
O O1 0.591105 0.612463 0.294016
O O2 0.468033 0.750290 0.442347
O O3 0.567988 0.819269 0.267511
O O4 0.747166 0.758019 0.258700
O O5 0.549944 0.500000 0.536874
O O6 0.294951 0.500000 0.674080
O O7 0.751341 0.617938 0.401069
O O8 0.250000 0.750000 0.500000
O O9 0.210259 0.815885 0.648180
O O10 0.515495 0.811484 0.809401
O O11 0.427534 0.000000 0.809596
O O12 0.245067 0.835546 0.931597
O O13 0.479925 0.631709 0.136867
O O14 0.109685 0.000000 0.979441
O O15 0.000000 0.177093 0.000000
#
# Coordination Sequence:
#
# PCOD9216418 Si02
#       7
#     8   4   4   8   8   8   8
#     4  11  22  40  65  99 134 176 219 268 326 399
#     4   9  18  34  60  88 124 170 216 258 316 387
#     4   9  18  34  58  83 120 180 210 249 323 388
#     4  11  22  38  59  97 137 172 212 267 325 402
#     4  11  25  44  70  98 130 176 223 272 336 397
#     4  12  23  39  70  96 129 173 224 270 327 394
#     4  10  22  45  70  91 126 178 227 274 336 398
#
# _framework density 20.695502000000001
#
# number of rings (size 3 to 8) (size 9 to 14) (size 15 to 20)
#    0.000    1.333    5.000    1.000    2.333    0.000 
#    3.000    0.000    1.833    3.500    0.000    0.000 
#    0.000    0.000    0.000    0.000    0.000    0.000 
#
# Total GULP energy -133701.959456 kJ/mol
# GULP energy per Si atom -5570.914977 kJ/mol
# Density = 2.064840 g / cm^3
# Si number density = 20.695502 Si / 1000 Ang^3
#
#
#
# Elastic Constant Matrix: (Units=GPa)
#
#
# Indices 1 2 3 4 5 6 
#
# 1 89.7233 19.3684 6.8027 0.0000 -20.8851 0.0000
# 2 19.3684 29.8206 -7.0082 0.0000 -3.4952 0.0000
# 3 6.8027 -7.0082 95.3203 -0.0001 -20.9665 0.0000
# 4 0.0000 0.0000 -0.0001 31.2402 0.0000 3.4648
# 5 -20.8851 -3.4952 -20.9665 0.0000 40.7528 0.0000
# 6 0.0000 0.0000 0.0000 3.4648 0.0000 19.8579
#
#
#
# Elastic Compliance Matrix: (Units=1/GPa)
#
#
# Indices 1 2 3 4 5 6 
#
# 1 0.014591 -0.008757 -0.000232 0.000000 0.006607 0.000000
# 2 -0.008757 0.040216 0.003781 0.000000 0.000907 0.000000
# 3 -0.000232 0.003781 0.012213 0.000000 0.006489 0.000000
# 4 0.000000 0.000000 0.000000 0.032642 0.000000 -0.005695
# 5 0.006607 0.000907 0.006489 0.000000 0.031340 0.000000
# 6 0.000000 0.000000 0.000000 -0.005695 0.000000 0.051352
#
#
# Mechanical properties :
#
#
# Convention : Reuss Voigt Hill
#
# Bulk Modulus (GPa) = 17.66620 28.13220 22.89920
# Shear Modulus (GPa) = 23.62527 31.41695 27.52111
#
# Velocity S-wave (km/s) = 3.38237 3.90045 3.65061
# Velocity P-wave (km/s) = 4.87942 5.82302 5.37198
#
# Compressibility (1/GPa) = 0.05660526
#
# Stress axis : x y z
#
# Youngs Moduli (GPa) = 68.53369 24.86548 81.88172
#
# Poissons Ratio (x) = 0.21775 0.01898
# Poissons Ratio (y) = 0.60015 -0.30961
# Poissons Ratio (z) = 0.01589 -0.09402
#
# Static dielectric constant tensor:
#      x y z
#    x 1.831160 0.000000 -0.089340 
#    y 0.000000 1.746890 0.000000 
#    z -0.089340 0.000000 1.813190 
# 
# From -- ./inp_files/310225.got.cif
#   From: 2010.05.17/outbox.cif.g08.bks.cpg/sg12_156_cif.got.tgz:310225.got - 2010.06.03 13:09:07.
