data_PCOD9216298
_publ_section_title
;
Structure prediction by ZEFSAII (Michael W. Deem and Ramdas Pophale) SiO2 
 PCOD9216298
Probable space group: C 2/M
;
_chemical_formula_sum "Si O2"
_cell_formula_units_Z 32
_cell_length_a 13.519802
_cell_length_b 11.064238
_cell_length_c 16.481578
_cell_angle_alpha 90.000000
_cell_angle_beta 34.588847
_cell_angle_gamma 90.000000
_cell_volume 1399.577352
_symmetry_space_group_name_H-M "C 2/M"
_symmetry_group_IT_number 12
_symmetry_cell_setting 'monoclinic'
loop_
_space_group_symop_operation_xyz
x,y,z
-x,y,-z
-x,-y,-z
x,-y,z
1/2+x,1/2+y,z
1/2-x,1/2+y,-z
1/2-x,1/2-y,-z
1/2+x,1/2-y,z
loop_
_atom_site_type_symbol
_atom_site_label
_atom_site_fract_x
_atom_site_fract_y
_atom_site_fract_z
Si Si1 0.656465 0.367700 0.601557
Si Si2 0.807884 0.284745 0.661421
Si Si3 0.677223 0.778485 0.170546
Si Si4 0.022454 0.634253 0.110209
O O1 0.696720 0.500000 0.539045
O O2 0.750000 0.250000 0.500000
O O3 0.717304 0.365569 0.653970
O O4 0.452454 0.336814 0.734348
O O5 0.820281 0.338836 0.743130
O O6 0.679109 0.170708 0.755487
O O7 0.000000 0.254544 0.500000
O O8 0.593409 0.855019 0.154500
O O9 0.864625 0.731338 0.015778
O O10 0.051484 0.500000 0.060206
#
# Coordination Sequence:
#
# PCOD9216298 Si02
#       4
#     8   8   8   8
#     4  11  24  43  66  96 133 173 219 272 329 390
#     4  11  23  42  61  99 129 170 214 273 322 394
#     4  10  22  44  64  93 133 168 220 272 327 386
#     4  10  23  41  66  93 128 176 220 267 326 390
#
# _framework density 22.864045999999998
#
# number of rings (size 3 to 8) (size 9 to 14) (size 15 to 20)
#    0.000    1.500    2.500    1.500    0.000    9.000 
#    0.000    0.000    0.000    9.000    0.000    0.000 
#    0.000    0.000    0.000    0.000    0.000    0.000 
#
# Total GULP energy -89425.210755 kJ/mol
# GULP energy per Si atom -5589.075672 kJ/mol
# Density = 2.281201 g / cm^3
# Si number density = 22.864046 Si / 1000 Ang^3
#
#
#
# Elastic Constant Matrix: (Units=GPa)
#
#
# Indices 1 2 3 4 5 6 
#
# 1 126.0194 5.9697 24.4308 0.0003 22.2200 -0.0001
# 2 5.9697 96.8638 14.2265 0.0004 2.1172 -0.0002
# 3 24.4308 14.2265 99.5451 0.0009 -0.1170 -0.0005
# 4 0.0003 0.0004 0.0009 14.3127 -0.0003 6.1774
# 5 22.2200 2.1172 -0.1170 -0.0003 50.1102 0.0001
# 6 -0.0001 -0.0002 -0.0005 6.1774 0.0001 -11.6755
#
#
#
# Elastic Compliance Matrix: (Units=1/GPa)
#
#
# Indices 1 2 3 4 5 6 
#
# 1 0.009081 -0.000147 -0.002212 0.000000 -0.004026 0.000000
# 2 -0.000147 0.010558 -0.001473 0.000000 -0.000384 0.000000
# 3 -0.002212 -0.001473 0.010800 0.000000 0.001069 -0.000001
# 4 0.000000 0.000000 0.000000 0.056879 0.000000 0.030094
# 5 -0.004026 -0.000384 0.001069 0.000000 0.021760 0.000000
# 6 0.000000 0.000000 -0.000001 0.030094 0.000000 -0.069727
#
#
# Mechanical properties :
#
#
# Convention : Reuss Voigt Hill
#
# Bulk Modulus (GPa) = 43.90942 45.74246 44.82594
# Shear Modulus (GPa) = 91.56260 29.06957 60.31608
#
# Velocity S-wave (km/s) = 6.33510 3.56955 5.14175
# Velocity P-wave (km/s) = 8.52980 6.08594 7.40933
#
# Compressibility (1/GPa) = 0.02277416
#
# Stress axis : x y z
#
# Youngs Moduli (GPa) = 110.12041 94.71854 92.58833
#
# Poissons Ratio (x) = 0.01390 0.20485
# Poissons Ratio (y) = 0.01616 0.13641
# Poissons Ratio (z) = 0.24364 0.13955
#
# Static dielectric constant tensor:
#      x y z
#    x 1.893200 0.000000 0.035510 
#    y 0.000000 1.827770 0.000000 
#    z 0.035510 0.000000 1.860450 
# 
# From -- ./inp_files/56465.got.cif
#   From: 2010.05.17/outbox.cif.g08.bks.cpg/sg12_29_cif.got.tgz:56465.got - 2010.06.03 13:09:07.
