data_PCOD9216557
_publ_section_title
;
Structure prediction by ZEFSAII (Michael W. Deem and Ramdas Pophale) SiO2 
 PCOD9216557
Probable space group: C 2/M
;
_chemical_formula_sum "Si O2"
_cell_formula_units_Z 64
_cell_length_a 9.979173
_cell_length_b 28.487289
_cell_length_c 14.568285
_cell_angle_alpha 90.000000
_cell_angle_beta 132.976977
_cell_angle_gamma 90.000000
_cell_volume 3030.011207
_symmetry_space_group_name_H-M "C 2/M"
_symmetry_group_IT_number 12
_symmetry_cell_setting 'monoclinic'
loop_
_space_group_symop_operation_xyz
x,y,z
-x,y,-z
-x,-y,-z
x,-y,z
1/2+x,1/2+y,z
1/2-x,1/2+y,-z
1/2-x,1/2-y,-z
1/2+x,1/2-y,z
loop_
_atom_site_type_symbol
_atom_site_label
_atom_site_fract_x
_atom_site_fract_y
_atom_site_fract_z
Si Si1 0.753363 0.804393 0.739803
Si Si2 0.136351 0.648956 0.142094
Si Si3 0.050007 0.769963 0.417720
Si Si4 0.156176 0.209771 0.894755
Si Si5 0.002757 0.880338 0.391149
Si Si6 0.701115 0.553737 0.140330
Si Si7 0.697167 0.855020 0.898300
Si Si8 0.706903 0.902280 0.621173
O O1 0.595488 0.767297 0.687742
O O2 0.781536 0.828633 0.851207
O O3 0.695782 0.847342 0.646999
O O4 0.939744 0.782091 0.786671
O O5 0.221444 0.695897 0.135773
O O6 0.299904 0.615800 0.252244
O O7 0.005162 0.661246 0.166039
O O8 0.000000 0.628814 0.000000
O O9 0.250000 0.750000 0.500000
O O10 0.000000 0.768693 0.500000
O O11 0.042837 0.824995 0.393293
O O12 0.250000 0.250000 0.000000
O O13 0.173740 0.160012 0.957604
O O14 0.000000 0.889557 0.500000
O O15 0.156287 0.906260 0.401881
O O16 0.761775 0.500000 0.162697
O O17 0.815837 0.590881 0.134400
O O18 0.714698 0.570694 0.252603
O O19 0.500000 0.556996 0.000000
O O20 0.500000 0.917465 0.500000
#
# Coordination Sequence:
#
# PCOD9216557 Si02
#       8
#     8   8   8   8   8   8   8   8
#     4  11  22  37  61  85 126 177 235 279 331 392
#     4  10  24  41  61  91 132 180 220 282 336 402
#     4  11  25  37  52  78 121 176 232 279 314 379
#     4  11  24  39  58  93 136 185 232 278 331 398
#     4  11  25  41  62  92 135 184 232 275 344 410
#     4  10  23  45  76 107 135 169 222 286 351 423
#     4  10  23  37  64  94 130 168 218 276 339 400
#     4  11  23  43  69  99 132 175 228 286 346 420
#
# _framework density 21.122033999999999
#
# number of rings (size 3 to 8) (size 9 to 14) (size 15 to 20)
#    0.000    1.375    1.250    3.750   14.000    1.250 
#    0.000    0.000    0.000    4.500    0.000    0.000 
#    0.000    0.000    0.000    0.000    0.000    0.000 
#
# Total GULP energy -178635.098006 kJ/mol
# GULP energy per Si atom -5582.346813 kJ/mol
# Density = 2.107396 g / cm^3
# Si number density = 21.122034 Si / 1000 Ang^3
#
#
#
# Elastic Constant Matrix: (Units=GPa)
#
#
# Indices 1 2 3 4 5 6 
#
# 1 158.1125 35.2424 43.9445 0.0000 13.5252 0.0000
# 2 35.2424 90.8371 25.6449 0.0000 -4.1883 0.0000
# 3 43.9445 25.6449 124.9572 0.0000 9.2711 0.0000
# 4 0.0000 0.0000 0.0000 13.0030 0.0000 0.7968
# 5 13.5252 -4.1883 9.2711 0.0000 38.8694 0.0000
# 6 0.0000 0.0000 0.0000 0.7968 0.0000 10.5044
#
#
#
# Elastic Compliance Matrix: (Units=1/GPa)
#
#
# Indices 1 2 3 4 5 6 
#
# 1 0.007650 -0.002519 -0.001991 0.000000 -0.002458 0.000000
# 2 -0.002519 0.012650 -0.001910 0.000000 0.002695 0.000000
# 3 -0.001991 -0.001910 0.009222 0.000000 -0.001713 0.000000
# 4 0.000000 0.000000 0.000000 0.077264 0.000000 -0.005861
# 5 -0.002458 0.002695 -0.001713 0.000000 0.027282 0.000000
# 6 0.000000 0.000000 0.000000 -0.005861 0.000000 0.095643
#
#
# Mechanical properties :
#
#
# Convention : Reuss Voigt Hill
#
# Bulk Modulus (GPa) = 59.94824 64.84117 62.39470
# Shear Modulus (GPa) = 20.15228 30.41370 25.28299
#
# Velocity S-wave (km/s) = 3.09218 3.79872 3.46352
# Velocity P-wave (km/s) = 6.41812 7.07145 6.75269
#
# Compressibility (1/GPa) = 0.01668106
#
# Stress axis : x y z
#
# Youngs Moduli (GPa) = 130.72339 79.05369 108.43706
#
# Poissons Ratio (x) = 0.19915 0.21588
# Poissons Ratio (y) = 0.32932 0.20713
# Poissons Ratio (z) = 0.26025 0.15100
#
# Static dielectric constant tensor:
#      x y z
#    x 1.787520 0.000000 -0.023120 
#    y 0.000000 1.760060 0.000000 
#    z -0.023120 0.000000 1.866750 
# 
# From -- ./inp_files/201328.got.cif
#   From: 2010.05.17/outbox.cif.g08.bks.cpg/sg12_101_cif.got.tgz:201328.got - 2010.06.03 13:09:07.
