data_PCOD9216395
_publ_section_title
;
Structure prediction by ZEFSAII (Michael W. Deem and Ramdas Pophale) SiO2 
 PCOD9216395
Probable space group: C 2/M
;
_chemical_formula_sum "Si O2"
_cell_formula_units_Z 52
_cell_length_a 8.826752
_cell_length_b 15.284597
_cell_length_c 31.293210
_cell_angle_alpha 90.000000
_cell_angle_beta 146.503718
_cell_angle_gamma 90.000000
_cell_volume 2329.978682
_symmetry_space_group_name_H-M "C 2/M"
_symmetry_group_IT_number 12
_symmetry_cell_setting 'monoclinic'
loop_
_space_group_symop_operation_xyz
x,y,z
-x,y,-z
-x,-y,-z
x,-y,z
1/2+x,1/2+y,z
1/2-x,1/2+y,-z
1/2-x,1/2-y,-z
1/2+x,1/2-y,z
loop_
_atom_site_type_symbol
_atom_site_label
_atom_site_fract_x
_atom_site_fract_y
_atom_site_fract_z
Si Si1 0.407143 0.000000 0.276296
Si Si2 0.788296 0.099273 0.989420
Si Si3 0.668146 0.278067 0.925712
Si Si4 0.093755 0.660450 0.472680
Si Si5 0.477470 0.500000 0.567717
Si Si6 0.137317 0.182924 0.232956
Si Si7 0.230732 0.000000 0.717164
Si Si8 0.500800 0.332495 0.295220
O O1 0.242015 0.914349 0.249356
O O2 0.493629 0.000000 0.246374
O O3 0.703141 0.000000 0.369660
O O4 0.605653 0.182143 0.930912
O O5 0.678185 0.000000 0.971130
O O6 0.916457 0.142236 0.062581
O O7 0.000000 0.091051 0.000000
O O8 0.537485 0.287460 0.848807
O O9 0.000000 0.284230 0.000000
O O10 0.250000 0.750000 0.500000
O O11 0.310098 0.584120 0.514743
O O12 0.000000 0.657066 0.500000
O O13 0.817570 0.649597 0.380384
O O14 0.500654 0.500000 0.625309
O O15 0.396120 0.248285 0.296172
O O16 0.982458 0.187433 0.241066
O O17 0.184239 0.914152 0.734082
#
# Coordination Sequence:
#
# PCOD9216395 Si02
#       8
#     4   8   8   8   4   8   4   8
#     4  10  23  48  68  99 141 185 234 287 358 410
#     4   9  20  42  71 101 129 169 235 276 340 421
#     4  10  24  45  69  99 138 180 227 293 341 410
#     4  12  22  40  69 100 135 182 234 286 340 410
#     4  10  22  44  74  97 135 184 236 293 337 408
#     4  12  27  45  68 102 149 184 230 295 353 427
#     4  10  22  49  70  97 134 184 237 288 343 426
#     4  12  25  43  68 104 140 187 228 285 360 418
#
# _framework density 22.317802
#
# number of rings (size 3 to 8) (size 9 to 14) (size 15 to 20)
#    0.462    0.769    1.538    3.923    7.538    0.308 
#    1.385    1.154    0.000    0.000    0.000    0.000 
#    0.000    0.000    0.000    0.000    0.000    0.000 
#
# Total GULP energy -145353.277718 kJ/mol
# GULP energy per Si atom -5590.510681 kJ/mol
# Density = 2.226701 g / cm^3
# Si number density = 22.317802 Si / 1000 Ang^3
#
#
#
# Elastic Constant Matrix: (Units=GPa)
#
#
# Indices 1 2 3 4 5 6 
#
# 1 73.7677 21.7678 -2.1921 0.0002 -10.2709 0.0001
# 2 21.7678 172.5220 -9.5962 0.0000 -0.7530 0.0000
# 3 -2.1921 -9.5962 68.8336 0.0003 -7.0298 0.0000
# 4 0.0002 0.0000 0.0003 11.8951 0.0002 -0.7015
# 5 -10.2709 -0.7530 -7.0298 0.0002 30.6970 0.0001
# 6 0.0001 0.0000 0.0000 -0.7015 0.0001 37.4858
#
#
#
# Elastic Compliance Matrix: (Units=1/GPa)
#
#
# Indices 1 2 3 4 5 6 
#
# 1 0.014819 -0.001806 0.000739 0.000000 0.005083 0.000000
# 2 -0.001806 0.006065 0.000759 0.000000 -0.000282 0.000000
# 3 0.000739 0.000759 0.015036 0.000000 0.003709 0.000000
# 4 0.000000 0.000000 0.000000 0.084161 -0.000001 0.001575
# 5 0.005083 -0.000282 0.003709 -0.000001 0.035120 0.000000
# 6 0.000000 0.000000 0.000000 0.001575 0.000000 0.026706
#
#
# Mechanical properties :
#
#
# Convention : Reuss Voigt Hill
#
# Bulk Modulus (GPa) = 28.32521 37.23136 32.77828
# Shear Modulus (GPa) = 25.73451 36.35849 31.04650
#
# Velocity S-wave (km/s) = 3.39941 4.04062 3.73380
# Velocity P-wave (km/s) = 5.30351 6.20382 5.77125
#
# Compressibility (1/GPa) = 0.03530424
#
# Stress axis : x y z
#
# Youngs Moduli (GPa) = 67.48165 164.87249 66.50700
#
# Poissons Ratio (x) = 0.29783 -0.04916
# Poissons Ratio (y) = 0.12190 -0.05050
# Poissons Ratio (z) = -0.04988 -0.12518
#
# Static dielectric constant tensor:
#      x y z
#    x 1.827080 0.000000 -0.008460 
#    y 0.000000 1.798690 0.000000 
#    z -0.008460 0.000000 1.837610 
# 
# From -- ./inp_files/372678.got.cif
#   From: 2010.05.17/outbox.cif.g08.bks.cpg/sg12_187_cif.got.tgz:372678.got - 2010.06.03 13:09:07.
