data_PCOD9216413
_publ_section_title
;
Structure prediction by ZEFSAII (Michael W. Deem and Ramdas Pophale) SiO2 
 PCOD9216413
Probable space group: C 2/M
;
_chemical_formula_sum "Si O2"
_cell_formula_units_Z 56
_cell_length_a 9.706629
_cell_length_b 22.576787
_cell_length_c 19.540489
_cell_angle_alpha 90.000000
_cell_angle_beta 137.528104
_cell_angle_gamma 90.000000
_cell_volume 2891.457079
_symmetry_space_group_name_H-M "C 2/M"
_symmetry_group_IT_number 12
_symmetry_cell_setting 'monoclinic'
loop_
_space_group_symop_operation_xyz
x,y,z
-x,y,-z
-x,-y,-z
x,-y,z
1/2+x,1/2+y,z
1/2-x,1/2+y,-z
1/2-x,1/2-y,-z
1/2+x,1/2-y,z
loop_
_atom_site_type_symbol
_atom_site_label
_atom_site_fract_x
_atom_site_fract_y
_atom_site_fract_z
Si Si1 0.559825 0.433566 0.237963
Si Si2 0.965119 0.569777 0.620507
Si Si3 0.801673 0.648664 0.680176
Si Si4 0.231293 0.268784 0.571755
Si Si5 0.546095 0.796212 0.127857
Si Si6 0.908632 0.888618 0.608120
Si Si7 0.337250 0.317058 0.108294
O O1 0.514859 0.500000 0.195956
O O2 0.521545 0.430802 0.305446
O O3 0.434388 0.381312 0.156070
O O4 0.802065 0.422199 0.317827
O O5 0.931237 0.500000 0.619178
O O6 0.924968 0.606816 0.674438
O O7 0.801185 0.591712 0.504338
O O8 0.778373 0.712439 0.635453
O O9 0.579414 0.621014 0.613326
O O10 0.899542 0.660661 0.789855
O O11 0.250000 0.250000 0.500000
O O12 0.373994 0.325242 0.632179
O O13 0.000000 0.287396 0.500000
O O14 0.501089 0.731344 0.142835
O O15 0.724313 0.795774 0.136492
O O16 0.341342 0.817081 0.014096
#
# Coordination Sequence:
#
# PCOD9216413 Si02
#       7
#     8   8   8   8   8   8   8
#     4  11  24  43  67  93 124 171 217 258 318 379
#     4  11  25  42  61  87 125 170 216 259 303 378
#     4  12  24  39  59  93 128 165 209 260 321 376
#     4  12  22  36  55  89 128 165 205 255 315 372
#     4  10  23  41  68 101 125 161 208 262 330 378
#     4  12  23  40  62  88 127 170 211 260 312 375
#     4  10  22  45  69  97 128 160 208 268 324 383
#
# _framework density 19.367395999999999
#
# number of rings (size 3 to 8) (size 9 to 14) (size 15 to 20)
#    0.000    0.857    4.286    3.000    2.000    2.857 
#    0.000    2.143    0.000    1.714    0.000    0.000 
#    0.000    0.000    0.000    0.000    0.000    0.000 
#
# Total GULP energy -156582.156567 kJ/mol
# GULP energy per Si atom -5592.219877 kJ/mol
# Density = 1.932332 g / cm^3
# Si number density = 19.367396 Si / 1000 Ang^3
#
#
#
# Elastic Constant Matrix: (Units=GPa)
#
#
# Indices 1 2 3 4 5 6 
#
# 1 75.3579 41.0602 24.6653 0.0000 -4.9394 0.0000
# 2 41.0602 124.9636 47.8145 0.0000 2.8800 0.0000
# 3 24.6653 47.8145 89.1363 0.0000 -12.4539 0.0000
# 4 0.0000 0.0000 0.0000 22.1283 0.0000 10.7517
# 5 -4.9394 2.8800 -12.4539 0.0000 25.7800 0.0000
# 6 0.0000 0.0000 0.0000 10.7517 0.0000 20.2824
#
#
#
# Elastic Compliance Matrix: (Units=1/GPa)
#
#
# Indices 1 2 3 4 5 6 
#
# 1 0.016672 -0.004961 -0.001532 0.000000 0.003009 0.000000
# 2 -0.004961 0.011946 -0.005742 0.000000 -0.005059 0.000000
# 3 -0.001532 -0.005742 0.015841 0.000000 0.008000 0.000000
# 4 0.000000 0.000000 0.000000 0.060869 0.000000 -0.032267
# 5 0.003009 -0.005059 0.008000 0.000000 0.043796 0.000000
# 6 0.000000 0.000000 0.000000 -0.032267 0.000000 0.066408
#
#
# Mechanical properties :
#
#
# Convention : Reuss Voigt Hill
#
# Bulk Modulus (GPa) = 50.02897 57.39310 53.71104
# Shear Modulus (GPa) = 20.27041 25.36600 22.81820
#
# Velocity S-wave (km/s) = 3.23867 3.62294 3.43618
# Velocity P-wave (km/s) = 6.31450 6.87016 6.59818
#
# Compressibility (1/GPa) = 0.01998842
#
# Stress axis : x y z
#
# Youngs Moduli (GPa) = 59.98167 83.70869 63.12893
#
# Poissons Ratio (x) = 0.41530 0.09669
# Poissons Ratio (y) = 0.29758 0.36250
# Poissons Ratio (z) = 0.09187 0.48067
#
# Static dielectric constant tensor:
#      x y z
#    x 1.669260 0.000000 -0.003430 
#    y 0.000000 1.702040 0.000000 
#    z -0.003430 0.000000 1.689910 
# 
# From -- ./inp_files/259231.got.cif
#   From: 2010.05.17/outbox.cif.g08.bks.cpg/sg12_130_cif.got.tgz:259231.got - 2010.06.03 13:09:07.
