data_PCOD9216139
_publ_section_title
;
Structure prediction by ZEFSAII (Michael W. Deem and Ramdas Pophale) SiO2 
 PCOD9216139
Probable space group: C 2/M
;
_chemical_formula_sum "Si O2"
_cell_formula_units_Z 36
_cell_length_a 14.161804
_cell_length_b 23.122525
_cell_length_c 5.581384
_cell_angle_alpha 90.000000
_cell_angle_beta 71.032649
_cell_angle_gamma 90.000000
_cell_volume 1728.426592
_symmetry_space_group_name_H-M "C 2/M"
_symmetry_group_IT_number 12
_symmetry_cell_setting 'monoclinic'
loop_
_space_group_symop_operation_xyz
x,y,z
-x,y,-z
-x,-y,-z
x,-y,z
1/2+x,1/2+y,z
1/2-x,1/2+y,-z
1/2-x,1/2-y,-z
1/2+x,1/2-y,z
loop_
_atom_site_type_symbol
_atom_site_label
_atom_site_fract_x
_atom_site_fract_y
_atom_site_fract_z
Si Si1 0.785519 0.341316 0.060728
Si Si2 0.395750 0.625266 0.446548
Si Si3 0.061992 0.000000 0.703601
Si Si4 0.558225 0.068036 0.205738
Si Si5 0.667707 0.731648 0.763989
O O1 0.703231 0.364654 0.313962
O O2 0.862739 0.294206 0.109379
O O3 0.844271 0.393055 0.892638
O O4 0.723761 0.304727 0.920278
O O5 0.500000 0.621619 0.500000
O O6 0.382471 0.562112 0.337712
O O7 0.405865 0.684188 0.284100
O O8 0.000000 0.000000 0.500000
O O9 0.000000 0.000000 0.000000
O O10 0.500000 0.083074 0.500000
O O11 0.581734 0.000000 0.200972
O O12 0.500000 0.076575 0.000000
O O13 0.750000 0.750000 0.500000
#
# Coordination Sequence:
#
# PCOD9216139 Si02
#       5
#     8   8   4   8   8
#     4  10  22  43  66  97 134 173 223 274 341 395
#     4  10  23  41  66  97 136 176 220 271 334 401
#     4  10  24  42  62  96 138 171 226 269 316 402
#     4  10  24  46  70 100 133 171 228 282 334 395
#     4   9  21  42  62  95 137 169 224 275 321 411
#
# _framework density 20.828192999999999
#
# number of rings (size 3 to 8) (size 9 to 14) (size 15 to 20)
#    0.000    2.222    0.000    0.000   14.000    0.000 
#   14.000    0.000    0.000    0.000    0.000    0.000 
#    0.000    0.000    0.000    0.000    0.000    0.000 
#
# Total GULP energy -100283.980594 kJ/mol
# GULP energy per Si atom -5571.332255 kJ/mol
# Density = 2.078079 g / cm^3
# Si number density = 20.828193 Si / 1000 Ang^3
#
#
#
# Elastic Constant Matrix: (Units=GPa)
#
#
# Indices 1 2 3 4 5 6 
#
# 1 38.9811 55.0469 24.1516 0.0000 -11.8165 0.0000
# 2 55.0469 139.0621 71.9508 0.0000 -19.0152 0.0000
# 3 24.1516 71.9508 136.9460 0.0000 -10.5599 0.0000
# 4 0.0000 0.0000 0.0000 267.6371 0.0000 19.2913
# 5 -11.8165 -19.0152 -10.5599 0.0000 21.9289 0.0000
# 6 0.0000 0.0000 0.0000 19.2913 0.0000 33.1519
#
#
#
# Elastic Compliance Matrix: (Units=1/GPa)
#
#
# Indices 1 2 3 4 5 6 
#
# 1 0.062355 -0.024230 0.002808 0.000000 0.013943 0.000000
# 2 -0.024230 0.020206 -0.006230 0.000000 0.001465 0.000000
# 3 0.002808 -0.006230 0.010157 0.000000 0.001002 0.000000
# 4 0.000000 0.000000 0.000000 0.003900 0.000000 -0.002269
# 5 0.013943 0.001465 0.001002 0.000000 0.054868 0.000000
# 6 0.000000 0.000000 0.000000 -0.002269 0.000000 0.031485
#
#
# Mechanical properties :
#
#
# Convention : Reuss Voigt Hill
#
# Bulk Modulus (GPa) = 26.72639 68.58751 47.65695
# Shear Modulus (GPa) = 19.94049 75.46625 47.70337
#
# Velocity S-wave (km/s) = 3.09751 6.02589 4.79093
# Velocity P-wave (km/s) = 5.06483 9.02313 7.31674
#
# Compressibility (1/GPa) = 0.03741620
#
# Stress axis : x y z
#
# Youngs Moduli (GPa) = 16.03708 49.49058 98.45036
#
# Poissons Ratio (x) = 1.19913 -0.27648
# Poissons Ratio (y) = 0.38857 0.61335
# Poissons Ratio (z) = -0.04504 0.30833
#
# Static dielectric constant tensor:
#      x y z
#    x 1.774940 0.000000 -0.000770 
#    y 0.000000 1.723520 0.000000 
#    z -0.000770 0.000000 2.315850 
# 
# From -- ./inp_files/15716.got.cif
#   From: 2010.05.17/outbox.cif.g08.bks.cpg/sg12_8_cif.got.tgz:15716.got - 2010.06.03 13:09:07.
