data_PCOD9216501
_publ_section_title
;
Structure prediction by ZEFSAII (Michael W. Deem and Ramdas Pophale) SiO2 
 PCOD9216501
Probable space group: C 2/M
;
_chemical_formula_sum "Si O2"
_cell_formula_units_Z 52
_cell_length_a 9.332722
_cell_length_b 26.493078
_cell_length_c 12.785315
_cell_angle_alpha 90.000000
_cell_angle_beta 123.359741
_cell_angle_gamma 90.000000
_cell_volume 2640.344412
_symmetry_space_group_name_H-M "C 2/M"
_symmetry_group_IT_number 12
_symmetry_cell_setting 'monoclinic'
loop_
_space_group_symop_operation_xyz
x,y,z
-x,y,-z
-x,-y,-z
x,-y,z
1/2+x,1/2+y,z
1/2-x,1/2+y,-z
1/2-x,1/2-y,-z
1/2+x,1/2-y,z
loop_
_atom_site_type_symbol
_atom_site_label
_atom_site_fract_x
_atom_site_fract_y
_atom_site_fract_z
Si Si1 0.890477 0.410424 0.555986
Si Si2 0.166290 0.557849 0.235868
Si Si3 0.486865 0.621314 0.615745
Si Si4 0.778919 0.809901 0.004880
Si Si5 0.000000 0.626031 0.000000
Si Si6 0.076621 0.688472 0.718244
Si Si7 0.912469 0.210629 0.740282
O O1 0.889088 0.440446 0.664636
O O2 0.693441 0.406955 0.441248
O O3 0.000000 0.427916 0.500000
O O4 0.963343 0.355490 0.621832
O O5 0.176106 0.500000 0.205209
O O6 0.350321 0.585663 0.297768
O O7 0.037862 0.590369 0.113623
O O8 0.500000 0.635439 0.500000
O O9 0.471234 0.671819 0.675575
O O10 0.663611 0.838324 0.044894
O O11 0.697343 0.829080 0.863782
O O12 0.750000 0.750000 0.000000
O O13 0.978105 0.810355 0.116189
O O14 0.212732 0.708378 0.687805
O O15 0.965165 0.733557 0.723873
#
# Coordination Sequence:
#
# PCOD9216501 Si02
#       7
#     8   8   8   8   4   8   8
#     4  11  23  42  62  93 129 169 215 264 318 382
#     4  11  25  45  70  96 123 164 218 275 332 379
#     4  10  23  39  62  88 125 165 212 258 317 377
#     4  10  23  34  62  92 130 166 210 249 317 378
#     4  12  21  42  70 100 132 162 205 276 318 380
#     4  11  24  37  61  93 132 170 219 256 317 385
#     4  11  23  38  60  91 131 175 209 259 317 388
#
# _framework density 19.694400000000002
#
# number of rings (size 3 to 8) (size 9 to 14) (size 15 to 20)
#    0.000    1.231    4.615    0.692   12.923    4.308 
#    0.000    0.000    0.000    0.000    0.000    4.308 
#    0.000    0.000    0.000    0.000    0.000    0.000 
#
# Total GULP energy -145064.600443 kJ/mol
# GULP energy per Si atom -5579.407709 kJ/mol
# Density = 1.964957 g / cm^3
# Si number density = 19.694400 Si / 1000 Ang^3
#
#
#
# Elastic Constant Matrix: (Units=GPa)
#
#
# Indices 1 2 3 4 5 6 
#
# 1 103.5487 23.3954 10.5042 0.0000 2.5872 0.0000
# 2 23.3954 78.1068 16.5602 0.0000 6.3634 0.0000
# 3 10.5042 16.5602 46.1124 0.0000 10.0269 0.0000
# 4 0.0000 0.0000 0.0000 -7.8934 0.0000 -35.3976
# 5 2.5872 6.3634 10.0269 0.0000 21.0484 0.0000
# 6 0.0000 0.0000 0.0000 -35.3976 0.0000 -43.7582
#
#
#
# Elastic Compliance Matrix: (Units=1/GPa)
#
#
# Indices 1 2 3 4 5 6 
#
# 1 0.010437 -0.002848 -0.001409 0.000000 0.000249 0.000000
# 2 -0.002848 0.014713 -0.004177 0.000000 -0.002108 0.000000
# 3 -0.001409 -0.004177 0.025875 0.000000 -0.010890 0.000000
# 4 0.000000 0.000000 0.000000 0.048214 0.000000 -0.039002
# 5 0.000249 -0.002108 -0.010890 0.000000 0.053304 0.000000
# 6 0.000000 0.000000 0.000000 -0.039002 0.000000 0.008697
#
#
# Mechanical properties :
#
#
# Convention : Reuss Voigt Hill
#
# Bulk Modulus (GPa) = 29.27523 36.52083 32.89803
# Shear Modulus (GPa) = 26.38592 5.69988 16.04290
#
# Velocity S-wave (km/s) = 3.66425 1.70307 2.85720
# Velocity P-wave (km/s) = 5.72707 4.73828 5.25598
#
# Compressibility (1/GPa) = 0.03415857
#
# Stress axis : x y z
#
# Youngs Moduli (GPa) = 95.80887 67.96550 38.64709
#
# Poissons Ratio (x) = 0.19356 0.05446
# Poissons Ratio (y) = 0.27285 0.16142
# Poissons Ratio (z) = 0.13500 0.28387
#
# Static dielectric constant tensor:
#      x y z
#    x 1.745750 0.000000 0.001090 
#    y 0.000000 1.650110 0.000000 
#    z 0.001090 0.000000 1.757990 
# 
# From -- ./inp_files/125399.got.cif
#   From: 2010.05.17/outbox.cif.g08.bks.cpg/sg12_63_cif.got.tgz:125399.got - 2010.06.03 13:09:07.
