data_PCOD9216972
_publ_section_title
;
Structure prediction by ZEFSAII (Michael W. Deem and Ramdas Pophale) SiO2 
 PCOD9216972
Probable space group: C 2/M
;
_chemical_formula_sum "Si O2"
_cell_formula_units_Z 48
_cell_length_a 11.384087
_cell_length_b 14.488621
_cell_length_c 16.742042
_cell_angle_alpha 90.000000
_cell_angle_beta 52.249379
_cell_angle_gamma 90.000000
_cell_volume 2183.413809
_symmetry_space_group_name_H-M "C 2/M"
_symmetry_group_IT_number 12
_symmetry_cell_setting 'monoclinic'
loop_
_space_group_symop_operation_xyz
x,y,z
-x,y,-z
-x,-y,-z
x,-y,z
1/2+x,1/2+y,z
1/2-x,1/2+y,-z
1/2-x,1/2-y,-z
1/2+x,1/2-y,z
loop_
_atom_site_type_symbol
_atom_site_label
_atom_site_fract_x
_atom_site_fract_y
_atom_site_fract_z
Si Si1 0.846731 0.390656 0.183121
Si Si2 0.428456 0.611239 0.273885
Si Si3 0.723100 0.277878 0.101929
Si Si4 0.546388 0.389075 0.393892
Si Si5 0.092205 0.388902 0.386631
Si Si6 0.593692 0.106965 0.213191
O O1 0.828727 0.500000 0.176562
O O2 0.839096 0.341250 0.101255
O O3 0.704765 0.356920 0.293928
O O4 0.986692 0.378986 0.182263
O O5 0.450770 0.500000 0.251866
O O6 0.564764 0.668505 0.179136
O O7 0.434974 0.627614 0.366960
O O8 0.264884 0.638888 0.313607
O O9 0.721239 0.180783 0.148907
O O10 0.750000 0.250000 0.000000
O O11 0.500000 0.354265 0.500000
O O12 0.560100 0.500000 0.395858
O O13 0.097113 0.500000 0.393458
O O14 0.020917 0.371392 0.329517
O O15 0.000000 0.352903 0.500000
O O16 0.640128 0.000000 0.195379
#
# Coordination Sequence:
#
# PCOD9216972 Si02
#       6
#     8   8   8   8   8   8
#     4   9  20  40  63  90 125 161 207 264 316 377
#     4   9  19  37  61  93 128 163 212 265 313 381
#     4  11  24  41  65  89 121 163 215 271 332 375
#     4   8  14  26  53  88 119 156 198 246 306 371
#     4   9  19  37  63  92 128 173 208 248 318 390
#     4  10  23  41  62  91 127 165 211 261 311 384
#
# _framework density 21.983922
#
# number of rings (size 3 to 8) (size 9 to 14) (size 15 to 20)
#    0.000    2.667    0.000    1.500    4.667    2.000 
#    0.000    5.833    0.000    3.000    0.000    0.000 
#    0.000    0.000    0.000    0.000    0.000    0.000 
#
# Total GULP energy -133918.367810 kJ/mol
# GULP energy per Si atom -5579.931992 kJ/mol
# Density = 2.193389 g / cm^3
# Si number density = 21.983922 Si / 1000 Ang^3
#
#
#
# Elastic Constant Matrix: (Units=GPa)
#
#
# Indices 1 2 3 4 5 6 
#
# 1 75.1877 43.5622 50.0527 0.0000 11.4739 0.0000
# 2 43.5622 108.3739 54.0039 0.0000 18.6010 0.0000
# 3 50.0527 54.0039 158.0475 0.0000 29.7025 0.0000
# 4 0.0000 0.0000 0.0000 35.1391 0.0000 24.8338
# 5 11.4739 18.6010 29.7025 0.0000 28.7867 0.0000
# 6 0.0000 0.0000 0.0000 24.8338 0.0000 51.8173
#
#
#
# Elastic Compliance Matrix: (Units=1/GPa)
#
#
# Indices 1 2 3 4 5 6 
#
# 1 0.019401 -0.005743 -0.004250 0.000000 0.000363 0.000000
# 2 -0.005743 0.013215 -0.001888 0.000000 -0.004302 0.000000
# 3 -0.004250 -0.001888 0.009640 0.000000 -0.007033 0.000000
# 4 0.000000 0.000000 0.000000 0.043034 0.000000 -0.020624
# 5 0.000363 -0.004302 -0.007033 0.000000 0.044629 0.000000
# 6 0.000000 0.000000 0.000000 -0.020624 0.000000 0.029183
#
#
# Mechanical properties :
#
#
# Convention : Reuss Voigt Hill
#
# Bulk Modulus (GPa) = 54.07318 70.76075 62.41697
# Shear Modulus (GPa) = 26.45072 36.08130 31.26601
#
# Velocity S-wave (km/s) = 3.47246 4.05564 3.77533
# Velocity P-wave (km/s) = 6.38180 7.36127 6.88897
#
# Compressibility (1/GPa) = 0.01849346
#
# Stress axis : x y z
#
# Youngs Moduli (GPa) = 51.54269 75.67106 103.73332
#
# Poissons Ratio (x) = 0.43458 0.44089
# Poissons Ratio (y) = 0.29601 0.19588
# Poissons Ratio (z) = 0.21907 0.14289
#
# Static dielectric constant tensor:
#      x y z
#    x 1.834260 0.000000 -0.002170 
#    y 0.000000 1.835600 0.000000 
#    z -0.002170 0.000000 1.820090 
# 
# From -- ./inp_files/204844.got.cif
#   From: 2010.05.17/outbox.cif.g08.bks.cpg/sg12_103_cif.got.tgz:204844.got - 2010.06.03 13:09:07.
