data_PCOD9216569
_publ_section_title
;
Structure prediction by ZEFSAII (Michael W. Deem and Ramdas Pophale) SiO2 
 PCOD9216569
Probable space group: C 2/M
;
_chemical_formula_sum "Si O2"
_cell_formula_units_Z 60
_cell_length_a 24.173103
_cell_length_b 18.137553
_cell_length_c 12.639383
_cell_angle_alpha 90.000000
_cell_angle_beta 37.439830
_cell_angle_gamma 90.000000
_cell_volume 3368.907419
_symmetry_space_group_name_H-M "C 2/M"
_symmetry_group_IT_number 12
_symmetry_cell_setting 'monoclinic'
loop_
_space_group_symop_operation_xyz
x,y,z
-x,y,-z
-x,-y,-z
x,-y,z
1/2+x,1/2+y,z
1/2-x,1/2+y,-z
1/2-x,1/2-y,-z
1/2+x,1/2-y,z
loop_
_atom_site_type_symbol
_atom_site_label
_atom_site_fract_x
_atom_site_fract_y
_atom_site_fract_z
Si Si1 0.000000 0.870445 0.000000
Si Si2 0.978865 0.688351 0.417032
Si Si3 0.692007 0.172758 0.859351
Si Si4 0.222711 0.326504 0.213960
Si Si5 0.801896 0.081675 0.273044
Si Si6 0.200469 0.673202 0.603182
Si Si7 0.154642 0.412340 0.119243
Si Si8 0.990762 0.262347 0.172688
O O1 0.091940 0.916070 0.861689
O O2 0.009722 0.814920 0.885973
O O3 0.875967 0.661174 0.582862
O O4 0.983639 0.742122 0.310235
O O5 0.000000 0.722258 0.500000
O O6 0.053151 0.623567 0.285853
O O7 0.750129 0.240491 0.821325
O O8 0.720352 0.155944 0.695945
O O9 0.688961 0.107430 0.949352
O O10 0.588079 0.200647 0.004599
O O11 0.291668 0.366951 0.186560
O O12 0.214343 0.365417 0.113013
O O13 0.743129 0.114367 0.458508
O O14 0.770185 0.000000 0.295644
O O15 0.250000 0.750000 0.500000
O O16 0.093778 0.688657 0.741345
O O17 0.154737 0.500000 0.139186
#
# Coordination Sequence:
#
# PCOD9216569 Si02
#       8
#     4   8   8   8   8   8   8   8
#     4  12  21  38  60  80 121 148 186 240 293 336
#     4   9  20  33  56  85 110 143 196 236 285 331
#     4  11  21  35  60  85 114 152 199 234 282 346
#     4  11  19  38  59  84 110 152 200 240 276 339
#     4  12  25  37  58  89 118 150 189 238 294 346
#     4  12  19  36  60  83 113 149 192 238 282 336
#     4  10  23  38  55  83 123 154 184 240 299 344
#     4  11  17  34  58  85 110 147 191 238 285 327
#
# _framework density 17.809927999999999
#
# number of rings (size 3 to 8) (size 9 to 14) (size 15 to 20)
#    0.000    1.067    6.667    1.000    0.000    3.467 
#    0.000    0.000    0.000    2.400    0.000    0.000 
#    0.000    9.600    0.000    0.000    0.000    0.000 
#
# Total GULP energy -167291.435642 kJ/mol
# GULP energy per Si atom -5576.381188 kJ/mol
# Density = 1.776939 g / cm^3
# Si number density = 17.809928 Si / 1000 Ang^3
#
#
#
# Elastic Constant Matrix: (Units=GPa)
#
#
# Indices 1 2 3 4 5 6 
#
# 1 86.6903 17.0532 33.7320 0.0000 9.9394 0.0000
# 2 17.0532 58.0033 10.6455 0.0000 3.5306 0.0000
# 3 33.7320 10.6455 66.1770 0.0000 12.9370 0.0000
# 4 0.0000 0.0000 0.0000 15.3503 0.0000 4.3469
# 5 9.9394 3.5306 12.9370 0.0000 40.4506 0.0000
# 6 0.0000 0.0000 0.0000 4.3469 0.0000 0.2691
#
#
#
# Elastic Compliance Matrix: (Units=1/GPa)
#
#
# Indices 1 2 3 4 5 6 
#
# 1 0.014959 -0.003059 -0.006898 0.000000 -0.001203 0.000000
# 2 -0.003059 0.018408 -0.001317 0.000000 -0.000434 0.000000
# 3 -0.006898 -0.001317 0.019718 0.000000 -0.004496 0.000000
# 4 0.000000 0.000000 0.000000 -0.018222 0.000000 0.294398
# 5 -0.001203 -0.000434 -0.004496 0.000000 0.026493 0.000000
# 6 0.000000 0.000000 0.000000 0.294398 0.000000 -1.039615
#
#
# Mechanical properties :
#
#
# Convention : Reuss Voigt Hill
#
# Bulk Modulus (GPa) = 32.74713 37.08134 34.91423
# Shear Modulus (GPa) = -5.28802 21.17665 7.94431
#
# Velocity S-wave (km/s) = -1.72499 3.45198 2.11431
# Velocity P-wave (km/s) = 3.80256 6.06251 5.06031
#
# Compressibility (1/GPa) = 0.03053703
#
# Stress axis : x y z
#
# Youngs Moduli (GPa) = 66.84987 54.32469 50.71549
#
# Poissons Ratio (x) = 0.16617 0.34982
# Poissons Ratio (y) = 0.20448 0.06680
# Poissons Ratio (z) = 0.46111 0.07156
#
# Static dielectric constant tensor:
#      x y z
#    x 1.658490 0.000000 0.000780 
#    y 0.000000 1.573950 0.000000 
#    z 0.000780 0.000000 1.638500 
# 
# From -- ./inp_files/177364.got.cif
#   From: 2010.05.17/outbox.cif.g08.bks.cpg/sg12_89_cif.got.tgz:177364.got - 2010.06.03 13:09:07.
