data_PCOD9216311
_publ_section_title
;
Structure prediction by ZEFSAII (Michael W. Deem and Ramdas Pophale) SiO2 
 PCOD9216311
Probable space group: C 2/M
;
_chemical_formula_sum "Si O2"
_cell_formula_units_Z 48
_cell_length_a 11.218170
_cell_length_b 19.685664
_cell_length_c 13.635464
_cell_angle_alpha 90.000000
_cell_angle_beta 139.042158
_cell_angle_gamma 90.000000
_cell_volume 1973.863186
_symmetry_space_group_name_H-M "C 2/M"
_symmetry_group_IT_number 12
_symmetry_cell_setting 'monoclinic'
loop_
_space_group_symop_operation_xyz
x,y,z
-x,y,-z
-x,-y,-z
x,-y,z
1/2+x,1/2+y,z
1/2-x,1/2+y,-z
1/2-x,1/2-y,-z
1/2+x,1/2-y,z
loop_
_atom_site_type_symbol
_atom_site_label
_atom_site_fract_x
_atom_site_fract_y
_atom_site_fract_z
Si Si1 0.361539 0.316795 0.557953
Si Si2 0.225911 0.753032 0.822514
Si Si3 0.716072 0.000000 0.655703
Si Si4 0.107294 0.863784 0.203874
Si Si5 0.474055 0.500000 0.311881
Si Si6 0.823825 0.645649 0.051200
Si Si7 0.610824 0.000000 0.968240
Si Si8 0.500000 0.395678 0.500000
O O1 0.250000 0.250000 0.500000
O O2 0.569037 0.293174 0.669555
O O3 0.350600 0.353321 0.655164
O O4 0.323600 0.359230 0.437490
O O5 0.336090 0.703691 0.819551
O O6 0.324760 0.809341 0.951752
O O7 0.125312 0.700011 0.834027
O O8 0.500000 0.000000 0.500000
O O9 0.782268 0.068003 0.754043
O O10 0.834919 0.000000 0.627895
O O11 0.890476 0.869885 0.060306
O O12 0.321113 0.500000 0.134167
O O13 0.447665 0.438570 0.371247
O O14 0.918685 0.572480 0.103122
O O15 0.500000 0.000000 0.000000
#
# Coordination Sequence:
#
# PCOD9216311 Si02
#       8
#     8   8   4   8   4   8   4   4
#     4  11  23  37  61  95 135 168 225 286 337 419
#     4  10  23  39  67  96 129 183 222 279 350 418
#     4  12  25  42  70  96 139 184 230 296 356 425
#     4  11  22  42  66  91 134 176 225 282 352 411
#     4  11  22  46  66  96 134 175 238 286 349 421
#     4  10  22  44  66  96 136 174 229 287 346 412
#     4  12  25  42  70  97 135 179 233 291 347 419
#     4  11  22  40  72  88 128 191 216 286 362 399
#
# _framework density 24.317795
#
# number of rings (size 3 to 8) (size 9 to 14) (size 15 to 20)
#    0.000    1.167    3.333    2.500    2.333    6.000 
#    0.000    3.333    0.000    0.000    0.000    0.000 
#    0.000    0.000    0.000    0.000    0.000    0.000 
#
# Total GULP energy -134097.225204 kJ/mol
# GULP energy per Si atom -5587.384384 kJ/mol
# Density = 2.426245 g / cm^3
# Si number density = 24.317795 Si / 1000 Ang^3
#
#
#
# Elastic Constant Matrix: (Units=GPa)
#
#
# Indices 1 2 3 4 5 6 
#
# 1 105.2199 37.3186 16.7787 0.0000 0.9484 0.0000
# 2 37.3186 158.4564 8.5853 0.0000 3.6822 0.0000
# 3 16.7787 8.5853 35.1893 0.0000 1.9277 0.0000
# 4 0.0000 0.0000 0.0000 4.6248 0.0000 -5.8166
# 5 0.9484 3.6822 1.9277 0.0000 34.2950 0.0000
# 6 0.0000 0.0000 0.0000 -5.8166 0.0000 57.7302
#
#
#
# Elastic Compliance Matrix: (Units=1/GPa)
#
#
# Indices 1 2 3 4 5 6 
#
# 1 0.011093 -0.002361 -0.004725 0.000000 0.000212 0.000000
# 2 -0.002361 0.006911 -0.000525 0.000000 -0.000647 0.000000
# 3 -0.004725 -0.000525 0.030883 0.000000 -0.001549 0.000000
# 4 0.000000 0.000000 0.000000 0.247604 0.000000 0.024947
# 5 0.000212 -0.000647 -0.001549 0.000000 0.029309 0.000000
# 6 0.000000 0.000000 0.000000 0.024947 0.000000 0.019836
#
#
# Mechanical properties :
#
#
# Convention : Reuss Voigt Hill
#
# Bulk Modulus (GPa) = 29.70421 47.13676 38.42048
# Shear Modulus (GPa) = 13.43798 35.07552 24.25675
#
# Velocity S-wave (km/s) = 2.35329 3.80199 3.16173
# Velocity P-wave (km/s) = 4.43007 6.22087 5.40022
#
# Compressibility (1/GPa) = 0.03366526
#
# Stress axis : x y z
#
# Youngs Moduli (GPa) = 90.14718 144.70723 32.37989
#
# Poissons Ratio (x) = 0.34172 0.15299
# Poissons Ratio (y) = 0.21288 0.01699
# Poissons Ratio (z) = 0.42592 0.07591
#
# Static dielectric constant tensor:
#      x y z
#    x 2.030280 0.000000 0.012190 
#    y 0.000000 2.045010 0.000000 
#    z 0.012190 0.000000 1.909180 
# 
# From -- ./inp_files/208075.got.cif
#   From: 2010.05.17/outbox.cif.g08.bks.cpg/sg12_105_cif.got.tgz:208075.got - 2010.06.03 13:09:07.
