data_PCOD9216522
_publ_section_title
;
Structure prediction by ZEFSAII (Michael W. Deem and Ramdas Pophale) SiO2 
 PCOD9216522
Probable space group: C 2/M
;
_chemical_formula_sum "Si O2"
_cell_formula_units_Z 36
_cell_length_a 22.497926
_cell_length_b 13.809801
_cell_length_c 5.295110
_cell_angle_alpha 90.000000
_cell_angle_beta 103.296084
_cell_angle_gamma 90.000000
_cell_volume 1601.048834
_symmetry_space_group_name_H-M "C 2/M"
_symmetry_group_IT_number 12
_symmetry_cell_setting 'monoclinic'
loop_
_space_group_symop_operation_xyz
x,y,z
-x,y,-z
-x,-y,-z
x,-y,z
1/2+x,1/2+y,z
1/2-x,1/2+y,-z
1/2-x,1/2-y,-z
1/2+x,1/2-y,z
loop_
_atom_site_type_symbol
_atom_site_label
_atom_site_fract_x
_atom_site_fract_y
_atom_site_fract_z
Si Si1 0.000000 0.781315 0.500000
Si Si2 0.671461 0.110798 0.736534
Si Si3 0.689160 0.384290 0.008795
Si Si4 0.552826 0.104597 0.847027
Si Si5 0.628199 0.698478 0.447135
O O1 0.034885 0.706818 0.714301
O O2 0.056520 0.829831 0.411236
O O3 0.626072 0.111917 0.935279
O O4 0.641570 0.187146 0.512506
O O5 0.674127 0.000000 0.641256
O O6 0.739462 0.139269 0.880304
O O7 0.682445 0.500000 0.023001
O O8 0.665119 0.351739 0.712165
O O9 0.652107 0.334343 0.199468
O O10 0.549040 0.000000 0.702301
O O11 0.500000 0.095672 0.000000
#
# Coordination Sequence:
#
# PCOD9216522 Si02
#       5
#     4   8   8   8   8
#     4  10  23  36  61  86 128 160 214 256 324 366
#     4   9  20  39  65  98 132 166 205 254 322 391
#     4  11  24  45  66  93 126 168 219 272 315 365
#     4   9  18  35  59  89 127 166 203 249 312 389
#     4  11  24  42  68  94 128 168 214 262 321 377
#
# _framework density 22.485261000000001
#
# number of rings (size 3 to 8) (size 9 to 14) (size 15 to 20)
#    0.000    2.000    0.000    2.333    6.222    0.889 
#    4.000    6.667    0.000    0.000    0.000    0.000 
#    0.000    0.000    0.000    0.000    0.000    0.000 
#
# Total GULP energy -100254.088656 kJ/mol
# GULP energy per Si atom -5569.671592 kJ/mol
# Density = 2.243408 g / cm^3
# Si number density = 22.485261 Si / 1000 Ang^3
#
#
#
# Elastic Constant Matrix: (Units=GPa)
#
#
# Indices 1 2 3 4 5 6 
#
# 1 161.5534 4.5766 2.7990 0.0000 -15.0060 0.0000
# 2 4.5766 78.7013 12.5774 0.0000 -4.9284 0.0000
# 3 2.7990 12.5774 49.6699 0.0000 -7.1252 0.0000
# 4 0.0000 0.0000 0.0000 18.8643 0.0000 -6.1415
# 5 -15.0060 -4.9284 -7.1252 0.0000 15.1785 0.0000
# 6 0.0000 0.0000 0.0000 -6.1415 0.0000 33.1740
#
#
#
# Elastic Compliance Matrix: (Units=1/GPa)
#
#
# Indices 1 2 3 4 5 6 
#
# 1 0.006834 -0.000059 0.000639 0.000000 0.007038 0.000000
# 2 -0.000059 0.013365 -0.002966 0.000000 0.002889 0.000000
# 3 0.000639 -0.002966 0.022302 0.000000 0.010138 0.000000
# 4 0.000000 0.000000 0.000000 0.056410 0.000000 0.010443
# 5 0.007038 0.002889 0.010138 0.000000 0.078537 0.000000
# 6 0.000000 0.000000 0.000000 0.010443 0.000000 0.032077
#
#
# Mechanical properties :
#
#
# Convention : Reuss Voigt Hill
#
# Bulk Modulus (GPa) = 26.50467 36.64784 31.57626
# Shear Modulus (GPa) = 22.03861 31.44147 26.74004
#
# Velocity S-wave (km/s) = 3.13411 3.74346 3.45226
# Velocity P-wave (km/s) = 4.99099 5.91766 5.47397
#
# Compressibility (1/GPa) = 0.03772920
#
# Stress axis : x y z
#
# Youngs Moduli (GPa) = 146.32325 74.82414 44.83816
#
# Poissons Ratio (x) = 0.00441 -0.02867
# Poissons Ratio (y) = 0.00862 0.13301
# Poissons Ratio (z) = -0.09355 0.22197
#
# Static dielectric constant tensor:
#      x y z
#    x 2.082200 0.000000 0.091560 
#    y 0.000000 1.872590 0.000000 
#    z 0.091560 0.000000 1.939640 
# 
# From -- ./inp_files/19706.got.cif
#   From: 2010.05.17/outbox.cif.g08.bks.cpg/sg12_10_cif.got.tgz:19706.got - 2010.06.03 13:09:07.
