data_PCOD9216707
_publ_section_title
;
Structure prediction by ZEFSAII (Michael W. Deem and Ramdas Pophale) SiO2 
 PCOD9216707
Probable space group: C 2/M
;
_chemical_formula_sum "Si O2"
_cell_formula_units_Z 44
_cell_length_a 17.020598
_cell_length_b 23.686493
_cell_length_c 14.077654
_cell_angle_alpha 90.000000
_cell_angle_beta 22.299282
_cell_angle_gamma 90.000000
_cell_volume 2153.546247
_symmetry_space_group_name_H-M "C 2/M"
_symmetry_group_IT_number 12
_symmetry_cell_setting 'monoclinic'
loop_
_space_group_symop_operation_xyz
x,y,z
-x,y,-z
-x,-y,-z
x,-y,z
1/2+x,1/2+y,z
1/2-x,1/2+y,-z
1/2-x,1/2-y,-z
1/2+x,1/2-y,z
loop_
_atom_site_type_symbol
_atom_site_label
_atom_site_fract_x
_atom_site_fract_y
_atom_site_fract_z
Si Si1 0.119869 0.500000 0.074936
Si Si2 0.813772 0.373083 0.786077
Si Si3 0.443588 0.184161 0.315502
Si Si4 0.104734 0.404340 0.786193
Si Si5 0.650004 0.000000 0.242608
Si Si6 0.515157 0.275967 0.876666
Si Si7 0.929918 0.000000 0.469363
O O1 0.017822 0.500000 0.292422
O O2 0.057622 0.446068 0.083682
O O3 0.362497 0.500000 0.823449
O O4 0.743090 0.438470 0.873101
O O5 0.000000 0.369895 0.500000
O O6 0.908785 0.350646 0.779356
O O7 0.627777 0.331512 0.966734
O O8 0.345807 0.143592 0.344450
O O9 0.552275 0.232848 0.131185
O O10 0.254063 0.209653 0.587308
O O11 0.295198 0.444829 0.598637
O O12 0.000000 0.383301 0.000000
O O13 0.500000 0.000000 0.500000
O O14 0.500000 0.252132 0.000000
O O15 0.000000 0.000000 0.500000
#
# Coordination Sequence:
#
# PCOD9216707 Si02
#       7
#     4   8   8   8   4   8   4
#     4  11  20  39  61  88 132 165 209 264 316 383
#     4  11  22  44  68  92 132 173 211 269 324 383
#     4  11  24  41  66  95 127 168 217 264 328 380
#     4  11  22  38  62  90 126 169 208 268 322 378
#     4  10  23  39  66  98 128 170 215 256 318 385
#     4  11  24  44  67  93 127 170 218 271 320 384
#     4  11  21  37  61  91 127 174 208 255 330 383
#
# _framework density 20.431418000000001
#
# number of rings (size 3 to 8) (size 9 to 14) (size 15 to 20)
#    0.000    1.091    5.455    1.636    2.545    0.000 
#    0.000    1.364    0.000    0.000    0.000    0.000 
#    0.000    0.000    0.000    0.000    0.000    0.000 
#
# Total GULP energy -122841.022030 kJ/mol
# GULP energy per Si atom -5583.682820 kJ/mol
# Density = 2.038491 g / cm^3
# Si number density = 20.431418 Si / 1000 Ang^3
#
#
#
# Elastic Constant Matrix: (Units=GPa)
#
#
# Indices 1 2 3 4 5 6 
#
# 1 109.9848 32.4867 34.2153 0.0093 24.6703 -0.0235
# 2 32.4867 126.2214 27.2343 0.0118 6.6349 -0.0322
# 3 34.2153 27.2343 68.5434 0.0314 14.3746 -0.0622
# 4 0.0093 0.0118 0.0314 11.5846 0.0382 17.0844
# 5 24.6703 6.6349 14.3746 0.0382 39.1116 0.0127
# 6 -0.0235 -0.0322 -0.0622 17.0844 0.0127 22.4370
#
#
#
# Elastic Compliance Matrix: (Units=1/GPa)
#
#
# Indices 1 2 3 4 5 6 
#
# 1 0.012273 -0.001962 -0.004110 -0.000161 -0.005898 0.000124
# 2 -0.001962 0.008981 -0.002740 0.000055 0.000721 -0.000039
# 3 -0.004110 -0.002740 0.018515 0.000801 -0.003748 -0.000565
# 4 -0.000161 0.000055 0.000801 -0.702132 0.000309 0.534632
# 5 -0.005898 0.000721 -0.003748 0.000309 0.030543 -0.000268
# 6 0.000124 -0.000039 -0.000565 0.534632 -0.000268 -0.362522
#
#
# Mechanical properties :
#
#
# Convention : Reuss Voigt Hill
#
# Bulk Modulus (GPa) = 45.15762 54.73580 49.94671
# Shear Modulus (GPa) = -5.15817 28.68087 11.76135
#
# Velocity S-wave (km/s) = -1.59063 3.75075 2.40187
# Velocity P-wave (km/s) = 4.33319 6.75320 5.67372
#
# Compressibility (1/GPa) = 0.02214466
#
# Stress axis : x y z
#
# Youngs Moduli (GPa) = 81.47790 111.34736 54.01088
#
# Poissons Ratio (x) = 0.21847 0.22198
# Poissons Ratio (y) = 0.15986 0.14800
# Poissons Ratio (z) = 0.33486 0.30512
#
# Static dielectric constant tensor:
#      x y z
#    x 1.850860 -0.000080 0.146560 
#    y -0.000080 1.746480 0.000010 
#    z 0.146560 0.000010 1.812930 
# 
# From -- ./inp_files/228085.got.cif
#   From: 2010.05.17/outbox.cif.g08.bks.cpg/sg12_115_cif.got.tgz:228085.got - 2010.06.03 13:09:07.
