data_PCOD9216999
_publ_section_title
;
Structure prediction by ZEFSAII (Michael W. Deem and Ramdas Pophale) SiO2 
 PCOD9216999
Probable space group: C 2/M
;
_chemical_formula_sum "Si O2"
_cell_formula_units_Z 52
_cell_length_a 15.911447
_cell_length_b 13.831416
_cell_length_c 19.595863
_cell_angle_alpha 90.000000
_cell_angle_beta 37.005433
_cell_angle_gamma 90.000000
_cell_volume 2595.723229
_symmetry_space_group_name_H-M "C 2/M"
_symmetry_group_IT_number 12
_symmetry_cell_setting 'monoclinic'
loop_
_space_group_symop_operation_xyz
x,y,z
-x,y,-z
-x,-y,-z
x,-y,z
1/2+x,1/2+y,z
1/2-x,1/2+y,-z
1/2-x,1/2-y,-z
1/2+x,1/2-y,z
loop_
_atom_site_type_symbol
_atom_site_label
_atom_site_fract_x
_atom_site_fract_y
_atom_site_fract_z
Si Si1 0.000000 0.261541 0.500000
Si Si2 0.199285 0.883637 0.036205
Si Si3 0.635999 0.387226 0.230847
Si Si4 0.492615 0.115956 0.785804
Si Si5 0.587644 0.224624 0.591384
Si Si6 0.567100 0.386833 0.881424
Si Si7 0.218556 0.699103 0.743144
O O1 0.949215 0.311038 0.461781
O O2 0.864091 0.200496 0.608343
O O3 0.337672 0.850063 0.907902
O O4 0.206953 0.000000 0.028800
O O5 0.189717 0.858015 0.121461
O O6 0.056705 0.860153 0.090284
O O7 0.598252 0.500000 0.254432
O O8 0.504419 0.321337 0.336655
O O9 0.757128 0.366866 0.206836
O O10 0.534832 0.151255 0.683399
O O11 0.599512 0.160537 0.770959
O O12 0.498564 0.000000 0.785111
O O13 0.750000 0.250000 0.500000
O O14 0.608422 0.500000 0.845338
O O15 0.686056 0.308050 0.790265
O O16 0.500000 0.378272 0.000000
#
# Coordination Sequence:
#
# PCOD9216999 Si02
#       7
#     4   8   8   8   8   8   8
#     4  10  24  44  60  94 130 162 226 282 302 394
#     4   9  21  40  62  94 128 162 213 263 321 401
#     4  10  23  42  65  96 132 170 213 270 332 392
#     4  11  24  42  67  97 132 169 216 275 335 396
#     4  11  23  43  64  93 129 172 229 273 324 394
#     4  10  23  41  63  93 128 171 219 265 324 395
#     4  11  23  41  66  94 130 173 219 267 329 388
#
# _framework density 20.032952999999999
#
# number of rings (size 3 to 8) (size 9 to 14) (size 15 to 20)
#    0.000    1.692    1.538    1.385    6.462    1.846 
#    0.000    5.769    0.000    0.000    0.000    0.000 
#    0.000    0.000    0.000    0.000    0.000    0.000 
#
# Total GULP energy -145174.068309 kJ/mol
# GULP energy per Si atom -5583.618012 kJ/mol
# Density = 1.998736 g / cm^3
# Si number density = 20.032953 Si / 1000 Ang^3
#
#
#
# Elastic Constant Matrix: (Units=GPa)
#
#
# Indices 1 2 3 4 5 6 
#
# 1 105.4824 18.2384 32.1390 -0.0001 25.4149 0.0000
# 2 18.2384 112.9185 29.5673 -0.0001 1.4941 0.0000
# 3 32.1390 29.5673 97.2764 -0.0002 5.7375 0.0000
# 4 -0.0001 -0.0001 -0.0002 35.3705 0.0001 5.6903
# 5 25.4149 1.4941 5.7375 0.0001 38.6639 0.0000
# 6 0.0000 0.0000 0.0000 5.6903 0.0000 30.7502
#
#
#
# Elastic Compliance Matrix: (Units=1/GPa)
#
#
# Indices 1 2 3 4 5 6 
#
# 1 0.012545 -0.001041 -0.003374 0.000000 -0.007705 0.000000
# 2 -0.001041 0.009708 -0.002648 0.000000 0.000702 0.000000
# 3 -0.003374 -0.002648 0.012169 0.000000 0.000514 0.000000
# 4 0.000000 0.000000 0.000000 0.029140 0.000000 -0.005392
# 5 -0.007705 0.000702 0.000514 0.000000 0.030825 0.000000
# 6 0.000000 0.000000 0.000000 -0.005392 0.000000 0.033518
#
#
# Mechanical properties :
#
#
# Convention : Reuss Voigt Hill
#
# Bulk Modulus (GPa) = 49.27030 52.84075 51.05553
# Shear Modulus (GPa) = 33.60299 36.67242 35.13771
#
# Velocity S-wave (km/s) = 4.10003 4.28320 4.19262
# Velocity P-wave (km/s) = 6.86015 7.13409 6.99846
#
# Compressibility (1/GPa) = 0.02029620
#
# Stress axis : x y z
#
# Youngs Moduli (GPa) = 79.71546 103.00531 82.17401
#
# Poissons Ratio (x) = 0.10721 0.27724
# Poissons Ratio (y) = 0.08297 0.21763
# Poissons Ratio (z) = 0.26894 0.27280
#
# Static dielectric constant tensor:
#      x y z
#    x 1.724120 0.000000 0.005010 
#    y 0.000000 1.709680 0.000000 
#    z 0.005010 0.000000 1.702000 
# 
# From -- ./inp_files/270584.got.cif
#   From: 2010.05.17/outbox.cif.g08.bks.cpg/sg12_136_cif.got.tgz:270584.got - 2010.06.03 13:09:07.
