data_PCOD9216562
_publ_section_title
;
Structure prediction by ZEFSAII (Michael W. Deem and Ramdas Pophale) SiO2 
 PCOD9216562
Probable space group: C 2/M
;
_chemical_formula_sum "Si O2"
_cell_formula_units_Z 36
_cell_length_a 20.437397
_cell_length_b 14.890408
_cell_length_c 5.353814
_cell_angle_alpha 90.000000
_cell_angle_beta 99.638060
_cell_angle_gamma 90.000000
_cell_volume 1606.281785
_symmetry_space_group_name_H-M "C 2/M"
_symmetry_group_IT_number 12
_symmetry_cell_setting 'monoclinic'
loop_
_space_group_symop_operation_xyz
x,y,z
-x,y,-z
-x,-y,-z
x,-y,z
1/2+x,1/2+y,z
1/2-x,1/2+y,-z
1/2-x,1/2-y,-z
1/2+x,1/2-y,z
loop_
_atom_site_type_symbol
_atom_site_label
_atom_site_fract_x
_atom_site_fract_y
_atom_site_fract_z
Si Si1 0.847670 0.362145 0.267044
Si Si2 0.421863 0.096238 0.797481
Si Si3 0.265945 0.500000 0.903475
Si Si4 0.349679 0.500000 0.457446
Si Si5 0.576412 0.322287 0.653176
Si Si6 0.000000 0.755191 0.000000
O O1 0.867499 0.401292 0.547935
O O2 0.777605 0.408564 0.159639
O O3 0.868504 0.257816 0.324554
O O4 0.891717 0.392659 0.055419
O O5 0.469251 0.181339 0.790619
O O6 0.455487 0.000000 0.786806
O O7 0.319064 0.500000 0.713967
O O8 0.295057 0.500000 0.200597
O O9 0.392942 0.411537 0.435603
O O10 0.500000 0.315937 0.500000
O O11 0.558452 0.316533 0.935871
#
# Coordination Sequence:
#
# PCOD9216562 Si02
#       6
#     8   8   4   4   8   4
#     4  11  23  41  74  97 143 177 232 285 350 407
#     4  11  19  36  63 106 136 185 207 281 357 420
#     4  12  26  50  67 108 134 192 234 286 339 425
#     4  12  31  45  78  94 143 192 244 284 337 401
#     4  11  25  48  70 109 136 185 232 295 352 413
#     4  10  23  37  68 100 150 164 234 276 358 422
#
# _framework density 22.412008
#
# number of rings (size 3 to 8) (size 9 to 14) (size 15 to 20)
#    0.000    0.889    4.444    2.000    3.111    2.222 
#    0.000    3.889    0.000    0.000    0.000    0.000 
#    0.000    0.000    0.000    0.000    0.000    0.000 
#
# Total GULP energy -100203.328985 kJ/mol
# GULP energy per Si atom -5566.851610 kJ/mol
# Density = 2.236100 g / cm^3
# Si number density = 22.412008 Si / 1000 Ang^3
#
#
#
# Elastic Constant Matrix: (Units=GPa)
#
#
# Indices 1 2 3 4 5 6 
#
# 1 68.5015 45.3160 -5.3757 0.0000 -14.8860 0.0000
# 2 45.3160 126.7082 -4.6646 0.0000 -25.4187 0.0000
# 3 -5.3757 -4.6646 57.7831 0.0000 0.6824 0.0000
# 4 0.0000 0.0000 0.0000 -60.2119 0.0000 -48.0168
# 5 -14.8860 -25.4187 0.6824 0.0000 42.1540 0.0000
# 6 0.0000 0.0000 0.0000 -48.0168 0.0000 53.5841
#
#
#
# Elastic Compliance Matrix: (Units=1/GPa)
#
#
# Indices 1 2 3 4 5 6 
#
# 1 0.019552 -0.006331 0.001272 0.000000 0.003067 0.000000
# 2 -0.006331 0.011053 0.000251 0.000000 0.004425 0.000000
# 3 0.001272 0.000251 0.017441 0.000000 0.000318 0.000000
# 4 0.000000 0.000000 0.000000 -0.009686 0.000000 -0.008680
# 5 0.003067 0.004425 0.000318 0.000000 0.027469 0.000000
# 6 0.000000 0.000000 0.000000 -0.008680 0.000000 0.010884
#
#
# Mechanical properties :
#
#
# Convention : Reuss Voigt Hill
#
# Bulk Modulus (GPa) = 26.02084 35.94937 30.98511
# Shear Modulus (GPa) = 50.43391 21.61973 36.02682
#
# Velocity S-wave (km/s) = 4.74889 3.10925 4.01369
# Velocity P-wave (km/s) = 6.45791 5.38191 5.94431
#
# Compressibility (1/GPa) = 0.03843073
#
# Stress axis : x y z
#
# Youngs Moduli (GPa) = 51.14460 90.47076 57.33641
#
# Poissons Ratio (x) = 0.57275 -0.07292
# Poissons Ratio (y) = 0.32378 -0.01440
# Poissons Ratio (z) = -0.06504 -0.02271
#
# Static dielectric constant tensor:
#      x y z
#    x 1.871190 0.000000 0.037160 
#    y 0.000000 1.762100 0.000000 
#    z 0.037160 0.000000 2.030170 
# 
# From -- ./inp_files/19752.got.cif
#   From: 2010.05.17/outbox.cif.g08.bks.cpg/sg12_10_cif.got.tgz:19752.got - 2010.06.03 13:09:07.
