data_PCOD9216300
_publ_section_title
;
Structure prediction by ZEFSAII (Michael W. Deem and Ramdas Pophale) SiO2 
 PCOD9216300
Probable space group: C 2/M
;
_chemical_formula_sum "Si O2"
_cell_formula_units_Z 48
_cell_length_a 15.076710
_cell_length_b 21.462804
_cell_length_c 14.765700
_cell_angle_alpha 90.000000
_cell_angle_beta 32.282435
_cell_angle_gamma 90.000000
_cell_volume 2551.902784
_symmetry_space_group_name_H-M "C 2/M"
_symmetry_group_IT_number 12
_symmetry_cell_setting 'monoclinic'
loop_
_space_group_symop_operation_xyz
x,y,z
-x,y,-z
-x,-y,-z
x,-y,z
1/2+x,1/2+y,z
1/2-x,1/2+y,-z
1/2-x,1/2-y,-z
1/2+x,1/2-y,z
loop_
_atom_site_type_symbol
_atom_site_label
_atom_site_fract_x
_atom_site_fract_y
_atom_site_fract_z
Si Si1 0.685681 0.500000 0.171618
Si Si2 0.079669 0.896683 0.557184
Si Si3 0.562765 0.000000 0.204113
Si Si4 0.216368 0.500000 0.714415
Si Si5 0.239230 0.316883 0.460533
Si Si6 0.172358 0.201439 0.808373
Si Si7 0.570170 0.112873 0.339988
Si Si8 0.000000 0.213905 0.500000
O O1 0.567758 0.439797 0.280311
O O2 0.805738 0.500000 0.157430
O O3 0.776710 0.500000 0.998025
O O4 0.174983 0.938616 0.401098
O O5 0.206337 0.874267 0.524277
O O6 0.018597 0.832401 0.568085
O O7 0.562551 0.059111 0.271833
O O8 0.420456 0.000000 0.248075
O O9 0.250000 0.250000 0.500000
O O10 0.355671 0.316959 0.271745
O O11 0.053766 0.332458 0.586753
O O12 0.250020 0.143344 0.796815
O O13 0.328258 0.248933 0.664007
O O14 0.000000 0.224117 0.000000
O O15 0.500000 0.092905 0.500000
#
# Coordination Sequence:
#
# PCOD9216300 Si02
#       8
#     4   8   4   4   8   8   8   4
#     4  11  25  40  59  97 134 161 217 278 319 379
#     4  11  21  40  65  88 123 175 213 252 329 391
#     4  12  24  40  64  97 124 169 225 268 328 376
#     4  11  21  42  64  85 128 172 210 266 322 389
#     4  11  20  39  68  92 124 175 219 258 323 397
#     4  11  24  42  65  97 133 166 218 272 323 383
#     4  10  22  44  65  89 130 171 216 272 320 385
#     4  12  20  45  68  91 134 174 206 260 332 386
#
# _framework density 18.809494000000001
#
# number of rings (size 3 to 8) (size 9 to 14) (size 15 to 20)
#    0.000    1.000    7.500    1.000    2.333    0.000 
#    6.000    2.083    0.000    0.000    0.000    0.000 
#    0.000    0.000    0.000    0.000    0.000    0.000 
#
# Total GULP energy -133760.275645 kJ/mol
# GULP energy per Si atom -5573.344819 kJ/mol
# Density = 1.876668 g / cm^3
# Si number density = 18.809494 Si / 1000 Ang^3
#
#
#
# Elastic Constant Matrix: (Units=GPa)
#
#
# Indices 1 2 3 4 5 6 
#
# 1 107.8957 41.5708 39.7543 0.0059 10.9841 -0.0079
# 2 41.5708 99.2973 48.9305 0.0043 6.5338 -0.0120
# 3 39.7543 48.9305 111.3161 -0.0029 4.1941 -0.0133
# 4 0.0059 0.0043 -0.0029 4.4738 -0.0085 -7.6171
# 5 10.9841 6.5338 4.1941 -0.0085 26.9357 0.0076
# 6 -0.0079 -0.0120 -0.0133 -7.6171 0.0076 39.3587
#
#
#
# Elastic Compliance Matrix: (Units=1/GPa)
#
#
# Indices 1 2 3 4 5 6 
#
# 1 0.011933 -0.003478 -0.002596 -0.000028 -0.003618 -0.000004
# 2 -0.003478 0.014006 -0.004868 -0.000016 -0.001221 -0.000001
# 3 -0.002596 -0.004868 0.012037 0.000030 0.000366 0.000008
# 4 -0.000028 -0.000016 0.000030 0.333372 0.000097 0.064517
# 5 -0.003618 -0.001221 0.000366 0.000097 0.038840 0.000010
# 6 -0.000004 -0.000001 0.000008 0.064517 0.000010 0.037893
#
#
# Mechanical properties :
#
#
# Convention : Reuss Voigt Hill
#
# Bulk Modulus (GPa) = 62.15005 64.33558 63.24282
# Shear Modulus (GPa) = 10.51896 26.70386 18.61141
#
# Velocity S-wave (km/s) = 2.36738 3.77198 3.14899
# Velocity P-wave (km/s) = 6.37073 7.29716 6.84963
#
# Compressibility (1/GPa) = 0.01609009
#
# Stress axis : x y z
#
# Youngs Moduli (GPa) = 83.79831 71.39621 83.07767
#
# Poissons Ratio (x) = 0.24834 0.21571
# Poissons Ratio (y) = 0.29148 0.40446
# Poissons Ratio (z) = 0.21758 0.34759
#
# Static dielectric constant tensor:
#      x y z
#    x 1.740430 0.000000 -0.022700 
#    y 0.000000 1.644580 0.000010 
#    z -0.022700 0.000010 1.633730 
# 
# From -- ./inp_files/218465.got.cif
#   From: 2010.05.17/outbox.cif.g08.bks.cpg/sg12_110_cif.got.tgz:218465.got - 2010.06.03 13:09:07.
