data_PCOD9216257
_publ_section_title
;
Structure prediction by ZEFSAII (Michael W. Deem and Ramdas Pophale) SiO2 
 PCOD9216257
Probable space group: C 2/M
;
_chemical_formula_sum "Si O2"
_cell_formula_units_Z 44
_cell_length_a 7.954329
_cell_length_b 21.667243
_cell_length_c 11.674887
_cell_angle_alpha 90.000000
_cell_angle_beta 83.893044
_cell_angle_gamma 90.000000
_cell_volume 2000.728986
_symmetry_space_group_name_H-M "C 2/M"
_symmetry_group_IT_number 12
_symmetry_cell_setting 'monoclinic'
loop_
_space_group_symop_operation_xyz
x,y,z
-x,y,-z
-x,-y,-z
x,-y,z
1/2+x,1/2+y,z
1/2-x,1/2+y,-z
1/2-x,1/2-y,-z
1/2+x,1/2-y,z
loop_
_atom_site_type_symbol
_atom_site_label
_atom_site_fract_x
_atom_site_fract_y
_atom_site_fract_z
Si Si1 0.500000 0.106583 0.500000
Si Si2 0.061654 0.931789 0.128307
Si Si3 0.283343 0.696354 0.809501
Si Si4 0.682362 0.687810 0.445096
Si Si5 0.424750 0.818691 0.880255
Si Si6 0.201129 0.432075 0.255511
O O1 0.341822 0.142375 0.452255
O O2 0.397049 0.075814 0.615848
O O3 0.906248 0.930284 0.231132
O O4 0.166082 0.869271 0.140375
O O5 0.144517 0.000000 0.136529
O O6 0.000000 0.929731 0.000000
O O7 0.366416 0.703399 0.681287
O O8 0.317587 0.756462 0.882254
O O9 0.087772 0.696025 0.793956
O O10 0.500000 0.663321 0.500000
O O11 0.750000 0.750000 0.500000
O O12 0.343369 0.877663 0.828764
O O13 0.500000 0.830294 0.000000
O O14 0.153297 0.500000 0.214263
#
# Coordination Sequence:
#
# PCOD9216257 Si02
#       6
#     4   8   8   8   8   8
#     4  12  23  46  66 100 140 182 235 276 353 412
#     4  10  22  43  70  99 135 178 225 281 344 412
#     4  12  23  41  62  98 131 169 221 275 338 410
#     4  12  23  40  66  97 138 180 226 284 341 409
#     4  12  24  40  65  96 131 172 218 278 341 403
#     4  11  24  44  67  95 134 182 227 279 347 410
#
# _framework density 21.991983000000001
#
# number of rings (size 3 to 8) (size 9 to 14) (size 15 to 20)
#    0.000    0.545    2.727    6.818    0.000    1.091 
#    0.000    0.000    0.000    3.818    0.000    0.000 
#    0.000    0.000    0.000    0.000    0.000    0.000 
#
# Total GULP energy -122592.383100 kJ/mol
# GULP energy per Si atom -5572.381050 kJ/mol
# Density = 2.194193 g / cm^3
# Si number density = 21.991983 Si / 1000 Ang^3
#
#
#
# Elastic Constant Matrix: (Units=GPa)
#
#
# Indices 1 2 3 4 5 6 
#
# 1 77.7223 48.1730 2.2448 0.0000 -10.2684 0.0000
# 2 48.1730 195.5005 30.0242 0.0000 24.5515 0.0000
# 3 2.2448 30.0242 106.2697 0.0000 -0.8309 0.0000
# 4 0.0000 0.0000 0.0000 -13.7194 0.0000 18.4599
# 5 -10.2684 24.5515 -0.8309 0.0000 41.5922 0.0000
# 6 0.0000 0.0000 0.0000 18.4599 0.0000 24.1629
#
#
#
# Elastic Compliance Matrix: (Units=1/GPa)
#
#
# Indices 1 2 3 4 5 6 
#
# 1 0.017112 -0.005330 0.001202 0.000000 0.007395 0.000000
# 2 -0.005330 0.007466 -0.002042 0.000000 -0.005764 0.000000
# 3 0.001202 -0.002042 0.009975 0.000000 0.001701 0.000000
# 4 0.000000 0.000000 0.000000 -0.035942 0.000000 0.027459
# 5 0.007395 -0.005764 0.001701 0.000000 0.029305 0.000000
# 6 0.000000 0.000000 0.000000 0.027459 0.000000 0.020408
#
#
# Mechanical properties :
#
#
# Convention : Reuss Voigt Hill
#
# Bulk Modulus (GPa) = 45.01716 60.04184 52.52950
# Shear Modulus (GPa) = 73.45773 30.34384 51.90078
#
# Velocity S-wave (km/s) = 5.78572 3.71855 4.86324
# Velocity P-wave (km/s) = 8.07137 6.76741 7.44798
#
# Compressibility (1/GPa) = 0.02221375
#
# Stress axis : x y z
#
# Youngs Moduli (GPa) = 58.43822 133.94448 100.25285
#
# Poissons Ratio (x) = 0.71391 -0.12052
# Poissons Ratio (y) = 0.31147 0.20469
# Poissons Ratio (z) = -0.07025 0.27348
#
# Static dielectric constant tensor:
#      x y z
#    x 1.727800 0.000000 0.012930 
#    y 0.000000 1.920940 0.000000 
#    z 0.012930 0.000000 1.813380 
# 
# From -- ./inp_files/120646.got.cif
#   From: 2010.05.17/outbox.cif.g08.bks.cpg/sg12_61_cif.got.tgz:120646.got - 2010.06.03 13:09:07.
