data_PCOD9216767
_publ_section_title
;
Structure prediction by ZEFSAII (Michael W. Deem and Ramdas Pophale) SiO2 
 PCOD9216767
Probable space group: C 2/M
;
_chemical_formula_sum "Si O2"
_cell_formula_units_Z 48
_cell_length_a 11.588486
_cell_length_b 18.209110
_cell_length_c 11.683600
_cell_angle_alpha 90.000000
_cell_angle_beta 92.519754
_cell_angle_gamma 90.000000
_cell_volume 2463.042965
_symmetry_space_group_name_H-M "C 2/M"
_symmetry_group_IT_number 12
_symmetry_cell_setting 'monoclinic'
loop_
_space_group_symop_operation_xyz
x,y,z
-x,y,-z
-x,-y,-z
x,-y,z
1/2+x,1/2+y,z
1/2-x,1/2+y,-z
1/2-x,1/2-y,-z
1/2+x,1/2-y,z
loop_
_atom_site_type_symbol
_atom_site_label
_atom_site_fract_x
_atom_site_fract_y
_atom_site_fract_z
Si Si1 0.621948 0.265186 0.943142
Si Si2 0.788749 0.333095 0.467067
Si Si3 0.032782 0.300666 0.716495
Si Si4 0.549832 0.644693 0.372929
Si Si5 0.891001 0.918434 0.170157
Si Si6 0.847716 0.584152 0.703211
O O1 0.617922 0.225505 0.819693
O O2 0.606539 0.352000 0.918696
O O3 0.500000 0.242563 0.000000
O O4 0.750000 0.250000 0.000000
O O5 0.750000 0.250000 0.500000
O O6 0.898342 0.327902 0.390641
O O7 0.684640 0.369718 0.392319
O O8 0.813163 0.379334 0.581169
O O9 0.965239 0.227940 0.672994
O O10 0.947125 0.363369 0.755433
O O11 0.500000 0.638848 0.500000
O O12 0.480952 0.596709 0.277852
O O13 0.764809 0.914837 0.222600
O O14 0.909339 0.000000 0.123885
O O15 0.885124 0.500000 0.690220
#
# Coordination Sequence:
#
# PCOD9216767 Si02
#       6
#     8   8   8   8   8   8
#     4  11  25  44  70  92 114 155 213 268 313 360
#     4  12  20  33  57  89 124 163 200 237 288 359
#     4  11  23  36  60  85 122 155 204 251 298 356
#     4  11  19  33  58  88 121 163 197 236 287 360
#     4  10  23  40  62  89 124 158 195 248 306 362
#     4  11  22  38  59  90 130 166 192 232 297 369
#
# _framework density 19.488088000000001
#
# number of rings (size 3 to 8) (size 9 to 14) (size 15 to 20)
#    0.000    1.000    5.000    2.500    4.667    2.667 
#    0.000    0.833    0.000    3.000    0.000    0.000 
#    0.000    0.000    0.000    0.000    0.000    0.000 
#
# Total GULP energy -134029.479391 kJ/mol
# GULP energy per Si atom -5584.561641 kJ/mol
# Density = 1.944373 g / cm^3
# Si number density = 19.488088 Si / 1000 Ang^3
#
#
#
# Elastic Constant Matrix: (Units=GPa)
#
#
# Indices 1 2 3 4 5 6 
#
# 1 80.2269 29.7584 23.1183 0.0000 20.3094 0.0000
# 2 29.7584 86.7211 16.0160 0.0000 9.3711 0.0000
# 3 23.1183 16.0160 60.9717 0.0000 19.4271 0.0000
# 4 0.0000 0.0000 0.0000 19.6207 0.0000 -5.8304
# 5 20.3094 9.3711 19.4271 0.0000 40.8681 0.0000
# 6 0.0000 0.0000 0.0000 -5.8304 0.0000 22.1206
#
#
#
# Elastic Compliance Matrix: (Units=1/GPa)
#
#
# Indices 1 2 3 4 5 6 
#
# 1 0.016481 -0.004441 -0.003297 0.000000 -0.005605 0.000000
# 2 -0.004441 0.013393 -0.001837 0.000000 0.000009 0.000000
# 3 -0.003297 -0.001837 0.020597 0.000000 -0.007732 0.000000
# 4 0.000000 0.000000 0.000000 0.055298 0.000000 0.014575
# 5 -0.005605 0.000009 -0.007732 0.000000 0.030927 0.000000
# 6 0.000000 0.000000 0.000000 0.014575 0.000000 0.049048
#
#
# Mechanical properties :
#
#
# Convention : Reuss Voigt Hill
#
# Bulk Modulus (GPa) = 31.92670 40.63389 36.28030
# Shear Modulus (GPa) = 23.21968 27.12368 25.17168
#
# Velocity S-wave (km/s) = 3.45553 3.73474 3.59784
# Velocity P-wave (km/s) = 5.68675 6.28440 5.99303
#
# Compressibility (1/GPa) = 0.03132175
#
# Stress axis : x y z
#
# Youngs Moduli (GPa) = 60.67719 74.66339 48.55064
#
# Poissons Ratio (x) = 0.33157 0.16005
# Poissons Ratio (y) = 0.26946 0.08920
# Poissons Ratio (z) = 0.20003 0.13718
#
# Static dielectric constant tensor:
#      x y z
#    x 1.723160 0.000000 -0.005120 
#    y 0.000000 1.721850 0.000000 
#    z -0.005120 0.000000 1.679420 
# 
# From -- ./inp_files/131026.got.cif
#   From: 2010.05.17/outbox.cif.g08.bks.cpg/sg12_66_cif.got.tgz:131026.got - 2010.06.03 13:09:07.
