data_PCOD9216102
_publ_section_title
;
Structure prediction by ZEFSAII (Michael W. Deem and Ramdas Pophale) SiO2 
 PCOD9216102
Probable space group: C 2/M
;
_chemical_formula_sum "Si O2"
_cell_formula_units_Z 40
_cell_length_a 23.829538
_cell_length_b 7.861411
_cell_length_c 9.856452
_cell_angle_alpha 90.000000
_cell_angle_beta 104.961769
_cell_angle_gamma 90.000000
_cell_volume 1783.848873
_symmetry_space_group_name_H-M "C 2/M"
_symmetry_group_IT_number 12
_symmetry_cell_setting 'monoclinic'
loop_
_space_group_symop_operation_xyz
x,y,z
-x,y,-z
-x,-y,-z
x,-y,z
1/2+x,1/2+y,z
1/2-x,1/2+y,-z
1/2-x,1/2-y,-z
1/2+x,1/2-y,z
loop_
_atom_site_type_symbol
_atom_site_label
_atom_site_fract_x
_atom_site_fract_y
_atom_site_fract_z
Si Si1 0.609836 0.799106 0.209327
Si Si2 0.238390 0.295369 0.338468
Si Si3 0.429961 0.196911 0.096789
Si Si4 0.978185 0.196064 0.629155
Si Si5 0.805952 0.204145 0.125117
O O1 0.674958 0.727729 0.255102
O O2 0.576990 0.775896 0.330236
O O3 0.614828 0.000000 0.185194
O O4 0.572702 0.732393 0.058469
O O5 0.236106 0.500000 0.326403
O O6 0.250000 0.250000 0.500000
O O7 0.288308 0.240047 0.265843
O O8 0.470223 0.291266 0.229192
O O9 0.363636 0.208210 0.106337
O O10 0.450127 0.000000 0.107927
O O11 0.000000 0.271651 0.500000
O O12 0.962923 0.000000 0.593526
O O13 0.814910 0.000000 0.127193
O O14 0.750000 0.250000 0.000000
#
# Coordination Sequence:
#
# PCOD9216102 Si02
#       5
#     8   8   8   8   8
#     4  10  22  43  65  90 123 162 207 255 305 365
#     4  10  23  41  61  91 129 164 204 251 304 362
#     4  11  23  42  67  93 123 162 207 256 307 365
#     4  11  26  44  62  91 126 160 203 258 312 366
#     4  11  22  40  64  94 129 163 204 252 303 365
#
# _framework density 22.423425999999999
#
# number of rings (size 3 to 8) (size 9 to 14) (size 15 to 20)
#    0.000    1.400    2.000    2.400    2.800    8.000 
#    0.000    0.000    0.000    0.000    0.000    0.000 
#    0.000    0.000    0.000    0.000    0.000    0.000 
#
# Total GULP energy -111841.398922 kJ/mol
# GULP energy per Si atom -5592.069946 kJ/mol
# Density = 2.237239 g / cm^3
# Si number density = 22.423426 Si / 1000 Ang^3
#
#
#
# Elastic Constant Matrix: (Units=GPa)
#
#
# Indices 1 2 3 4 5 6 
#
# 1 71.0011 -8.2825 10.9076 0.0000 -19.5792 0.0000
# 2 -8.2825 35.0220 -1.6724 0.0000 -3.1527 0.0000
# 3 10.9076 -1.6724 119.1287 0.0000 -31.1529 0.0000
# 4 0.0000 0.0000 0.0000 27.4979 0.0000 0.6027
# 5 -19.5792 -3.1527 -31.1529 0.0000 41.6635 0.0000
# 6 0.0000 0.0000 0.0000 0.6027 0.0000 23.7243
#
#
#
# Elastic Compliance Matrix: (Units=1/GPa)
#
#
# Indices 1 2 3 4 5 6 
#
# 1 0.017004 0.004874 0.000867 0.000000 0.009008 0.000000
# 2 0.004874 0.030287 0.001463 0.000000 0.005676 0.000000
# 3 0.000867 0.001463 0.010530 0.000000 0.008392 0.000000
# 4 0.000000 0.000000 0.000000 0.036387 0.000000 -0.000924
# 5 0.009008 0.005676 0.008392 0.000000 0.034939 0.000000
# 6 0.000000 0.000000 0.000000 -0.000924 0.000000 0.042174
#
#
# Mechanical properties :
#
#
# Convention : Reuss Voigt Hill
#
# Bulk Modulus (GPa) = 13.84497 25.22858 19.53678
# Shear Modulus (GPa) = 27.62603 33.52374 30.57489
#
# Velocity S-wave (km/s) = 3.51382 3.87076 3.69660
# Velocity P-wave (km/s) = 4.75923 5.59039 5.19147
#
# Compressibility (1/GPa) = 0.07222838
#
# Stress axis : x y z
#
# Youngs Moduli (GPa) = 58.81127 33.01754 94.96741
#
# Poissons Ratio (x) = -0.16091 -0.08235
# Poissons Ratio (y) = -0.28662 -0.13897
# Poissons Ratio (z) = -0.05100 -0.04832
#
# Static dielectric constant tensor:
#      x y z
#    x 1.815010 0.000000 -0.013920 
#    y 0.000000 1.827910 0.000000 
#    z -0.013920 0.000000 1.833740 
# 
# From -- ./inp_files/92709.got.cif
#   From: 2010.05.17/outbox.cif.g08.bks.cpg/sg12_47_cif.got.tgz:92709.got - 2010.06.03 13:09:07.
