data_PCOD9216558
_publ_section_title
;
Structure prediction by ZEFSAII (Michael W. Deem and Ramdas Pophale) SiO2 
 PCOD9216558
Probable space group: C 2/M
;
_chemical_formula_sum "Si O2"
_cell_formula_units_Z 52
_cell_length_a 22.790049
_cell_length_b 16.579814
_cell_length_c 9.688665
_cell_angle_alpha 90.000000
_cell_angle_beta 41.157847
_cell_angle_gamma 90.000000
_cell_volume 2409.374546
_symmetry_space_group_name_H-M "C 2/M"
_symmetry_group_IT_number 12
_symmetry_cell_setting 'monoclinic'
loop_
_space_group_symop_operation_xyz
x,y,z
-x,y,-z
-x,-y,-z
x,-y,z
1/2+x,1/2+y,z
1/2-x,1/2+y,-z
1/2-x,1/2-y,-z
1/2+x,1/2-y,z
loop_
_atom_site_type_symbol
_atom_site_label
_atom_site_fract_x
_atom_site_fract_y
_atom_site_fract_z
Si Si1 0.000000 0.716885 0.000000
Si Si2 0.774235 0.843368 0.978924
Si Si3 0.830526 0.910077 0.351696
Si Si4 0.626678 0.910640 0.655822
Si Si5 0.089477 0.352686 0.428699
Si Si6 0.066823 0.147667 0.085107
Si Si7 0.612494 0.335641 0.476873
O O1 0.969863 0.771152 0.923737
O O2 0.082514 0.659291 0.821835
O O3 0.846520 0.845797 0.973249
O O4 0.823422 0.872979 0.753204
O O5 0.750000 0.750000 0.000000
O O6 0.679049 0.879956 0.189621
O O7 0.732868 0.899436 0.460706
O O8 0.844171 0.845618 0.448695
O O9 0.836192 0.000000 0.402364
O O10 0.902716 0.902776 0.102164
O O11 0.586389 0.901728 0.575409
O O12 0.609660 0.000000 0.742710
O O13 0.099015 0.257551 0.454486
O O14 0.000000 0.361171 0.500000
O O15 0.984082 0.123199 0.328741
#
# Coordination Sequence:
#
# PCOD9216558 Si02
#       7
#     4   8   8   8   8   8   8
#     4  12  25  38  69 102 126 166 230 280 337 378
#     4  10  23  37  64  95 134 169 215 282 327 384
#     4  11  25  44  66  96 138 182 219 265 333 403
#     4  11  25  43  64  94 136 178 221 272 333 400
#     4  11  22  41  67  97 129 172 229 280 328 390
#     4  12  21  41  67 101 129 172 221 276 330 396
#     4  11  22  39  64 102 130 167 224 273 331 389
#
# _framework density 21.582364999999999
#
# number of rings (size 3 to 8) (size 9 to 14) (size 15 to 20)
#    0.000    0.923    4.615    2.538    4.308    2.769 
#    0.000    1.538    0.000    4.154    0.000    0.000 
#    0.000    0.000    0.000    0.000    0.000    0.000 
#
# Total GULP energy -145201.556262 kJ/mol
# GULP energy per Si atom -5584.675241 kJ/mol
# Density = 2.153324 g / cm^3
# Si number density = 21.582365 Si / 1000 Ang^3
#
#
#
# Elastic Constant Matrix: (Units=GPa)
#
#
# Indices 1 2 3 4 5 6 
#
# 1 147.7554 21.7903 39.2209 0.0000 -5.2564 0.0000
# 2 21.7903 38.7189 21.8298 0.0000 -10.1621 0.0000
# 3 39.2209 21.8298 152.7835 0.0000 -5.0547 0.0000
# 4 0.0000 0.0000 0.0000 13.8775 0.0000 -3.0604
# 5 -5.2564 -10.1621 -5.0547 0.0000 32.0817 0.0000
# 6 0.0000 0.0000 0.0000 -3.0604 0.0000 14.7758
#
#
#
# Elastic Compliance Matrix: (Units=1/GPa)
#
#
# Indices 1 2 3 4 5 6 
#
# 1 0.007673 -0.003512 -0.001471 0.000000 -0.000087 0.000000
# 2 -0.003512 0.032088 -0.003384 0.000000 0.009056 0.000000
# 3 -0.001471 -0.003384 0.007401 0.000000 -0.000147 0.000000
# 4 0.000000 0.000000 0.000000 0.075508 0.000000 0.015639
# 5 -0.000087 0.009056 -0.000147 0.000000 0.034001 0.000000
# 6 0.000000 0.000000 0.000000 0.015639 0.000000 0.070918
#
#
# Mechanical properties :
#
#
# Convention : Reuss Voigt Hill
#
# Bulk Modulus (GPa) = 32.86252 56.10443 44.48347
# Shear Modulus (GPa) = 19.64902 29.24146 24.44524
#
# Velocity S-wave (km/s) = 3.02059 3.68486 3.36914
# Velocity P-wave (km/s) = 5.23688 6.64501 5.98252
#
# Compressibility (1/GPa) = 0.03042980
#
# Stress axis : x y z
#
# Youngs Moduli (GPa) = 130.32372 31.16437 135.10960
#
# Poissons Ratio (x) = 0.10945 0.19873
# Poissons Ratio (y) = 0.45768 0.45716
# Poissons Ratio (z) = 0.19169 0.10545
#
# Static dielectric constant tensor:
#      x y z
#    x 1.732480 0.000000 -0.012170 
#    y 0.000000 1.783570 0.000000 
#    z -0.012170 0.000000 1.834560 
# 
# From -- ./inp_files/88363.got.cif
#   From: 2010.05.17/outbox.cif.g08.bks.cpg/sg12_45_cif.got.tgz:88363.got - 2010.06.03 13:09:07.
