data_PCOD9216426
_publ_section_title
;
Structure prediction by ZEFSAII (Michael W. Deem and Ramdas Pophale) SiO2 
 PCOD9216426
Probable space group: C 2/M
;
_chemical_formula_sum "Si O2"
_cell_formula_units_Z 28
_cell_length_a 10.497544
_cell_length_b 16.595479
_cell_length_c 6.714760
_cell_angle_alpha 90.000000
_cell_angle_beta 67.019689
_cell_angle_gamma 90.000000
_cell_volume 1076.954590
_symmetry_space_group_name_H-M "C 2/M"
_symmetry_group_IT_number 12
_symmetry_cell_setting 'monoclinic'
loop_
_space_group_symop_operation_xyz
x,y,z
-x,y,-z
-x,-y,-z
x,-y,z
1/2+x,1/2+y,z
1/2-x,1/2+y,-z
1/2-x,1/2-y,-z
1/2+x,1/2-y,z
loop_
_atom_site_type_symbol
_atom_site_label
_atom_site_fract_x
_atom_site_fract_y
_atom_site_fract_z
Si Si1 0.000000 0.237067 0.500000
Si Si2 0.379207 0.000000 0.907643
Si Si3 0.289850 0.878795 0.636493
Si Si4 0.668826 0.500000 0.390669
Si Si5 0.112628 0.202641 0.042042
O O1 0.126728 0.297960 0.470443
O O2 0.051554 0.182113 0.290770
O O3 0.238476 0.000000 0.127561
O O4 0.500000 0.000000 0.000000
O O5 0.381716 0.073525 0.746439
O O6 0.238437 0.926403 0.475338
O O7 0.154162 0.862090 0.854183
O O8 0.500000 0.500000 0.500000
O O9 0.250000 0.250000 0.000000
O O10 0.000000 0.257874 0.000000
#
# Coordination Sequence:
#
# PCOD9216426 Si02
#       5
#     4   4   8   4   8
#     4  10  22  45  70  97 138 180 220 282 350 398
#     4  11  24  43  72 104 133 182 232 286 357 406
#     4  10  24  43  68 102 139 171 235 287 328 433
#     4  11  26  43  70  99 136 189 224 283 366 389
#     4  10  24  42  65  97 137 179 229 274 337 411
#
# _framework density 25.999238999999999
#
# number of rings (size 3 to 8) (size 9 to 14) (size 15 to 20)
#    0.000    1.714    0.000    1.714    4.000   19.429 
#    0.000    0.000    0.000    0.000    0.000    0.000 
#    0.000    0.000    0.000    0.000    0.000    0.000 
#
# Total GULP energy -78233.612166 kJ/mol
# GULP energy per Si atom -5588.115155 kJ/mol
# Density = 2.594006 g / cm^3
# Si number density = 25.999239 Si / 1000 Ang^3
#
#
#
# Elastic Constant Matrix: (Units=GPa)
#
#
# Indices 1 2 3 4 5 6 
#
# 1 180.7780 17.2761 11.7838 0.0000 19.7916 0.0000
# 2 17.2761 40.6646 7.2046 0.0000 6.0627 0.0000
# 3 11.7838 7.2046 159.9814 0.0000 -18.2831 0.0000
# 4 0.0000 0.0000 0.0000 36.3036 0.0000 2.8047
# 5 19.7916 6.0627 -18.2831 0.0000 46.2591 0.0000
# 6 0.0000 0.0000 0.0000 2.8047 0.0000 34.7150
#
#
#
# Elastic Compliance Matrix: (Units=1/GPa)
#
#
# Indices 1 2 3 4 5 6 
#
# 1 0.006054 -0.002074 -0.000647 0.000000 -0.002574 0.000000
# 2 -0.002074 0.026177 -0.001379 0.000000 -0.003089 0.000000
# 3 -0.000647 -0.001379 0.006716 0.000000 0.003112 0.000000
# 4 0.000000 0.000000 0.000000 0.027718 0.000000 -0.002239
# 5 -0.002574 -0.003089 0.003112 0.000000 0.024353 0.000000
# 6 0.000000 0.000000 0.000000 -0.002239 0.000000 0.028987
#
#
# Mechanical properties :
#
#
# Convention : Reuss Voigt Hill
#
# Bulk Modulus (GPa) = 32.52214 50.43923 41.48068
# Shear Modulus (GPa) = 36.11310 46.46617 41.28964
#
# Velocity S-wave (km/s) = 3.73098 4.23213 3.98943
# Velocity P-wave (km/s) = 5.57641 6.58207 6.10000
#
# Compressibility (1/GPa) = 0.03074829
#
# Stress axis : x y z
#
# Youngs Moduli (GPa) = 165.18688 38.20118 148.89603
#
# Poissons Ratio (x) = 0.07921 0.09629
# Poissons Ratio (y) = 0.34253 0.20535
# Poissons Ratio (z) = 0.10682 0.05268
#
# Static dielectric constant tensor:
#      x y z
#    x 2.217990 0.000000 -0.058030 
#    y 0.000000 2.070460 0.000000 
#    z -0.058030 0.000000 2.035860 
# 
# From -- ./inp_files/5812.got.cif
#   From: 2010.05.17/outbox.cif.g08.bks.cpg/sg12_3_cif.got.tgz:5812.got - 2010.06.03 13:09:07.
