data_PCOD9216031
_publ_section_title
;
Structure prediction by ZEFSAII (Michael W. Deem and Ramdas Pophale) SiO2 
 PCOD9216031
Probable space group: C 2/M
;
_chemical_formula_sum "Si O2"
_cell_formula_units_Z 40
_cell_length_a 23.725565
_cell_length_b 15.274134
_cell_length_c 16.468602
_cell_angle_alpha 90.000000
_cell_angle_beta 162.069746
_cell_angle_gamma 90.000000
_cell_volume 1837.307360
_symmetry_space_group_name_H-M "C 2/M"
_symmetry_group_IT_number 12
_symmetry_cell_setting 'monoclinic'
loop_
_space_group_symop_operation_xyz
x,y,z
-x,y,-z
-x,-y,-z
x,-y,z
1/2+x,1/2+y,z
1/2-x,1/2+y,-z
1/2-x,1/2-y,-z
1/2+x,1/2-y,z
loop_
_atom_site_type_symbol
_atom_site_label
_atom_site_fract_x
_atom_site_fract_y
_atom_site_fract_z
Si Si1 0.206890 0.000000 0.312698
Si Si2 0.592064 0.857856 0.306453
Si Si3 0.696980 0.311768 0.738237
Si Si4 0.334674 0.321258 0.496251
Si Si5 0.764183 0.167982 0.956573
Si Si6 0.973643 0.500000 0.368682
O O1 0.275726 0.919513 0.461107
O O2 0.330366 0.000000 0.402757
O O3 0.000000 0.000000 0.000000
O O4 0.618687 0.765051 0.387462
O O5 0.668081 0.861304 0.318649
O O6 0.372581 0.869868 0.004889
O O7 0.500000 0.345494 0.500000
O O8 0.704323 0.302931 0.651233
O O9 0.717474 0.215770 0.807625
O O10 0.530276 0.369765 0.764673
O O11 0.750000 0.250000 0.000000
O O12 0.631372 0.089332 0.797702
O O13 0.000000 0.500000 0.500000
#
# Coordination Sequence:
#
# PCOD9216031 Si02
#       6
#     4   8   8   8   8   4
#     4  12  30  48  67  97 148 177 229 308 375 422
#     4  10  25  44  66  98 138 187 238 287 351 443
#     4  11  21  39  73  99 137 182 237 293 352 412
#     4  10  22  42  70  98 137 189 237 285 355 430
#     4  11  23  42  69 106 152 188 242 302 357 439
#     4  12  28  42  73 112 139 190 242 301 371 435
#
# _framework density 21.770990000000001
#
# number of rings (size 3 to 8) (size 9 to 14) (size 15 to 20)
#    0.000    1.200    2.000    3.600    5.600    3.200 
#    0.000    3.500    0.000    0.000    0.000    0.000 
#    0.000    0.000    0.000    0.000    0.000    0.000 
#
# Total GULP energy -111678.524843 kJ/mol
# GULP energy per Si atom -5583.926242 kJ/mol
# Density = 2.172144 g / cm^3
# Si number density = 21.770990 Si / 1000 Ang^3
#
#
#
# Elastic Constant Matrix: (Units=GPa)
#
#
# Indices 1 2 3 4 5 6 
#
# 1 192.8494 22.6525 73.0129 -0.0001 4.4495 0.0000
# 2 22.6525 55.4635 49.3477 0.0000 17.0516 0.0000
# 3 73.0129 49.3477 197.6442 -0.0001 28.9451 -0.0001
# 4 -0.0001 0.0000 -0.0001 13.5475 -0.0001 -10.1468
# 5 4.4495 17.0516 28.9451 -0.0001 41.7704 0.0000
# 6 0.0000 0.0000 -0.0001 -10.1468 0.0000 23.0234
#
#
#
# Elastic Compliance Matrix: (Units=1/GPa)
#
#
# Indices 1 2 3 4 5 6 
#
# 1 0.006100 -0.000911 -0.002210 0.000000 0.001253 0.000000
# 2 -0.000911 0.024784 -0.004879 0.000000 -0.006639 0.000000
# 3 -0.002210 -0.004879 0.007532 0.000000 -0.002992 0.000000
# 4 0.000000 0.000000 0.000000 0.110186 0.000000 0.048561
# 5 0.001253 -0.006639 -0.002992 0.000000 0.028591 0.000000
# 6 0.000000 0.000000 0.000000 0.048561 0.000000 0.064836
#
#
# Mechanical properties :
#
#
# Convention : Reuss Voigt Hill
#
# Bulk Modulus (GPa) = 44.60817 81.77591 63.19204
# Shear Modulus (GPa) = 18.83235 35.73118 27.28176
#
# Velocity S-wave (km/s) = 2.94431 4.05560 3.54379
# Velocity P-wave (km/s) = 5.66506 7.71842 6.77004
#
# Compressibility (1/GPa) = 0.02241742
#
# Stress axis : x y z
#
# Youngs Moduli (GPa) = 163.93445 40.34801 132.76055
#
# Poissons Ratio (x) = 0.03674 0.29334
# Poissons Ratio (y) = 0.14929 0.64779
# Poissons Ratio (z) = 0.36222 0.19687
#
# Static dielectric constant tensor:
#      x y z
#    x 1.822180 0.000000 0.001090 
#    y 0.000000 1.843010 0.000000 
#    z 0.001090 0.000000 1.848890 
# 
# From -- ./inp_files/234781.got.cif
#   From: 2010.05.17/outbox.cif.g08.bks.cpg/sg12_118_cif.got.tgz:234781.got - 2010.06.03 13:09:07.
