data_PCOD9216423
_publ_section_title
;
Structure prediction by ZEFSAII (Michael W. Deem and Ramdas Pophale) SiO2 
 PCOD9216423
Probable space group: C 2/M
;
_chemical_formula_sum "Si O2"
_cell_formula_units_Z 52
_cell_length_a 9.133122
_cell_length_b 14.323967
_cell_length_c 27.962294
_cell_angle_alpha 90.000000
_cell_angle_beta 36.991160
_cell_angle_gamma 90.000000
_cell_volume 2201.047723
_symmetry_space_group_name_H-M "C 2/M"
_symmetry_group_IT_number 12
_symmetry_cell_setting 'monoclinic'
loop_
_space_group_symop_operation_xyz
x,y,z
-x,y,-z
-x,-y,-z
x,-y,z
1/2+x,1/2+y,z
1/2-x,1/2+y,-z
1/2-x,1/2-y,-z
1/2+x,1/2-y,z
loop_
_atom_site_type_symbol
_atom_site_label
_atom_site_fract_x
_atom_site_fract_y
_atom_site_fract_z
Si Si1 0.379643 0.000000 0.709927
Si Si2 0.768649 0.349237 0.428168
Si Si3 0.645896 0.393896 0.012129
Si Si4 0.416539 0.783914 0.221501
Si Si5 0.313322 0.192057 0.625105
Si Si6 0.964197 0.500000 0.219560
Si Si7 0.389747 0.779784 0.124931
Si Si8 0.043427 0.000000 0.710451
O O1 0.534218 0.912233 0.650505
O O2 0.426895 0.000000 0.754090
O O3 0.119733 0.000000 0.748451
O O4 0.500000 0.392212 0.500000
O O5 0.735357 0.255068 0.407400
O O6 0.901841 0.332044 0.443363
O O7 0.623663 0.500000 0.035560
O O8 0.925399 0.364942 0.929663
O O9 0.500000 0.389018 0.000000
O O10 0.537701 0.313772 0.073846
O O11 0.266081 0.752207 0.306882
O O12 0.519451 0.889648 0.196146
O O13 0.282514 0.774389 0.206232
O O14 0.652585 0.717900 0.154399
O O15 0.171426 0.094938 0.660139
O O16 0.715097 0.500000 0.250312
#
# Coordination Sequence:
#
# PCOD9216423 Si02
#       8
#     4   8   8   8   8   4   8   4
#     4  10  23  42  68  98 135 177 228 291 351 411
#     4  11  22  41  67  94 130 180 229 283 349 413
#     4  10  22  45  70  95 136 178 226 276 330 403
#     4  12  25  42  68  99 135 176 224 278 345 409
#     4  11  23  43  62  97 137 172 222 291 340 408
#     4  12  24  43  71  98 137 183 226 278 357 415
#     4  11  24  41  67 101 132 174 223 275 331 404
#     4  10  24  43  64  94 136 179 216 278 354 404
#
# _framework density 23.625114
#
# number of rings (size 3 to 8) (size 9 to 14) (size 15 to 20)
#    0.000    1.077    3.077    3.462    4.308    0.000 
#    2.769    1.154    0.000    0.000    0.000    0.000 
#    0.000    0.000    0.000    0.000    0.000    0.000 
#
# Total GULP energy -144992.492325 kJ/mol
# GULP energy per Si atom -5576.634320 kJ/mol
# Density = 2.357134 g / cm^3
# Si number density = 23.625114 Si / 1000 Ang^3
#
#
#
# Elastic Constant Matrix: (Units=GPa)
#
#
# Indices 1 2 3 4 5 6 
#
# 1 131.7183 10.0049 6.9173 0.0049 -20.9046 -0.0001
# 2 10.0049 111.6586 3.0270 0.0074 12.8364 0.0011
# 3 6.9173 3.0270 40.3716 0.0208 -6.7268 0.0063
# 4 0.0049 0.0074 0.0208 28.2439 -0.0047 -1.0743
# 5 -20.9046 12.8364 -6.7268 -0.0047 43.6599 0.0001
# 6 -0.0001 0.0011 0.0063 -1.0743 0.0001 33.5112
#
#
#
# Elastic Compliance Matrix: (Units=1/GPa)
#
#
# Indices 1 2 3 4 5 6 
#
# 1 0.008398 -0.001228 -0.000633 0.000000 0.004285 0.000000
# 2 -0.001228 0.009504 -0.001094 -0.000002 -0.003551 0.000000
# 3 -0.000633 -0.001094 0.025621 -0.000018 0.003966 -0.000005
# 4 0.000000 -0.000002 -0.000018 0.035449 0.000002 0.001136
# 5 0.004285 -0.003551 0.003966 0.000002 0.026611 -0.000001
# 6 0.000000 0.000000 -0.000005 0.001136 -0.000001 0.029877
#
#
# Mechanical properties :
#
#
# Convention : Reuss Voigt Hill
#
# Bulk Modulus (GPa) = 26.58588 35.96076 31.27332
# Shear Modulus (GPa) = 32.48694 38.66963 35.57829
#
# Velocity S-wave (km/s) = 3.71226 4.05013 3.88487
# Velocity P-wave (km/s) = 5.44538 6.09310 5.77832
#
# Compressibility (1/GPa) = 0.03761395
#
# Stress axis : x y z
#
# Youngs Moduli (GPa) = 119.06902 105.22184 39.03018
#
# Poissons Ratio (x) = 0.12921 0.02471
# Poissons Ratio (y) = 0.14621 0.04269
# Poissons Ratio (z) = 0.07537 0.11509
#
# Static dielectric constant tensor:
#      x y z
#    x 1.897690 0.000000 -0.031270 
#    y 0.000000 1.870740 0.000000 
#    z -0.031270 0.000000 1.951440 
# 
# From -- ./inp_files/372529.got.cif
#   From: 2010.05.17/outbox.cif.g08.bks.cpg/sg12_187_cif.got.tgz:372529.got - 2010.06.03 13:09:07.
