data_PCOD9216241
_publ_section_title
;
Structure prediction by ZEFSAII (Michael W. Deem and Ramdas Pophale) SiO2 
 PCOD9216241
Probable space group: C 2/M
;
_chemical_formula_sum "Si O2"
_cell_formula_units_Z 40
_cell_length_a 8.532209
_cell_length_b 13.769135
_cell_length_c 15.693209
_cell_angle_alpha 90.000000
_cell_angle_beta 105.776391
_cell_angle_gamma 90.000000
_cell_volume 1774.205718
_symmetry_space_group_name_H-M "C 2/M"
_symmetry_group_IT_number 12
_symmetry_cell_setting 'monoclinic'
loop_
_space_group_symop_operation_xyz
x,y,z
-x,y,-z
-x,-y,-z
x,-y,z
1/2+x,1/2+y,z
1/2-x,1/2+y,-z
1/2-x,1/2-y,-z
1/2+x,1/2-y,z
loop_
_atom_site_type_symbol
_atom_site_label
_atom_site_fract_x
_atom_site_fract_y
_atom_site_fract_z
Si Si1 0.338858 0.000000 0.344763
Si Si2 0.886515 0.818347 0.413629
Si Si3 0.253034 0.383764 0.027443
Si Si4 0.123964 0.180732 0.298326
Si Si5 0.299338 0.000000 0.543984
Si Si6 0.010361 0.278987 0.888579
O O1 0.241979 0.091625 0.291597
O O2 0.319632 0.000000 0.445066
O O3 0.536075 0.000000 0.373137
O O4 0.742580 0.748773 0.368075
O O5 0.808498 0.908517 0.448724
O O6 0.000000 0.766620 0.500000
O O7 0.981892 0.849608 0.342457
O O8 0.266203 0.500000 0.037287
O O9 0.132675 0.335408 0.081354
O O10 0.417769 0.323083 0.064447
O O11 0.163701 0.351848 0.926194
O O12 0.050469 0.246245 0.212225
#
# Coordination Sequence:
#
# PCOD9216241 Si02
#       6
#     4   8   8   8   4   8
#     4  11  25  42  69  97 136 177 237 298 346 424
#     4  12  24  43  66  95 135 187 231 285 351 412
#     4  10  22  46  78 103 144 188 230 290 367 433
#     4  12  25  41  68  99 140 178 233 294 345 417
#     4  11  24  45  66  97 129 184 243 285 358 417
#     4  10  22  43  70 106 140 178 234 290 348 434
#
# _framework density 22.545300999999998
#
# number of rings (size 3 to 8) (size 9 to 14) (size 15 to 20)
#    0.000    1.000    2.000    5.100    4.200    0.000 
#    7.200    9.000   17.600    0.000    0.000    0.000 
#    0.000    0.000    0.000    0.000    0.000    0.000 
#
# Total GULP energy -111709.879869 kJ/mol
# GULP energy per Si atom -5585.493993 kJ/mol
# Density = 2.249399 g / cm^3
# Si number density = 22.545301 Si / 1000 Ang^3
#
#
#
# Elastic Constant Matrix: (Units=GPa)
#
#
# Indices 1 2 3 4 5 6 
#
# 1 75.3015 14.7245 32.4913 0.0000 8.0247 0.0000
# 2 14.7245 142.9932 42.5492 0.0000 3.6771 0.0000
# 3 32.4913 42.5492 106.0644 0.0000 -5.9545 0.0000
# 4 0.0000 0.0000 0.0000 26.9132 0.0000 -0.0188
# 5 8.0247 3.6771 -5.9545 0.0000 16.9353 0.0000
# 6 0.0000 0.0000 0.0000 -0.0188 0.0000 23.4813
#
#
#
# Elastic Compliance Matrix: (Units=1/GPa)
#
#
# Indices 1 2 3 4 5 6 
#
# 1 0.016814 0.000259 -0.005820 0.000000 -0.010070 0.000000
# 2 0.000259 0.008088 -0.003498 0.000000 -0.003109 0.000000
# 3 -0.005820 -0.003498 0.013070 0.000000 0.008113 0.000000
# 4 0.000000 0.000000 0.000000 0.037156 0.000000 0.000030
# 5 -0.010070 -0.003109 0.008113 0.000000 0.067347 0.000000
# 6 0.000000 0.000000 0.000000 0.000030 0.000000 0.042587
#
#
# Mechanical properties :
#
#
# Convention : Reuss Voigt Hill
#
# Bulk Modulus (GPa) = 50.36999 55.98768 53.17883
# Shear Modulus (GPa) = 23.83249 29.10559 26.46904
#
# Velocity S-wave (km/s) = 3.25482 3.59692 3.43014
# Velocity P-wave (km/s) = 6.04279 6.49136 6.27109
#
# Compressibility (1/GPa) = 0.01985309
#
# Stress axis : x y z
#
# Youngs Moduli (GPa) = 59.47588 123.64641 76.51108
#
# Poissons Ratio (x) = -0.03207 0.44529
# Poissons Ratio (y) = -0.01543 0.26767
# Poissons Ratio (z) = 0.34615 0.43257
#
# Static dielectric constant tensor:
#      x y z
#    x 1.962780 0.000000 -0.011220 
#    y 0.000000 1.681210 0.000000 
#    z -0.011220 0.000000 1.867400 
# 
# From -- ./inp_files/299978.got.cif
#   From: 2010.05.17/outbox.cif.g08.bks.cpg/sg12_150_cif.got.tgz:299978.got - 2010.06.03 13:09:07.
