data_PCOD9216222
_publ_section_title
;
Structure prediction by ZEFSAII (Michael W. Deem and Ramdas Pophale) SiO2 
 PCOD9216222
Probable space group: C 2/M
;
_chemical_formula_sum "Si O2"
_cell_formula_units_Z 36
_cell_length_a 9.010300
_cell_length_b 28.361049
_cell_length_c 8.946272
_cell_angle_alpha 90.000000
_cell_angle_beta 45.659634
_cell_angle_gamma 90.000000
_cell_volume 1635.051568
_symmetry_space_group_name_H-M "C 2/M"
_symmetry_group_IT_number 12
_symmetry_cell_setting 'monoclinic'
loop_
_space_group_symop_operation_xyz
x,y,z
-x,y,-z
-x,-y,-z
x,-y,z
1/2+x,1/2+y,z
1/2-x,1/2+y,-z
1/2-x,1/2-y,-z
1/2+x,1/2-y,z
loop_
_atom_site_type_symbol
_atom_site_label
_atom_site_fract_x
_atom_site_fract_y
_atom_site_fract_z
Si Si1 0.500000 0.077269 0.000000
Si Si2 0.705048 0.821691 0.441062
Si Si3 0.726365 0.500000 0.644674
Si Si4 0.007363 0.739736 0.151521
Si Si5 0.196574 0.910572 0.460277
Si Si6 0.731596 0.000000 0.036236
O O1 0.636833 0.103763 0.782649
O O2 0.358333 0.044110 0.993318
O O3 0.500000 0.840285 0.500000
O O4 0.863249 0.786871 0.244128
O O5 0.597468 0.790185 0.644823
O O6 0.835304 0.864909 0.415526
O O7 0.767415 0.453668 0.515328
O O8 0.816559 0.500000 0.750844
O O9 0.478301 0.500000 0.845615
O O10 0.000000 0.713385 0.000000
O O11 0.250000 0.750000 0.000000
O O12 0.000000 0.925742 0.500000
#
# Coordination Sequence:
#
# PCOD9216222 Si02
#       6
#     4   8   4   8   8   4
#     4  11  24  42  68  94 132 180 240 274 354 401
#     4  11  27  45  69 110 138 178 236 282 342 423
#     4  11  23  47  69  96 142 183 234 292 348 395
#     4  11  24  48  76  99 141 182 220 284 352 412
#     4  12  27  45  68 100 142 185 231 293 341 415
#     4  10  22  43  69  96 123 188 235 287 343 412
#
# _framework density 22.017654
#
# number of rings (size 3 to 8) (size 9 to 14) (size 15 to 20)
#    0.000    0.889    4.444    1.667    7.778    0.889 
#    4.000    0.000    0.000    0.000    0.000    0.000 
#    0.000    0.000    0.000    0.000    0.000    0.000 
#
# Total GULP energy -100498.722031 kJ/mol
# GULP energy per Si atom -5583.262335 kJ/mol
# Density = 2.196754 g / cm^3
# Si number density = 22.017654 Si / 1000 Ang^3
#
#
#
# Elastic Constant Matrix: (Units=GPa)
#
#
# Indices 1 2 3 4 5 6 
#
# 1 128.3695 14.0754 20.4326 0.0000 7.6408 0.0000
# 2 14.0754 72.8128 16.1093 0.0000 9.9107 0.0000
# 3 20.4326 16.1093 118.3849 0.0000 10.0444 0.0000
# 4 0.0000 0.0000 0.0000 24.7559 0.0000 6.8317
# 5 7.6408 9.9107 10.0444 0.0000 41.1810 0.0000
# 6 0.0000 0.0000 0.0000 6.8317 0.0000 25.9455
#
#
#
# Elastic Compliance Matrix: (Units=1/GPa)
#
#
# Indices 1 2 3 4 5 6 
#
# 1 0.008162 -0.001191 -0.001167 0.000000 -0.000943 0.000000
# 2 -0.001191 0.014707 -0.001546 0.000000 -0.002941 0.000000
# 3 -0.001167 -0.001546 0.008995 0.000000 -0.001605 0.000000
# 4 0.000000 0.000000 0.000000 0.043560 0.000000 -0.011470
# 5 -0.000943 -0.002941 -0.001605 0.000000 0.025557 0.000000
# 6 0.000000 0.000000 0.000000 -0.011470 0.000000 0.041562
#
#
# Mechanical properties :
#
#
# Convention : Reuss Voigt Hill
#
# Bulk Modulus (GPa) = 41.56996 46.75577 44.16286
# Shear Modulus (GPa) = 31.57162 36.30648 33.93905
#
# Velocity S-wave (km/s) = 3.79083 4.06516 3.93039
# Velocity P-wave (km/s) = 6.17104 6.58147 6.37956
#
# Compressibility (1/GPa) = 0.02405583
#
# Stress axis : x y z
#
# Youngs Moduli (GPa) = 122.51174 67.99699 111.17328
#
# Poissons Ratio (x) = 0.08101 0.12970
# Poissons Ratio (y) = 0.14596 0.17188
# Poissons Ratio (z) = 0.14293 0.10513
#
# Static dielectric constant tensor:
#      x y z
#    x -66.808460 0.000000 17.624290 
#    y 0.000000 1.751300 0.000000 
#    z 17.624290 0.000000 -2.708190 
# 
# From -- ./inp_files/41363.got.cif
#   From: 2010.05.17/outbox.cif.g08.bks.cpg/sg12_21_cif.got.tgz:41363.got - 2010.06.03 13:09:07.
