data_PCOD9216211
_publ_section_title
;
Structure prediction by ZEFSAII (Michael W. Deem and Ramdas Pophale) SiO2 
 PCOD9216211
Probable space group: C 2/M
;
_chemical_formula_sum "Si O2"
_cell_formula_units_Z 38
_cell_length_a 27.226565
_cell_length_b 14.293112
_cell_length_c 15.137706
_cell_angle_alpha 90.000000
_cell_angle_beta 160.577280
_cell_angle_gamma 90.000000
_cell_volume 1958.922471
_symmetry_space_group_name_H-M "C 2/M"
_symmetry_group_IT_number 12
_symmetry_cell_setting 'monoclinic'
loop_
_space_group_symop_operation_xyz
x,y,z
-x,y,-z
-x,-y,-z
x,-y,z
1/2+x,1/2+y,z
1/2-x,1/2+y,-z
1/2-x,1/2-y,-z
1/2+x,1/2-y,z
loop_
_atom_site_type_symbol
_atom_site_label
_atom_site_fract_x
_atom_site_fract_y
_atom_site_fract_z
Si Si1 0.356025 0.500000 0.194219
Si Si2 0.747160 0.160359 0.558898
Si Si3 0.518006 0.000000 0.135009
Si Si4 0.119981 0.311000 0.527430
Si Si5 0.062655 0.500000 0.813715
Si Si6 0.000000 0.000000 0.000000
Si Si7 0.326000 0.305251 0.048105
O O1 0.500000 0.500000 0.500000
O O2 0.350073 0.409703 0.122565
O O3 0.212139 0.500000 0.012366
O O4 0.750000 0.250000 0.500000
O O5 0.604733 0.096401 0.299284
O O6 0.728892 0.195592 0.628542
O O7 0.877338 0.084045 0.771738
O O8 0.403422 0.000000 0.023124
O O9 0.500000 0.000000 0.000000
O O10 0.037281 0.410927 0.381328
O O11 0.985453 0.238030 0.296383
O O12 0.215630 0.301321 0.778089
O O13 0.250000 0.250000 0.000000
#
# Coordination Sequence:
#
# PCOD9216211 Si02
#       7
#     4   8   4   8   4   2   8
#     4  12  25  43  64  99 138 181 232 292 350 417
#     4  10  24  44  70 100 137 183 226 296 359 423
#     4   9  21  42  64  98 130 171 229 287 349 424
#     4  11  25  44  69 101 131 185 229 281 356 423
#     4  10  22  43  69  89 134 182 230 279 351 419
#     4  10  24  46  72 102 146 170 256 284 352 442
#     4  12  25  43  68  97 138 175 236 289 345 418
#
# _framework density 19.398420000000002
#
# number of rings (size 3 to 8) (size 9 to 14) (size 15 to 20)
#    0.000    1.263    2.105    3.158    4.421    2.526 
#    0.000    0.000    0.000    0.000    0.000    0.000 
#    0.000    0.000    0.000    0.000    0.000    0.000 
#
# Total GULP energy -105787.825113 kJ/mol
# GULP energy per Si atom -5567.780269 kJ/mol
# Density = 1.935427 g / cm^3
# Si number density = 19.398420 Si / 1000 Ang^3
#
#
#
# Elastic Constant Matrix: (Units=GPa)
#
#
# Indices 1 2 3 4 5 6 
#
# 1 118.9857 69.3723 60.4413 0.0000 -32.7887 0.0000
# 2 69.3723 169.6742 49.9337 0.0000 5.9523 0.0000
# 3 60.4413 49.9337 113.8991 0.0000 -20.4804 0.0000
# 4 0.0000 0.0000 0.0000 40.2864 0.0000 11.3337
# 5 -32.7887 5.9523 -20.4804 0.0000 33.7827 0.0000
# 6 0.0000 0.0000 0.0000 11.3337 0.0000 50.8326
#
#
#
# Elastic Compliance Matrix: (Units=1/GPa)
#
#
# Indices 1 2 3 4 5 6 
#
# 1 0.019854 -0.007602 -0.003925 0.000000 0.018229 0.000000
# 2 -0.007602 0.010034 -0.002256 0.000000 -0.010513 0.000000
# 3 -0.003925 -0.002256 0.012613 0.000000 0.004234 0.000000
# 4 0.000000 0.000000 0.000000 0.026483 0.000000 -0.005905
# 5 0.018229 -0.010513 0.004234 0.000000 0.051713 0.000000
# 6 0.000000 0.000000 0.000000 -0.005905 0.000000 0.020989
#
#
# Mechanical properties :
#
#
# Convention : Reuss Voigt Hill
#
# Bulk Modulus (GPa) = 66.95206 84.67264 75.81235
# Shear Modulus (GPa) = 28.69779 39.83445 34.26612
#
# Velocity S-wave (km/s) = 3.85045 4.53646 4.20746
# Velocity P-wave (km/s) = 7.37273 8.43702 7.92276
#
# Compressibility (1/GPa) = 0.01493606
#
# Stress axis : x y z
#
# Youngs Moduli (GPa) = 50.36881 99.65873 79.28465
#
# Poissons Ratio (x) = 0.75757 0.31119
# Poissons Ratio (y) = 0.38289 0.17884
# Poissons Ratio (z) = 0.19770 0.22479
#
# Static dielectric constant tensor:
#      x y z
#    x 1.728400 0.000000 -0.007550 
#    y 0.000000 1.653260 0.000000 
#    z -0.007550 0.000000 1.656970 
# 
# From -- ./inp_files/246676.got.cif
#   From: 2010.05.17/outbox.cif.g08.bks.cpg/sg12_124_cif.got.tgz:246676.got - 2010.06.03 13:09:07.
