data_PCOD9216150
_publ_section_title
;
Structure prediction by ZEFSAII (Michael W. Deem and Ramdas Pophale) SiO2 
 PCOD9216150
Probable space group: C 2/M
;
_chemical_formula_sum "Si O2"
_cell_formula_units_Z 48
_cell_length_a 15.963756
_cell_length_b 31.055944
_cell_length_c 9.169541
_cell_angle_alpha 90.000000
_cell_angle_beta 31.029077
_cell_angle_gamma 90.000000
_cell_volume 2343.329420
_symmetry_space_group_name_H-M "C 2/M"
_symmetry_group_IT_number 12
_symmetry_cell_setting 'monoclinic'
loop_
_space_group_symop_operation_xyz
x,y,z
-x,y,-z
-x,-y,-z
x,-y,z
1/2+x,1/2+y,z
1/2-x,1/2+y,-z
1/2-x,1/2-y,-z
1/2+x,1/2-y,z
loop_
_atom_site_type_symbol
_atom_site_label
_atom_site_fract_x
_atom_site_fract_y
_atom_site_fract_z
Si Si1 0.559179 0.449598 0.577738
Si Si2 0.534538 0.855582 0.616145
Si Si3 0.072839 0.267122 0.731598
Si Si4 0.126063 0.890370 0.944493
Si Si5 0.673265 0.121852 0.823642
Si Si6 0.024936 0.817866 0.636217
O O1 0.500000 0.441681 0.500000
O O2 0.591581 0.500000 0.547204
O O3 0.421937 0.432858 0.894259
O O4 0.717195 0.419961 0.369356
O O5 0.500000 0.847069 0.500000
O O6 0.569464 0.811039 0.646946
O O7 0.380469 0.876025 0.927577
O O8 0.692692 0.886000 0.386314
O O9 0.250000 0.250000 0.500000
O O10 0.995722 0.228563 0.751339
O O11 0.000000 0.272774 0.000000
O O12 0.092498 0.851202 0.106469
O O13 0.000000 0.885458 0.000000
O O14 0.793597 0.162000 0.610401
O O15 0.500000 0.122494 0.000000
O O16 0.000000 0.816852 0.500000
#
# Coordination Sequence:
#
# PCOD9216150 Si02
#       6
#     8   8   8   8   8   8
#     4  10  22  43  67  89 117 156 196 234 287 360
#     4  12  23  37  58  88 120 152 196 249 299 341
#     4  12  24  38  57  83 119 159 204 249 294 341
#     4  11  22  39  62  87 118 156 195 239 293 352
#     4  11  22  39  62  89 120 154 193 243 299 350
#     4  11  22  40  61  84 117 163 210 244 287 349
#
# _framework density 20.483675000000002
#
# number of rings (size 3 to 8) (size 9 to 14) (size 15 to 20)
#    0.000    0.833    0.000   11.500    0.000    0.667 
#    0.000    5.833    0.000    3.000    0.000    0.000 
#    0.000    0.000    0.000    0.000    0.000    0.000 
#
# Total GULP energy -134258.082152 kJ/mol
# GULP energy per Si atom -5594.086756 kJ/mol
# Density = 2.043705 g / cm^3
# Si number density = 20.483675 Si / 1000 Ang^3
#
#
#
# Elastic Constant Matrix: (Units=GPa)
#
#
# Indices 1 2 3 4 5 6 
#
# 1 97.7036 39.3727 13.1068 0.0000 12.3113 0.0000
# 2 39.3727 118.1512 38.4629 0.0000 2.0742 0.0000
# 3 13.1068 38.4629 117.3149 0.0000 1.2723 0.0000
# 4 0.0000 0.0000 0.0000 22.8910 0.0000 5.0218
# 5 12.3113 2.0742 1.2723 0.0000 45.1963 0.0000
# 6 0.0000 0.0000 0.0000 5.0218 0.0000 24.1097
#
#
#
# Elastic Compliance Matrix: (Units=1/GPa)
#
#
# Indices 1 2 3 4 5 6 
#
# 1 0.012256 -0.004024 -0.000016 0.000000 -0.003153 0.000000
# 2 -0.004024 0.010801 -0.003099 0.000000 0.000688 0.000000
# 3 -0.000016 -0.003099 0.009543 0.000000 -0.000122 0.000000
# 4 0.000000 0.000000 0.000000 0.045777 0.000000 -0.009535
# 5 -0.003153 0.000688 -0.000122 0.000000 0.022957 0.000000
# 6 0.000000 0.000000 0.000000 -0.009535 0.000000 0.043463
#
#
# Mechanical properties :
#
#
# Convention : Reuss Voigt Hill
#
# Bulk Modulus (GPa) = 54.57602 57.22829 55.90215
# Shear Modulus (GPa) = 30.26954 34.58790 32.42872
#
# Velocity S-wave (km/s) = 3.84831 4.11367 3.98320
# Velocity P-wave (km/s) = 6.81524 7.11071 6.96454
#
# Compressibility (1/GPa) = 0.01832307
#
# Stress axis : x y z
#
# Youngs Moduli (GPa) = 81.59293 92.58022 104.78553
#
# Poissons Ratio (x) = 0.37251 0.00166
# Poissons Ratio (y) = 0.32830 0.32476
# Poissons Ratio (z) = 0.00130 0.28693
#
# Static dielectric constant tensor:
#      x y z
#    x 1.772270 0.000000 0.005780 
#    y 0.000000 1.719190 0.000000 
#    z 0.005780 0.000000 1.734490 
# 
# From -- ./inp_files/80617.got.cif
#   From: 2010.05.17/outbox.cif.g08.bks.cpg/sg12_41_cif.got.tgz:80617.got - 2010.06.03 13:09:07.
