data_PCOD9216385
_publ_section_title
;
Structure prediction by ZEFSAII (Michael W. Deem and Ramdas Pophale) SiO2 
 PCOD9216385
Probable space group: C 2/M
;
_chemical_formula_sum "Si O2"
_cell_formula_units_Z 32
_cell_length_a 8.208126
_cell_length_b 16.856203
_cell_length_c 10.569856
_cell_angle_alpha 90.000000
_cell_angle_beta 65.437010
_cell_angle_gamma 90.000000
_cell_volume 1330.080236
_symmetry_space_group_name_H-M "C 2/M"
_symmetry_group_IT_number 12
_symmetry_cell_setting 'monoclinic'
loop_
_space_group_symop_operation_xyz
x,y,z
-x,y,-z
-x,-y,-z
x,-y,z
1/2+x,1/2+y,z
1/2-x,1/2+y,-z
1/2-x,1/2-y,-z
1/2+x,1/2-y,z
loop_
_atom_site_type_symbol
_atom_site_label
_atom_site_fract_x
_atom_site_fract_y
_atom_site_fract_z
Si Si1 0.894298 0.814733 0.411615
Si Si2 0.264394 0.745891 0.844724
Si Si3 0.583490 0.916595 0.831924
Si Si4 0.742283 0.588204 0.760351
O O1 0.750000 0.750000 0.500000
O O2 0.820664 0.666552 0.185094
O O3 0.790005 0.886363 0.374428
O O4 0.000000 0.844977 0.500000
O O5 0.459721 0.734873 0.718347
O O6 0.171003 0.829567 0.841359
O O7 0.250000 0.750000 0.000000
O O8 0.435577 0.914590 0.768038
O O9 0.688138 0.000000 0.781031
O O10 0.500000 0.922371 0.000000
O O11 0.664234 0.500000 0.807861
#
# Coordination Sequence:
#
# PCOD9216385 Si02
#       4
#     8   8   8   8
#     4  12  28  49  74 103 150 197 253 308 371 444
#     4  12  25  45  80 112 146 197 248 309 373 443
#     4  10  22  44  73 111 154 191 240 306 382 449
#     4  11  25  46  74 111 152 198 247 308 379 452
#
# _framework density 24.058699000000001
#
# number of rings (size 3 to 8) (size 9 to 14) (size 15 to 20)
#    0.000    0.750    5.000    1.500    0.000    1.500 
#    0.000    3.750    0.000    0.000    0.000    0.000 
#    0.000    0.000    0.000    0.000    0.000    0.000 
#
# Total GULP energy -89082.845243 kJ/mol
# GULP energy per Si atom -5567.677828 kJ/mol
# Density = 2.400394 g / cm^3
# Si number density = 24.058699 Si / 1000 Ang^3
#
#
#
# Elastic Constant Matrix: (Units=GPa)
#
#
# Indices 1 2 3 4 5 6 
#
# 1 89.6121 55.1569 75.5707 0.0000 15.5261 0.0000
# 2 55.1569 258.5253 54.2448 0.0000 22.6696 0.0000
# 3 75.5707 54.2448 128.9273 0.0000 28.0759 0.0000
# 4 0.0000 0.0000 0.0000 63.0461 0.0000 28.8760
# 5 15.5261 22.6696 28.0759 0.0000 60.3157 0.0000
# 6 0.0000 0.0000 0.0000 28.8760 0.0000 40.4166
#
#
#
# Elastic Compliance Matrix: (Units=1/GPa)
#
#
# Indices 1 2 3 4 5 6 
#
# 1 0.023296 -0.002349 -0.012856 0.000000 0.000870 0.000000
# 2 -0.002349 0.004519 -0.000319 0.000000 -0.000946 0.000000
# 3 -0.012856 -0.000319 0.016335 0.000000 -0.004175 0.000000
# 4 0.000000 0.000000 0.000000 0.023576 0.000000 -0.016844
# 5 0.000870 -0.000946 -0.004175 0.000000 0.018654 0.000000
# 6 0.000000 0.000000 0.000000 -0.016844 0.000000 0.036777
#
#
# Mechanical properties :
#
#
# Convention : Reuss Voigt Hill
#
# Bulk Modulus (GPa) = 76.32095 94.11217 85.21656
# Shear Modulus (GPa) = 31.53141 52.22851 41.87996
#
# Velocity S-wave (km/s) = 3.62415 4.66432 4.17675
# Velocity P-wave (km/s) = 7.02170 8.25897 7.66534
#
# Compressibility (1/GPa) = 0.01310256
#
# Stress axis : x y z
#
# Youngs Moduli (GPa) = 42.92594 221.28718 61.21815
#
# Poissons Ratio (x) = 0.51981 0.78703
# Poissons Ratio (y) = 0.10084 0.01950
# Poissons Ratio (z) = 0.55186 0.07049
#
# Static dielectric constant tensor:
#      x y z
#    x 2.113470 0.000000 0.017730 
#    y 0.000000 1.993410 0.000000 
#    z 0.017730 0.000000 2.189940 
# 
# From -- ./inp_files/46143.got.cif
#   From: 2010.05.17/outbox.cif.g08.bks.cpg/sg12_24_cif.got.tgz:46143.got - 2010.06.03 13:09:07.
