data_PCOD9216220
_publ_section_title
;
Structure prediction by ZEFSAII (Michael W. Deem and Ramdas Pophale) SiO2 
 PCOD9216220
Probable space group: C 2/M
;
_chemical_formula_sum "Si O2"
_cell_formula_units_Z 36
_cell_length_a 14.689518
_cell_length_b 15.223800
_cell_length_c 15.720324
_cell_angle_alpha 90.000000
_cell_angle_beta 152.693397
_cell_angle_gamma 90.000000
_cell_volume 1612.761103
_symmetry_space_group_name_H-M "C 2/M"
_symmetry_group_IT_number 12
_symmetry_cell_setting 'monoclinic'
loop_
_space_group_symop_operation_xyz
x,y,z
-x,y,-z
-x,-y,-z
x,-y,z
1/2+x,1/2+y,z
1/2-x,1/2+y,-z
1/2-x,1/2-y,-z
1/2+x,1/2-y,z
loop_
_atom_site_type_symbol
_atom_site_label
_atom_site_fract_x
_atom_site_fract_y
_atom_site_fract_z
Si Si1 0.000000 0.853838 0.000000
Si Si2 0.873924 0.286259 0.021938
Si Si3 0.072867 0.104359 0.657402
Si Si4 0.444276 0.900081 0.366040
Si Si5 0.641203 0.896029 0.360394
O O1 0.008173 0.792611 0.924041
O O2 0.207404 0.903540 0.166179
O O3 0.738541 0.333551 0.837440
O O4 0.750000 0.250000 0.000000
O O5 0.031697 0.354110 0.189895
O O6 0.000000 0.122636 0.500000
O O7 0.875562 0.116329 0.550671
O O8 0.130125 0.000000 0.707422
O O9 0.500000 0.853920 0.500000
O O10 0.541626 0.859098 0.363632
O O11 0.525100 0.000000 0.436444
O O12 0.601880 0.000000 0.324485
#
# Coordination Sequence:
#
# PCOD9216220 Si02
#       5
#     4   8   8   8   8
#     4  12  25  42  61  92 132 168 206 256 329 382
#     4  12  25  41  62  98 133 168 207 261 330 385
#     4  10  23  44  69  95 125 171 222 267 317 378
#     4  10  23  42  65  92 123 168 217 261 310 376
#     4  10  22  43  69  95 124 166 219 267 314 374
#
# _framework density 22.321967000000001
#
# number of rings (size 3 to 8) (size 9 to 14) (size 15 to 20)
#    0.000    1.333    2.222    2.333    3.111    3.556 
#    0.000    4.444    0.000    0.000    0.000    0.000 
#    0.000    0.000    0.000    0.000    0.000    0.000 
#
# Total GULP energy -100598.708681 kJ/mol
# GULP energy per Si atom -5588.817149 kJ/mol
# Density = 2.227116 g / cm^3
# Si number density = 22.321967 Si / 1000 Ang^3
#
#
#
# Elastic Constant Matrix: (Units=GPa)
#
#
# Indices 1 2 3 4 5 6 
#
# 1 104.5751 11.8518 -1.5113 0.0467 -11.1802 0.0237
# 2 11.8518 56.2641 15.4763 0.0500 -7.6461 0.0285
# 3 -1.5113 15.4763 64.7518 0.0528 -19.8597 0.0312
# 4 0.0467 0.0500 0.0528 245.0304 0.0172 119.4855
# 5 -11.1802 -7.6461 -19.8597 0.0172 31.8052 0.0095
# 6 0.0237 0.0285 0.0312 119.4855 0.0095 60.2445
#
#
#
# Elastic Compliance Matrix: (Units=1/GPa)
#
#
# Indices 1 2 3 4 5 6 
#
# 1 0.010310 -0.002151 0.002112 0.000002 0.004426 -0.000008
# 2 -0.002151 0.019592 -0.004354 0.000011 0.001235 -0.000028
# 3 0.002112 -0.004354 0.020335 0.000022 0.012393 -0.000055
# 4 0.000002 0.000011 0.000022 0.124233 0.000023 -0.246396
# 5 0.004426 0.001235 0.012393 0.000023 0.041033 -0.000061
# 6 -0.000008 -0.000028 -0.000055 -0.246396 -0.000061 0.505288
#
#
# Mechanical properties :
#
#
# Convention : Reuss Voigt Hill
#
# Bulk Modulus (GPa) = 24.12527 30.80274 27.46401
# Shear Modulus (GPa) = 6.72592 80.73428 43.73010
#
# Velocity S-wave (km/s) = 1.73772 6.02051 4.43093
# Velocity P-wave (km/s) = 3.85455 7.88404 6.20547
#
# Compressibility (1/GPa) = 0.04145031
#
# Stress axis : x y z
#
# Youngs Moduli (GPa) = 96.99290 51.04126 49.17738
#
# Poissons Ratio (x) = 0.10981 -0.10388
# Poissons Ratio (y) = 0.20866 0.21412
# Poissons Ratio (z) = -0.20488 0.22224
#
# Static dielectric constant tensor:
#      x y z
#    x 1.897450 0.000010 -0.048830 
#    y 0.000010 1.843320 -0.000020 
#    z -0.048830 -0.000020 1.830010 
# 
# From -- ./inp_files/216577.got.cif
#   From: 2010.05.17/outbox.cif.g08.bks.cpg/sg12_109_cif.got.tgz:216577.got - 2010.06.03 13:09:07.
