data_PCOD9216791
_publ_section_title
;
Structure prediction by ZEFSAII (Michael W. Deem and Ramdas Pophale) SiO2 
 PCOD9216791
Probable space group: C 2/M
;
_chemical_formula_sum "Si O2"
_cell_formula_units_Z 34
_cell_length_a 22.389425
_cell_length_b 7.631109
_cell_length_c 18.725888
_cell_angle_alpha 90.000000
_cell_angle_beta 153.093648
_cell_angle_gamma 90.000000
_cell_volume 1447.850847
_symmetry_space_group_name_H-M "C 2/M"
_symmetry_group_IT_number 12
_symmetry_cell_setting 'monoclinic'
loop_
_space_group_symop_operation_xyz
x,y,z
-x,y,-z
-x,-y,-z
x,-y,z
1/2+x,1/2+y,z
1/2-x,1/2+y,-z
1/2-x,1/2-y,-z
1/2+x,1/2-y,z
loop_
_atom_site_type_symbol
_atom_site_label
_atom_site_fract_x
_atom_site_fract_y
_atom_site_fract_z
Si Si1 0.657385 0.292206 0.466559
Si Si2 0.402265 0.713756 0.960463
Si Si3 0.890505 0.789475 0.112812
Si Si4 0.000000 0.000000 0.500000
Si Si5 0.348592 0.800631 0.391597
O O1 0.656410 0.500000 0.474933
O O2 0.750000 0.250000 0.500000
O O3 0.510869 0.226245 0.290590
O O4 0.715779 0.204653 0.599356
O O5 0.408207 0.500000 0.966642
O O6 0.255763 0.765050 0.777878
O O7 0.500000 0.771888 0.000000
O O8 0.413583 0.772899 0.055064
O O9 0.900178 0.000000 0.119263
O O10 0.750000 0.750000 0.000000
O O11 0.962946 0.842304 0.516930
O O12 0.383999 0.000000 0.414452
#
# Coordination Sequence:
#
# PCOD9216791 Si02
#       5
#     8   8   8   2   8
#     4  11  23  42  67  98 135 175 222 275 330 399
#     4   9  19  40  67  94 124 168 221 271 327 393
#     4  10  23  40  63  93 130 169 215 273 331 387
#     4  12  26  44  62  98 140 168 228 270 320 398
#     4  11  24  42  70  97 130 175 220 273 332 390
#
# _framework density 23.483082
#
# number of rings (size 3 to 8) (size 9 to 14) (size 15 to 20)
#    0.000    1.647    1.176    2.471    3.294    5.647 
#    0.000    0.588    0.000    0.000    0.000    0.000 
#    0.000    0.000    0.000    0.000    0.000    0.000 
#
# Total GULP energy -94688.160102 kJ/mol
# GULP energy per Si atom -5569.891771 kJ/mol
# Density = 2.342963 g / cm^3
# Si number density = 23.483082 Si / 1000 Ang^3
#
#
#
# Elastic Constant Matrix: (Units=GPa)
#
#
# Indices 1 2 3 4 5 6 
#
# 1 93.8286 6.9478 -2.8530 0.0000 -3.4058 0.0000
# 2 6.9478 90.0929 17.3159 0.0000 -0.1175 0.0000
# 3 -2.8530 17.3159 64.2510 0.0000 -5.8879 0.0000
# 4 0.0000 0.0000 0.0000 0.9858 0.0000 3.4318
# 5 -3.4058 -0.1175 -5.8879 0.0000 47.8983 0.0000
# 6 0.0000 0.0000 0.0000 3.4318 0.0000 27.5162
#
#
#
# Elastic Compliance Matrix: (Units=1/GPa)
#
#
# Indices 1 2 3 4 5 6 
#
# 1 0.010788 -0.000989 0.000825 0.000000 0.000866 0.000000
# 2 -0.000989 0.011803 -0.003265 0.000000 -0.000443 0.000000
# 3 0.000825 -0.003265 0.016673 0.000000 0.002100 0.000000
# 4 0.000000 0.000000 0.000000 1.792784 0.000000 -0.223596
# 5 0.000866 -0.000443 0.002100 0.000000 0.021196 0.000000
# 6 0.000000 0.000000 0.000000 -0.223596 0.000000 0.064229
#
#
# Mechanical properties :
#
#
# Convention : Reuss Voigt Hill
#
# Bulk Modulus (GPa) = 30.86035 32.33263 31.59649
# Shear Modulus (GPa) = 2.58380 30.39752 16.49066
#
# Velocity S-wave (km/s) = 1.05008 3.60174 2.65285
# Velocity P-wave (km/s) = 3.82626 5.57630 4.78202
#
# Compressibility (1/GPa) = 0.03240404
#
# Stress axis : x y z
#
# Youngs Moduli (GPa) = 92.69975 84.72425 59.97678
#
# Poissons Ratio (x) = 0.08382 -0.04948
# Poissons Ratio (y) = 0.09171 0.19585
# Poissons Ratio (z) = -0.07648 0.27666
#
# Static dielectric constant tensor:
#      x y z
#    x 2.200170 0.000000 0.190920 
#    y 0.000000 1.876430 0.000000 
#    z 0.190920 0.000000 2.609610 
# 
# From -- ./inp_files/281961.got.cif
#   From: 2010.05.17/outbox.cif.g08.bks.cpg/sg12_141_cif.got.tgz:281961.got - 2010.06.03 13:09:07.
