data_PCOD9216270
_publ_section_title
;
Structure prediction by ZEFSAII (Michael W. Deem and Ramdas Pophale) SiO2 
 PCOD9216270
Probable space group: C 2/M
;
_chemical_formula_sum "Si O2"
_cell_formula_units_Z 56
_cell_length_a 17.952288
_cell_length_b 29.244402
_cell_length_c 9.497316
_cell_angle_alpha 90.000000
_cell_angle_beta 34.895343
_cell_angle_gamma 90.000000
_cell_volume 2852.460278
_symmetry_space_group_name_H-M "C 2/M"
_symmetry_group_IT_number 12
_symmetry_cell_setting 'monoclinic'
loop_
_space_group_symop_operation_xyz
x,y,z
-x,y,-z
-x,-y,-z
x,-y,z
1/2+x,1/2+y,z
1/2-x,1/2+y,-z
1/2-x,1/2-y,-z
1/2+x,1/2-y,z
loop_
_atom_site_type_symbol
_atom_site_label
_atom_site_fract_x
_atom_site_fract_y
_atom_site_fract_z
Si Si1 0.749394 0.363827 0.947762
Si Si2 0.963250 0.783704 0.716480
Si Si3 0.584098 0.186387 0.078392
Si Si4 0.224561 0.799619 0.473090
Si Si5 0.658534 0.446472 0.271221
Si Si6 0.684441 0.866593 0.476685
Si Si7 0.157838 0.553957 0.736044
O O1 0.850406 0.342392 0.899786
O O2 0.803496 0.370542 0.707954
O O3 0.634478 0.326172 0.126039
O O4 0.709103 0.412078 0.075109
O O5 0.914051 0.739027 0.874705
O O6 0.000000 0.770644 0.500000
O O7 0.096549 0.798076 0.580010
O O8 0.442052 0.164167 0.290153
O O9 0.663504 0.184742 0.810152
O O10 0.250000 0.750000 0.500000
O O11 0.203610 0.834945 0.631822
O O12 0.500000 0.441816 0.500000
O O13 0.686971 0.500000 0.202404
O O14 0.742571 0.435107 0.286022
O O15 0.687571 0.913572 0.557799
O O16 0.176764 0.500000 0.678621
O O17 0.000000 0.560482 0.000000
#
# Coordination Sequence:
#
# PCOD9216270 Si02
#       7
#     8   8   8   8   8   8   8
#     4  12  25  41  66  94 129 172 215 261 325 396
#     4  12  25  42  65  89 127 172 222 267 312 388
#     4  12  25  43  64  92 133 173 217 268 326 385
#     4  12  25  42  63  91 124 172 219 268 324 373
#     4  10  23  45  71  98 130 171 221 274 334 399
#     4  12  25  40  64  97 134 167 213 271 325 388
#     4  10  22  43  71  99 129 169 218 272 332 397
#
# _framework density 19.632176000000001
#
# number of rings (size 3 to 8) (size 9 to 14) (size 15 to 20)
#    0.000    0.571    2.857    6.000    2.000    2.286 
#    0.000    0.000    0.000    6.857    0.000    0.000 
#    0.000    0.000    0.000    0.000    0.000    0.000 
#
# Total GULP energy -156333.418055 kJ/mol
# GULP energy per Si atom -5583.336359 kJ/mol
# Density = 1.958749 g / cm^3
# Si number density = 19.632176 Si / 1000 Ang^3
#
#
#
# Elastic Constant Matrix: (Units=GPa)
#
#
# Indices 1 2 3 4 5 6 
#
# 1 149.4477 44.7362 50.8886 0.0000 17.3072 0.0000
# 2 44.7362 92.9191 35.6969 0.0000 26.3711 0.0000
# 3 50.8886 35.6969 116.5453 0.0000 33.7015 -0.0001
# 4 0.0000 0.0000 0.0000 74.7187 0.0000 -35.6145
# 5 17.3072 26.3711 33.7015 0.0000 35.8828 0.0001
# 6 0.0000 0.0000 -0.0001 -35.6145 0.0001 85.6520
#
#
#
# Elastic Compliance Matrix: (Units=1/GPa)
#
#
# Indices 1 2 3 4 5 6 
#
# 1 0.008588 -0.003281 -0.003081 0.000000 0.001163 0.000000
# 2 -0.003281 0.015117 -0.000608 0.000000 -0.008957 0.000000
# 3 -0.003081 -0.000608 0.013115 0.000000 -0.010385 0.000000
# 4 0.000000 0.000000 0.000000 0.016692 0.000000 0.006940
# 5 0.001163 -0.008957 -0.010385 0.000000 0.043644 0.000000
# 6 0.000000 0.000000 0.000000 0.006940 0.000000 0.014561
#
#
# Mechanical properties :
#
#
# Convention : Reuss Voigt Hill
#
# Bulk Modulus (GPa) = 43.70585 69.06173 56.38379
# Shear Modulus (GPa) = 37.51417 54.42338 45.96878
#
# Velocity S-wave (km/s) = 4.37607 5.27084 4.84416
# Velocity P-wave (km/s) = 6.91694 8.50273 7.75050
#
# Compressibility (1/GPa) = 0.02288023
#
# Stress axis : x y z
#
# Youngs Moduli (GPa) = 116.44198 66.15009 76.24935
#
# Poissons Ratio (x) = 0.21704 0.23494
# Poissons Ratio (y) = 0.38205 0.04633
# Poissons Ratio (z) = 0.35878 0.04019
#
# Static dielectric constant tensor:
#      x y z
#    x 1.841130 0.000000 -0.082330 
#    y 0.000000 1.690960 0.000000 
#    z -0.082330 0.000000 1.695690 
# 
# From -- ./inp_files/80408.got.cif
#   From: 2010.05.17/outbox.cif.g08.bks.cpg/sg12_41_cif.got.tgz:80408.got - 2010.06.03 13:09:07.
