data_PCOD9216575
_publ_section_title
;
Structure prediction by ZEFSAII (Michael W. Deem and Ramdas Pophale) SiO2 
 PCOD9216575
Probable space group: C 2/M
;
_chemical_formula_sum "Si O2"
_cell_formula_units_Z 52
_cell_length_a 12.400721
_cell_length_b 21.406112
_cell_length_c 14.859737
_cell_angle_alpha 90.000000
_cell_angle_beta 134.389568
_cell_angle_gamma 90.000000
_cell_volume 2818.765191
_symmetry_space_group_name_H-M "C 2/M"
_symmetry_group_IT_number 12
_symmetry_cell_setting 'monoclinic'
loop_
_space_group_symop_operation_xyz
x,y,z
-x,y,-z
-x,-y,-z
x,-y,z
1/2+x,1/2+y,z
1/2-x,1/2+y,-z
1/2-x,1/2-y,-z
1/2+x,1/2-y,z
loop_
_atom_site_type_symbol
_atom_site_label
_atom_site_fract_x
_atom_site_fract_y
_atom_site_fract_z
Si Si1 0.354216 0.349301 0.853678
Si Si2 0.827565 0.127776 0.184675
Si Si3 0.102093 0.500000 0.470814
Si Si4 0.162586 0.500000 0.143251
Si Si5 0.149330 0.636333 0.899800
Si Si6 0.397444 0.209347 0.849733
Si Si7 0.630980 0.428941 0.310854
Si Si8 0.972666 0.500000 0.199153
O O1 0.219338 0.343501 0.846266
O O2 0.379877 0.282405 0.821932
O O3 0.331594 0.400995 0.764697
O O4 0.500000 0.364626 0.000000
O O5 0.760387 0.177179 0.216159
O O6 0.004629 0.114057 0.282518
O O7 0.748091 0.062343 0.164236
O O8 0.767710 0.147335 0.050376
O O9 0.216187 0.440933 0.544303
O O10 0.000000 0.500000 0.500000
O O11 0.010229 0.500000 0.326086
O O12 0.123516 0.500000 0.226234
O O13 0.000000 0.500000 0.000000
O O14 0.117183 0.562555 0.877492
O O15 0.995058 0.672161 0.833650
O O16 0.500000 0.204034 0.000000
O O17 0.568470 0.500000 0.263248
#
# Coordination Sequence:
#
# PCOD9216575 Si02
#       8
#     8   8   4   4   8   8   8   4
#     4  11  22  33  54  86 118 155 193 231 281 357
#     4  11  18  35  53  87 125 143 181 234 290 347
#     4  10  23  44  57  83 113 151 200 243 293 343
#     4  12  17  31  54  91 118 147 180 235 295 343
#     4  11  21  33  56  88 117 153 190 228 290 345
#     4   9  21  33  52  82 122 160 179 221 283 352
#     4  10  23  38  57  82 114 152 183 247 297 321
#     4  12  22  35  64  86 109 150 199 238 284 345
#
# _framework density 18.447793999999998
#
# number of rings (size 3 to 8) (size 9 to 14) (size 15 to 20)
#    0.462    0.923    5.385    1.385    3.231    2.154 
#    0.000    1.538    0.000    0.923    4.000    0.000 
#    0.000    0.000    0.000    0.000    0.000    0.000 
#
# Total GULP energy -145065.118914 kJ/mol
# GULP energy per Si atom -5579.427651 kJ/mol
# Density = 1.840581 g / cm^3
# Si number density = 18.447794 Si / 1000 Ang^3
#
#
#
# Elastic Constant Matrix: (Units=GPa)
#
#
# Indices 1 2 3 4 5 6 
#
# 1 102.5557 2.1255 10.4230 0.0000 2.9789 0.0000
# 2 2.1255 49.3731 -4.8710 0.0000 -0.5346 0.0000
# 3 10.4230 -4.8710 26.9588 0.0000 0.9010 0.0000
# 4 0.0000 0.0000 0.0000 4.7408 0.0000 2.1578
# 5 2.9789 -0.5346 0.9010 0.0000 21.0974 0.0000
# 6 0.0000 0.0000 0.0000 2.1578 0.0000 7.1772
#
#
#
# Elastic Compliance Matrix: (Units=1/GPa)
#
#
# Indices 1 2 3 4 5 6 
#
# 1 0.010219 -0.000855 -0.004062 0.000000 -0.001291 0.000000
# 2 -0.000855 0.020696 0.004054 0.000000 0.000472 0.000000
# 3 -0.004062 0.004054 0.039430 0.000000 -0.001008 0.000000
# 4 0.000000 0.000000 0.000000 0.244377 0.000000 -0.073473
# 5 -0.001291 0.000472 -0.001008 0.000000 0.047637 0.000000
# 6 0.000000 0.000000 0.000000 -0.073473 0.000000 0.161421
#
#
# Mechanical properties :
#
#
# Convention : Reuss Voigt Hill
#
# Bulk Modulus (GPa) = 14.57313 21.58252 18.07782
# Shear Modulus (GPa) = 9.11779 18.01707 13.56743
#
# Velocity S-wave (km/s) = 2.22558 3.12853 2.71486
# Velocity P-wave (km/s) = 3.81066 4.97744 4.43261
#
# Compressibility (1/GPa) = 0.06861946
#
# Stress axis : x y z
#
# Youngs Moduli (GPa) = 97.85818 48.31900 25.36114
#
# Poissons Ratio (x) = 0.04130 0.10302
# Poissons Ratio (y) = 0.08364 -0.10282
# Poissons Ratio (z) = 0.39752 -0.19589
#
# Static dielectric constant tensor:
#      x y z
#    x 1.671110 0.000000 0.011170 
#    y 0.000000 1.642260 0.000000 
#    z 0.011170 0.000000 1.608690 
# 
# From -- ./inp_files/208457.got.cif
#   From: 2010.05.17/outbox.cif.g08.bks.cpg/sg12_105_cif.got.tgz:208457.got - 2010.06.03 13:09:07.
