data_PCOD9216728
_publ_section_title
;
Structure prediction by ZEFSAII (Michael W. Deem and Ramdas Pophale) SiO2 
 PCOD9216728
Probable space group: C 2/M
;
_chemical_formula_sum "Si O2"
_cell_formula_units_Z 44
_cell_length_a 5.356609
_cell_length_b 23.761292
_cell_length_c 21.027817
_cell_angle_alpha 90.000000
_cell_angle_beta 98.100135
_cell_angle_gamma 90.000000
_cell_volume 2649.717743
_symmetry_space_group_name_H-M "C 2/M"
_symmetry_group_IT_number 12
_symmetry_cell_setting 'monoclinic'
loop_
_space_group_symop_operation_xyz
x,y,z
-x,y,-z
-x,-y,-z
x,-y,z
1/2+x,1/2+y,z
1/2-x,1/2+y,-z
1/2-x,1/2-y,-z
1/2+x,1/2-y,z
loop_
_atom_site_type_symbol
_atom_site_label
_atom_site_fract_x
_atom_site_fract_y
_atom_site_fract_z
Si Si1 0.709492 0.931131 0.297178
Si Si2 0.272464 0.500000 0.540383
Si Si3 0.239840 0.104783 0.368489
Si Si4 0.276745 0.273608 0.574153
Si Si5 0.977398 0.068709 0.925554
Si Si6 0.937856 0.568024 0.853612
O O1 0.488524 0.907833 0.335278
O O2 0.625236 0.920046 0.221793
O O3 0.978042 0.900955 0.319722
O O4 0.732639 0.000000 0.306429
O O5 0.500000 0.500000 0.500000
O O6 0.289068 0.554613 0.583407
O O7 0.000000 0.500000 0.500000
O O8 0.265906 0.161390 0.411204
O O9 0.250000 0.250000 0.500000
O O10 0.560207 0.259326 0.603427
O O11 0.215321 0.087692 0.892287
O O12 0.712988 0.087690 0.885748
O O13 0.978064 0.000000 0.924335
O O14 0.000000 0.085333 0.000000
O O15 0.942724 0.500000 0.858845
#
# Coordination Sequence:
#
# PCOD9216728 Si02
#       6
#     8   4   8   8   8   8
#     4  11  20  36  52  78 106 136 175 215 265 321
#     4  12  26  36  56  80 106 132 159 212 277 328
#     4  12  23  39  57  77 105 133 171 216 274 322
#     4  10  23  40  58  76  97 129 169 212 261 321
#     4   9  15  24  37  60  91 132 181 220 243 271
#     4   9  17  26  42  62  93 133 172 215 250 289
#
# _framework density 16.605542
#
# number of rings (size 3 to 8) (size 9 to 14) (size 15 to 20)
#    0.000    1.636    1.818    3.818    5.091    5.091 
#    0.000    0.000    0.000    0.000    0.000    0.000 
#    0.000    0.000    0.000    0.000    0.000  229.091 
#
# Total GULP energy -122587.065997 kJ/mol
# GULP energy per Si atom -5572.139364 kJ/mol
# Density = 1.656775 g / cm^3
# Si number density = 16.605542 Si / 1000 Ang^3
#
#
#
# Elastic Constant Matrix: (Units=GPa)
#
#
# Indices 1 2 3 4 5 6 
#
# 1 72.8687 -24.0650 1.9752 0.0000 -8.7168 0.0000
# 2 -24.0650 49.1774 6.4932 0.0000 -12.1313 0.0000
# 3 1.9752 6.4932 62.9675 0.0000 -1.6313 0.0000
# 4 0.0000 0.0000 0.0000 11.2010 0.0000 -1.2418
# 5 -8.7168 -12.1313 -1.6313 0.0000 34.5444 0.0000
# 6 0.0000 0.0000 0.0000 -1.2418 0.0000 19.4570
#
#
#
# Elastic Compliance Matrix: (Units=1/GPa)
#
#
# Indices 1 2 3 4 5 6 
#
# 1 0.018566 0.011415 -0.001536 0.000000 0.008621 0.000000
# 2 0.011415 0.029561 -0.003067 0.000000 0.013117 0.000000
# 3 -0.001536 -0.003067 0.016228 0.000000 -0.000698 0.000000
# 4 0.000000 0.000000 0.000000 0.089914 0.000000 0.005739
# 5 0.008621 0.013117 -0.000698 0.000000 0.035697 0.000000
# 6 0.000000 0.000000 0.000000 0.005739 0.000000 0.051762
#
#
# Mechanical properties :
#
#
# Convention : Reuss Voigt Hill
#
# Bulk Modulus (GPa) = 12.82405 17.09116 14.95760
# Shear Modulus (GPa) = 19.67760 26.41449 23.04604
#
# Velocity S-wave (km/s) = 3.44612 3.99269 3.72943
# Velocity P-wave (km/s) = 4.85529 5.61874 5.25091
#
# Compressibility (1/GPa) = 0.07797850
#
# Stress axis : x y z
#
# Youngs Moduli (GPa) = 53.86204 33.82839 61.62368
#
# Poissons Ratio (x) = -0.38614 0.09466
# Poissons Ratio (y) = -0.61482 0.18897
# Poissons Ratio (z) = 0.08274 0.10374
#
# Static dielectric constant tensor:
#      x y z
#    x 1.619680 0.000000 0.026750 
#    y 0.000000 1.547190 0.000000 
#    z 0.026750 0.000000 1.565090 
# 
# From -- ./inp_files/252904.got.cif
#   From: 2010.05.17/outbox.cif.g08.bks.cpg/sg12_127_cif.got.tgz:252904.got - 2010.06.03 13:09:07.
