data_PCOD9216168
_publ_section_title
;
Structure prediction by ZEFSAII (Michael W. Deem and Ramdas Pophale) SiO2 
 PCOD9216168
Probable space group: C 2/M
;
_chemical_formula_sum "Si O2"
_cell_formula_units_Z 26
_cell_length_a 20.166991
_cell_length_b 8.829346
_cell_length_c 9.189990
_cell_angle_alpha 90.000000
_cell_angle_beta 56.519473
_cell_angle_gamma 90.000000
_cell_volume 1364.862587
_symmetry_space_group_name_H-M "C 2/M"
_symmetry_group_IT_number 12
_symmetry_cell_setting 'monoclinic'
loop_
_space_group_symop_operation_xyz
x,y,z
-x,y,-z
-x,-y,-z
x,-y,z
1/2+x,1/2+y,z
1/2-x,1/2+y,-z
1/2-x,1/2-y,-z
1/2+x,1/2-y,z
loop_
_atom_site_type_symbol
_atom_site_label
_atom_site_fract_x
_atom_site_fract_y
_atom_site_fract_z
Si Si1 0.000000 0.500000 0.500000
Si Si2 0.592399 0.680282 0.857666
Si Si3 0.732077 0.180532 0.864501
Si Si4 0.861733 0.667808 0.501170
O O1 0.939877 0.629446 0.501788
O O2 0.605240 0.500000 0.847962
O O3 0.647302 0.761667 0.909769
O O4 0.616063 0.745004 0.671854
O O5 0.500000 0.711491 0.000000
O O6 0.797742 0.242240 0.672700
O O7 0.733168 0.000000 0.870814
O O8 0.750000 0.250000 0.000000
O O9 0.828102 0.500000 0.502954
#
# Coordination Sequence:
#
# PCOD9216168 Si02
#       4
#     2   8   8   8
#     4   8  24  40  72 100 126 172 212 276 324 388
#     4  11  25  43  66  98 132 173 221 270 323 387
#     4  12  26  43  67  96 132 174 217 271 328 388
#     4  10  22  43  67  95 130 169 217 261 326 387
#
# _framework density 19.049536
#
# number of rings (size 3 to 8) (size 9 to 14) (size 15 to 20)
#    0.923    0.308    0.000    5.538    4.308    2.462 
#    0.000    1.538    0.000    0.000    0.000    0.000 
#    0.000    0.000    0.000    0.000    0.000    0.000 
#
# Total GULP energy -72387.641284 kJ/mol
# GULP energy per Si atom -5568.280099 kJ/mol
# Density = 1.900618 g / cm^3
# Si number density = 19.049536 Si / 1000 Ang^3
#
#
#
# Elastic Constant Matrix: (Units=GPa)
#
#
# Indices 1 2 3 4 5 6 
#
# 1 121.9790 77.5502 51.0087 0.0000 -5.1870 0.0000
# 2 77.5502 178.0024 94.4799 0.0000 -4.5119 0.0000
# 3 51.0087 94.4799 144.4449 0.0000 4.5692 0.0000
# 4 0.0000 0.0000 0.0000 31.9188 0.0000 3.9145
# 5 -5.1870 -4.5119 4.5692 0.0000 13.5070 0.0000
# 6 0.0000 0.0000 0.0000 3.9145 0.0000 31.3880
#
#
#
# Elastic Compliance Matrix: (Units=1/GPa)
#
#
# Indices 1 2 3 4 5 6 
#
# 1 0.011634 -0.004194 -0.001478 0.000000 0.003567 0.000000
# 2 -0.004194 0.010441 -0.005466 0.000000 0.003726 0.000000
# 3 -0.001478 -0.005466 0.011216 0.000000 -0.006188 0.000000
# 4 0.000000 0.000000 0.000000 0.031816 0.000000 -0.003968
# 5 0.003567 0.003726 -0.006188 0.000000 0.078744 0.000000
# 6 0.000000 0.000000 0.000000 -0.003968 0.000000 0.032354
#
#
# Mechanical properties :
#
#
# Convention : Reuss Voigt Hill
#
# Bulk Modulus (GPa) = 90.78518 98.94487 94.86502
# Shear Modulus (GPa) = 24.73381 30.12192 27.42787
#
# Velocity S-wave (km/s) = 3.60723 3.98080 3.79861
# Velocity P-wave (km/s) = 8.06910 8.55468 8.31544
#
# Compressibility (1/GPa) = 0.01101501
#
# Stress axis : x y z
#
# Youngs Moduli (GPa) = 85.95390 95.77941 89.15715
#
# Poissons Ratio (x) = 0.40166 0.13180
# Poissons Ratio (y) = 0.36045 0.48734
# Poissons Ratio (z) = 0.12707 0.52354
#
# Static dielectric constant tensor:
#      x y z
#    x 1.649690 0.000000 -0.005250 
#    y 0.000000 1.647010 0.000000 
#    z -0.005250 0.000000 1.639350 
# 
# From -- ./inp_files/81351.got.cif
#   From: 2010.05.17/outbox.cif.g08.bks.cpg/sg12_41_cif.got.tgz:81351.got - 2010.06.03 13:09:07.
