data_PCOD9216865
_publ_section_title
;
Structure prediction by ZEFSAII (Michael W. Deem and Ramdas Pophale) SiO2 
 PCOD9216865
Probable space group: C 2/M
;
_chemical_formula_sum "Si O2"
_cell_formula_units_Z 18
_cell_length_a 5.143747
_cell_length_b 20.276588
_cell_length_c 7.686513
_cell_angle_alpha 90.000000
_cell_angle_beta 116.755131
_cell_angle_gamma 90.000000
_cell_volume 715.855646
_symmetry_space_group_name_H-M "C 2/M"
_symmetry_group_IT_number 12
_symmetry_cell_setting 'monoclinic'
loop_
_space_group_symop_operation_xyz
x,y,z
-x,y,-z
-x,-y,-z
x,-y,z
1/2+x,1/2+y,z
1/2-x,1/2+y,-z
1/2-x,1/2-y,-z
1/2+x,1/2-y,z
loop_
_atom_site_type_symbol
_atom_site_label
_atom_site_fract_x
_atom_site_fract_y
_atom_site_fract_z
Si Si1 0.306899 0.709560 0.766147
Si Si2 0.443229 0.568325 0.688751
Si Si3 0.500000 0.000000 0.000000
O O1 0.497284 0.758040 0.705016
O O2 0.292268 0.634873 0.697952
O O3 0.500000 0.706872 0.000000
O O4 0.500000 0.569448 0.500000
O O5 0.275752 0.500000 0.688719
O O6 0.753500 0.556734 0.875038
#
# Coordination Sequence:
#
# PCOD9216865 Si02
#       3
#     8   8   2
#     4  10  23  40  67  97 133 175 219 269 333 393
#     4   9  20  39  66  98 130 171 223 270 326 393
#     4   8  18  36  70  92 130 174 214 278 320 398
#
# _framework density 25.144731
#
# number of rings (size 3 to 8) (size 9 to 14) (size 15 to 20)
#    1.333    1.333    0.000    0.000    9.333    2.667 
#    0.000    2.222    0.000    9.333    0.000    0.000 
#    0.000    0.000    0.000    0.000    0.000    0.000 
#
# Total GULP energy -50166.205207 kJ/mol
# GULP energy per Si atom -5574.022801 kJ/mol
# Density = 2.508750 g / cm^3
# Si number density = 25.144731 Si / 1000 Ang^3
#
#
#
# Elastic Constant Matrix: (Units=GPa)
#
#
# Indices 1 2 3 4 5 6 
#
# 1 80.8015 63.4713 41.8926 0.0000 22.6696 0.0000
# 2 63.4713 273.0261 49.9573 0.0000 -19.7276 0.0000
# 3 41.8926 49.9573 81.9906 0.0000 24.5590 0.0000
# 4 0.0000 0.0000 0.0000 29.1820 0.0000 -26.2354
# 5 22.6696 -19.7276 24.5590 0.0000 45.3375 0.0000
# 6 0.0000 0.0000 0.0000 -26.2354 0.0000 -4.7918
#
#
#
# Elastic Compliance Matrix: (Units=1/GPa)
#
#
# Indices 1 2 3 4 5 6 
#
# 1 0.021673 -0.004850 -0.005062 0.000000 -0.010205 0.000000
# 2 -0.004850 0.005827 -0.003054 0.000000 0.006614 0.000000
# 3 -0.005062 -0.003054 0.019437 0.000000 -0.009327 0.000000
# 4 0.000000 0.000000 0.000000 0.005786 0.000000 -0.031680
# 5 -0.010205 0.006614 -0.009327 0.000000 0.035090 0.000000
# 6 0.000000 0.000000 0.000000 -0.031680 0.000000 -0.035239
#
#
# Mechanical properties :
#
#
# Convention : Reuss Voigt Hill
#
# Bulk Modulus (GPa) = 47.60460 82.94006 65.27233
# Shear Modulus (GPa) = 58.47469 32.64534 45.56002
#
# Velocity S-wave (km/s) = 4.82760 3.60710 4.26127
# Velocity P-wave (km/s) = 7.07444 7.09964 7.08705
#
# Compressibility (1/GPa) = 0.02100638
#
# Stress axis : x y z
#
# Youngs Moduli (GPa) = 46.14027 171.62363 51.44770
#
# Poissons Ratio (x) = 0.83229 0.26044
# Poissons Ratio (y) = 0.22376 0.15710
# Poissons Ratio (z) = 0.23357 0.52408
#
# Static dielectric constant tensor:
#      x y z
#    x 1.939860 0.000000 0.016960 
#    y 0.000000 1.965140 0.000000 
#    z 0.016960 0.000000 2.007300 
# 
# From -- ./inp_files/32808.got.cif
#   From: 2010.05.17/outbox.cif.g08.bks.cpg/sg12_17_cif.got.tgz:32808.got - 2010.06.03 13:09:07.
