data_PCOD9216502
_publ_section_title
;
Structure prediction by ZEFSAII (Michael W. Deem and Ramdas Pophale) SiO2 
 PCOD9216502
Probable space group: C 2/M
;
_chemical_formula_sum "Si O2"
_cell_formula_units_Z 64
_cell_length_a 18.187423
_cell_length_b 20.653826
_cell_length_c 9.595159
_cell_angle_alpha 90.000000
_cell_angle_beta 113.049560
_cell_angle_gamma 90.000000
_cell_volume 3316.578574
_symmetry_space_group_name_H-M "C 2/M"
_symmetry_group_IT_number 12
_symmetry_cell_setting 'monoclinic'
loop_
_space_group_symop_operation_xyz
x,y,z
-x,y,-z
-x,-y,-z
x,-y,z
1/2+x,1/2+y,z
1/2-x,1/2+y,-z
1/2-x,1/2-y,-z
1/2+x,1/2-y,z
loop_
_atom_site_type_symbol
_atom_site_label
_atom_site_fract_x
_atom_site_fract_y
_atom_site_fract_z
Si Si1 0.072357 0.366040 0.363195
Si Si2 0.907575 0.214878 0.958752
Si Si3 0.196515 0.573619 0.635185
Si Si4 0.802661 0.190593 0.605200
Si Si5 0.089364 0.770369 0.535271
Si Si6 0.805009 0.798698 0.129286
Si Si7 0.645046 0.855566 0.110260
Si Si8 0.903779 0.574782 0.183785
O O1 0.114225 0.420099 0.488500
O O2 0.083333 0.297572 0.448844
O O3 0.116783 0.363526 0.247371
O O4 0.979779 0.381984 0.277512
O O5 0.851469 0.208697 0.780771
O O6 0.900743 0.291845 0.983412
O O7 0.867712 0.176969 0.058834
O O8 0.000000 0.198279 0.000000
O O9 0.227036 0.500000 0.652496
O O10 0.251533 0.628225 0.607398
O O11 0.172006 0.591374 0.774971
O O12 0.750000 0.250000 0.500000
O O13 0.867178 0.179116 0.533290
O O14 0.142807 0.764280 0.712856
O O15 0.000000 0.791120 0.500000
O O16 0.739799 0.843959 0.157413
O O17 0.750000 0.750000 0.000000
O O18 0.617940 0.913783 0.992433
O O19 0.922832 0.500000 0.224774
#
# Coordination Sequence:
#
# PCOD9216502 Si02
#       8
#     8   8   8   8   8   8   8   8
#     4  12  23  36  61  88 130 169 213 254 308 376
#     4  11  21  36  57  87 120 153 200 257 320 377
#     4  11  24  41  62  88 123 167 214 262 316 375
#     4  12  22  39  64  92 124 160 209 266 318 376
#     4  12  24  37  60  93 128 165 204 265 326 378
#     4  10  23  35  54  83 118 160 203 255 320 373
#     4  11  23  37  57  85 124 165 208 257 311 369
#     4  11  25  42  60  89 130 179 218 250 304 389
#
# _framework density 19.296996
#
# number of rings (size 3 to 8) (size 9 to 14) (size 15 to 20)
#    0.000    0.750    2.500    6.375    7.000    2.500 
#    0.000    0.000    0.000    0.750    0.000    1.750 
#    0.000    0.000    0.000    0.000    0.000    0.000 
#
# Total GULP energy -178777.870503 kJ/mol
# GULP energy per Si atom -5586.808453 kJ/mol
# Density = 1.925307 g / cm^3
# Si number density = 19.296996 Si / 1000 Ang^3
#
#
#
# Elastic Constant Matrix: (Units=GPa)
#
#
# Indices 1 2 3 4 5 6 
#
# 1 156.9876 38.6330 50.3160 0.0000 -9.3472 0.0000
# 2 38.6330 47.4611 31.9087 0.0000 4.9389 0.0000
# 3 50.3160 31.9087 121.2946 0.0000 -7.6594 0.0000
# 4 0.0000 0.0000 0.0000 21.1093 0.0000 -3.4375
# 5 -9.3472 4.9389 -7.6594 0.0000 36.6782 0.0000
# 6 0.0000 0.0000 0.0000 -3.4375 0.0000 24.6243
#
#
#
# Elastic Compliance Matrix: (Units=1/GPa)
#
#
# Indices 1 2 3 4 5 6 
#
# 1 0.008596 -0.006056 -0.001807 0.000000 0.002629 0.000000
# 2 -0.006056 0.030770 -0.006021 0.000000 -0.006944 0.000000
# 3 -0.001807 -0.006021 0.010742 0.000000 0.002593 0.000000
# 4 0.000000 0.000000 0.000000 0.048475 0.000000 0.006767
# 5 0.002629 -0.006944 0.002593 0.000000 0.029411 0.000000
# 6 0.000000 0.000000 0.000000 0.006767 0.000000 0.041555
#
#
# Mechanical properties :
#
#
# Convention : Reuss Voigt Hill
#
# Bulk Modulus (GPa) = 44.76213 63.05099 53.90656
# Shear Modulus (GPa) = 24.41873 30.14140 27.28006
#
# Velocity S-wave (km/s) = 3.56113 3.95647 3.76399
# Velocity P-wave (km/s) = 6.33685 7.32233 6.84734
#
# Compressibility (1/GPa) = 0.02234031
#
# Stress axis : x y z
#
# Youngs Moduli (GPa) = 116.33628 32.49933 93.09670
#
# Poissons Ratio (x) = 0.19681 0.16819
# Poissons Ratio (y) = 0.70451 0.56053
# Poissons Ratio (z) = 0.21018 0.19568
#
# Static dielectric constant tensor:
#      x y z
#    x 1.743780 0.000000 -0.018740 
#    y 0.000000 1.665990 0.000000 
#    z -0.018740 0.000000 1.721470 
# 
# From -- ./inp_files/89650.got.cif
#   From: 2010.05.17/outbox.cif.g08.bks.cpg/sg12_45_cif.got.tgz:89650.got - 2010.06.03 13:09:07.
