data_PCOD9216939
_publ_section_title
;
Structure prediction by ZEFSAII (Michael W. Deem and Ramdas Pophale) SiO2 
 PCOD9216939
Probable space group: C 2/M
;
_chemical_formula_sum "Si O2"
_cell_formula_units_Z 36
_cell_length_a 11.735717
_cell_length_b 26.187860
_cell_length_c 8.088829
_cell_angle_alpha 90.000000
_cell_angle_beta 39.794110
_cell_angle_gamma 90.000000
_cell_volume 1591.094998
_symmetry_space_group_name_H-M "C 2/M"
_symmetry_group_IT_number 12
_symmetry_cell_setting 'monoclinic'
loop_
_space_group_symop_operation_xyz
x,y,z
-x,y,-z
-x,-y,-z
x,-y,z
1/2+x,1/2+y,z
1/2-x,1/2+y,-z
1/2-x,1/2-y,-z
1/2+x,1/2-y,z
loop_
_atom_site_type_symbol
_atom_site_label
_atom_site_fract_x
_atom_site_fract_y
_atom_site_fract_z
Si Si1 0.196338 0.726473 0.735552
Si Si2 0.399746 0.558562 0.355518
Si Si3 0.725683 0.058871 0.917483
Si Si4 0.888407 0.630896 0.348452
Si Si5 0.500000 0.789044 0.500000
O O1 0.250000 0.750000 0.500000
O O2 0.188685 0.665537 0.716744
O O3 0.335179 0.750640 0.706946
O O4 0.000000 0.743415 0.000000
O O5 0.392932 0.500000 0.302428
O O6 0.304122 0.558677 0.643405
O O7 0.604966 0.573388 0.156979
O O8 0.276997 0.598422 0.395413
O O9 0.678347 0.000000 0.008123
O O10 0.551220 0.092987 0.130296
O O11 0.964382 0.673082 0.388505
#
# Coordination Sequence:
#
# PCOD9216939 Si02
#       5
#     8   8   8   8   4
#     4  10  23  41  61  85 114 153 198 246 294 343
#     4   9  18  33  56  88 117 141 179 232 287 345
#     4   9  18  33  56  86 115 142 181 233 284 341
#     4  11  21  36  59  80 109 152 191 232 290 348
#     4  10  26  42  53  80 117 152 196 248 292 344
#
# _framework density 22.625927999999998
#
# number of rings (size 3 to 8) (size 9 to 14) (size 15 to 20)
#    0.000    2.222    0.000    4.000    0.000   12.444 
#    0.000    2.222    0.000    2.667    0.000    0.000 
#    0.000    0.000    0.000    0.000    0.000    0.000 
#
# Total GULP energy -100508.377522 kJ/mol
# GULP energy per Si atom -5583.798751 kJ/mol
# Density = 2.257443 g / cm^3
# Si number density = 22.625928 Si / 1000 Ang^3
#
#
#
# Elastic Constant Matrix: (Units=GPa)
#
#
# Indices 1 2 3 4 5 6 
#
# 1 89.8853 75.9018 37.8211 0.0000 -38.7946 0.0000
# 2 75.9018 143.8446 54.8604 0.0000 -43.9697 0.0000
# 3 37.8211 54.8604 84.9603 0.0000 -28.8667 0.0000
# 4 0.0000 0.0000 0.0000 27.8896 0.0000 -24.7605
# 5 -38.7946 -43.9697 -28.8667 0.0000 42.8546 0.0000
# 6 0.0000 0.0000 0.0000 -24.7605 0.0000 14.6354
#
#
#
# Elastic Compliance Matrix: (Units=1/GPa)
#
#
# Indices 1 2 3 4 5 6 
#
# 1 0.024116 -0.008561 -0.001005 0.000000 0.012372 0.000000
# 2 -0.008561 0.014274 -0.003972 0.000000 0.004220 0.000000
# 3 -0.001005 -0.003972 0.016973 0.000000 0.006448 0.000000
# 4 0.000000 0.000000 0.000000 -0.071424 0.000000 -0.120838
# 5 0.012372 0.004220 0.006448 0.000000 0.043208 0.000000
# 6 0.000000 0.000000 0.000000 -0.120838 0.000000 -0.136108
#
#
# Mechanical properties :
#
#
# Convention : Reuss Voigt Hill
#
# Bulk Modulus (GPa) = 35.34961 72.87300 54.11130
# Shear Modulus (GPa) = -69.00636 27.08303 -20.96166
#
# Velocity S-wave (km/s) = -5.52856 3.46351 -3.04706
# Velocity P-wave (km/s) = 5.00958 6.94782 3.40413
#
# Compressibility (1/GPa) = 0.02828886
#
# Stress axis : x y z
#
# Youngs Moduli (GPa) = 41.46559 70.05718 58.91645
#
# Poissons Ratio (x) = 0.59973 0.05918
# Poissons Ratio (y) = 0.35497 0.23403
# Poissons Ratio (z) = 0.04165 0.27829
#
# Static dielectric constant tensor:
#      x y z
#    x 1.960670 0.000000 0.042520 
#    y 0.000000 1.860630 0.000000 
#    z 0.042520 0.000000 1.839570 
# 
# From -- ./inp_files/52274.got.cif
#   From: 2010.05.17/outbox.cif.g08.bks.cpg/sg12_27_cif.got.tgz:52274.got - 2010.06.03 13:09:07.
