data_PCOD9216296
_publ_section_title
;
Structure prediction by ZEFSAII (Michael W. Deem and Ramdas Pophale) SiO2 
 PCOD9216296
Probable space group: C 2/M
;
_chemical_formula_sum "Si O2"
_cell_formula_units_Z 36
_cell_length_a 9.067813
_cell_length_b 13.085096
_cell_length_c 21.331886
_cell_angle_alpha 90.000000
_cell_angle_beta 141.064323
_cell_angle_gamma 90.000000
_cell_volume 1590.661423
_symmetry_space_group_name_H-M "C 2/M"
_symmetry_group_IT_number 12
_symmetry_cell_setting 'monoclinic'
loop_
_space_group_symop_operation_xyz
x,y,z
-x,y,-z
-x,-y,-z
x,-y,z
1/2+x,1/2+y,z
1/2-x,1/2+y,-z
1/2-x,1/2-y,-z
1/2+x,1/2-y,z
loop_
_atom_site_type_symbol
_atom_site_label
_atom_site_fract_x
_atom_site_fract_y
_atom_site_fract_z
Si Si1 0.565856 0.712301 0.295742
Si Si2 0.803005 0.000000 0.523839
Si Si3 0.251993 0.000000 0.343337
Si Si4 0.612263 0.386737 0.969390
Si Si5 0.500000 0.673877 0.500000
Si Si6 0.951117 0.302647 0.834949
O O1 0.649619 0.608698 0.289097
O O2 0.780026 0.755583 0.407649
O O3 0.326299 0.686362 0.251307
O O4 0.498912 0.796949 0.222081
O O5 0.526018 0.000000 0.417450
O O6 0.801164 0.000000 0.598734
O O7 0.922053 0.901054 0.531041
O O8 0.537873 0.500000 0.926548
O O9 0.537951 0.302827 0.895100
O O10 0.500000 0.361122 0.000000
O O11 0.891201 0.382684 0.075292
#
# Coordination Sequence:
#
# PCOD9216296 Si02
#       6
#     8   4   4   8   4   8
#     4  12  25  42  65  97 136 174 216 264 320 384
#     4  10  22  44  64  90 120 180 224 262 312 368
#     4  11  24  38  64  93 128 166 222 271 318 359
#     4  10  22  45  70  95 130 169 215 272 330 394
#     4  11  24  45  66  92 136 181 216 257 310 390
#     4  11  24  43  66 102 128 173 214 271 324 392
#
# _framework density 22.632095
#
# number of rings (size 3 to 8) (size 9 to 14) (size 15 to 20)
#    0.000    1.111    2.222    4.000    3.111    2.667 
#    8.000    1.111    0.000    0.000    0.000    0.000 
#    0.000    0.000    0.000    0.000    0.000    0.000 
#
# Total GULP energy -100626.470907 kJ/mol
# GULP energy per Si atom -5590.359495 kJ/mol
# Density = 2.258058 g / cm^3
# Si number density = 22.632095 Si / 1000 Ang^3
#
#
#
# Elastic Constant Matrix: (Units=GPa)
#
#
# Indices 1 2 3 4 5 6 
#
# 1 75.9308 -4.2342 17.4888 0.0000 24.8440 0.0000
# 2 -4.2342 70.0596 33.7911 0.0000 1.6379 0.0000
# 3 17.4888 33.7911 108.4860 0.0000 21.5538 0.0000
# 4 0.0000 0.0000 0.0000 21.8128 0.0000 1.7851
# 5 24.8440 1.6379 21.5538 0.0000 33.8630 0.0000
# 6 0.0000 0.0000 0.0000 1.7851 0.0000 21.2526
#
#
#
# Elastic Compliance Matrix: (Units=1/GPa)
#
#
# Indices 1 2 3 4 5 6 
#
# 1 0.017526 0.001797 -0.000931 0.000000 -0.012353 0.000000
# 2 0.001797 0.017231 -0.005986 0.000000 0.001658 0.000000
# 3 -0.000931 -0.005986 0.012637 0.000000 -0.007071 0.000000
# 4 0.000000 0.000000 0.000000 0.046162 0.000000 -0.003877
# 5 -0.012353 0.001658 -0.007071 0.000000 0.043014 0.000000
# 6 0.000000 0.000000 0.000000 -0.003877 0.000000 0.047379
#
#
# Mechanical properties :
#
#
# Convention : Reuss Voigt Hill
#
# Bulk Modulus (GPa) = 26.91489 38.72974 32.82231
# Shear Modulus (GPa) = 24.20443 29.21438 26.70940
#
# Velocity S-wave (km/s) = 3.27383 3.59672 3.43907
# Velocity P-wave (km/s) = 5.11945 5.86502 5.50487
#
# Compressibility (1/GPa) = 0.03715415
#
# Stress axis : x y z
#
# Youngs Moduli (GPa) = 57.05730 58.03617 79.13094
#
# Poissons Ratio (x) = -0.10429 0.07366
# Poissons Ratio (y) = -0.10253 0.47369
# Poissons Ratio (z) = 0.05311 0.34741
#
# Static dielectric constant tensor:
#      x y z
#    x 1.837910 0.000000 0.005790 
#    y 0.000000 1.836340 0.000000 
#    z 0.005790 0.000000 1.828020 
# 
# From -- ./inp_files/300244.got.cif
#   From: 2010.05.17/outbox.cif.g08.bks.cpg/sg12_151_cif.got.tgz:300244.got - 2010.06.03 13:09:07.
