data_PCOD9216070
_publ_section_title
;
Structure prediction by ZEFSAII (Michael W. Deem and Ramdas Pophale) SiO2 
 PCOD9216070
Probable space group: C 2/M
;
_chemical_formula_sum "Si O2"
_cell_formula_units_Z 48
_cell_length_a 20.718730
_cell_length_b 23.552088
_cell_length_c 5.283950
_cell_angle_alpha 90.000000
_cell_angle_beta 128.029786
_cell_angle_gamma 90.000000
_cell_volume 2030.985867
_symmetry_space_group_name_H-M "C 2/M"
_symmetry_group_IT_number 12
_symmetry_cell_setting 'monoclinic'
loop_
_space_group_symop_operation_xyz
x,y,z
-x,y,-z
-x,-y,-z
x,-y,z
1/2+x,1/2+y,z
1/2-x,1/2+y,-z
1/2-x,1/2-y,-z
1/2+x,1/2-y,z
loop_
_atom_site_type_symbol
_atom_site_label
_atom_site_fract_x
_atom_site_fract_y
_atom_site_fract_z
Si Si1 0.124450 0.818613 0.292273
Si Si2 0.409987 0.389606 0.277877
Si Si3 0.696550 0.830289 0.143501
Si Si4 0.576870 0.220194 0.519313
Si Si5 0.260651 0.938274 0.093513
Si Si6 0.587024 0.894471 0.265086
O O1 0.104090 0.860010 0.482305
O O2 0.222953 0.814339 0.505781
O O3 0.089878 0.758799 0.305522
O O4 0.090125 0.843599 0.949706
O O5 0.500000 0.417037 0.500000
O O6 0.331627 0.429182 0.028382
O O7 0.623146 0.856108 0.128376
O O8 0.660080 0.779805 0.886261
O O9 0.724918 0.883519 0.043431
O O10 0.500000 0.238337 0.500000
O O11 0.567424 0.154151 0.424220
O O12 0.336626 0.933363 0.470887
O O13 0.264999 0.000000 0.977563
O O14 0.500000 0.923326 0.000000
#
# Coordination Sequence:
#
# PCOD9216070 Si02
#       6
#     8   8   8   8   8   8
#     4  11  24  42  67 101 141 185 227 273 337 409
#     4  11  24  44  68 101 141 178 227 287 339 404
#     4  10  22  43  62  97 137 178 226 288 337 406
#     4  11  23  37  64  99 137 187 224 270 330 413
#     4  10  24  45  68  96 130 176 230 290 354 410
#     4  11  22  40  67  95 137 172 228 281 344 405
#
# _framework density 23.633842999999999
#
# number of rings (size 3 to 8) (size 9 to 14) (size 15 to 20)
#    0.000    1.333    3.333    1.500    2.333    3.333 
#    0.000    0.833    0.000    3.000    0.000    0.000 
#    0.000    0.000    0.000    0.000    0.000    0.000 
#
# Total GULP energy -134161.350234 kJ/mol
# GULP energy per Si atom -5590.056260 kJ/mol
# Density = 2.358005 g / cm^3
# Si number density = 23.633843 Si / 1000 Ang^3
#
#
#
# Elastic Constant Matrix: (Units=GPa)
#
#
# Indices 1 2 3 4 5 6 
#
# 1 120.5787 12.4271 53.0808 0.0000 33.1638 0.0000
# 2 12.4271 63.7611 8.7746 0.0000 17.6150 0.0000
# 3 53.0808 8.7746 108.4735 0.0000 46.6322 0.0000
# 4 0.0000 0.0000 0.0000 -2.2067 0.0000 -4.2717
# 5 33.1638 17.6150 46.6322 0.0000 61.9783 0.0000
# 6 0.0000 0.0000 0.0000 -4.2717 0.0000 -20.9059
#
#
#
# Elastic Compliance Matrix: (Units=1/GPa)
#
#
# Indices 1 2 3 4 5 6 
#
# 1 0.010909 -0.000880 -0.004235 0.000000 -0.002401 0.000000
# 2 -0.000880 0.017170 0.001385 0.000000 -0.005451 0.000000
# 3 -0.004235 0.001385 0.015334 0.000000 -0.009665 0.000000
# 4 0.000000 0.000000 0.000000 -0.749672 0.000000 0.153179
# 5 -0.002401 -0.005451 -0.009665 0.000000 0.026240 0.000000
# 6 0.000000 0.000000 0.000000 0.153179 0.000000 -0.079132
#
#
# Mechanical properties :
#
#
# Convention : Reuss Voigt Hill
#
# Bulk Modulus (GPa) = 27.81360 49.04204 38.42782
# Shear Modulus (GPa) = -6.75943 22.34185 7.79121
#
# Velocity S-wave (km/s) = -1.69301 3.07796 1.81763
# Velocity P-wave (km/s) = 2.82354 5.78166 4.54973
#
# Compressibility (1/GPa) = 0.03595363
#
# Stress axis : x y z
#
# Youngs Moduli (GPa) = 91.67125 58.23955 65.21471
#
# Poissons Ratio (x) = 0.05126 0.27617
# Poissons Ratio (y) = 0.08068 -0.09034
# Poissons Ratio (z) = 0.38821 -0.08068
#
# Static dielectric constant tensor:
#      x y z
#    x 1.906690 0.000000 0.006980 
#    y 0.000000 1.871010 0.000000 
#    z 0.006980 0.000000 2.018290 
# 
# From -- ./inp_files/17506.got.cif
#   From: 2010.05.17/outbox.cif.g08.bks.cpg/sg12_9_cif.got.tgz:17506.got - 2010.06.03 13:09:07.
