data_PCOD9216424
_publ_section_title
;
Structure prediction by ZEFSAII (Michael W. Deem and Ramdas Pophale) SiO2 
 PCOD9216424
Probable space group: C 2/M
;
_chemical_formula_sum "Si O2"
_cell_formula_units_Z 60
_cell_length_a 18.647299
_cell_length_b 32.100129
_cell_length_c 5.152281
_cell_angle_alpha 90.000000
_cell_angle_beta 111.740662
_cell_angle_gamma 90.000000
_cell_volume 2864.686878
_symmetry_space_group_name_H-M "C 2/M"
_symmetry_group_IT_number 12
_symmetry_cell_setting 'monoclinic'
loop_
_space_group_symop_operation_xyz
x,y,z
-x,y,-z
-x,-y,-z
x,-y,z
1/2+x,1/2+y,z
1/2-x,1/2+y,-z
1/2-x,1/2-y,-z
1/2+x,1/2-y,z
loop_
_atom_site_type_symbol
_atom_site_label
_atom_site_fract_x
_atom_site_fract_y
_atom_site_fract_z
Si Si1 0.296711 0.951174 0.381504
Si Si2 0.367777 0.823533 0.865817
Si Si3 0.090499 0.623532 0.580709
Si Si4 0.085471 0.877207 0.493240
Si Si5 0.500000 0.669563 0.000000
Si Si6 0.810883 0.799802 0.384772
Si Si7 0.805948 0.048541 0.255954
Si Si8 0.609702 0.266086 0.982213
O O1 0.365230 0.919306 0.420397
O O2 0.259008 0.943689 0.612029
O O3 0.319167 0.000000 0.393402
O O4 0.231192 0.943822 0.075097
O O5 0.396250 0.845690 0.644007
O O6 0.279192 0.808817 0.713208
O O7 0.413060 0.781211 0.993973
O O8 0.375281 0.855083 0.115681
O O9 0.000000 0.616581 0.500000
O O10 0.147832 0.842462 0.656027
O O11 0.123133 0.921463 0.588494
O O12 0.000000 0.874989 0.500000
O O13 0.067022 0.861661 0.177743
O O14 0.463048 0.702754 0.150763
O O15 0.845687 0.783762 0.703877
O O16 0.835809 0.767623 0.195587
O O17 0.827800 0.000000 0.302745
#
# Coordination Sequence:
#
# PCOD9216424 Si02
#       8
#     8   8   8   8   4   8   8   8
#     4  10  22  45  70  96 126 164 208 258 314 384
#     4  12  25  43  65  92 130 168 210 276 318 372
#     4  12  26  42  64 100 129 165 210 249 331 390
#     4  11  22  38  59  90 130 166 216 263 314 376
#     4  10  24  38  57  90 126 176 219 256 328 368
#     4  11  22  40  64  90 119 167 228 267 314 372
#     4  10  23  41  68  96 125 166 210 258 320 377
#     4  11  23  40  62  88 124 166 223 268 316 376
#
# _framework density 20.944697000000001
#
# number of rings (size 3 to 8) (size 9 to 14) (size 15 to 20)
#    0.000    1.067    1.333    5.200    3.733    1.600 
#    0.000    0.333    0.000    4.000    0.000    0.000 
#    0.000    0.000    0.000    0.000    0.000    0.000 
#
# Total GULP energy -167676.624007 kJ/mol
# GULP energy per Si atom -5589.220800 kJ/mol
# Density = 2.089703 g / cm^3
# Si number density = 20.944697 Si / 1000 Ang^3
#
#
#
# Elastic Constant Matrix: (Units=GPa)
#
#
# Indices 1 2 3 4 5 6 
#
# 1 69.2582 35.9081 -3.0948 0.0000 4.3534 0.0000
# 2 35.9081 78.4449 3.4346 0.0000 16.9704 0.0000
# 3 -3.0948 3.4346 63.3705 0.0000 -12.2187 0.0000
# 4 0.0000 0.0000 0.0000 25.9021 0.0000 -3.6038
# 5 4.3534 16.9704 -12.2187 0.0000 23.8746 0.0000
# 6 0.0000 0.0000 0.0000 -3.6038 0.0000 25.3261
#
#
#
# Elastic Compliance Matrix: (Units=1/GPa)
#
#
# Indices 1 2 3 4 5 6 
#
# 1 0.019460 -0.010063 0.002431 0.000000 0.004849 0.000000
# 2 -0.010063 0.020875 -0.004582 0.000000 -0.015349 0.000000
# 3 0.002431 -0.004582 0.018517 0.000000 0.012291 0.000000
# 4 0.000000 0.000000 0.000000 0.039387 0.000000 0.005605
# 5 0.004849 -0.015349 0.012291 0.000000 0.058201 0.000000
# 6 0.000000 0.000000 0.000000 0.005605 0.000000 0.040282
#
#
# Mechanical properties :
#
#
# Convention : Reuss Voigt Hill
#
# Bulk Modulus (GPa) = 29.05052 31.50770 30.27911
# Shear Modulus (GPa) = 21.49367 26.67563 24.08465
#
# Velocity S-wave (km/s) = 3.20693 3.57266 3.39472
# Velocity P-wave (km/s) = 5.25478 5.66520 5.46384
#
# Compressibility (1/GPa) = 0.03442279
#
# Stress axis : x y z
#
# Youngs Moduli (GPa) = 51.38757 47.90367 54.00421
#
# Poissons Ratio (x) = 0.48206 -0.13126
# Poissons Ratio (y) = 0.51712 0.24746
# Poissons Ratio (z) = -0.12490 0.21951
#
# Static dielectric constant tensor:
#      x y z
#    x 1.756980 0.000000 -0.011240 
#    y 0.000000 1.735210 0.000000 
#    z -0.011240 0.000000 1.810000 
# 
# From -- ./inp_files/18352.got.cif
#   From: 2010.05.17/outbox.cif.g08.bks.cpg/sg12_10_cif.got.tgz:18352.got - 2010.06.03 13:09:07.
