data_PCOD9216567
_publ_section_title
;
Structure prediction by ZEFSAII (Michael W. Deem and Ramdas Pophale) SiO2 
 PCOD9216567
Probable space group: C 2/M
;
_chemical_formula_sum "Si O2"
_cell_formula_units_Z 44
_cell_length_a 8.420273
_cell_length_b 17.414542
_cell_length_c 20.276565
_cell_angle_alpha 90.000000
_cell_angle_beta 134.519552
_cell_angle_gamma 90.000000
_cell_volume 2119.966413
_symmetry_space_group_name_H-M "C 2/M"
_symmetry_group_IT_number 12
_symmetry_cell_setting 'monoclinic'
loop_
_space_group_symop_operation_xyz
x,y,z
-x,y,-z
-x,-y,-z
x,-y,z
1/2+x,1/2+y,z
1/2-x,1/2+y,-z
1/2-x,1/2-y,-z
1/2+x,1/2-y,z
loop_
_atom_site_type_symbol
_atom_site_label
_atom_site_fract_x
_atom_site_fract_y
_atom_site_fract_z
Si Si1 0.863026 0.328472 0.745307
Si Si2 0.902981 0.414547 0.884680
Si Si3 0.042067 0.295419 0.369406
Si Si4 0.828181 0.213486 0.093383
Si Si5 0.500000 0.800734 0.500000
Si Si6 0.938233 0.915409 0.054800
O O1 0.843941 0.398289 0.791317
O O2 0.929444 0.344471 0.689134
O O3 0.648374 0.271495 0.688763
O O4 0.067183 0.280023 0.834302
O O5 0.816452 0.500000 0.879166
O O6 0.820277 0.339961 0.901323
O O7 0.168422 0.418046 0.974323
O O8 0.278757 0.251153 0.438928
O O9 0.000399 0.338754 0.427101
O O10 0.750000 0.250000 0.000000
O O11 0.009630 0.149729 0.125317
O O12 0.027640 0.000000 0.093388
O O13 0.000000 0.891503 0.000000
#
# Coordination Sequence:
#
# PCOD9216567 Si02
#       6
#     8   8   8   8   4   8
#     4  11  21  34  55  91 118 150 195 253 280 347
#     4  11  24  42  57  78 118 166 205 247 300 349
#     4   9  18  33  57  90 123 138 188 235 304 346
#     4  12  24  35  56  82 114 164 206 252 290 327
#     4   8  16  34  58  88 120 150 164 238 308 366
#     4  10  23  38  54  75 109 160 212 249 287 342
#
# _framework density 20.755047000000001
#
# number of rings (size 3 to 8) (size 9 to 14) (size 15 to 20)
#    0.000    1.636    3.636    1.091    5.091    1.455 
#    0.000    0.000    0.000    0.000    0.000   24.182 
#    0.000    0.000    0.000    0.000    0.000    0.000 
#
# Total GULP energy -122492.682975 kJ/mol
# GULP energy per Si atom -5567.849226 kJ/mol
# Density = 2.070781 g / cm^3
# Si number density = 20.755047 Si / 1000 Ang^3
#
#
#
# Elastic Constant Matrix: (Units=GPa)
#
#
# Indices 1 2 3 4 5 6 
#
# 1 121.6641 21.8381 40.9842 0.0001 -28.0972 0.0001
# 2 21.8381 50.0266 14.0338 0.0000 -5.2135 0.0000
# 3 40.9842 14.0338 82.8645 -0.0001 -28.0869 0.0001
# 4 0.0001 0.0000 -0.0001 -26.2885 0.0000 9.2179
# 5 -28.0972 -5.2135 -28.0869 0.0000 56.3587 0.0001
# 6 0.0001 0.0000 0.0001 9.2179 0.0001 21.5246
#
#
#
# Elastic Compliance Matrix: (Units=1/GPa)
#
#
# Indices 1 2 3 4 5 6 
#
# 1 0.010809 -0.003348 -0.003679 0.000000 0.003246 0.000000
# 2 -0.003348 0.022026 -0.002346 0.000000 -0.000801 0.000000
# 3 -0.003679 -0.002346 0.016352 0.000000 0.006098 0.000000
# 4 0.000000 0.000000 0.000000 -0.033073 0.000000 0.014163
# 5 0.003246 -0.000801 0.006098 0.000000 0.022326 0.000000
# 6 0.000000 0.000000 0.000000 0.014163 0.000000 0.040393
#
#
# Mechanical properties :
#
#
# Convention : Reuss Voigt Hill
#
# Bulk Modulus (GPa) = 32.85076 45.36305 39.10691
# Shear Modulus (GPa) = 46.41436 22.16557 34.28997
#
# Velocity S-wave (km/s) = 4.73408 3.27151 4.06905
# Velocity P-wave (km/s) = 6.76344 6.01450 6.39994
#
# Compressibility (1/GPa) = 0.03044069
#
# Stress axis : x y z
#
# Youngs Moduli (GPa) = 92.51361 45.40181 61.15605
#
# Poissons Ratio (x) = 0.15202 0.22499
# Poissons Ratio (y) = 0.30976 0.14345
# Poissons Ratio (z) = 0.34036 0.10649
#
# Static dielectric constant tensor:
#      x y z
#    x 1.867350 0.000000 -0.032410 
#    y 0.000000 1.756770 0.000000 
#    z -0.032410 0.000000 1.808090 
# 
# From -- ./inp_files/300501.got.cif
#   From: 2010.05.17/outbox.cif.g08.bks.cpg/sg12_151_cif.got.tgz:300501.got - 2010.06.03 13:09:07.
