data_PCOD9216071
_publ_section_title
;
Structure prediction by ZEFSAII (Michael W. Deem and Ramdas Pophale) SiO2 
 PCOD9216071
Probable space group: C 2/M
;
_chemical_formula_sum "Si O2"
_cell_formula_units_Z 56
_cell_length_a 25.535896
_cell_length_b 14.336796
_cell_length_c 8.346286
_cell_angle_alpha 90.000000
_cell_angle_beta 57.594568
_cell_angle_gamma 90.000000
_cell_volume 2579.772982
_symmetry_space_group_name_H-M "C 2/M"
_symmetry_group_IT_number 12
_symmetry_cell_setting 'monoclinic'
loop_
_space_group_symop_operation_xyz
x,y,z
-x,y,-z
-x,-y,-z
x,-y,z
1/2+x,1/2+y,z
1/2-x,1/2+y,-z
1/2-x,1/2-y,-z
1/2+x,1/2-y,z
loop_
_atom_site_type_symbol
_atom_site_label
_atom_site_fract_x
_atom_site_fract_y
_atom_site_fract_z
Si Si1 0.632766 0.217097 0.386468
Si Si2 0.255139 0.889670 0.668448
Si Si3 0.597580 0.895275 0.924117
Si Si4 0.667379 0.605250 0.532300
Si Si5 0.347681 0.732257 0.003046
Si Si6 0.438106 0.393088 0.020046
Si Si7 0.529546 0.893885 0.692261
O O1 0.675830 0.143459 0.410349
O O2 0.648103 0.317178 0.438107
O O3 0.652251 0.222922 0.170716
O O4 0.562675 0.181916 0.527349
O O5 0.229359 0.871894 0.531573
O O6 0.248007 0.000000 0.707213
O O7 0.210972 0.831536 0.860121
O O8 0.645936 0.814303 0.877386
O O9 0.542761 0.883527 0.146064
O O10 0.623178 0.000000 0.894841
O O11 0.564140 0.886908 0.807900
O O12 0.671954 0.500000 0.459127
O O13 0.614252 0.604903 0.756581
O O14 0.408703 0.668030 0.928550
O O15 0.450732 0.500000 0.949252
O O16 0.500000 0.353331 0.000000
O O17 0.538950 0.000000 0.616199
#
# Coordination Sequence:
#
# PCOD9216071 Si02
#       7
#     8   8   8   8   8   8   8
#     4  12  23  36  58  92 125 153 190 248 312 354
#     4  10  22  43  63  81 113 161 208 245 289 358
#     4   9  20  38  59  84 118 159 203 239 285 353
#     4   9  20  37  58  84 114 152 199 247 291 344
#     4  11  23  36  59  88 120 155 198 243 309 351
#     4   9  19  38  62  83 111 161 210 241 283 347
#     4   9  19  37  60  84 114 158 202 244 285 344
#
# _framework density 21.707336000000002
#
# number of rings (size 3 to 8) (size 9 to 14) (size 15 to 20)
#    0.000    2.143    0.000    5.143    4.000    2.857 
#    0.000    3.571    0.000    2.571    0.000    0.000 
#    0.000    0.000    0.000    0.000    0.000    0.000 
#
# Total GULP energy -156549.051175 kJ/mol
# GULP energy per Si atom -5591.037542 kJ/mol
# Density = 2.165793 g / cm^3
# Si number density = 21.707336 Si / 1000 Ang^3
#
#
#
# Elastic Constant Matrix: (Units=GPa)
#
#
# Indices 1 2 3 4 5 6 
#
# 1 66.2816 16.2830 6.0717 0.0000 -9.6789 0.0000
# 2 16.2830 100.6449 14.5870 0.0000 -0.9775 0.0000
# 3 6.0717 14.5870 35.7172 0.0000 -8.7067 0.0000
# 4 0.0000 0.0000 0.0000 21.8672 0.0000 -13.6226
# 5 -9.6789 -0.9775 -8.7067 0.0000 21.1617 0.0000
# 6 0.0000 0.0000 0.0000 -13.6226 0.0000 -7.1724
#
#
#
# Elastic Compliance Matrix: (Units=1/GPa)
#
#
# Indices 1 2 3 4 5 6 
#
# 1 0.016846 -0.002663 0.000080 0.000000 0.007615 0.000000
# 2 -0.002663 0.011021 -0.004692 0.000000 -0.002639 0.000000
# 3 0.000080 -0.004692 0.033185 0.000000 0.013473 0.000000
# 4 0.000000 0.000000 0.000000 0.020946 0.000000 -0.039784
# 5 0.007615 -0.002639 0.013473 0.000000 0.056160 0.000000
# 6 0.000000 0.000000 0.000000 -0.039784 0.000000 -0.063862
#
#
# Mechanical properties :
#
#
# Convention : Reuss Voigt Hill
#
# Bulk Modulus (GPa) = 21.50427 30.72523 26.11475
# Shear Modulus (GPa) = 47.91745 18.21811 33.06778
#
# Velocity S-wave (km/s) = 4.70343 2.90014 3.90724
# Velocity P-wave (km/s) = 6.27887 5.03979 5.69314
#
# Compressibility (1/GPa) = 0.04650240
#
# Stress axis : x y z
#
# Youngs Moduli (GPa) = 59.36122 90.73463 30.13450
#
# Poissons Ratio (x) = 0.24164 -0.00242
# Poissons Ratio (y) = 0.15809 0.14138
# Poissons Ratio (z) = -0.00476 0.42570
#
# Static dielectric constant tensor:
#      x y z
#    x 1.816580 0.000000 -0.019940 
#    y 0.000000 1.799950 0.000000 
#    z -0.019940 0.000000 1.770540 
# 
# From -- ./inp_files/104447.got.cif
#   From: 2010.05.17/outbox.cif.g08.bks.cpg/sg12_53_cif.got.tgz:104447.got - 2010.06.03 13:09:07.
