data_PCOD9216915
_publ_section_title
;
Structure prediction by ZEFSAII (Michael W. Deem and Ramdas Pophale) SiO2 
 PCOD9216915
Probable space group: C 2/M
;
_chemical_formula_sum "Si O2"
_cell_formula_units_Z 56
_cell_length_a 30.762418
_cell_length_b 8.452474
_cell_length_c 12.126384
_cell_angle_alpha 90.000000
_cell_angle_beta 118.290401
_cell_angle_gamma 90.000000
_cell_volume 2776.470020
_symmetry_space_group_name_H-M "C 2/M"
_symmetry_group_IT_number 12
_symmetry_cell_setting 'monoclinic'
loop_
_space_group_symop_operation_xyz
x,y,z
-x,y,-z
-x,-y,-z
x,-y,z
1/2+x,1/2+y,z
1/2-x,1/2+y,-z
1/2-x,1/2-y,-z
1/2+x,1/2-y,z
loop_
_atom_site_type_symbol
_atom_site_label
_atom_site_fract_x
_atom_site_fract_y
_atom_site_fract_z
Si Si1 0.903106 0.188206 0.131913
Si Si2 0.694109 0.187900 0.416103
Si Si3 0.353597 0.819133 0.279406
Si Si4 0.651094 0.813828 0.133735
Si Si5 0.110339 0.183056 0.468057
Si Si6 0.496394 0.307382 0.623815
Si Si7 0.246550 0.814759 0.872886
O O1 0.864939 0.277444 0.166677
O O2 0.956472 0.235055 0.245266
O O3 0.897231 0.000000 0.138320
O O4 0.890635 0.232314 0.991126
O O5 0.750000 0.250000 0.500000
O O6 0.666080 0.249511 0.272180
O O7 0.655952 0.227528 0.467707
O O8 0.698891 0.000000 0.409084
O O9 0.383889 0.701992 0.393377
O O10 0.296496 0.785815 0.234717
O O11 0.366666 0.000000 0.317807
O O12 0.701939 0.799531 0.126666
O O13 0.638718 0.000000 0.128227
O O14 0.054990 0.244849 0.381703
O O15 0.113912 0.000000 0.440512
O O16 0.500000 0.252582 0.500000
O O17 0.494388 0.500000 0.617133
O O18 0.232379 0.000000 0.856213
O O19 0.250000 0.750000 0.000000
#
# Coordination Sequence:
#
# PCOD9216915 Si02
#       7
#     8   8   8   8   8   8   8
#     4  11  21  36  61  89 119 158 203 252 308 368
#     4  11  24  44  67  92 124 163 210 255 306 368
#     4  12  23  35  54  86 125 160 200 248 306 373
#     4  10  23  41  59  83 122 162 198 250 309 367
#     4  11  22  40  65  90 121 160 208 261 312 363
#     4   9  18  36  61  91 124 160 203 255 313 373
#     4  11  21  34  54  83 117 154 197 244 302 367
#
# _framework density 20.169495999999999
#
# number of rings (size 3 to 8) (size 9 to 14) (size 15 to 20)
#    0.000    1.286    2.857    3.857    0.000    2.857 
#    0.000    4.286    0.000    4.286    0.000    0.000 
#    0.000    0.000    0.000    0.000    0.000    0.000 
#
# Total GULP energy -156320.447037 kJ/mol
# GULP energy per Si atom -5582.873108 kJ/mol
# Density = 2.012359 g / cm^3
# Si number density = 20.169496 Si / 1000 Ang^3
#
#
#
# Elastic Constant Matrix: (Units=GPa)
#
#
# Indices 1 2 3 4 5 6 
#
# 1 78.0365 16.1246 38.9345 0.0000 18.4561 0.0000
# 2 16.1246 42.3267 13.2295 0.0000 5.9171 0.0000
# 3 38.9345 13.2295 129.6963 0.0000 13.8853 0.0000
# 4 0.0000 0.0000 0.0000 29.2520 0.0000 -2.2890
# 5 18.4561 5.9171 13.8853 0.0000 36.9498 0.0000
# 6 0.0000 0.0000 0.0000 -2.2890 0.0000 15.9601
#
#
#
# Elastic Compliance Matrix: (Units=1/GPa)
#
#
# Indices 1 2 3 4 5 6 
#
# 1 0.017257 -0.004416 -0.004046 0.000000 -0.006392 0.000000
# 2 -0.004416 0.025879 -0.001153 0.000000 -0.001505 0.000000
# 3 -0.004046 -0.001153 0.009175 0.000000 -0.001243 0.000000
# 4 0.000000 0.000000 0.000000 0.034574 0.000000 0.004959
# 5 -0.006392 -0.001505 -0.001243 0.000000 0.030965 0.000000
# 6 0.000000 0.000000 0.000000 0.004959 0.000000 0.063367
#
#
# Mechanical properties :
#
#
# Convention : Reuss Voigt Hill
#
# Bulk Modulus (GPa) = 30.22783 42.95963 36.59373
# Shear Modulus (GPa) = 23.64353 28.55046 26.09699
#
# Velocity S-wave (km/s) = 3.42752 3.76643 3.60096
# Velocity P-wave (km/s) = 5.53925 6.34509 5.95582
#
# Compressibility (1/GPa) = 0.03308210
#
# Stress axis : x y z
#
# Youngs Moduli (GPa) = 57.94622 38.64160 108.98609
#
# Poissons Ratio (x) = 0.17065 0.44094
# Poissons Ratio (y) = 0.25590 0.12565
# Poissons Ratio (z) = 0.23444 0.04455
#
# Static dielectric constant tensor:
#      x y z
#    x 1.711560 0.000000 0.019330 
#    y 0.000000 1.725780 0.000000 
#    z 0.019330 0.000000 1.754590 
# 
# From -- ./inp_files/187687.got.cif
#   From: 2010.05.17/outbox.cif.g08.bks.cpg/sg12_94_cif.got.tgz:187687.got - 2010.06.03 13:09:07.
