data_PCOD9216694
_publ_section_title
;
Structure prediction by ZEFSAII (Michael W. Deem and Ramdas Pophale) SiO2 
 PCOD9216694
Probable space group: C 2/M
;
_chemical_formula_sum "Si O2"
_cell_formula_units_Z 40
_cell_length_a 23.166132
_cell_length_b 18.305959
_cell_length_c 8.180470
_cell_angle_alpha 90.000000
_cell_angle_beta 32.224637
_cell_angle_gamma 90.000000
_cell_volume 1849.894917
_symmetry_space_group_name_H-M "C 2/M"
_symmetry_group_IT_number 12
_symmetry_cell_setting 'monoclinic'
loop_
_space_group_symop_operation_xyz
x,y,z
-x,y,-z
-x,-y,-z
x,-y,z
1/2+x,1/2+y,z
1/2-x,1/2+y,-z
1/2-x,1/2-y,-z
1/2+x,1/2-y,z
loop_
_atom_site_type_symbol
_atom_site_label
_atom_site_fract_x
_atom_site_fract_y
_atom_site_fract_z
Si Si1 0.093249 0.918922 0.644649
Si Si2 0.907170 0.800920 0.598350
Si Si3 0.019881 0.418521 0.149393
Si Si4 0.310964 0.843298 0.691500
Si Si5 0.223887 0.665243 0.594931
O O1 0.047950 0.869222 0.608859
O O2 0.189320 0.874690 0.500848
O O3 0.127540 0.000000 0.510075
O O4 0.000000 0.925413 0.000000
O O5 0.870856 0.735289 0.566139
O O6 0.000000 0.775438 0.500000
O O7 0.798029 0.831617 0.945263
O O8 0.058372 0.500000 0.102439
O O9 0.906630 0.399412 0.508427
O O10 0.109282 0.355005 0.953223
O O11 0.000000 0.419318 0.000000
O O12 0.278837 0.864202 0.584021
O O13 0.250000 0.750000 0.500000
#
# Coordination Sequence:
#
# PCOD9216694 Si02
#       5
#     8   8   8   8   8
#     4  11  25  42  64  95 129 168 217 270 325 390
#     4  11  24  41  62  94 133 173 221 269 319 395
#     4   9  20  37  60  93 127 162 209 262 323 389
#     4  10  23  39  64  97 128 171 216 268 329 387
#     4  11  21  38  69  95 124 169 212 274 321 384
#
# _framework density 21.622848999999999
#
# number of rings (size 3 to 8) (size 9 to 14) (size 15 to 20)
#    0.000    1.600    2.000    1.800    5.600    2.000 
#    0.000    0.000    0.000    3.000    0.000    0.000 
#    0.000    0.000    0.000    0.000    0.000    0.000 
#
# Total GULP energy -111583.456488 kJ/mol
# GULP energy per Si atom -5579.172824 kJ/mol
# Density = 2.157363 g / cm^3
# Si number density = 21.622849 Si / 1000 Ang^3
#
#
#
# Elastic Constant Matrix: (Units=GPa)
#
#
# Indices 1 2 3 4 5 6 
#
# 1 47.1563 -5.4193 -17.8109 0.0000 -9.1581 0.0000
# 2 -5.4193 86.4755 2.9430 0.0000 -6.1845 0.0000
# 3 -17.8109 2.9430 65.3428 0.0000 -14.3624 0.0000
# 4 0.0000 0.0000 0.0000 24.0514 0.0000 0.4359
# 5 -9.1581 -6.1845 -14.3624 0.0000 25.0752 0.0000
# 6 0.0000 0.0000 0.0000 0.4359 0.0000 -0.2513
#
#
#
# Elastic Compliance Matrix: (Units=1/GPa)
#
#
# Indices 1 2 3 4 5 6 
#
# 1 0.029616 0.002761 0.011984 0.000000 0.018362 0.000000
# 2 0.002761 0.012030 0.001241 0.000000 0.004686 0.000000
# 3 0.011984 0.001241 0.022359 0.000000 0.017490 0.000000
# 4 0.000000 0.000000 0.000000 0.040310 0.000000 0.069928
# 5 0.018362 0.004686 0.017490 0.000000 0.057760 0.000000
# 6 0.000000 0.000000 0.000000 0.069928 0.000000 -3.858030
#
#
# Mechanical properties :
#
#
# Convention : Reuss Voigt Hill
#
# Bulk Modulus (GPa) = 10.41915 17.60002 14.00959
# Shear Modulus (GPa) = -1.35284 24.39251 11.51984
#
# Velocity S-wave (km/s) = -0.79184 3.36235 2.31067
# Velocity P-wave (km/s) = 1.99826 4.81986 3.68945
#
# Compressibility (1/GPa) = 0.09597714
#
# Stress axis : x y z
#
# Youngs Moduli (GPa) = 33.76579 83.12594 44.72511
#
# Poissons Ratio (x) = -0.22954 -0.53599
# Poissons Ratio (y) = -0.09324 -0.05550
# Poissons Ratio (z) = -0.40465 -0.10315
#
# Static dielectric constant tensor:
#      x y z
#    x 1.797630 0.000000 -0.009320 
#    y 0.000000 1.818580 0.000000 
#    z -0.009320 0.000000 1.804620 
# 
# From -- ./inp_files/46971.got.cif
#   From: 2010.05.17/outbox.cif.g08.bks.cpg/sg12_24_cif.got.tgz:46971.got - 2010.06.03 13:09:07.
