data_PCOD9216961
_publ_section_title
;
Structure prediction by ZEFSAII (Michael W. Deem and Ramdas Pophale) SiO2 
 PCOD9216961
Probable space group: C 2/M
;
_chemical_formula_sum "Si O2"
_cell_formula_units_Z 40
_cell_length_a 22.080957
_cell_length_b 20.019676
_cell_length_c 11.360562
_cell_angle_alpha 90.000000
_cell_angle_beta 159.811539
_cell_angle_gamma 90.000000
_cell_volume 1733.130526
_symmetry_space_group_name_H-M "C 2/M"
_symmetry_group_IT_number 12
_symmetry_cell_setting 'monoclinic'
loop_
_space_group_symop_operation_xyz
x,y,z
-x,y,-z
-x,-y,-z
x,-y,z
1/2+x,1/2+y,z
1/2-x,1/2+y,-z
1/2-x,1/2-y,-z
1/2+x,1/2-y,z
loop_
_atom_site_type_symbol
_atom_site_label
_atom_site_fract_x
_atom_site_fract_y
_atom_site_fract_z
Si Si1 0.143338 0.185941 0.854505
Si Si2 0.971276 0.658150 0.808465
Si Si3 0.341554 0.707502 0.493456
Si Si4 0.196057 0.425093 0.703026
Si Si5 0.435233 0.431103 0.750680
O O1 0.000000 0.157573 0.500000
O O2 0.005769 0.206698 0.705225
O O3 0.250000 0.250000 0.000000
O O4 0.283992 0.131938 0.160500
O O5 0.839276 0.720872 0.551596
O O6 0.907690 0.601558 0.601792
O O7 0.000000 0.641506 0.000000
O O8 0.156100 0.687811 0.099457
O O9 0.363236 0.642897 0.614001
O O10 0.136737 0.500000 0.629040
O O11 0.397781 0.431286 0.029463
O O12 0.329146 0.500000 0.530485
O O13 0.500000 0.437061 0.000000
#
# Coordination Sequence:
#
# PCOD9216961 Si02
#       5
#     8   8   8   8   8
#     4  11  23  42  69  93 121 164 214 269 324 368
#     4  12  23  37  61  93 133 173 207 253 313 380
#     4  11  22  37  59  91 124 162 216 262 307 372
#     4  10  23  41  61  92 129 165 212 263 311 376
#     4   9  17  33  57  85 122 164 202 248 309 374
#
# _framework density 23.079625
#
# number of rings (size 3 to 8) (size 9 to 14) (size 15 to 20)
#    0.000    1.400    0.000    7.200    0.000    1.600 
#    0.000    0.000    0.000   13.800    0.000    0.000 
#    0.000    0.000    0.000    0.000    0.000    0.000 
#
# Total GULP energy -111436.674098 kJ/mol
# GULP energy per Si atom -5571.833705 kJ/mol
# Density = 2.302709 g / cm^3
# Si number density = 23.079625 Si / 1000 Ang^3
#
#
#
# Elastic Constant Matrix: (Units=GPa)
#
#
# Indices 1 2 3 4 5 6 
#
# 1 77.8103 60.0414 26.4642 0.0000 -8.3665 0.0000
# 2 60.0414 173.7290 59.5183 0.0000 -25.6968 0.0000
# 3 26.4642 59.5183 85.2832 0.0000 -16.0598 0.0000
# 4 0.0000 0.0000 0.0000 3.3770 0.0000 -29.3738
# 5 -8.3665 -25.6968 -16.0598 0.0000 49.7217 0.0000
# 6 0.0000 0.0000 0.0000 -29.3738 0.0000 41.3120
#
#
#
# Elastic Compliance Matrix: (Units=1/GPa)
#
#
# Indices 1 2 3 4 5 6 
#
# 1 0.017701 -0.005617 -0.001659 0.000000 -0.000460 0.000000
# 2 -0.005617 0.009614 -0.004481 0.000000 0.002576 0.000000
# 3 -0.001659 -0.004481 0.015843 0.000000 0.002522 0.000000
# 4 0.000000 0.000000 0.000000 -0.057115 0.000000 -0.040610
# 5 -0.000460 0.002576 0.002522 0.000000 0.022180 0.000000
# 6 0.000000 0.000000 0.000000 -0.040610 0.000000 -0.004669
#
#
# Mechanical properties :
#
#
# Convention : Reuss Voigt Hill
#
# Bulk Modulus (GPa) = 50.91087 69.87447 60.39267
# Shear Modulus (GPa) = 148.73718 31.60204 90.16961
#
# Velocity S-wave (km/s) = 8.03649 3.70437 6.25729
# Velocity P-wave (km/s) = 10.40289 6.97406 8.85601
#
# Compressibility (1/GPa) = 0.01964217
#
# Stress axis : x y z
#
# Youngs Moduli (GPa) = 56.49378 104.01918 63.12018
#
# Poissons Ratio (x) = 0.58429 0.10474
# Poissons Ratio (y) = 0.31734 0.28285
# Poissons Ratio (z) = 0.09374 0.46612
#
# Static dielectric constant tensor:
#      x y z
#    x 2.214970 0.000000 0.500540 
#    y 0.000000 2.013960 0.000000 
#    z 0.500540 0.000000 2.816760 
# 
# From -- ./inp_files/177985.got.cif
#   From: 2010.05.17/outbox.cif.g08.bks.cpg/sg12_89_cif.got.tgz:177985.got - 2010.06.03 13:09:07.
