data_PCOD9216960
_publ_section_title
;
Structure prediction by ZEFSAII (Michael W. Deem and Ramdas Pophale) SiO2 
 PCOD9216960
Probable space group: C 2/M
;
_chemical_formula_sum "Si O2"
_cell_formula_units_Z 48
_cell_length_a 25.628208
_cell_length_b 14.040256
_cell_length_c 10.963978
_cell_angle_alpha 90.000000
_cell_angle_beta 149.360331
_cell_angle_gamma 90.000000
_cell_volume 2010.585613
_symmetry_space_group_name_H-M "C 2/M"
_symmetry_group_IT_number 12
_symmetry_cell_setting 'monoclinic'
loop_
_space_group_symop_operation_xyz
x,y,z
-x,y,-z
-x,-y,-z
x,-y,z
1/2+x,1/2+y,z
1/2-x,1/2+y,-z
1/2-x,1/2-y,-z
1/2+x,1/2-y,z
loop_
_atom_site_type_symbol
_atom_site_label
_atom_site_fract_x
_atom_site_fract_y
_atom_site_fract_z
Si Si1 0.808419 0.112291 0.644303
Si Si2 0.403926 0.106889 0.667979
Si Si3 0.917191 0.814031 0.428098
Si Si4 0.568904 0.753260 0.945723
Si Si5 0.610590 0.103434 0.656043
Si Si6 0.252163 0.892529 0.752470
O O1 0.697771 0.145930 0.472523
O O2 0.890572 0.173265 0.882019
O O3 0.806240 0.121147 0.494201
O O4 0.819426 0.000000 0.695796
O O5 0.389047 0.101831 0.490892
O O6 0.415518 0.000000 0.736241
O O7 0.504850 0.167068 0.886086
O O8 0.865723 0.715472 0.274282
O O9 0.827419 0.879457 0.298230
O O10 0.000000 0.854275 0.500000
O O11 0.990488 0.787701 0.689276
O O12 0.661663 0.811500 0.070255
O O13 0.500000 0.098138 0.500000
O O14 0.660589 0.000000 0.791071
O O15 0.296084 0.000000 0.838318
#
# Coordination Sequence:
#
# PCOD9216960 Si02
#       6
#     8   8   8   8   8   8
#     4  10  23  41  61  91 127 159 202 257 310 367
#     4   9  18  34  57  88 123 157 197 247 302 361
#     4  10  23  41  63  91 126 163 206 256 307 363
#     4  11  21  38  66  92 121 162 205 248 305 371
#     4   8  14  28  52  81 112 147 188 236 288 340
#     4  11  25  43  62  90 127 163 204 257 310 366
#
# _framework density 23.873640999999999
#
# number of rings (size 3 to 8) (size 9 to 14) (size 15 to 20)
#    0.000    2.167    0.000    3.000    0.000    5.000 
#    0.000    5.833    0.000    9.000    0.000    0.000 
#    0.000    0.000    0.000    0.000    0.000    0.000 
#
# Total GULP energy -134121.673155 kJ/mol
# GULP energy per Si atom -5588.403048 kJ/mol
# Density = 2.381930 g / cm^3
# Si number density = 23.873641 Si / 1000 Ang^3
#
#
#
# Elastic Constant Matrix: (Units=GPa)
#
#
# Indices 1 2 3 4 5 6 
#
# 1 133.3045 11.9492 11.8308 0.0000 7.4691 0.0000
# 2 11.9492 97.6963 36.2984 0.0000 10.8827 0.0000
# 3 11.8308 36.2984 83.5678 0.0000 -3.2991 0.0000
# 4 0.0000 0.0000 0.0000 28.8203 0.0000 11.6951
# 5 7.4691 10.8827 -3.2991 0.0000 31.3637 0.0000
# 6 0.0000 0.0000 0.0000 11.6951 0.0000 19.8341
#
#
#
# Elastic Compliance Matrix: (Units=1/GPa)
#
#
# Indices 1 2 3 4 5 6 
#
# 1 0.007726 -0.000369 -0.001005 0.000000 -0.001818 0.000000
# 2 -0.000369 0.012992 -0.005790 0.000000 -0.005029 0.000000
# 3 -0.001005 -0.005790 0.014774 0.000000 0.003802 0.000000
# 4 0.000000 0.000000 0.000000 0.045611 0.000000 -0.026895
# 5 -0.001818 -0.005029 0.003802 0.000000 0.034462 0.000000
# 6 0.000000 0.000000 0.000000 -0.026895 0.000000 0.066276
#
#
# Mechanical properties :
#
#
# Convention : Reuss Voigt Hill
#
# Bulk Modulus (GPa) = 47.25030 48.30282 47.77656
# Shear Modulus (GPa) = 24.60345 32.96962 28.78653
#
# Velocity S-wave (km/s) = 3.21373 3.72022 3.47621
# Velocity P-wave (km/s) = 5.79703 6.22334 6.01396
#
# Compressibility (1/GPa) = 0.02116389
#
# Stress axis : x y z
#
# Youngs Moduli (GPa) = 129.43721 76.96895 67.68866
#
# Poissons Ratio (x) = 0.02840 0.06804
# Poissons Ratio (y) = 0.04776 0.39189
# Poissons Ratio (z) = 0.13011 0.44562
#
# Static dielectric constant tensor:
#      x y z
#    x 1.916740 0.000000 -0.031180 
#    y 0.000000 1.951790 0.000000 
#    z -0.031180 0.000000 1.926000 
# 
# From -- ./inp_files/183900.got.cif
#   From: 2010.05.17/outbox.cif.g08.bks.cpg/sg12_92_cif.got.tgz:183900.got - 2010.06.03 13:09:07.
