data_PCOD9216533
_publ_section_title
;
Structure prediction by ZEFSAII (Michael W. Deem and Ramdas Pophale) SiO2 
 PCOD9216533
Probable space group: C 2/M
;
_chemical_formula_sum "Si O2"
_cell_formula_units_Z 48
_cell_length_a 14.512106
_cell_length_b 18.550001
_cell_length_c 16.965704
_cell_angle_alpha 90.000000
_cell_angle_beta 29.096341
_cell_angle_gamma 90.000000
_cell_volume 2220.916839
_symmetry_space_group_name_H-M "C 2/M"
_symmetry_group_IT_number 12
_symmetry_cell_setting 'monoclinic'
loop_
_space_group_symop_operation_xyz
x,y,z
-x,y,-z
-x,-y,-z
x,-y,z
1/2+x,1/2+y,z
1/2-x,1/2+y,-z
1/2-x,1/2-y,-z
1/2+x,1/2-y,z
loop_
_atom_site_type_symbol
_atom_site_label
_atom_site_fract_x
_atom_site_fract_y
_atom_site_fract_z
Si Si1 0.886632 0.347597 0.908394
Si Si2 0.874812 0.762500 0.162773
Si Si3 0.684729 0.500000 0.236648
Si Si4 0.011229 0.118478 0.709021
Si Si5 0.481974 0.000000 0.146784
Si Si6 0.834428 0.622540 0.571215
Si Si7 0.041139 0.264763 0.305520
O O1 0.881413 0.303987 0.830692
O O2 0.007925 0.297869 0.877959
O O3 0.986180 0.426039 0.829331
O O4 0.675670 0.362467 0.099195
O O5 0.790096 0.823277 0.281988
O O6 0.702209 0.730104 0.241316
O O7 0.000000 0.797057 0.000000
O O8 0.557704 0.568676 0.310332
O O9 0.785534 0.500000 0.245480
O O10 0.853646 0.500000 0.044202
O O11 0.082929 0.196141 0.625646
O O12 0.175582 0.082806 0.638543
O O13 0.000000 0.586429 0.500000
O O14 0.948527 0.673866 0.426778
#
# Coordination Sequence:
#
# PCOD9216533 Si02
#       7
#     8   8   4   8   4   8   8
#     4  11  21  35  61  90 120 158 192 249 295 354
#     4  11  20  34  57  91 117 146 197 245 295 348
#     4   9  20  34  60  84 120 160 187 245 294 359
#     4  11  19  36  57  85 116 154 203 234 297 350
#     4   9  20  36  55  90 125 150 193 236 306 352
#     4  10  23  37  55  84 121 155 196 252 299 343
#     4  11  21  35  59  85 119 157 198 244 295 349
#
# _framework density 21.612696
#
# number of rings (size 3 to 8) (size 9 to 14) (size 15 to 20)
#    0.000    1.500    3.333    3.000    2.333    0.000 
#    0.000    1.250    0.000    4.000    0.000   15.167 
#    0.000    0.000    0.000    0.000    0.000    0.000 
#
# Total GULP energy -133955.129256 kJ/mol
# GULP energy per Si atom -5581.463719 kJ/mol
# Density = 2.156350 g / cm^3
# Si number density = 21.612696 Si / 1000 Ang^3
#
#
#
# Elastic Constant Matrix: (Units=GPa)
#
#
# Indices 1 2 3 4 5 6 
#
# 1 137.4315 39.4071 30.1524 0.0111 -39.1096 -0.0032
# 2 39.4071 112.6727 11.9271 0.0196 -5.8768 -0.0087
# 3 30.1524 11.9271 42.5732 0.0218 -7.6734 -0.0120
# 4 0.0111 0.0196 0.0218 4.4420 -0.0115 -5.5833
# 5 -39.1096 -5.8768 -7.6734 -0.0115 47.5609 0.0034
# 6 -0.0032 -0.0087 -0.0120 -5.5833 0.0034 22.1169
#
#
#
# Elastic Compliance Matrix: (Units=1/GPa)
#
#
# Indices 1 2 3 4 5 6 
#
# 1 0.011876 -0.003076 -0.006033 0.000044 0.008412 0.000007
# 2 -0.003076 0.009969 -0.000873 -0.000046 -0.001439 -0.000008
# 3 -0.006033 -0.000873 0.027904 -0.000149 -0.000567 -0.000024
# 4 0.000044 -0.000046 -0.000149 0.329764 0.000081 0.083248
# 5 0.008412 -0.001439 -0.000567 0.000081 0.027674 0.000016
# 6 0.000007 -0.000008 -0.000024 0.083248 0.000016 0.066230
#
#
# Mechanical properties :
#
#
# Convention : Reuss Voigt Hill
#
# Bulk Modulus (GPa) = 33.57545 50.62786 42.10165
# Shear Modulus (GPa) = 9.93423 28.90334 19.41878
#
# Velocity S-wave (km/s) = 2.14627 3.66092 3.00073
# Velocity P-wave (km/s) = 4.65948 6.43006 5.61500
#
# Compressibility (1/GPa) = 0.02978367
#
# Stress axis : x y z
#
# Youngs Moduli (GPa) = 84.20352 100.31522 35.83657
#
# Poissons Ratio (x) = 0.30859 0.21621
# Poissons Ratio (y) = 0.25903 0.03130
# Poissons Ratio (z) = 0.50801 0.08761
#
# Static dielectric constant tensor:
#      x y z
#    x 1.827510 0.000000 -0.060780 
#    y 0.000000 1.741520 0.000010 
#    z -0.060780 0.000010 1.846260 
# 
# From -- ./inp_files/271637.got.cif
#   From: 2010.05.17/outbox.cif.g08.bks.cpg/sg12_136_cif.got.tgz:271637.got - 2010.06.03 13:09:07.
