data_PCOD9216911
_publ_section_title
;
Structure prediction by ZEFSAII (Michael W. Deem and Ramdas Pophale) SiO2 
 PCOD9216911
Probable space group: C 2/M
;
_chemical_formula_sum "Si O2"
_cell_formula_units_Z 64
_cell_length_a 14.741917
_cell_length_b 8.956684
_cell_length_c 26.032202
_cell_angle_alpha 90.000000
_cell_angle_beta 85.415044
_cell_angle_gamma 90.000000
_cell_volume 3426.258342
_symmetry_space_group_name_H-M "C 2/M"
_symmetry_group_IT_number 12
_symmetry_cell_setting 'monoclinic'
loop_
_space_group_symop_operation_xyz
x,y,z
-x,y,-z
-x,-y,-z
x,-y,z
1/2+x,1/2+y,z
1/2-x,1/2+y,-z
1/2-x,1/2-y,-z
1/2+x,1/2-y,z
loop_
_atom_site_type_symbol
_atom_site_label
_atom_site_fract_x
_atom_site_fract_y
_atom_site_fract_z
Si Si1 0.349119 0.822211 0.487954
Si Si2 0.913141 0.679958 0.859155
Si Si3 0.888847 0.820522 0.136485
Si Si4 0.772986 0.322058 0.326676
Si Si5 0.577527 0.675363 0.619386
Si Si6 0.385677 0.675272 0.588738
Si Si7 0.226595 0.320444 0.221942
Si Si8 0.752095 0.319914 0.943881
O O1 0.250000 0.750000 0.500000
O O2 0.390896 0.752122 0.434926
O O3 0.400362 0.773653 0.537616
O O4 0.343947 0.000000 0.483525
O O5 0.920149 0.500000 0.859067
O O6 0.860125 0.722718 0.809097
O O7 0.843234 0.722282 0.908101
O O8 0.012649 0.748593 0.860999
O O9 0.817807 0.783598 0.185321
O O10 0.835243 0.776092 0.086833
O O11 0.898457 0.000000 0.135359
O O12 0.779382 0.500000 0.323393
O O13 0.869791 0.250949 0.336297
O O14 0.706370 0.285056 0.377402
O O15 0.732446 0.257121 0.276390
O O16 0.599923 0.500000 0.616653
O O17 0.469015 0.691429 0.624225
O O18 0.381735 0.500000 0.573447
O O19 0.224396 0.500000 0.228104
O O20 0.751486 0.500000 0.947307
O O21 0.750000 0.250000 0.000000
#
# Coordination Sequence:
#
# PCOD9216911 Si02
#       8
#     8   8   8   8   8   8   8   8
#     4  12  23  37  60  86 113 147 185 226 274 330
#     4   9  19  36  57  81 110 146 188 233 277 327
#     4   9  19  36  57  80 109 147 188 230 278 332
#     4  11  23  39  59  84 113 144 183 232 276 330
#     4  11  23  40  61  84 113 150 183 223 280 334
#     4  10  23  41  59  82 114 147 181 224 277 332
#     4   9  20  39  58  77 108 146 182 227 281 334
#     4   9  19  35  53  79 116 153 188 228 278 328
#
# _framework density 18.679269000000001
#
# number of rings (size 3 to 8) (size 9 to 14) (size 15 to 20)
#    0.000    2.000    1.250    3.750    0.000    6.500 
#    0.000    8.750    0.000    0.000    0.000    0.000 
#    0.000    0.000    0.000    0.000    0.000    0.000 
#
# Total GULP energy -178676.913546 kJ/mol
# GULP energy per Si atom -5583.653548 kJ/mol
# Density = 1.863675 g / cm^3
# Si number density = 18.679269 Si / 1000 Ang^3
#
#
#
# Elastic Constant Matrix: (Units=GPa)
#
#
# Indices 1 2 3 4 5 6 
#
# 1 116.5772 32.6875 29.7399 0.0000 20.2467 0.0000
# 2 32.6875 45.4728 34.9811 0.0000 7.6143 0.0000
# 3 29.7399 34.9811 94.2680 0.0000 20.4559 0.0000
# 4 0.0000 0.0000 0.0000 35.3483 0.0000 4.0143
# 5 20.2467 7.6143 20.4559 0.0000 15.4394 0.0000
# 6 0.0000 0.0000 0.0000 4.0143 0.0000 32.6726
#
#
#
# Elastic Compliance Matrix: (Units=1/GPa)
#
#
# Indices 1 2 3 4 5 6 
#
# 1 0.013243 -0.008813 0.002691 0.000000 -0.016586 0.000000
# 2 -0.008813 0.036641 -0.013198 0.000000 0.010972 0.000000
# 3 0.002691 -0.013198 0.019663 0.000000 -0.023073 0.000000
# 4 0.000000 0.000000 0.000000 0.028690 0.000000 -0.003525
# 5 -0.016586 0.010972 -0.023073 0.000000 0.111678 0.000000
# 6 0.000000 0.000000 0.000000 -0.003525 0.000000 0.031040
#
#
# Mechanical properties :
#
#
# Convention : Reuss Voigt Hill
#
# Bulk Modulus (GPa) = 32.35210 50.12613 41.23911
# Shear Modulus (GPa) = 17.24753 27.28601 22.26677
#
# Velocity S-wave (km/s) = 3.04197 3.82614 3.45636
# Velocity P-wave (km/s) = 5.44935 6.81268 6.16879
#
# Compressibility (1/GPa) = 0.03090989
#
# Stress axis : x y z
#
# Youngs Moduli (GPa) = 75.51121 27.29152 50.85695
#
# Poissons Ratio (x) = 0.24051 -0.13688
# Poissons Ratio (y) = 0.66546 0.67119
# Poissons Ratio (z) = -0.20324 0.36018
#
# Static dielectric constant tensor:
#      x y z
#    x 1.663050 0.000000 0.019630 
#    y 0.000000 1.623770 0.000000 
#    z 0.019630 0.000000 1.632590 
# 
# From -- ./inp_files/338924.got.cif
#   From: 2010.05.17/outbox.cif.g08.bks.cpg/sg12_170_cif.got.tgz:338924.got - 2010.06.03 13:09:07.
