data_PCOD9216354
_publ_section_title
;
Structure prediction by ZEFSAII (Michael W. Deem and Ramdas Pophale) SiO2 
 PCOD9216354
Probable space group: C 2/M
;
_chemical_formula_sum "Si O2"
_cell_formula_units_Z 36
_cell_length_a 16.241939
_cell_length_b 23.562958
_cell_length_c 7.748242
_cell_angle_alpha 90.000000
_cell_angle_beta 149.002250
_cell_angle_gamma 90.000000
_cell_volume 1527.150405
_symmetry_space_group_name_H-M "C 2/M"
_symmetry_group_IT_number 12
_symmetry_cell_setting 'monoclinic'
loop_
_space_group_symop_operation_xyz
x,y,z
-x,y,-z
-x,-y,-z
x,-y,z
1/2+x,1/2+y,z
1/2-x,1/2+y,-z
1/2-x,1/2-y,-z
1/2+x,1/2-y,z
loop_
_atom_site_type_symbol
_atom_site_label
_atom_site_fract_x
_atom_site_fract_y
_atom_site_fract_z
Si Si1 0.116852 0.567721 0.047155
Si Si2 0.006645 0.061846 0.306837
Si Si3 0.500000 0.134725 0.500000
Si Si4 0.823018 0.258403 0.320302
Si Si5 0.555187 0.324782 0.917014
O O1 0.092311 0.500000 0.984946
O O2 0.079578 0.596789 0.794213
O O3 0.309671 0.575322 0.421697
O O4 0.000000 0.585921 0.000000
O O5 0.000000 0.056422 0.500000
O O6 0.892925 0.115836 0.071597
O O7 0.959584 0.000000 0.148578
O O8 0.589361 0.181685 0.540459
O O9 0.924102 0.205204 0.560818
O O10 0.750000 0.250000 0.000000
O O11 0.674709 0.273297 0.172564
O O12 0.500000 0.345163 0.000000
#
# Coordination Sequence:
#
# PCOD9216354 Si02
#       5
#     8   8   4   8   8
#     4  10  23  42  66 100 137 177 229 288 345 411
#     4  10  22  44  70  94 133 181 228 283 346 413
#     4  12  23  38  72  92 133 182 226 280 344 418
#     4  12  24  45  64  96 133 181 225 275 342 412
#     4  12  26  42  67 100 136 175 228 286 343 410
#
# _framework density 23.573316999999999
#
# number of rings (size 3 to 8) (size 9 to 14) (size 15 to 20)
#    0.000    0.889    2.222    5.000    3.111    1.333 
#    0.000    1.111    0.000    0.000    0.000    0.000 
#    0.000    0.000    0.000    0.000    0.000    0.000 
#
# Total GULP energy -100255.052196 kJ/mol
# GULP energy per Si atom -5569.725122 kJ/mol
# Density = 2.351966 g / cm^3
# Si number density = 23.573317 Si / 1000 Ang^3
#
#
#
# Elastic Constant Matrix: (Units=GPa)
#
#
# Indices 1 2 3 4 5 6 
#
# 1 69.0054 13.6187 2.6810 0.0000 -9.7670 0.0000
# 2 13.6187 143.5013 39.8981 0.0000 -10.1305 0.0000
# 3 2.6810 39.8981 35.7514 0.0000 -7.6805 0.0000
# 4 0.0000 0.0000 0.0000 32.0869 0.0000 -25.2839
# 5 -9.7670 -10.1305 -7.6805 0.0000 31.1825 0.0000
# 6 0.0000 0.0000 0.0000 -25.2839 0.0000 57.2916
#
#
#
# Elastic Compliance Matrix: (Units=1/GPa)
#
#
# Indices 1 2 3 4 5 6 
#
# 1 0.015407 -0.001580 0.001620 0.000000 0.004712 0.000000
# 2 -0.001580 0.010274 -0.011336 0.000000 0.000051 0.000000
# 3 0.001620 -0.011336 0.042043 0.000000 0.007180 0.000000
# 4 0.000000 0.000000 0.000000 0.047781 0.000000 0.021087
# 5 0.004712 0.000051 0.007180 0.000000 0.035330 0.000000
# 6 0.000000 0.000000 0.000000 0.021087 0.000000 0.026761
#
#
# Mechanical properties :
#
#
# Convention : Reuss Voigt Hill
#
# Bulk Modulus (GPa) = 22.15722 40.07263 31.11493
# Shear Modulus (GPa) = 23.23068 36.91624 30.07346
#
# Velocity S-wave (km/s) = 3.14262 3.96159 3.57563
# Velocity P-wave (km/s) = 4.75266 6.16130 5.50224
#
# Compressibility (1/GPa) = 0.04513201
#
# Stress axis : x y z
#
# Youngs Moduli (GPa) = 64.90389 97.33359 23.78520
#
# Poissons Ratio (x) = 0.15379 -0.03853
# Poissons Ratio (y) = 0.10255 0.26963
# Poissons Ratio (z) = -0.10515 1.10339
#
# Static dielectric constant tensor:
#      x y z
#    x 2.041010 0.000000 0.236930 
#    y 0.000000 1.978280 0.000000 
#    z 0.236930 0.000000 2.183800 
# 
# From -- ./inp_files/78162.got.cif
#   From: 2010.05.17/outbox.cif.g08.bks.cpg/sg12_40_cif.got.tgz:78162.got - 2010.06.03 13:09:07.
