data_PCOD9216040
_publ_section_title
;
Structure prediction by ZEFSAII (Michael W. Deem and Ramdas Pophale) SiO2 
 PCOD9216040
Probable space group: C 2/M
;
_chemical_formula_sum "Si O2"
_cell_formula_units_Z 48
_cell_length_a 7.690099
_cell_length_b 14.914537
_cell_length_c 24.037001
_cell_angle_alpha 90.000000
_cell_angle_beta 136.723496
_cell_angle_gamma 90.000000
_cell_volume 1889.913912
_symmetry_space_group_name_H-M "C 2/M"
_symmetry_group_IT_number 12
_symmetry_cell_setting 'monoclinic'
loop_
_space_group_symop_operation_xyz
x,y,z
-x,y,-z
-x,-y,-z
x,-y,z
1/2+x,1/2+y,z
1/2-x,1/2+y,-z
1/2-x,1/2-y,-z
1/2+x,1/2-y,z
loop_
_atom_site_type_symbol
_atom_site_label
_atom_site_fract_x
_atom_site_fract_y
_atom_site_fract_z
Si Si1 0.423427 0.796266 0.822571
Si Si2 0.329372 0.606150 0.841403
Si Si3 0.148522 0.601666 0.976295
Si Si4 0.068080 0.809335 0.419224
Si Si5 0.895048 0.000000 0.563235
Si Si6 0.663397 0.673343 0.318481
Si Si7 0.646783 0.000000 0.622298
O O1 0.412478 0.686650 0.817896
O O2 0.583414 0.851036 0.813943
O O3 0.557922 0.824855 0.911616
O O4 0.133900 0.829278 0.758701
O O5 0.300938 0.500000 0.818461
O O6 0.556178 0.605913 0.939577
O O7 0.091522 0.500000 0.941847
O O8 0.000000 0.611987 0.000000
O O9 0.250000 0.750000 0.500000
O O10 0.222706 0.826819 0.398959
O O11 0.818769 0.760289 0.338884
O O12 0.988482 0.904897 0.425880
O O13 0.860490 0.000000 0.622587
O O14 0.619956 0.000000 0.470453
O O15 0.808977 0.586936 0.330940
#
# Coordination Sequence:
#
# PCOD9216040 Si02
#       7
#     8   8   8   8   4   8   4
#     4  12  24  43  68  99 140 181 228 287 357 409
#     4  11  25  45  71 101 137 184 237 284 341 419
#     4  10  22  42  71 104 138 182 234 287 344 414
#     4  11  21  41  64  91 128 169 221 273 325 402
#     4   9  18  36  64  87 120 167 213 264 324 388
#     4  11  24  39  64  97 127 169 219 274 337 402
#     4   9  18  36  61  92 119 162 216 265 318 399
#
# _framework density 25.397983
#
# number of rings (size 3 to 8) (size 9 to 14) (size 15 to 20)
#    0.000    1.333    1.667    4.000    2.333    1.333 
#    4.500    3.333    3.667    0.000    0.000    0.000 
#    0.000    0.000    0.000    0.000    0.000    0.000 
#
# Total GULP energy -134179.802478 kJ/mol
# GULP energy per Si atom -5590.825103 kJ/mol
# Density = 2.534018 g / cm^3
# Si number density = 25.397983 Si / 1000 Ang^3
#
#
#
# Elastic Constant Matrix: (Units=GPa)
#
#
# Indices 1 2 3 4 5 6 
#
# 1 64.4558 34.2486 13.4767 0.0000 16.4209 0.0000
# 2 34.2486 225.6655 58.8357 0.0000 17.2279 0.0000
# 3 13.4767 58.8357 108.4663 0.0001 29.1993 0.0000
# 4 0.0000 0.0000 0.0001 33.1058 0.0000 0.2981
# 5 16.4209 17.2279 29.1993 0.0000 39.7719 0.0000
# 6 0.0000 0.0000 0.0000 0.2981 0.0000 26.7626
#
#
#
# Elastic Compliance Matrix: (Units=1/GPa)
#
#
# Indices 1 2 3 4 5 6 
#
# 1 0.018498 -0.002520 0.001035 0.000000 -0.007306 0.000000
# 2 -0.002520 0.005506 -0.002881 0.000000 0.000770 0.000000
# 3 0.001035 -0.002881 0.013002 0.000000 -0.008725 0.000000
# 4 0.000000 0.000000 0.000000 0.030209 0.000000 -0.000337
# 5 -0.007306 0.000770 -0.008725 0.000000 0.034232 0.000000
# 6 0.000000 0.000000 0.000000 -0.000337 0.000000 0.037369
#
#
# Mechanical properties :
#
#
# Convention : Reuss Voigt Hill
#
# Bulk Modulus (GPa) = 35.36585 67.96775 51.66680
# Shear Modulus (GPa) = 31.85251 39.39648 35.62450
#
# Velocity S-wave (km/s) = 3.54522 3.94276 3.74926
# Velocity P-wave (km/s) = 5.54193 6.89538 6.25537
#
# Compressibility (1/GPa) = 0.02827586
#
# Stress axis : x y z
#
# Youngs Moduli (GPa) = 54.05953 181.61861 76.90830
#
# Poissons Ratio (x) = 0.45759 -0.07961
# Poissons Ratio (y) = 0.13620 0.22157
# Poissons Ratio (z) = -0.05596 0.52324
#
# Static dielectric constant tensor:
#      x y z
#    x 2.084060 0.000000 -0.082470 
#    y 0.000000 2.338410 0.000000 
#    z -0.082470 0.000000 1.945100 
# 
# From -- ./inp_files/372421.got.cif
#   From: 2010.05.17/outbox.cif.g08.bks.cpg/sg12_187_cif.got.tgz:372421.got - 2010.06.03 13:09:07.
