data_PCOD9216349
_publ_section_title
;
Structure prediction by ZEFSAII (Michael W. Deem and Ramdas Pophale) SiO2 
 PCOD9216349
Probable space group: C 2/M
;
_chemical_formula_sum "Si O2"
_cell_formula_units_Z 40
_cell_length_a 13.348866
_cell_length_b 16.305201
_cell_length_c 8.148550
_cell_angle_alpha 90.000000
_cell_angle_beta 114.654129
_cell_angle_gamma 90.000000
_cell_volume 1611.905064
_symmetry_space_group_name_H-M "C 2/M"
_symmetry_group_IT_number 12
_symmetry_cell_setting 'monoclinic'
loop_
_space_group_symop_operation_xyz
x,y,z
-x,y,-z
-x,-y,-z
x,-y,z
1/2+x,1/2+y,z
1/2-x,1/2+y,-z
1/2-x,1/2-y,-z
1/2+x,1/2-y,z
loop_
_atom_site_type_symbol
_atom_site_label
_atom_site_fract_x
_atom_site_fract_y
_atom_site_fract_z
Si Si1 0.881205 0.594906 0.281218
Si Si2 0.705111 0.303846 0.319413
Si Si3 0.992716 0.902917 0.297149
Si Si4 0.254561 0.153637 0.872927
Si Si5 0.066869 0.403268 0.205538
O O1 0.892338 0.500000 0.326065
O O2 0.799758 0.630604 0.356856
O O3 0.001697 0.631247 0.318321
O O4 0.815817 0.610830 0.066177
O O5 0.750000 0.250000 0.500000
O O6 0.589769 0.348558 0.280642
O O7 0.711535 0.246142 0.158941
O O8 0.873674 0.861781 0.185915
O O9 0.000000 0.901410 0.500000
O O10 0.996178 0.000000 0.248616
O O11 0.305571 0.108162 0.747379
O O12 0.047058 0.500000 0.196812
O O13 0.000000 0.369708 0.000000
#
# Coordination Sequence:
#
# PCOD9216349 Si02
#       5
#     8   8   8   8   8
#     4  10  22  44  70 100 134 172 226 282 337 407
#     4  12  26  43  63  96 140 181 220 279 343 399
#     4  11  24  44  68  97 138 185 229 277 340 412
#     4  11  22  41  72  98 134 176 226 281 340 398
#     4   8  16  34  63  95 127 162 207 269 332 395
#
# _framework density 24.815358
#
# number of rings (size 3 to 8) (size 9 to 14) (size 15 to 20)
#    0.000    1.600    2.000    4.200    2.800    0.800 
#    3.600    2.000    0.000    2.400    0.000    0.000 
#    0.000    0.000    0.000    0.000    0.000    0.000 
#
# Total GULP energy -111679.373289 kJ/mol
# GULP energy per Si atom -5583.968664 kJ/mol
# Density = 2.475888 g / cm^3
# Si number density = 24.815358 Si / 1000 Ang^3
#
#
#
# Elastic Constant Matrix: (Units=GPa)
#
#
# Indices 1 2 3 4 5 6 
#
# 1 295.4959 83.2664 47.0645 0.0000 -8.2554 0.0000
# 2 83.2664 117.7837 22.9858 0.0000 -7.6778 0.0000
# 3 47.0645 22.9858 75.0271 0.0000 -0.7901 0.0000
# 4 0.0000 0.0000 0.0000 22.2790 0.0000 -13.3862
# 5 -8.2554 -7.6778 -0.7901 0.0000 42.3496 0.0000
# 6 0.0000 0.0000 0.0000 -13.3862 0.0000 50.0137
#
#
#
# Elastic Compliance Matrix: (Units=1/GPa)
#
#
# Indices 1 2 3 4 5 6 
#
# 1 0.004486 -0.002766 -0.001963 0.000000 0.000336 0.000000
# 2 -0.002766 0.010844 -0.001572 0.000000 0.001397 0.000000
# 3 -0.001963 -0.001572 0.015037 0.000000 -0.000387 0.000000
# 4 0.000000 0.000000 0.000000 0.053487 0.000000 0.014316
# 5 0.000336 0.001397 -0.000387 0.000000 0.023925 0.000000
# 6 0.000000 0.000000 0.000000 0.014316 0.000000 0.023826
#
#
# Mechanical properties :
#
#
# Convention : Reuss Voigt Hill
#
# Bulk Modulus (GPa) = 56.29286 88.32668 72.30977
# Shear Modulus (GPa) = 33.30492 45.26111 39.28302
#
# Velocity S-wave (km/s) = 3.66746 4.27537 3.98303
# Velocity P-wave (km/s) = 6.37711 7.74871 7.09613
#
# Compressibility (1/GPa) = 0.01776424
#
# Stress axis : x y z
#
# Youngs Moduli (GPa) = 222.93512 92.22096 66.50082
#
# Poissons Ratio (x) = 0.25509 0.13053
# Poissons Ratio (y) = 0.61666 0.10455
# Poissons Ratio (z) = 0.43759 0.14499
#
# Static dielectric constant tensor:
#      x y z
#    x 2.042860 0.000000 -0.025580 
#    y 0.000000 1.464730 0.000000 
#    z -0.025580 0.000000 2.057730 
# 
# From -- ./inp_files/47167.got.cif
#   From: 2010.05.17/outbox.cif.g08.bks.cpg/sg12_24_cif.got.tgz:47167.got - 2010.06.03 13:09:07.
