data_PCOD9216584
_publ_section_title
;
Structure prediction by ZEFSAII (Michael W. Deem and Ramdas Pophale) SiO2 
 PCOD9216584
Probable space group: C 2/M
;
_chemical_formula_sum "Si O2"
_cell_formula_units_Z 36
_cell_length_a 8.614989
_cell_length_b 17.355249
_cell_length_c 10.783444
_cell_angle_alpha 90.000000
_cell_angle_beta 95.586631
_cell_angle_gamma 90.000000
_cell_volume 1604.631494
_symmetry_space_group_name_H-M "C 2/M"
_symmetry_group_IT_number 12
_symmetry_cell_setting 'monoclinic'
loop_
_space_group_symop_operation_xyz
x,y,z
-x,y,-z
-x,-y,-z
x,-y,z
1/2+x,1/2+y,z
1/2-x,1/2+y,-z
1/2-x,1/2-y,-z
1/2+x,1/2-y,z
loop_
_atom_site_type_symbol
_atom_site_label
_atom_site_fract_x
_atom_site_fract_y
_atom_site_fract_z
Si Si1 0.760842 0.173245 0.841910
Si Si2 0.577865 0.585847 0.346673
Si Si3 0.185898 0.786992 0.625498
Si Si4 0.000000 0.713372 0.000000
Si Si5 0.355186 0.914703 0.571213
O O1 0.841576 0.101512 0.779421
O O2 0.682529 0.219787 0.722974
O O3 0.625361 0.163773 0.932382
O O4 0.894460 0.228486 0.909128
O O5 0.502307 0.500000 0.341720
O O6 0.468436 0.659701 0.368218
O O7 0.709160 0.583418 0.464282
O O8 0.250000 0.750000 0.500000
O O9 0.317446 0.850495 0.667625
O O10 0.500000 0.890997 0.500000
O O11 0.383850 0.000000 0.622200
#
# Coordination Sequence:
#
# PCOD9216584 Si02
#       5
#     8   8   8   4   8
#     4  11  23  43  68  98 125 175 221 283 322 397
#     4  11  24  44  66  97 139 178 215 270 337 400
#     4  12  24  37  67 103 130 172 220 268 325 398
#     4  10  24  44  68  90 132 168 232 276 334 374
#     4  10  23  38  58  94 141 176 204 259 333 402
#
# _framework density 22.435058999999999
#
# number of rings (size 3 to 8) (size 9 to 14) (size 15 to 20)
#    0.000    1.111    4.444    1.333    6.222    1.778 
#    0.000    1.111    0.000    0.000    0.000    0.000 
#    0.000    0.000    0.000    0.000    0.000    0.000 
#
# Total GULP energy -100443.207381 kJ/mol
# GULP energy per Si atom -5580.178188 kJ/mol
# Density = 2.238400 g / cm^3
# Si number density = 22.435059 Si / 1000 Ang^3
#
#
#
# Elastic Constant Matrix: (Units=GPa)
#
#
# Indices 1 2 3 4 5 6 
#
# 1 105.4123 29.4843 27.1947 0.0000 -21.8044 0.0000
# 2 29.4843 76.9479 23.0626 0.0000 -8.4246 0.0000
# 3 27.1947 23.0626 92.2708 0.0000 -27.4493 0.0000
# 4 0.0000 0.0000 0.0000 18.0122 0.0000 -8.8480
# 5 -21.8044 -8.4246 -27.4493 0.0000 40.5720 0.0000
# 6 0.0000 0.0000 0.0000 -8.8480 0.0000 35.1076
#
#
#
# Elastic Compliance Matrix: (Units=1/GPa)
#
#
# Indices 1 2 3 4 5 6 
#
# 1 0.011796 -0.003654 -0.001131 0.000000 0.004816 0.000000
# 2 -0.003654 0.015195 -0.002963 0.000000 -0.000813 0.000000
# 3 -0.001131 -0.002963 0.014458 0.000000 0.008558 0.000000
# 4 0.000000 0.000000 0.000000 0.063362 0.000000 0.015969
# 5 0.004816 -0.000813 0.008558 0.000000 0.032857 0.000000
# 6 0.000000 0.000000 0.000000 0.015969 0.000000 0.032508
#
#
# Mechanical properties :
#
#
# Convention : Reuss Voigt Hill
#
# Bulk Modulus (GPa) = 38.53006 48.23491 43.38249
# Shear Modulus (GPa) = 25.73034 31.73096 28.73065
#
# Velocity S-wave (km/s) = 3.39024 3.76486 3.58245
# Velocity P-wave (km/s) = 5.70406 6.35967 6.04076
#
# Compressibility (1/GPa) = 0.02595376
#
# Stress axis : x y z
#
# Youngs Moduli (GPa) = 84.77111 65.81169 69.16824
#
# Poissons Ratio (x) = 0.24047 0.07821
# Poissons Ratio (y) = 0.30974 0.20494
# Poissons Ratio (z) = 0.09586 0.19499
#
# Static dielectric constant tensor:
#      x y z
#    x 1.928770 0.000000 -0.012610 
#    y 0.000000 1.873880 0.000000 
#    z -0.012610 0.000000 1.848140 
# 
# From -- ./inp_files/118510.got.cif
#   From: 2010.05.17/outbox.cif.g08.bks.cpg/sg12_60_cif.got.tgz:118510.got - 2010.06.03 13:09:07.
