data_PCOD9216668
_publ_section_title
;
Structure prediction by ZEFSAII (Michael W. Deem and Ramdas Pophale) SiO2 
 PCOD9216668
Probable space group: C 2/M
;
_chemical_formula_sum "Si O2"
_cell_formula_units_Z 48
_cell_length_a 14.966066
_cell_length_b 20.154617
_cell_length_c 11.576824
_cell_angle_alpha 90.000000
_cell_angle_beta 42.170570
_cell_angle_gamma 90.000000
_cell_volume 2344.305205
_symmetry_space_group_name_H-M "C 2/M"
_symmetry_group_IT_number 12
_symmetry_cell_setting 'monoclinic'
loop_
_space_group_symop_operation_xyz
x,y,z
-x,y,-z
-x,-y,-z
x,-y,z
1/2+x,1/2+y,z
1/2-x,1/2+y,-z
1/2-x,1/2-y,-z
1/2+x,1/2-y,z
loop_
_atom_site_type_symbol
_atom_site_label
_atom_site_fract_x
_atom_site_fract_y
_atom_site_fract_z
Si Si1 0.599848 0.925361 0.995293
Si Si2 0.786425 0.424848 0.634208
Si Si3 0.841024 0.184205 0.400476
Si Si4 0.148448 0.879569 0.361900
Si Si5 0.422855 0.116347 0.725276
Si Si6 0.379825 0.264082 0.797785
O O1 0.740487 0.925869 0.797696
O O2 0.550539 0.000000 0.064546
O O3 0.500000 0.891555 0.000000
O O4 0.608911 0.891698 0.110059
O O5 0.738496 0.500000 0.657167
O O6 0.699956 0.365303 0.663338
O O7 0.814137 0.414981 0.744037
O O8 0.934088 0.415711 0.437922
O O9 0.750000 0.250000 0.500000
O O10 0.820687 0.142756 0.538027
O O11 0.995373 0.206554 0.250169
O O12 0.148721 0.814885 0.278508
O O13 0.000000 0.907783 0.500000
O O14 0.427148 0.194623 0.698623
O O15 0.250000 0.250000 0.000000
#
# Coordination Sequence:
#
# PCOD9216668 Si02
#       6
#     8   8   8   8   8   8
#     4  11  23  39  62  94 125 163 218 273 320 385
#     4  11  23  40  67  99 134 179 221 273 339 400
#     4  11  22  40  65  98 128 166 219 274 319 392
#     4  10  23  39  61  91 126 164 208 260 330 386
#     4  11  21  40  65  95 132 174 225 273 328 402
#     4  11  22  40  65  94 129 167 215 270 333 388
#
# _framework density 20.475148000000001
#
# number of rings (size 3 to 8) (size 9 to 14) (size 15 to 20)
#    0.000    1.167    3.333    4.000    4.667    2.333 
#    0.000    5.000    0.000    1.000    0.000    0.000 
#    0.000    0.000    0.000    0.000    0.000    0.000 
#
# Total GULP energy -134079.774418 kJ/mol
# GULP energy per Si atom -5586.657267 kJ/mol
# Density = 2.042855 g / cm^3
# Si number density = 20.475148 Si / 1000 Ang^3
#
#
#
# Elastic Constant Matrix: (Units=GPa)
#
#
# Indices 1 2 3 4 5 6 
#
# 1 115.6963 35.1868 42.5898 -0.0002 12.2267 0.0005
# 2 35.1868 103.2651 0.2402 0.0000 -3.0838 0.0002
# 3 42.5898 0.2402 95.1712 -0.0003 6.5216 0.0004
# 4 -0.0002 0.0000 -0.0003 22.2423 0.0003 -8.9347
# 5 12.2267 -3.0838 6.5216 0.0003 18.4227 -0.0004
# 6 0.0005 0.0002 0.0004 -8.9347 -0.0004 10.8285
#
#
#
# Elastic Compliance Matrix: (Units=1/GPa)
#
#
# Indices 1 2 3 4 5 6 
#
# 1 0.012704 -0.004536 -0.005169 0.000000 -0.007361 -0.000001
# 2 -0.004536 0.011354 0.001706 0.000000 0.004307 0.000000
# 3 -0.005169 0.001706 0.012874 0.000000 -0.000841 0.000000
# 4 0.000000 0.000000 0.000000 0.067249 0.000000 0.055488
# 5 -0.007361 0.004307 -0.000841 0.000000 0.060185 0.000002
# 6 -0.000001 0.000000 0.000000 0.055488 0.000002 0.138133
#
#
# Mechanical properties :
#
#
# Convention : Reuss Voigt Hill
#
# Bulk Modulus (GPa) = 47.77102 52.24070 50.00586
# Shear Modulus (GPa) = 15.36216 26.03973 20.70094
#
# Velocity S-wave (km/s) = 2.74210 3.57006 3.18312
# Velocity P-wave (km/s) = 5.77991 6.52406 6.16323
#
# Compressibility (1/GPa) = 0.02093319
#
# Stress axis : x y z
#
# Youngs Moduli (GPa) = 78.71695 88.07273 77.67622
#
# Poissons Ratio (x) = 0.39954 0.40152
# Poissons Ratio (y) = 0.35710 -0.13254
# Poissons Ratio (z) = 0.40690 -0.15028
#
# Static dielectric constant tensor:
#      x y z
#    x 1.754250 0.000000 -0.012000 
#    y 0.000000 1.726710 0.000000 
#    z -0.012000 0.000000 1.723230 
# 
# From -- ./inp_files/147919.got.cif
#   From: 2010.05.17/outbox.cif.g08.bks.cpg/sg12_74_cif.got.tgz:147919.got - 2010.06.03 13:09:07.
