data_PCOD9216068
_publ_section_title
;
Structure prediction by ZEFSAII (Michael W. Deem and Ramdas Pophale) SiO2 
 PCOD9216068
Probable space group: C 2/M
;
_chemical_formula_sum "Si O2"
_cell_formula_units_Z 48
_cell_length_a 14.936318
_cell_length_b 28.934877
_cell_length_c 11.481242
_cell_angle_alpha 90.000000
_cell_angle_beta 151.138399
_cell_angle_gamma 90.000000
_cell_volume 2395.120436
_symmetry_space_group_name_H-M "C 2/M"
_symmetry_group_IT_number 12
_symmetry_cell_setting 'monoclinic'
loop_
_space_group_symop_operation_xyz
x,y,z
-x,y,-z
-x,-y,-z
x,-y,z
1/2+x,1/2+y,z
1/2-x,1/2+y,-z
1/2-x,1/2-y,-z
1/2+x,1/2-y,z
loop_
_atom_site_type_symbol
_atom_site_label
_atom_site_fract_x
_atom_site_fract_y
_atom_site_fract_z
Si Si1 0.275768 0.198422 0.482156
Si Si2 0.124003 0.309205 0.025084
Si Si3 0.968343 0.868754 0.103291
Si Si4 0.287952 0.910132 0.806056
Si Si5 0.448567 0.445841 0.261678
Si Si6 0.714540 0.788189 0.769385
O O1 0.250000 0.250000 0.500000
O O2 0.212191 0.206213 0.277991
O O3 0.144185 0.156050 0.366163
O O4 0.482047 0.184854 0.756061
O O5 0.230617 0.356099 0.177819
O O6 0.241717 0.263059 0.136463
O O7 0.000000 0.300453 0.000000
O O8 0.924181 0.915955 0.117849
O O9 0.808669 0.830402 0.942346
O O10 0.000000 0.876445 0.000000
O O11 0.226674 0.937828 0.851881
O O12 0.133006 0.926252 0.536996
O O13 0.500000 0.916183 0.000000
O O14 0.472483 0.500000 0.268074
O O15 0.500000 0.793908 0.500000
#
# Coordination Sequence:
#
# PCOD9216068 Si02
#       6
#     8   8   8   8   8   8
#     4  11  20  37  60  83 125 168 206 245 303 370
#     4  11  20  35  58  89 123 167 200 241 310 384
#     4  10  22  43  62  88 128 169 212 265 306 373
#     4  10  23  40  67  99 131 158 205 267 332 386
#     4  11  25  44  68  94 122 166 220 271 324 378
#     4  11  24  34  54  91 127 165 203 248 306 374
#
# _framework density 20.040745999999999
#
# number of rings (size 3 to 8) (size 9 to 14) (size 15 to 20)
#    0.000    1.333    3.333    3.500    4.667    2.333 
#    0.000    0.000    0.000    0.500    0.000    0.000 
#    0.000    0.000    0.000    0.000    0.000    0.000 
#
# Total GULP energy -133842.135779 kJ/mol
# GULP energy per Si atom -5576.755657 kJ/mol
# Density = 1.999513 g / cm^3
# Si number density = 20.040746 Si / 1000 Ang^3
#
#
#
# Elastic Constant Matrix: (Units=GPa)
#
#
# Indices 1 2 3 4 5 6 
#
# 1 65.9513 45.9663 32.1924 0.0000 1.4379 0.0000
# 2 45.9663 196.3000 63.3072 0.0000 -5.0029 0.0000
# 3 32.1924 63.3072 94.3511 0.0000 0.4193 0.0000
# 4 0.0000 0.0000 0.0000 31.8457 0.0000 -0.6650
# 5 1.4379 -5.0029 0.4193 0.0000 24.7901 0.0000
# 6 0.0000 0.0000 0.0000 -0.6650 0.0000 23.4772
#
#
#
# Elastic Compliance Matrix: (Units=1/GPa)
#
#
# Indices 1 2 3 4 5 6 
#
# 1 0.019637 -0.003169 -0.004566 0.000000 -0.001701 0.000000
# 2 -0.003169 0.007060 -0.003663 0.000000 0.001671 0.000000
# 3 -0.004566 -0.003663 0.014618 0.000000 -0.000722 0.000000
# 4 0.000000 0.000000 0.000000 0.031420 0.000000 0.000890
# 5 -0.001701 0.001671 -0.000722 0.000000 0.040787 0.000000
# 6 0.000000 0.000000 0.000000 0.000890 0.000000 0.042620
#
#
# Mechanical properties :
#
#
# Convention : Reuss Voigt Hill
#
# Bulk Modulus (GPa) = 54.00114 71.05934 62.53024
# Shear Modulus (GPa) = 27.01057 30.36505 28.68781
#
# Velocity S-wave (km/s) = 3.67520 3.89674 3.78759
# Velocity P-wave (km/s) = 6.70922 7.46863 7.09909
#
# Compressibility (1/GPa) = 0.01851813
#
# Stress axis : x y z
#
# Youngs Moduli (GPa) = 50.92302 141.63525 68.40864
#
# Poissons Ratio (x) = 0.44886 0.31238
# Poissons Ratio (y) = 0.16138 0.25061
# Poissons Ratio (z) = 0.23253 0.51888
#
# Static dielectric constant tensor:
#      x y z
#    x 1.716040 0.000000 -0.005030 
#    y 0.000000 1.710540 0.000000 
#    z -0.005030 0.000000 1.726680 
# 
# From -- ./inp_files/149848.got.cif
#   From: 2010.05.17/outbox.cif.g08.bks.cpg/sg12_75_cif.got.tgz:149848.got - 2010.06.03 13:09:07.
