data_PCOD9216044
_publ_section_title
;
Structure prediction by ZEFSAII (Michael W. Deem and Ramdas Pophale) SiO2 
 PCOD9216044
Probable space group: C 2/M
;
_chemical_formula_sum "Si O2"
_cell_formula_units_Z 32
_cell_length_a 16.836097
_cell_length_b 13.009649
_cell_length_c 11.875009
_cell_angle_alpha 90.000000
_cell_angle_beta 27.268232
_cell_angle_gamma 90.000000
_cell_volume 1191.667427
_symmetry_space_group_name_H-M "C 2/M"
_symmetry_group_IT_number 12
_symmetry_cell_setting 'monoclinic'
loop_
_space_group_symop_operation_xyz
x,y,z
-x,y,-z
-x,-y,-z
x,-y,z
1/2+x,1/2+y,z
1/2-x,1/2+y,-z
1/2-x,1/2-y,-z
1/2+x,1/2-y,z
loop_
_atom_site_type_symbol
_atom_site_label
_atom_site_fract_x
_atom_site_fract_y
_atom_site_fract_z
Si Si1 0.412663 0.886689 0.968785
Si Si2 0.998665 0.332058 0.375454
Si Si3 0.887170 0.829700 0.240037
Si Si4 0.928608 0.111354 0.443835
O O1 0.387775 0.882117 0.865017
O O2 0.527556 0.784439 0.849184
O O3 0.494778 0.000000 0.885017
O O4 0.244499 0.882180 0.260866
O O5 0.804074 0.331639 0.570751
O O6 0.041893 0.211212 0.328165
O O7 0.000000 0.374822 0.500000
O O8 0.890060 0.880055 0.358972
O O9 0.000000 0.880172 0.000000
O O10 0.008444 0.000000 0.364383
#
# Coordination Sequence:
#
# PCOD9216044 Si02
#       4
#     8   8   8   8
#     4  10  22  42  71  94 116 165 222 255 289 367
#     4  11  25  41  63  93 132 162 199 256 319 366
#     4  11  23  41  67  93 124 162 209 257 307 362
#     4  10  22  43  69  94 121 163 216 257 299 365
#
# _framework density 26.853128999999999
#
# number of rings (size 3 to 8) (size 9 to 14) (size 15 to 20)
#    0.000    1.500    2.500    3.000    0.000    7.000 
#    0.000    0.000    0.000    0.000    0.000    0.000 
#    0.000    0.000    0.000    0.000    0.000    0.000 
#
# Total GULP energy -89567.736078 kJ/mol
# GULP energy per Si atom -5597.983505 kJ/mol
# Density = 2.679201 g / cm^3
# Si number density = 26.853129 Si / 1000 Ang^3
#
#
#
# Elastic Constant Matrix: (Units=GPa)
#
#
# Indices 1 2 3 4 5 6 
#
# 1 191.4979 30.5610 75.0509 0.0000 74.1231 0.0000
# 2 30.5610 175.4249 45.9859 0.0000 11.9847 0.0000
# 3 75.0509 45.9859 198.0920 0.0000 52.3293 0.0000
# 4 0.0000 0.0000 0.0000 18.4836 0.0000 -3.5988
# 5 74.1231 11.9847 52.3293 0.0000 72.7943 0.0000
# 6 0.0000 0.0000 0.0000 -3.5988 0.0000 8.2416
#
#
#
# Elastic Compliance Matrix: (Units=1/GPa)
#
#
# Indices 1 2 3 4 5 6 
#
# 1 0.008929 -0.000720 -0.001043 0.000000 -0.008223 0.000000
# 2 -0.000720 0.006128 -0.001329 0.000000 0.000680 0.000000
# 3 -0.001043 -0.001329 0.006683 0.000000 -0.003523 0.000000
# 4 0.000000 0.000000 0.000000 0.059129 0.000000 0.025820
# 5 -0.008223 0.000680 -0.003523 0.000000 0.024531 0.000000
# 6 0.000000 0.000000 0.000000 0.025820 0.000000 0.132611
#
#
# Mechanical properties :
#
#
# Convention : Reuss Voigt Hill
#
# Bulk Modulus (GPa) = 64.29422 96.46781 80.38101
# Shear Modulus (GPa) = 20.04968 47.46504 33.75736
#
# Velocity S-wave (km/s) = 2.73544 4.20882 3.54942
# Velocity P-wave (km/s) = 5.82853 7.72147 6.84079
#
# Compressibility (1/GPa) = 0.01555350
#
# Stress axis : x y z
#
# Youngs Moduli (GPa) = 111.99755 163.18733 149.64182
#
# Poissons Ratio (x) = 0.11753 0.15613
# Poissons Ratio (y) = 0.08066 0.19893
# Poissons Ratio (z) = 0.11685 0.21693
#
# Static dielectric constant tensor:
#      x y z
#    x 2.162010 0.000000 -0.027490 
#    y 0.000000 2.111390 0.000000 
#    z -0.027490 0.000000 2.107350 
# 
# From -- ./inp_files/156444.got.cif
#   From: 2010.05.17/outbox.cif.g08.bks.cpg/sg12_79_cif.got.tgz:156444.got - 2010.06.03 13:09:07.
