data_PCOD9216434
_publ_section_title
;
Structure prediction by ZEFSAII (Michael W. Deem and Ramdas Pophale) SiO2 
 PCOD9216434
Probable space group: C 2/M
;
_chemical_formula_sum "Si O2"
_cell_formula_units_Z 40
_cell_length_a 8.863918
_cell_length_b 13.882807
_cell_length_c 13.824911
_cell_angle_alpha 90.000000
_cell_angle_beta 73.701644
_cell_angle_gamma 90.000000
_cell_volume 1632.872007
_symmetry_space_group_name_H-M "C 2/M"
_symmetry_group_IT_number 12
_symmetry_cell_setting 'monoclinic'
loop_
_space_group_symop_operation_xyz
x,y,z
-x,y,-z
-x,-y,-z
x,-y,z
1/2+x,1/2+y,z
1/2-x,1/2+y,-z
1/2-x,1/2-y,-z
1/2+x,1/2-y,z
loop_
_atom_site_type_symbol
_atom_site_label
_atom_site_fract_x
_atom_site_fract_y
_atom_site_fract_z
Si Si1 0.157649 0.606743 0.036791
Si Si2 0.163031 0.886112 0.520530
Si Si3 0.373642 0.692836 0.845105
Si Si4 0.481212 0.892300 0.386864
Si Si5 0.781018 0.218851 0.287383
O O1 0.164035 0.500000 0.081146
O O2 0.153055 0.699121 0.107200
O O3 0.304865 0.622332 0.938531
O O4 0.000000 0.611588 0.000000
O O5 0.296453 0.873801 0.414702
O O6 0.186545 0.817429 0.607540
O O7 0.000000 0.863559 0.500000
O O8 0.167797 0.000000 0.548414
O O9 0.261206 0.687040 0.770146
O O10 0.558462 0.679301 0.790674
O O11 0.500000 0.887355 0.500000
O O12 0.603470 0.825452 0.313144
O O13 0.515471 0.000000 0.350003
#
# Coordination Sequence:
#
# PCOD9216434 Si02
#       5
#     8   8   8   8   8
#     4  10  22  45  72  95 134 182 214 266 350 417
#     4   9  19  39  65  93 131 178 226 278 337 401
#     4  11  24  42  65 103 134 169 224 290 328 407
#     4   8  16  34  59  87 124 169 213 269 335 392
#     4  11  22  38  62  90 132 170 218 282 332 375
#
# _framework density 24.496714999999998
#
# number of rings (size 3 to 8) (size 9 to 14) (size 15 to 20)
#    0.000    2.200    2.000    1.800    0.000    4.800 
#    0.000   14.000    0.000    0.000    0.000    0.000 
#    0.000    8.000    0.000    0.000    0.000    0.000 
#
# Total GULP energy -111554.722258 kJ/mol
# GULP energy per Si atom -5577.736113 kJ/mol
# Density = 2.444096 g / cm^3
# Si number density = 24.496715 Si / 1000 Ang^3
#
#
#
# Elastic Constant Matrix: (Units=GPa)
#
#
# Indices 1 2 3 4 5 6 
#
# 1 121.3741 -18.0843 32.6477 0.0000 -24.7334 0.0000
# 2 -18.0843 106.5469 17.5693 0.0000 11.6608 0.0000
# 3 32.6477 17.5693 112.6146 0.0000 -15.1341 0.0000
# 4 0.0000 0.0000 0.0000 6.1228 0.0000 1.7618
# 5 -24.7334 11.6608 -15.1341 0.0000 54.1228 0.0000
# 6 0.0000 0.0000 0.0000 1.7618 0.0000 15.7752
#
#
#
# Elastic Compliance Matrix: (Units=1/GPa)
#
#
# Indices 1 2 3 4 5 6 
#
# 1 0.009918 0.001755 -0.002692 0.000000 0.003401 0.000000
# 2 0.001755 0.010307 -0.002398 0.000000 -0.002089 0.000000
# 3 -0.002692 -0.002398 0.010326 0.000000 0.002174 0.000000
# 4 0.000000 0.000000 0.000000 0.168746 0.000000 -0.018846
# 5 0.003401 -0.002089 0.002174 0.000000 0.021089 0.000000
# 6 0.000000 0.000000 0.000000 -0.018846 0.000000 0.065495
#
#
# Mechanical properties :
#
#
# Convention : Reuss Voigt Hill
#
# Bulk Modulus (GPa) = 41.87174 44.97789 43.42481
# Shear Modulus (GPa) = 16.63829 35.76437 26.20133
#
# Velocity S-wave (km/s) = 2.60898 3.82510 3.27400
# Velocity P-wave (km/s) = 5.11914 6.15704 5.66192
#
# Compressibility (1/GPa) = 0.02388246
#
# Stress axis : x y z
#
# Youngs Moduli (GPa) = 100.83003 97.01753 96.83866
#
# Poissons Ratio (x) = -0.17026 0.26068
# Poissons Ratio (y) = -0.17695 0.23218
# Poissons Ratio (z) = 0.27142 0.23261
#
# Static dielectric constant tensor:
#      x y z
#    x 2.194830 0.000000 0.137630 
#    y 0.000000 2.137010 0.000000 
#    z 0.137630 0.000000 1.976050 
# 
# From -- ./inp_files/194431.got.cif
#   From: 2010.05.17/outbox.cif.g08.bks.cpg/sg12_98_cif.got.tgz:194431.got - 2010.06.03 13:09:07.
