data_PCOD9216974
_publ_section_title
;
Structure prediction by ZEFSAII (Michael W. Deem and Ramdas Pophale) SiO2 
 PCOD9216974
Probable space group: C 2/M
;
_chemical_formula_sum "Si O2"
_cell_formula_units_Z 56
_cell_length_a 12.721619
_cell_length_b 27.319969
_cell_length_c 9.570530
_cell_angle_alpha 90.000000
_cell_angle_beta 119.589246
_cell_angle_gamma 90.000000
_cell_volume 2892.490398
_symmetry_space_group_name_H-M "C 2/M"
_symmetry_group_IT_number 12
_symmetry_cell_setting 'monoclinic'
loop_
_space_group_symop_operation_xyz
x,y,z
-x,y,-z
-x,-y,-z
x,-y,z
1/2+x,1/2+y,z
1/2-x,1/2+y,-z
1/2-x,1/2-y,-z
1/2+x,1/2-y,z
loop_
_atom_site_type_symbol
_atom_site_label
_atom_site_fract_x
_atom_site_fract_y
_atom_site_fract_z
Si Si1 0.881646 0.500000 0.517353
Si Si2 0.549552 0.444261 0.679674
Si Si3 0.302034 0.797970 0.111580
Si Si4 0.288782 0.313028 0.636567
Si Si5 0.750290 0.588506 0.018070
Si Si6 0.448512 0.233726 0.622151
Si Si7 0.557081 0.000000 0.885910
Si Si8 0.680599 0.425447 0.289176
O O1 0.796012 0.454582 0.423151
O O2 0.000000 0.500000 0.500000
O O3 0.941373 0.500000 0.707769
O O4 0.500000 0.423297 0.500000
O O5 0.588416 0.500000 0.674134
O O6 0.440596 0.445258 0.719861
O O7 0.661076 0.418709 0.828933
O O8 0.243240 0.796785 0.227357
O O9 0.281705 0.853534 0.044214
O O10 0.445465 0.790507 0.220593
O O11 0.250000 0.750000 0.000000
O O12 0.405004 0.284637 0.657522
O O13 0.172425 0.298730 0.467837
O O14 0.308858 0.370069 0.653966
O O15 0.859810 0.548853 0.080975
O O16 0.685195 0.574966 0.123405
O O17 0.500000 0.240318 0.500000
O O18 0.500000 0.000000 0.000000
#
# Coordination Sequence:
#
# PCOD9216974 Si02
#       8
#     4   8   8   8   8   8   4   8
#     4  12  24  41  68  99 129 170 217 260 322 396
#     4  11  25  43  66  94 132 166 214 272 324 388
#     4  10  23  41  62  91 129 167 214 264 319 386
#     4   9  21  39  64  90 122 163 211 264 311 379
#     4  11  24  46  67  95 130 176 216 273 333 387
#     4   9  19  40  62  88 123 164 208 262 319 377
#     4  12  28  45  66  97 139 170 217 276 330 400
#     4  11  23  40  69  98 126 169 217 265 321 386
#
# _framework density 19.360478000000001
#
# number of rings (size 3 to 8) (size 9 to 14) (size 15 to 20)
#    0.000    1.571    2.857    0.429    6.000    2.286 
#    7.714    0.000    0.000    0.000    0.000    0.000 
#    0.000    0.000    0.000    0.000    0.000    0.000 
#
# Total GULP energy -156256.903439 kJ/mol
# GULP energy per Si atom -5580.603694 kJ/mol
# Density = 1.931641 g / cm^3
# Si number density = 19.360478 Si / 1000 Ang^3
#
#
#
# Elastic Constant Matrix: (Units=GPa)
#
#
# Indices 1 2 3 4 5 6 
#
# 1 50.6354 18.1706 21.2775 0.0000 9.3713 0.0000
# 2 18.1706 110.4331 62.3144 0.0000 8.9995 0.0000
# 3 21.2775 62.3144 148.4165 0.0000 17.6764 0.0000
# 4 0.0000 0.0000 0.0000 23.7400 0.0000 -1.8188
# 5 9.3713 8.9995 17.6764 0.0000 25.2416 0.0000
# 6 0.0000 0.0000 0.0000 -1.8188 0.0000 28.7348
#
#
#
# Elastic Compliance Matrix: (Units=1/GPa)
#
#
# Indices 1 2 3 4 5 6 
#
# 1 0.022396 -0.002334 -0.001462 0.000000 -0.006459 0.000000
# 2 -0.002334 0.012125 -0.004740 0.000000 -0.000137 0.000000
# 3 -0.001462 -0.004740 0.009461 0.000000 -0.004393 0.000000
# 4 0.000000 0.000000 0.000000 0.042328 0.000000 0.002679
# 5 -0.006459 -0.000137 -0.004393 0.000000 0.045140 0.000000
# 6 0.000000 0.000000 0.000000 0.002679 0.000000 0.034971
#
#
# Mechanical properties :
#
#
# Convention : Reuss Voigt Hill
#
# Bulk Modulus (GPa) = 37.15957 57.00111 47.08034
# Shear Modulus (GPa) = 25.97915 29.39145 27.68530
#
# Velocity S-wave (km/s) = 3.66712 3.90053 3.78562
# Velocity P-wave (km/s) = 6.09636 7.05630 6.59382
#
# Compressibility (1/GPa) = 0.02691097
#
# Stress axis : x y z
#
# Youngs Moduli (GPa) = 44.65051 82.47385 105.70170
#
# Poissons Ratio (x) = 0.19249 0.15449
# Poissons Ratio (y) = 0.10421 0.50102
# Poissons Ratio (z) = 0.06526 0.39092
#
# Static dielectric constant tensor:
#      x y z
#    x 1.663690 0.000000 -0.026920 
#    y 0.000000 1.670750 0.000000 
#    z -0.026920 0.000000 1.885400 
# 
# From -- ./inp_files/54855.got.cif
#   From: 2010.05.17/outbox.cif.g08.bks.cpg/sg12_28_cif.got.tgz:54855.got - 2010.06.03 13:09:07.
