data_PCOD9216013
_publ_section_title
;
Structure prediction by ZEFSAII (Michael W. Deem and Ramdas Pophale) SiO2 
 PCOD9216013
Probable space group: C 2/M
;
_chemical_formula_sum "Si O2"
_cell_formula_units_Z 64
_cell_length_a 9.816277
_cell_length_b 30.051609
_cell_length_c 15.311437
_cell_angle_alpha 90.000000
_cell_angle_beta 131.881428
_cell_angle_gamma 90.000000
_cell_volume 3362.881081
_symmetry_space_group_name_H-M "C 2/M"
_symmetry_group_IT_number 12
_symmetry_cell_setting 'monoclinic'
loop_
_space_group_symop_operation_xyz
x,y,z
-x,y,-z
-x,-y,-z
x,-y,z
1/2+x,1/2+y,z
1/2-x,1/2+y,-z
1/2-x,1/2-y,-z
1/2+x,1/2-y,z
loop_
_atom_site_type_symbol
_atom_site_label
_atom_site_fract_x
_atom_site_fract_y
_atom_site_fract_z
Si Si1 0.336372 0.552427 0.361074
Si Si2 0.627507 0.165625 0.132239
Si Si3 0.186645 0.647910 0.524412
Si Si4 0.118363 0.762523 0.366040
Si Si5 0.383250 0.364729 0.862765
Si Si6 0.206751 0.761183 0.209618
Si Si7 0.016859 0.895032 0.733173
Si Si8 0.536172 0.875007 0.276020
O O1 0.500000 0.564625 0.500000
O O2 0.304585 0.500000 0.355161
O O3 0.393168 0.565277 0.285817
O O4 0.156853 0.581152 0.308608
O O5 0.645706 0.218786 0.127195
O O6 0.827645 0.143218 0.216377
O O7 0.541767 0.153375 0.189262
O O8 0.500000 0.147740 0.000000
O O9 0.333016 0.685305 0.614896
O O10 0.312142 0.606372 0.603617
O O11 0.135951 0.648374 0.401150
O O12 0.000000 0.651766 0.500000
O O13 0.250000 0.750000 0.500000
O O14 0.159460 0.747536 0.287130
O O15 0.924049 0.741813 0.302187
O O16 0.367211 0.310571 0.841788
O O17 0.475097 0.389190 0.818771
O O18 0.174498 0.381137 0.786485
O O19 0.500000 0.372087 0.000000
#
# Coordination Sequence:
#
# PCOD9216013 Si02
#       8
#     8   8   8   8   8   8   8   8
#     4  10  22  42  70 101 126 148 185 244 314 387
#     4  11  23  39  57  84 123 168 221 259 295 345
#     4  12  20  38  59  88 126 162 202 250 314 365
#     4  12  23  33  51  79 121 163 207 257 307 359
#     4  12  24  41  62  87 124 172 218 253 297 354
#     4  12  22  38  52  84 118 165 217 265 298 334
#     4  11  22  40  64  89 125 162 197 251 311 366
#     4  11  23  38  66  91 123 164 199 254 309 365
#
# _framework density 19.031300000000002
#
# number of rings (size 3 to 8) (size 9 to 14) (size 15 to 20)
#    0.000    0.625    5.000    4.500    0.000    0.000 
#    0.000    4.375    0.000   16.500    0.000    0.000 
#    0.000    0.000    0.000    0.000    0.000    0.000 
#
# Total GULP energy -178268.539473 kJ/mol
# GULP energy per Si atom -5570.891859 kJ/mol
# Density = 1.898798 g / cm^3
# Si number density = 19.031300 Si / 1000 Ang^3
#
#
#
# Elastic Constant Matrix: (Units=GPa)
#
#
# Indices 1 2 3 4 5 6 
#
# 1 105.4181 15.4400 19.2857 0.0000 -16.9362 0.0000
# 2 15.4400 70.5126 8.2936 0.0000 0.2449 0.0000
# 3 19.2857 8.2936 98.0117 0.0000 -10.7009 0.0000
# 4 0.0000 0.0000 0.0000 -33.4071 0.0000 11.1765
# 5 -16.9362 0.2449 -10.7009 0.0000 28.0202 0.0000
# 6 0.0000 0.0000 0.0000 11.1765 0.0000 14.4022
#
#
#
# Elastic Compliance Matrix: (Units=1/GPa)
#
#
# Indices 1 2 3 4 5 6 
#
# 1 0.011057 -0.002289 -0.001304 0.000000 0.006205 0.000000
# 2 -0.002289 0.014809 -0.001010 0.000000 -0.001899 0.000000
# 3 -0.001304 -0.001010 0.010915 0.000000 0.003389 0.000000
# 4 0.000000 0.000000 0.000000 -0.023764 0.000000 0.018441
# 5 0.006205 -0.001899 0.003389 0.000000 0.040750 0.000000
# 6 0.000000 0.000000 0.000000 0.018441 0.000000 0.055123
#
#
# Mechanical properties :
#
#
# Convention : Reuss Voigt Hill
#
# Bulk Modulus (GPa) = 36.26729 39.99789 38.13259
# Shear Modulus (GPa) = 39.28132 17.19793 28.23962
#
# Velocity S-wave (km/s) = 4.54810 3.00936 3.85626
# Velocity P-wave (km/s) = 6.83215 5.75652 6.31727
#
# Compressibility (1/GPa) = 0.02757305
#
# Stress axis : x y z
#
# Youngs Moduli (GPa) = 90.44174 67.52872 91.61716
#
# Poissons Ratio (x) = 0.15459 0.11951
# Poissons Ratio (y) = 0.20704 0.09253
# Poissons Ratio (z) = 0.11798 0.06820
#
# Static dielectric constant tensor:
#      x y z
#    x 1.675150 0.000000 0.020680 
#    y 0.000000 1.882440 0.000000 
#    z 0.020680 0.000000 1.725740 
# 
# From -- ./inp_files/200954.got.cif
#   From: 2010.05.17/outbox.cif.g08.bks.cpg/sg12_101_cif.got.tgz:200954.got - 2010.06.03 13:09:07.
