data_PCOD9216202
_publ_section_title
;
Structure prediction by ZEFSAII (Michael W. Deem and Ramdas Pophale) SiO2 
 PCOD9216202
Probable space group: C 2/M
;
_chemical_formula_sum "Si O2"
_cell_formula_units_Z 58
_cell_length_a 18.238465
_cell_length_b 25.502860
_cell_length_c 11.995020
_cell_angle_alpha 90.000000
_cell_angle_beta 150.057782
_cell_angle_gamma 90.000000
_cell_volume 2784.765717
_symmetry_space_group_name_H-M "C 2/M"
_symmetry_group_IT_number 12
_symmetry_cell_setting 'monoclinic'
loop_
_space_group_symop_operation_xyz
x,y,z
-x,y,-z
-x,-y,-z
x,-y,z
1/2+x,1/2+y,z
1/2-x,1/2+y,-z
1/2-x,1/2-y,-z
1/2+x,1/2-y,z
loop_
_atom_site_type_symbol
_atom_site_label
_atom_site_fract_x
_atom_site_fract_y
_atom_site_fract_z
Si Si1 0.699285 0.558125 0.581897
Si Si2 0.030223 0.936927 0.912747
Si Si3 0.849691 0.679453 0.544686
Si Si4 0.826287 0.694254 0.114178
Si Si5 0.162360 0.616136 0.680703
Si Si6 0.000000 0.500000 0.000000
Si Si7 0.332534 0.218511 0.756452
Si Si8 0.668052 0.350383 0.713810
O O1 0.637255 0.500000 0.527795
O O2 0.600557 0.577378 0.346629
O O3 0.680102 0.596348 0.660736
O O4 0.873795 0.545234 0.798713
O O5 0.034059 0.000000 0.920447
O O6 0.192668 0.916067 0.095994
O O7 0.000000 0.918478 0.000000
O O8 0.828936 0.628921 0.439482
O O9 0.743731 0.727085 0.373212
O O10 0.829697 0.676684 0.650844
O O11 0.013435 0.697511 0.728370
O O12 0.832119 0.671846 0.246580
O O13 0.750000 0.750000 0.000000
O O14 0.738348 0.650479 0.927989
O O15 0.000000 0.594119 0.500000
O O16 0.255013 0.192850 0.758848
O O17 0.500000 0.229986 0.000000
O O18 0.500000 0.334484 0.500000
#
# Coordination Sequence:
#
# PCOD9216202 Si02
#       8
#     8   8   8   8   8   2   8   8
#     4   9  22  43  68  95 135 169 220 275 344 405
#     4  10  22  43  68  99 134 173 222 279 339 405
#     4  10  23  41  61  90 129 172 221 279 330 388
#     4  11  22  41  64  91 134 178 218 272 331 401
#     4  10  23  42  63  94 133 177 224 270 333 402
#     4   8  20  44  68 100 130 174 210 288 340 394
#     4  11  23  40  63  93 126 169 226 280 328 396
#     4  12  24  39  65  98 128 174 217 269 340 398
#
# _framework density 20.827604999999998
#
# number of rings (size 3 to 8) (size 9 to 14) (size 15 to 20)
#    0.414    1.241    1.379    2.483    2.897    2.207 
#    2.483    0.690    0.000    0.000    0.000    0.000 
#    0.000    0.000    0.000    0.000    0.000    0.000 
#
# Total GULP energy -161522.078648 kJ/mol
# GULP energy per Si atom -5569.726850 kJ/mol
# Density = 2.078020 g / cm^3
# Si number density = 20.827605 Si / 1000 Ang^3
#
#
#
# Elastic Constant Matrix: (Units=GPa)
#
#
# Indices 1 2 3 4 5 6 
#
# 1 69.8563 3.3123 44.3814 0.0000 6.8566 0.0000
# 2 3.3123 24.9342 31.3431 0.0000 4.5143 0.0000
# 3 44.3814 31.3431 174.4563 0.0000 20.9955 0.0000
# 4 0.0000 0.0000 0.0000 249.1752 0.0000 420.2064
# 5 6.8566 4.5143 20.9955 0.0000 43.3860 0.0000
# 6 0.0000 0.0000 0.0000 420.2064 0.0000 853.2657
#
#
#
# Elastic Compliance Matrix: (Units=1/GPa)
#
#
# Indices 1 2 3 4 5 6 
#
# 1 0.017431 0.004237 -0.005109 0.000000 -0.000723 0.000000
# 2 0.004237 0.052872 -0.010442 0.000000 -0.001118 0.000000
# 3 -0.005109 -0.010442 0.009217 0.000000 -0.002566 0.000000
# 4 0.000000 0.000000 0.000000 0.023676 0.000000 -0.011660
# 5 -0.000723 -0.001118 -0.002566 0.000000 0.024521 0.000000
# 6 0.000000 0.000000 0.000000 -0.011660 0.000000 0.006914
#
#
# Mechanical properties :
#
#
# Convention : Reuss Voigt Hill
#
# Bulk Modulus (GPa) = 17.57740 47.48003 32.52871
# Shear Modulus (GPa) = 28.37334 241.84604 135.10969
#
# Velocity S-wave (km/s) = 3.69493 10.78750 8.06296
# Velocity P-wave (km/s) = 5.16344 13.34190 10.11601
#
# Compressibility (1/GPa) = 0.05689124
#
# Stress axis : x y z
#
# Youngs Moduli (GPa) = 57.36981 18.91378 108.49948
#
# Poissons Ratio (x) = -0.08014 0.55427
# Poissons Ratio (y) = -0.24308 1.13299
# Poissons Ratio (z) = 0.29308 0.19750
#
# Static dielectric constant tensor:
#      x y z
#    x 1.688160 0.000000 0.115370 
#    y 0.000000 1.733690 0.000000 
#    z 0.115370 0.000000 1.203410 
# 
# From -- ./inp_files/160935.got.cif
#   From: 2010.05.17/outbox.cif.g08.bks.cpg/sg12_81_cif.got.tgz:160935.got - 2010.06.03 13:09:07.
