data_PCOD9216828
_publ_section_title
;
Structure prediction by ZEFSAII (Michael W. Deem and Ramdas Pophale) SiO2 
 PCOD9216828
Probable space group: C 2/M
;
_chemical_formula_sum "Si O2"
_cell_formula_units_Z 64
_cell_length_a 14.752278
_cell_length_b 27.105850
_cell_length_c 9.408503
_cell_angle_alpha 90.000000
_cell_angle_beta 114.792336
_cell_angle_gamma 90.000000
_cell_volume 3415.457517
_symmetry_space_group_name_H-M "C 2/M"
_symmetry_group_IT_number 12
_symmetry_cell_setting 'monoclinic'
loop_
_space_group_symop_operation_xyz
x,y,z
-x,y,-z
-x,-y,-z
x,-y,z
1/2+x,1/2+y,z
1/2-x,1/2+y,-z
1/2-x,1/2-y,-z
1/2+x,1/2-y,z
loop_
_atom_site_type_symbol
_atom_site_label
_atom_site_fract_x
_atom_site_fract_y
_atom_site_fract_z
Si Si1 0.687007 0.371637 0.221681
Si Si2 0.815767 0.226203 0.922357
Si Si3 0.094918 0.889179 0.644422
Si Si4 0.388657 0.059276 0.889689
Si Si5 0.795662 0.058515 0.033835
Si Si6 0.710785 0.118642 0.421404
Si Si7 0.845090 0.271994 0.644847
Si Si8 0.998971 0.189877 0.773424
O O1 0.733093 0.322530 0.179504
O O2 0.753542 0.391989 0.394818
O O3 0.582965 0.348971 0.216735
O O4 0.678088 0.411434 0.090906
O O5 0.831389 0.264217 0.804735
O O6 0.750000 0.250000 0.000000
O O7 0.920078 0.208383 0.059352
O O8 0.129202 0.925391 0.791977
O O9 0.185774 0.877284 0.599188
O O10 0.000000 0.910428 0.500000
O O11 0.059180 0.838812 0.693394
O O12 0.311380 0.072707 0.965608
O O13 0.351899 0.080625 0.714825
O O14 0.387440 0.000000 0.880018
O O15 0.500000 0.076091 0.000000
O O16 0.797531 0.000000 0.010532
O O17 0.652595 0.170474 0.386050
O O18 0.750000 0.250000 0.500000
O O19 0.938625 0.236714 0.674224
#
# Coordination Sequence:
#
# PCOD9216828 Si02
#       8
#     8   8   8   8   8   8   8   8
#     4  11  21  40  60  86 131 159 200 257 316 364
#     4  11  23  37  59  82 115 166 213 245 298 363
#     4  11  20  37  63  86 120 167 206 248 309 364
#     4   9  21  44  71  93 119 158 201 252 315 374
#     4  10  23  40  65  93 121 157 205 254 303 372
#     4  11  22  38  64  92 122 158 209 259 301 363
#     4  11  20  36  56  85 120 157 202 255 297 356
#     4  11  22  38  61  84 123 170 209 242 310 368
#
# _framework density 18.738340000000001
#
# number of rings (size 3 to 8) (size 9 to 14) (size 15 to 20)
#    0.000    1.375    5.000    2.250    1.750    1.750 
#    0.000    1.875    0.000    2.250    0.000    0.000 
#    0.000    0.000    0.000    0.000    0.000    0.000 
#
# Total GULP energy -178565.299563 kJ/mol
# GULP energy per Si atom -5580.165611 kJ/mol
# Density = 1.869569 g / cm^3
# Si number density = 18.738340 Si / 1000 Ang^3
#
#
#
# Elastic Constant Matrix: (Units=GPa)
#
#
# Indices 1 2 3 4 5 6 
#
# 1 65.6833 24.8790 48.3827 0.0000 10.7929 0.0000
# 2 24.8790 41.8271 25.5216 0.0000 -2.2918 0.0000
# 3 48.3827 25.5216 143.5556 0.0000 8.4954 0.0000
# 4 0.0000 0.0000 0.0000 15.4865 0.0000 7.6455
# 5 10.7929 -2.2918 8.4954 0.0000 28.8374 0.0000
# 6 0.0000 0.0000 0.0000 7.6455 0.0000 18.0109
#
#
#
# Elastic Compliance Matrix: (Units=1/GPa)
#
#
# Indices 1 2 3 4 5 6 
#
# 1 0.025653 -0.012096 -0.005975 0.000000 -0.008802 0.000000
# 2 -0.012096 0.032892 -0.002233 0.000000 0.007799 0.000000
# 3 -0.005975 -0.002233 0.009419 0.000000 -0.000716 0.000000
# 4 0.000000 0.000000 0.000000 0.081692 0.000000 -0.034678
# 5 -0.008802 0.007799 -0.000716 0.000000 0.038802 0.000000
# 6 0.000000 0.000000 0.000000 -0.034678 0.000000 0.070242
#
#
# Mechanical properties :
#
#
# Convention : Reuss Voigt Hill
#
# Bulk Modulus (GPa) = 36.55144 49.84808 43.19976
# Shear Modulus (GPa) = 16.21132 22.61914 19.41523
#
# Velocity S-wave (km/s) = 2.94452 3.47811 3.22238
# Velocity P-wave (km/s) = 5.57753 6.54138 6.07859
#
# Compressibility (1/GPa) = 0.02735871
#
# Stress axis : x y z
#
# Youngs Moduli (GPa) = 38.98111 30.40252 106.16954
#
# Poissons Ratio (x) = 0.36774 0.63434
# Poissons Ratio (y) = 0.47150 0.23703
# Poissons Ratio (z) = 0.23290 0.06787
#
# Static dielectric constant tensor:
#      x y z
#    x 1.673280 0.000000 -0.012120 
#    y 0.000000 1.644720 0.000000 
#    z -0.012120 0.000000 1.713500 
# 
# From -- ./inp_files/68254.got.cif
#   From: 2010.05.17/outbox.cif.g08.bks.cpg/sg12_35_cif.got.tgz:68254.got - 2010.06.03 13:09:07.
