data_PCOD9216645
_publ_section_title
;
Structure prediction by ZEFSAII (Michael W. Deem and Ramdas Pophale) SiO2 
 PCOD9216645
Probable space group: C 2/M
;
_chemical_formula_sum "Si O2"
_cell_formula_units_Z 56
_cell_length_a 13.940263
_cell_length_b 19.177322
_cell_length_c 11.582608
_cell_angle_alpha 90.000000
_cell_angle_beta 110.413031
_cell_angle_gamma 90.000000
_cell_volume 2902.009379
_symmetry_space_group_name_H-M "C 2/M"
_symmetry_group_IT_number 12
_symmetry_cell_setting 'monoclinic'
loop_
_space_group_symop_operation_xyz
x,y,z
-x,y,-z
-x,-y,-z
x,-y,z
1/2+x,1/2+y,z
1/2-x,1/2+y,-z
1/2-x,1/2-y,-z
1/2+x,1/2-y,z
loop_
_atom_site_type_symbol
_atom_site_label
_atom_site_fract_x
_atom_site_fract_y
_atom_site_fract_z
Si Si1 0.486121 0.370731 0.363214
Si Si2 0.240437 0.126569 0.679112
Si Si3 0.838283 0.699834 0.087591
Si Si4 0.876921 0.580930 0.944609
Si Si5 0.788848 0.076466 0.575042
Si Si6 0.751032 0.286551 0.291999
Si Si7 0.980773 0.797261 0.869610
O O1 0.500000 0.337920 0.500000
O O2 0.370240 0.398596 0.319988
O O3 0.587981 0.417761 0.394088
O O4 0.490356 0.329577 0.243223
O O5 0.327307 0.114500 0.809731
O O6 0.261479 0.085425 0.571263
O O7 0.229714 0.209772 0.647426
O O8 0.829666 0.701811 0.221304
O O9 0.945979 0.730837 0.092591
O O10 0.750000 0.750000 0.000000
O O11 0.829333 0.623626 0.030835
O O12 0.848793 0.500000 0.935986
O O13 0.000000 0.585405 0.000000
O O14 0.754362 0.144879 0.631119
O O15 0.766117 0.000000 0.615620
O O16 0.638471 0.281977 0.188792
O O17 0.000000 0.836996 0.000000
#
# Coordination Sequence:
#
# PCOD9216645 Si02
#       7
#     8   8   8   8   8   8   8
#     4   9  20  35  58  88 121 154 204 248 300 361
#     4  11  19  39  63  88 115 158 209 252 295 356
#     4  12  20  36  60  87 118 158 201 249 305 356
#     4  11  24  39  59  89 121 158 203 251 305 359
#     4  10  23  39  58  88 127 160 193 248 310 368
#     4  11  22  35  62  89 119 157 205 248 303 363
#     4  11  19  33  57  88 121 154 197 257 303 351
#
# _framework density 19.296973999999999
#
# number of rings (size 3 to 8) (size 9 to 14) (size 15 to 20)
#    0.000    1.286    4.286    2.143    0.000    3.714 
#    0.000    0.000    0.000    1.714    0.000    4.000 
#    0.000    0.000    0.000    0.000    0.000    0.000 
#
# Total GULP energy -155971.250176 kJ/mol
# GULP energy per Si atom -5570.401792 kJ/mol
# Density = 1.925305 g / cm^3
# Si number density = 19.296974 Si / 1000 Ang^3
#
#
#
# Elastic Constant Matrix: (Units=GPa)
#
#
# Indices 1 2 3 4 5 6 
#
# 1 58.0221 7.9183 21.5384 0.0000 -8.7841 0.0000
# 2 7.9183 127.3844 29.0652 0.0000 -17.2921 0.0000
# 3 21.5384 29.0652 95.8498 0.0000 -7.0147 0.0000
# 4 0.0000 0.0000 0.0000 18.4789 0.0000 -3.5183
# 5 -8.7841 -17.2921 -7.0147 0.0000 30.9737 0.0000
# 6 0.0000 0.0000 0.0000 -3.5183 0.0000 16.7909
#
#
#
# Elastic Compliance Matrix: (Units=1/GPa)
#
#
# Indices 1 2 3 4 5 6 
#
# 1 0.019443 0.000386 -0.004135 0.000000 0.004793 0.000000
# 2 0.000386 0.009015 -0.002485 0.000000 0.004579 0.000000
# 3 -0.004135 -0.002485 0.012129 0.000000 0.000187 0.000000
# 4 0.000000 0.000000 0.000000 0.056365 0.000000 0.011810
# 5 0.004793 0.004579 0.000187 0.000000 0.036244 0.000000
# 6 0.000000 0.000000 0.000000 0.011810 0.000000 0.062031
#
#
# Mechanical properties :
#
#
# Convention : Reuss Voigt Hill
#
# Bulk Modulus (GPa) = 35.56485 44.25559 39.91022
# Shear Modulus (GPa) = 23.03424 28.09765 25.56595
#
# Velocity S-wave (km/s) = 3.45870 3.81998 3.64382
# Velocity P-wave (km/s) = 5.86689 6.51461 6.19922
#
# Compressibility (1/GPa) = 0.02811765
#
# Stress axis : x y z
#
# Youngs Moduli (GPa) = 51.43298 110.92660 82.44386
#
# Poissons Ratio (x) = -0.04277 0.34092
# Poissons Ratio (y) = -0.01983 0.20489
# Poissons Ratio (z) = 0.21268 0.27567
#
# Static dielectric constant tensor:
#      x y z
#    x 1.674650 0.000000 -0.009470 
#    y 0.000000 1.701370 0.000000 
#    z -0.009470 0.000000 1.711830 
# 
# From -- ./inp_files/145638.got.cif
#   From: 2010.05.17/outbox.cif.g08.bks.cpg/sg12_73_cif.got.tgz:145638.got - 2010.06.03 13:09:07.
