data_PCOD9216313
_publ_section_title
;
Structure prediction by ZEFSAII (Michael W. Deem and Ramdas Pophale) SiO2 
 PCOD9216313
Probable space group: C 2/M
;
_chemical_formula_sum "Si O2"
_cell_formula_units_Z 50
_cell_length_a 11.584868
_cell_length_b 15.817758
_cell_length_c 13.660025
_cell_angle_alpha 90.000000
_cell_angle_beta 80.016873
_cell_angle_gamma 90.000000
_cell_volume 2465.253032
_symmetry_space_group_name_H-M "C 2/M"
_symmetry_group_IT_number 12
_symmetry_cell_setting 'monoclinic'
loop_
_space_group_symop_operation_xyz
x,y,z
-x,y,-z
-x,-y,-z
x,-y,z
1/2+x,1/2+y,z
1/2-x,1/2+y,-z
1/2-x,1/2-y,-z
1/2+x,1/2-y,z
loop_
_atom_site_type_symbol
_atom_site_label
_atom_site_fract_x
_atom_site_fract_y
_atom_site_fract_z
Si Si1 0.000000 0.000000 0.000000
Si Si2 0.847317 0.646454 0.761614
Si Si3 0.374178 0.660347 0.749999
Si Si4 0.699589 0.500000 0.130059
Si Si5 0.875335 0.155332 0.343344
Si Si6 0.064384 0.342914 0.594486
Si Si7 0.728673 0.000000 0.086875
Si Si8 0.318411 0.407893 0.559162
O O1 0.925079 0.000000 0.908334
O O2 0.129622 0.000000 0.924065
O O3 0.849827 0.745579 0.791798
O O4 0.742141 0.638173 0.698929
O O5 0.823031 0.582447 0.852797
O O6 0.968794 0.627769 0.687764
O O7 0.296997 0.586208 0.808178
O O8 0.511151 0.638647 0.739450
O O9 0.355129 0.659799 0.635329
O O10 0.791398 0.500000 0.027167
O O11 0.887319 0.252690 0.375365
O O12 0.874759 0.105383 0.445299
O O13 0.178648 0.400387 0.567510
O O14 0.000000 0.334130 0.500000
O O15 0.351074 0.500000 0.593124
#
# Coordination Sequence:
#
# PCOD9216313 Si02
#       8
#     2   8   8   4   8   8   4   8
#     4   8  20  44  68  94 118 154 192 282 332 366
#     4  11  23  40  66  93 129 168 212 253 317 376
#     4  11  23  40  66  95 124 173 205 260 317 376
#     4  10  22  44  67  88 129 145 211 274 316 374
#     4  11  22  37  60  93 131 169 207 255 303 374
#     4  11  22  39  59  86 133 176 210 249 298 370
#     4  10  24  42  65  93 121 155 207 279 316 372
#     4  12  24  37  59  93 133 170 212 251 308 372
#
# _framework density 20.281894000000001
#
# number of rings (size 3 to 8) (size 9 to 14) (size 15 to 20)
#    0.480    0.640    4.000    3.840    3.360    1.600 
#    0.000    0.000    0.000    1.920    0.000    0.000 
#    0.000    0.000    0.000    0.000    0.000    0.000 
#
# Total GULP energy -139348.740017 kJ/mol
# GULP energy per Si atom -5573.949601 kJ/mol
# Density = 2.023573 g / cm^3
# Si number density = 20.281894 Si / 1000 Ang^3
#
#
#
# Elastic Constant Matrix: (Units=GPa)
#
#
# Indices 1 2 3 4 5 6 
#
# 1 44.3126 3.1274 -3.2764 0.0000 -8.1009 0.0000
# 2 3.1274 110.8912 63.9360 0.0000 -25.2182 0.0000
# 3 -3.2764 63.9360 103.2817 0.0000 -18.3627 0.0000
# 4 0.0000 0.0000 0.0000 16.3018 0.0000 -4.3752
# 5 -8.1009 -25.2182 -18.3627 0.0000 28.4937 0.0000
# 6 0.0000 0.0000 0.0000 -4.3752 0.0000 9.3246
#
#
#
# Elastic Compliance Matrix: (Units=1/GPa)
#
#
# Indices 1 2 3 4 5 6 
#
# 1 0.024262 -0.000148 0.002331 0.000000 0.008269 0.000000
# 2 -0.000148 0.015698 -0.008199 0.000000 0.008567 0.000000
# 3 0.002331 -0.008199 0.015427 0.000000 0.003348 0.000000
# 4 0.000000 0.000000 0.000000 0.070181 0.000000 0.032930
# 5 0.008269 0.008567 0.003348 0.000000 0.047187 0.000000
# 6 0.000000 0.000000 0.000000 0.032930 0.000000 0.122694
#
#
# Mechanical properties :
#
#
# Convention : Reuss Voigt Hill
#
# Bulk Modulus (GPa) = 23.06530 42.89548 32.98039
# Shear Modulus (GPa) = 15.53133 23.80394 19.66764
#
# Velocity S-wave (km/s) = 2.77026 3.42958 3.11740
# Velocity P-wave (km/s) = 4.65075 6.07275 5.40869
#
# Compressibility (1/GPa) = 0.04335518
#
# Stress axis : x y z
#
# Youngs Moduli (GPa) = 41.21752 63.70404 64.82113
#
# Poissons Ratio (x) = 0.00942 -0.15113
# Poissons Ratio (y) = 0.00610 0.53147
# Poissons Ratio (z) = -0.09610 0.52231
#
# Static dielectric constant tensor:
#      x y z
#    x 1.735030 0.000000 -0.020470 
#    y 0.000000 1.730170 0.000000 
#    z -0.020470 0.000000 1.711020 
# 
# From -- ./inp_files/204971.got.cif
#   From: 2010.05.17/outbox.cif.g08.bks.cpg/sg12_103_cif.got.tgz:204971.got - 2010.06.03 13:09:07.
