data_PCOD9216510
_publ_section_title
;
Structure prediction by ZEFSAII (Michael W. Deem and Ramdas Pophale) SiO2 
 PCOD9216510
Probable space group: C 2/M
;
_chemical_formula_sum "Si O2"
_cell_formula_units_Z 56
_cell_length_a 31.615351
_cell_length_b 18.937132
_cell_length_c 9.187642
_cell_angle_alpha 90.000000
_cell_angle_beta 35.117804
_cell_angle_gamma 90.000000
_cell_volume 3164.317434
_symmetry_space_group_name_H-M "C 2/M"
_symmetry_group_IT_number 12
_symmetry_cell_setting 'monoclinic'
loop_
_space_group_symop_operation_xyz
x,y,z
-x,y,-z
-x,-y,-z
x,-y,z
1/2+x,1/2+y,z
1/2-x,1/2+y,-z
1/2-x,1/2-y,-z
1/2+x,1/2-y,z
loop_
_atom_site_type_symbol
_atom_site_label
_atom_site_fract_x
_atom_site_fract_y
_atom_site_fract_z
Si Si1 0.586464 0.582843 0.765458
Si Si2 0.548840 0.914534 0.077208
Si Si3 0.750028 0.326565 0.819207
Si Si4 0.683044 0.917710 0.879058
Si Si5 0.705140 0.327410 0.266746
Si Si6 0.105252 0.415221 0.591897
Si Si7 0.694148 0.419307 0.720679
O O1 0.599034 0.500000 0.691688
O O2 0.634122 0.632761 0.527732
O O3 0.621616 0.591593 0.827118
O O4 0.500000 0.596891 0.000000
O O5 0.463889 0.892384 0.312956
O O6 0.548710 0.000000 0.086438
O O7 0.604107 0.890072 0.047006
O O8 0.582573 0.898507 0.823068
O O9 0.782398 0.249082 0.696681
O O10 0.819356 0.377203 0.653226
O O11 0.705756 0.362168 0.812670
O O12 0.703559 0.320008 0.097761
O O13 0.724174 0.873607 0.885360
O O14 0.737623 0.915067 0.585088
O O15 0.676837 0.000000 0.939434
O O16 0.112787 0.500000 0.560781
O O17 0.694124 0.500000 0.778718
#
# Coordination Sequence:
#
# PCOD9216510 Si02
#       7
#     8   8   8   8   8   8   8
#     4   9  19  39  61  80 102 129 173 230 276 315
#     4   8  14  27  48  76 103 124 158 206 248 288
#     4  11  21  35  49  74 111 140 175 210 249 316
#     4   9  16  31  52  75 100 131 173 214 253 303
#     4  10  23  36  49  73 108 143 170 212 266 308
#     4   9  16  28  49  75 103 133 163 206 248 287
#     4   9  17  31  56  81  98 129 176 219 260 311
#
# _framework density 17.697338999999999
#
# number of rings (size 3 to 8) (size 9 to 14) (size 15 to 20)
#    0.000    2.714    1.429    2.571    0.000    4.571 
#    2.571    1.429    0.000    8.571    0.000    0.000 
#    0.000    0.000    0.000    0.000    0.000    0.000 
#
# Total GULP energy -156070.469297 kJ/mol
# GULP energy per Si atom -5573.945332 kJ/mol
# Density = 1.765706 g / cm^3
# Si number density = 17.697339 Si / 1000 Ang^3
#
#
#
# Elastic Constant Matrix: (Units=GPa)
#
#
# Indices 1 2 3 4 5 6 
#
# 1 78.3303 37.3149 34.7382 0.0000 -24.6988 0.0000
# 2 37.3149 76.1203 36.5834 0.0000 -4.6298 0.0000
# 3 34.7382 36.5834 45.1324 0.0000 -14.9009 0.0000
# 4 0.0000 0.0000 0.0000 19.8363 0.0000 9.3585
# 5 -24.6988 -4.6298 -14.9009 0.0000 28.1570 0.0000
# 6 0.0000 0.0000 0.0000 9.3585 0.0000 12.7264
#
#
#
# Elastic Compliance Matrix: (Units=1/GPa)
#
#
# Indices 1 2 3 4 5 6 
#
# 1 0.025007 -0.007601 -0.007582 0.000000 0.016674 0.000000
# 2 -0.007601 0.024997 -0.018486 0.000000 -0.012340 0.000000
# 3 -0.007582 -0.018486 0.048199 0.000000 0.015817 0.000000
# 4 0.000000 0.000000 0.000000 0.077194 0.000000 -0.056765
# 5 0.016674 -0.012340 0.015817 0.000000 0.056483 0.000000
# 6 0.000000 0.000000 0.000000 -0.056765 0.000000 0.120320
#
#
# Mechanical properties :
#
#
# Convention : Reuss Voigt Hill
#
# Bulk Modulus (GPa) = 32.39780 46.31732 39.35756
# Shear Modulus (GPa) = 11.63264 18.20703 14.91984
#
# Velocity S-wave (km/s) = 2.56659 3.21097 2.90669
# Velocity P-wave (km/s) = 5.20860 6.32265 5.79247
#
# Compressibility (1/GPa) = 0.03086630
#
# Stress axis : x y z
#
# Youngs Moduli (GPa) = 39.98823 40.00511 20.74725
#
# Poissons Ratio (x) = 0.30407 0.15730
# Poissons Ratio (y) = 0.30394 0.38353
# Poissons Ratio (z) = 0.30319 0.73952
#
# Static dielectric constant tensor:
#      x y z
#    x 1.626700 0.000000 -0.002480 
#    y 0.000000 1.598140 0.000000 
#    z -0.002480 0.000000 1.596200 
# 
# From -- ./inp_files/112604.got.cif
#   From: 2010.05.17/outbox.cif.g08.bks.cpg/sg12_57_cif.got.tgz:112604.got - 2010.06.03 13:09:07.
