data_PCOD9216597
_publ_section_title
;
Structure prediction by ZEFSAII (Michael W. Deem and Ramdas Pophale) SiO2 
 PCOD9216597
Probable space group: C 2/M
;
_chemical_formula_sum "Si O2"
_cell_formula_units_Z 56
_cell_length_a 17.942971
_cell_length_b 23.637648
_cell_length_c 6.205867
_cell_angle_alpha 90.000000
_cell_angle_beta 81.287546
_cell_angle_gamma 90.000000
_cell_volume 2601.720340
_symmetry_space_group_name_H-M "C 2/M"
_symmetry_group_IT_number 12
_symmetry_cell_setting 'monoclinic'
loop_
_space_group_symop_operation_xyz
x,y,z
-x,y,-z
-x,-y,-z
x,-y,z
1/2+x,1/2+y,z
1/2-x,1/2+y,-z
1/2-x,1/2-y,-z
1/2+x,1/2-y,z
loop_
_atom_site_type_symbol
_atom_site_label
_atom_site_fract_x
_atom_site_fract_y
_atom_site_fract_z
Si Si1 0.211835 0.811682 0.022076
Si Si2 0.412080 0.290801 0.615018
Si Si3 0.477835 0.434871 0.254580
Si Si4 0.911454 0.660134 0.578759
Si Si5 0.080912 0.561636 0.083463
Si Si6 0.694605 0.105188 0.718342
Si Si7 0.176717 0.882766 0.629456
O O1 0.123502 0.808991 0.137510
O O2 0.261222 0.847770 0.165541
O O3 0.250000 0.750000 0.000000
O O4 0.214861 0.848040 0.804473
O O5 0.500000 0.292906 0.500000
O O6 0.388132 0.225096 0.618482
O O7 0.366565 0.332362 0.478672
O O8 0.500000 0.416003 0.500000
O O9 0.503203 0.500000 0.240326
O O10 0.388594 0.426091 0.283837
O O11 0.500000 0.411291 0.000000
O O12 0.902636 0.615530 0.775151
O O13 0.868323 0.636080 0.394392
O O14 0.000000 0.661531 0.500000
O O15 0.078277 0.500000 0.197122
O O16 0.149288 0.562234 0.884765
O O17 0.000000 0.568615 0.000000
O O18 0.759638 0.084401 0.531009
#
# Coordination Sequence:
#
# PCOD9216597 Si02
#       7
#     8   8   8   8   8   8   8
#     4  11  23  41  63  93 137 182 218 276 349 413
#     4  10  23  38  62 101 132 176 225 275 335 420
#     4  10  24  46  75 104 141 189 239 299 362 427
#     4  11  22  42  66  92 132 171 222 280 343 411
#     4  11  24  42  66  93 121 166 223 281 342 407
#     4  11  23  41  62  92 127 168 215 280 338 412
#     4  11  24  39  68  97 138 179 226 283 348 427
#
# _framework density 21.52422
#
# number of rings (size 3 to 8) (size 9 to 14) (size 15 to 20)
#    0.000    1.286    1.429    3.857    6.000    3.714 
#    0.000    2.143    0.000    0.000    0.000    0.000 
#    0.000    0.000    0.000    0.000    0.000    0.000 
#
# Total GULP energy -155926.935122 kJ/mol
# GULP energy per Si atom -5568.819111 kJ/mol
# Density = 2.147523 g / cm^3
# Si number density = 21.524220 Si / 1000 Ang^3
#
#
#
# Elastic Constant Matrix: (Units=GPa)
#
#
# Indices 1 2 3 4 5 6 
#
# 1 80.9364 3.1398 22.1179 0.0000 -16.2292 0.0000
# 2 3.1398 68.3172 10.4430 0.0000 2.2454 0.0000
# 3 22.1179 10.4430 88.5938 0.0000 -17.9520 0.0000
# 4 0.0000 0.0000 0.0000 22.0316 0.0000 0.6308
# 5 -16.2292 2.2454 -17.9520 0.0000 42.0705 0.0000
# 6 0.0000 0.0000 0.0000 0.6308 0.0000 25.2819
#
#
#
# Elastic Compliance Matrix: (Units=1/GPa)
#
#
# Indices 1 2 3 4 5 6 
#
# 1 0.013933 -0.000390 -0.002561 0.000000 0.004303 0.000000
# 2 -0.000390 0.015028 -0.002044 0.000000 -0.001825 0.000000
# 3 -0.002561 -0.002044 0.013124 0.000000 0.004722 0.000000
# 4 0.000000 0.000000 0.000000 0.045422 0.000000 -0.001133
# 5 0.004303 -0.001825 0.004722 0.000000 0.027542 0.000000
# 6 0.000000 0.000000 0.000000 -0.001133 0.000000 0.039582
#
#
# Mechanical properties :
#
#
# Convention : Reuss Voigt Hill
#
# Bulk Modulus (GPa) = 31.15633 34.36096 32.75865
# Shear Modulus (GPa) = 28.51939 31.35323 29.93631
#
# Velocity S-wave (km/s) = 3.64399 3.82075 3.73342
# Velocity P-wave (km/s) = 5.67550 5.95505 5.81696
#
# Compressibility (1/GPa) = 0.03209620
#
# Stress axis : x y z
#
# Youngs Moduli (GPa) = 71.77157 66.54281 76.19405
#
# Poissons Ratio (x) = 0.02598 0.19510
# Poissons Ratio (y) = 0.02802 0.15572
# Poissons Ratio (z) = 0.18377 0.13599
#
# Static dielectric constant tensor:
#      x y z
#    x 1.768980 0.000000 -0.034800 
#    y 0.000000 1.762580 0.000000 
#    z -0.034800 0.000000 1.882690 
# 
# From -- ./inp_files/17653.got.cif
#   From: 2010.05.17/outbox.cif.g08.bks.cpg/sg12_9_cif.got.tgz:17653.got - 2010.06.03 13:09:07.
