data_PCOD9216986
_publ_section_title
;
Structure prediction by ZEFSAII (Michael W. Deem and Ramdas Pophale) SiO2 
 PCOD9216986
Probable space group: C 2/M
;
_chemical_formula_sum "Si O2"
_cell_formula_units_Z 56
_cell_length_a 9.824911
_cell_length_b 24.549759
_cell_length_c 14.265169
_cell_angle_alpha 90.000000
_cell_angle_beta 119.474627
_cell_angle_gamma 90.000000
_cell_volume 2995.424037
_symmetry_space_group_name_H-M "C 2/M"
_symmetry_group_IT_number 12
_symmetry_cell_setting 'monoclinic'
loop_
_space_group_symop_operation_xyz
x,y,z
-x,y,-z
-x,-y,-z
x,-y,z
1/2+x,1/2+y,z
1/2-x,1/2+y,-z
1/2-x,1/2-y,-z
1/2+x,1/2-y,z
loop_
_atom_site_type_symbol
_atom_site_label
_atom_site_fract_x
_atom_site_fract_y
_atom_site_fract_z
Si Si1 0.476166 0.064490 0.600754
Si Si2 0.976006 0.697271 0.886271
Si Si3 0.933322 0.755445 0.580515
Si Si4 0.484663 0.676195 0.887621
Si Si5 0.337052 0.563624 0.390625
Si Si6 0.367744 0.343219 0.248995
Si Si7 0.877832 0.660545 0.250162
O O1 0.500000 0.079379 0.500000
O O2 0.304168 0.075982 0.585072
O O3 0.592057 0.100784 0.700406
O O4 0.503904 0.000000 0.618427
O O5 0.031671 0.759962 0.901322
O O6 0.792041 0.691769 0.801536
O O7 0.072529 0.665343 0.841126
O O8 0.000000 0.677238 0.000000
O O9 0.750000 0.750000 0.500000
O O10 0.000000 0.762530 0.500000
O O11 0.991544 0.806828 0.660996
O O12 0.009841 0.702625 0.655952
O O13 0.586035 0.646122 0.843132
O O14 0.302564 0.674827 0.799615
O O15 0.500000 0.656768 0.000000
O O16 0.500000 0.570234 0.500000
O O17 0.321970 0.500000 0.357677
O O18 0.338244 0.604152 0.303053
#
# Coordination Sequence:
#
# PCOD9216986 Si02
#       7
#     8   8   8   8   8   8   8
#     4  10  23  42  64  89 119 159 203 242 289 358
#     4  11  21  39  62  86 119 158 206 251 296 358
#     4  12  24  35  53  86 125 158 189 234 299 361
#     4  11  23  39  60  89 120 157 206 250 297 360
#     4  10  23  41  63  90 119 159 204 241 291 359
#     4  12  22  39  61  87 123 160 196 249 303 350
#     4  12  22  39  59  88 121 158 198 244 304 356
#
# _framework density 18.695181999999999
#
# number of rings (size 3 to 8) (size 9 to 14) (size 15 to 20)
#    0.000    0.857    4.286    3.429    4.000    2.286 
#    0.000    0.000    0.000    5.143    0.000    0.000 
#    0.000    0.000    0.000    0.000    0.000    0.000 
#
# Total GULP energy -156496.513226 kJ/mol
# GULP energy per Si atom -5589.161187 kJ/mol
# Density = 1.865263 g / cm^3
# Si number density = 18.695182 Si / 1000 Ang^3
#
#
#
# Elastic Constant Matrix: (Units=GPa)
#
#
# Indices 1 2 3 4 5 6 
#
# 1 109.6289 32.5111 32.4510 0.0000 -26.8005 0.0000
# 2 32.5111 48.6871 32.5079 0.0000 -16.8637 0.0000
# 3 32.4510 32.5079 69.5365 0.0000 -25.1469 0.0000
# 4 0.0000 0.0000 0.0000 20.0282 0.0000 0.5285
# 5 -26.8005 -16.8637 -25.1469 0.0000 49.2556 0.0000
# 6 0.0000 0.0000 0.0000 0.5285 0.0000 11.7770
#
#
#
# Elastic Compliance Matrix: (Units=1/GPa)
#
#
# Indices 1 2 3 4 5 6 
#
# 1 0.012257 -0.005757 -0.001631 0.000000 0.003865 0.000000
# 2 -0.005757 0.033154 -0.012069 0.000000 0.002057 0.000000
# 3 -0.001631 -0.012069 0.023264 0.000000 0.006858 0.000000
# 4 0.000000 0.000000 0.000000 0.049989 0.000000 -0.002243
# 5 0.003865 0.002057 0.006858 0.000000 0.026611 0.000000
# 6 0.000000 0.000000 0.000000 -0.002243 0.000000 0.085012
#
#
# Mechanical properties :
#
#
# Convention : Reuss Voigt Hill
#
# Bulk Modulus (GPa) = 33.59969 46.97695 40.28832
# Shear Modulus (GPa) = 17.91342 24.90432 21.40887
#
# Velocity S-wave (km/s) = 3.09881 3.65379 3.38768
# Velocity P-wave (km/s) = 5.55112 6.55611 6.07443
#
# Compressibility (1/GPa) = 0.02976218
#
# Stress axis : x y z
#
# Youngs Moduli (GPa) = 81.58905 30.16201 42.98441
#
# Poissons Ratio (x) = 0.17363 0.07010
# Poissons Ratio (y) = 0.46969 0.51878
# Poissons Ratio (z) = 0.13305 0.36403
#
# Static dielectric constant tensor:
#      x y z
#    x 1.653850 0.000000 -0.002520 
#    y 0.000000 1.642060 0.000000 
#    z -0.002520 0.000000 1.652870 
# 
# From -- ./inp_files/124373.got.cif
#   From: 2010.05.17/outbox.cif.g08.bks.cpg/sg12_63_cif.got.tgz:124373.got - 2010.06.03 13:09:07.
