data_PCOD9216154
_publ_section_title
;
Structure prediction by ZEFSAII (Michael W. Deem and Ramdas Pophale) SiO2 
 PCOD9216154
Probable space group: C 2/M
;
_chemical_formula_sum "Si O2"
_cell_formula_units_Z 52
_cell_length_a 15.222611
_cell_length_b 19.345729
_cell_length_c 8.010727
_cell_angle_alpha 90.000000
_cell_angle_beta 109.377610
_cell_angle_gamma 90.000000
_cell_volume 2225.461748
_symmetry_space_group_name_H-M "C 2/M"
_symmetry_group_IT_number 12
_symmetry_cell_setting 'monoclinic'
loop_
_space_group_symop_operation_xyz
x,y,z
-x,y,-z
-x,-y,-z
x,-y,z
1/2+x,1/2+y,z
1/2-x,1/2+y,-z
1/2-x,1/2-y,-z
1/2+x,1/2-y,z
loop_
_atom_site_type_symbol
_atom_site_label
_atom_site_fract_x
_atom_site_fract_y
_atom_site_fract_z
Si Si1 0.278391 0.422098 0.896636
Si Si2 0.654137 0.286480 0.894226
Si Si3 0.332830 0.420416 0.537663
Si Si4 0.391207 0.076697 0.396794
Si Si5 0.841333 0.334953 0.664650
Si Si6 0.500000 0.799008 0.000000
Si Si7 0.097449 0.216420 0.490994
O O1 0.295490 0.500000 0.967954
O O2 0.308375 0.418001 0.720131
O O3 0.165082 0.411262 0.810942
O O4 0.333064 0.364492 0.032663
O O5 0.655003 0.280918 0.696570
O O6 0.750000 0.250000 0.000000
O O7 0.564241 0.248976 0.919480
O O8 0.350129 0.500000 0.502912
O O9 0.247374 0.385833 0.376624
O O10 0.413723 0.364088 0.565113
O O11 0.500000 0.071050 0.500000
O O12 0.368840 0.140635 0.497633
O O13 0.355675 0.000000 0.429520
O O14 0.924566 0.343940 0.848961
O O15 0.849065 0.252448 0.630747
O O16 0.000000 0.244397 0.500000
#
# Coordination Sequence:
#
# PCOD9216154 Si02
#       7
#     8   8   8   8   8   4   8
#     4   9  20  39  65  93 126 170 214 261 321 389
#     4  12  25  42  65  97 132 170 214 277 327 386
#     4  10  22  43  67  92 129 173 215 263 330 397
#     4   9  18  34  61  93 127 167 211 256 315 389
#     4  11  21  40  64  93 126 168 217 270 318 392
#     4  12  26  40  62  96 132 166 222 270 334 384
#     4  12  24  41  66  95 129 169 219 269 327 387
#
# _framework density 23.365938
#
# number of rings (size 3 to 8) (size 9 to 14) (size 15 to 20)
#    0.000    1.385    1.538    6.000    2.154    0.923 
#    0.000    1.923    0.000    0.000    0.000    0.000 
#    0.000    0.000    0.000    0.000    0.000    0.000 
#
# Total GULP energy -144743.937658 kJ/mol
# GULP energy per Si atom -5567.074525 kJ/mol
# Density = 2.331276 g / cm^3
# Si number density = 23.365938 Si / 1000 Ang^3
#
#
#
# Elastic Constant Matrix: (Units=GPa)
#
#
# Indices 1 2 3 4 5 6 
#
# 1 35.1731 -11.5039 -32.2770 0.0000 -9.0659 0.0000
# 2 -11.5039 98.8400 -1.9654 0.0000 -8.1888 0.0000
# 3 -32.2770 -1.9654 70.3460 0.0000 2.5907 0.0000
# 4 0.0000 0.0000 0.0000 38.3861 0.0000 9.8697
# 5 -9.0659 -8.1888 2.5907 0.0000 13.8625 0.0000
# 6 0.0000 0.0000 0.0000 9.8697 0.0000 46.1849
#
#
#
# Elastic Compliance Matrix: (Units=1/GPa)
#
#
# Indices 1 2 3 4 5 6 
#
# 1 0.078346 0.014210 0.034385 0.000000 0.053206 0.000000
# 2 0.014210 0.013216 0.006303 0.000000 0.015922 0.000000
# 3 0.034385 0.006303 0.029406 0.000000 0.020715 0.000000
# 4 0.000000 0.000000 0.000000 0.027566 0.000000 -0.005891
# 5 0.053206 0.015922 0.020715 0.000000 0.112467 0.000000
# 6 0.000000 0.000000 0.000000 -0.005891 0.000000 0.022911
#
#
# Mechanical properties :
#
#
# Convention : Reuss Voigt Hill
#
# Bulk Modulus (GPa) = 4.33339 12.54073 8.43706
# Shear Modulus (GPa) = 19.91750 36.36041 28.13896
#
# Velocity S-wave (km/s) = 2.92278 3.94906 3.47403
# Velocity P-wave (km/s) = 3.63989 5.11588 4.43965
#
# Compressibility (1/GPa) = 0.23076597
#
# Stress axis : x y z
#
# Youngs Moduli (GPa) = 12.76382 75.66713 34.00690
#
# Poissons Ratio (x) = -1.07526 -1.16934
# Poissons Ratio (y) = -0.18138 -0.21435
# Poissons Ratio (z) = -0.43889 -0.47693
#
# Static dielectric constant tensor:
#      x y z
#    x 2.226050 0.000000 0.170070 
#    y 0.000000 1.987300 0.000000 
#    z 0.170070 0.000000 2.249840 
# 
# From -- ./inp_files/76057.got.cif
#   From: 2010.05.17/outbox.cif.g08.bks.cpg/sg12_39_cif.got.tgz:76057.got - 2010.06.03 13:09:07.
