data_PCOD9216259
_publ_section_title
;
Structure prediction by ZEFSAII (Michael W. Deem and Ramdas Pophale) SiO2 
 PCOD9216259
Probable space group: C 2/M
;
_chemical_formula_sum "Si O2"
_cell_formula_units_Z 24
_cell_length_a 13.614686
_cell_length_b 14.657546
_cell_length_c 7.645550
_cell_angle_alpha 90.000000
_cell_angle_beta 38.407743
_cell_angle_gamma 90.000000
_cell_volume 947.865257
_symmetry_space_group_name_H-M "C 2/M"
_symmetry_group_IT_number 12
_symmetry_cell_setting 'monoclinic'
loop_
_space_group_symop_operation_xyz
x,y,z
-x,y,-z
-x,-y,-z
x,-y,z
1/2+x,1/2+y,z
1/2-x,1/2+y,-z
1/2-x,1/2-y,-z
1/2+x,1/2-y,z
loop_
_atom_site_type_symbol
_atom_site_label
_atom_site_fract_x
_atom_site_fract_y
_atom_site_fract_z
Si Si1 0.320799 0.277852 0.680426
Si Si2 0.418306 0.096654 0.805411
Si Si3 0.758872 0.893536 0.431284
O O1 0.500000 0.268091 0.500000
O O2 0.234998 0.185208 0.727380
O O3 0.333342 0.347477 0.497388
O O4 0.204606 0.326625 0.977761
O O5 0.500000 0.092621 0.500000
O O6 0.569237 0.103070 0.720401
O O7 0.335086 0.000000 0.946208
O O8 0.806879 0.000000 0.328622
#
# Coordination Sequence:
#
# PCOD9216259 Si02
#       3
#     8   8   8
#     4  11  24  42  73 108 136 174 234 298 342 393
#     4  10  22  43  71 101 138 186 232 277 344 425
#     4  10  23  44  70 100 139 186 229 276 347 425
#
# _framework density 25.320053999999999
#
# number of rings (size 3 to 8) (size 9 to 14) (size 15 to 20)
#    0.000    1.667    0.000    3.000    0.000   12.667 
#    0.000    5.000    0.000   33.000    0.000    0.000 
#    0.000    0.000    0.000    0.000    0.000    0.000 
#
# Total GULP energy -67014.869190 kJ/mol
# GULP energy per Si atom -5584.572433 kJ/mol
# Density = 2.526242 g / cm^3
# Si number density = 25.320054 Si / 1000 Ang^3
#
#
#
# Elastic Constant Matrix: (Units=GPa)
#
#
# Indices 1 2 3 4 5 6 
#
# 1 151.8207 64.8741 34.6620 0.0000 3.7261 0.0000
# 2 64.8741 293.4963 69.9034 0.0000 2.9164 0.0000
# 3 34.6620 69.9034 123.2255 0.0000 7.5595 0.0000
# 4 0.0000 0.0000 0.0000 39.9385 0.0000 -20.5742
# 5 3.7261 2.9164 7.5595 0.0000 31.0499 0.0000
# 6 0.0000 0.0000 0.0000 -20.5742 0.0000 6.2115
#
#
#
# Elastic Compliance Matrix: (Units=1/GPa)
#
#
# Indices 1 2 3 4 5 6 
#
# 1 0.007468 -0.001333 -0.001317 0.000000 -0.000450 0.000000
# 2 -0.001333 0.004178 -0.002011 0.000000 0.000257 0.000000
# 3 -0.001317 -0.002011 0.009751 0.000000 -0.002027 0.000000
# 4 0.000000 0.000000 0.000000 -0.035449 0.000000 -0.117419
# 5 -0.000450 0.000257 -0.002027 0.000000 0.032730 0.000000
# 6 0.000000 0.000000 0.000000 -0.117419 0.000000 -0.227933
#
#
# Mechanical properties :
#
#
# Convention : Reuss Voigt Hill
#
# Bulk Modulus (GPa) = 82.81263 100.82463 91.81863
# Shear Modulus (GPa) = -25.52204 42.04682 8.26239
#
# Velocity S-wave (km/s) = -3.17831 4.07948 1.80839
# Velocity P-wave (km/s) = 4.39414 7.88011 6.37983
#
# Compressibility (1/GPa) = 0.01207545
#
# Stress axis : x y z
#
# Youngs Moduli (GPa) = 133.90701 239.33825 102.55435
#
# Poissons Ratio (x) = 0.31892 0.13507
# Poissons Ratio (y) = 0.17843 0.20625
# Poissons Ratio (z) = 0.17637 0.48135
#
# Static dielectric constant tensor:
#      x y z
#    x 2.107060 0.000000 0.120380 
#    y 0.000000 2.143090 0.000000 
#    z 0.120380 0.000000 1.996820 
# 
# From -- ./inp_files/58123.got.cif
#   From: 2010.05.17/outbox.cif.g08.bks.cpg/sg12_30_cif.got.tgz:58123.got - 2010.06.03 13:09:07.
