data_PCOD9216451
_publ_section_title
;
Structure prediction by ZEFSAII (Michael W. Deem and Ramdas Pophale) SiO2 
 PCOD9216451
Probable space group: C 2/M
;
_chemical_formula_sum "Si O2"
_cell_formula_units_Z 28
_cell_length_a 18.540293
_cell_length_b 7.765157
_cell_length_c 14.880759
_cell_angle_alpha 90.000000
_cell_angle_beta 135.211269
_cell_angle_gamma 90.000000
_cell_volume 1509.279276
_symmetry_space_group_name_H-M "C 2/M"
_symmetry_group_IT_number 12
_symmetry_cell_setting 'monoclinic'
loop_
_space_group_symop_operation_xyz
x,y,z
-x,y,-z
-x,-y,-z
x,-y,z
1/2+x,1/2+y,z
1/2-x,1/2+y,-z
1/2-x,1/2-y,-z
1/2+x,1/2-y,z
loop_
_atom_site_type_symbol
_atom_site_label
_atom_site_fract_x
_atom_site_fract_y
_atom_site_fract_z
Si Si1 0.359647 0.297037 0.638912
Si Si2 0.889187 0.500000 0.357552
Si Si3 0.098327 0.500000 0.020877
Si Si4 0.483537 0.000000 0.253047
Si Si5 0.194881 0.808289 0.204431
O O1 0.380260 0.500000 0.643183
O O2 0.250000 0.250000 0.500000
O O3 0.350227 0.265417 0.737796
O O4 0.444507 0.168430 0.675930
O O5 0.817115 0.338962 0.321446
O O6 0.000000 0.500000 0.500000
O O7 0.903858 0.500000 0.263738
O O8 0.162920 0.667618 0.105047
O O9 0.000000 0.500000 0.000000
O O10 0.066293 0.500000 0.889313
O O11 0.156549 0.000000 0.144701
#
# Coordination Sequence:
#
# PCOD9216451 Si02
#       5
#     8   4   4   4   8
#     4  11  20  36  62  91 121 160 211 258 303 361
#     4  10  22  46  63  87 132 165 195 258 321 365
#     4  12  22  40  65  93 126 157 219 253 293 374
#     4  12  24  38  64  94 121 164 209 254 305 364
#     4   9  22  41  62  88 127 165 199 252 315 355
#
# _framework density 18.551901999999998
#
# number of rings (size 3 to 8) (size 9 to 14) (size 15 to 20)
#    0.857    0.571    4.286    1.714    0.000    2.857 
#    2.571    0.714    0.000    0.000    0.000    0.000 
#    0.000    0.000    0.000    0.000    0.000    0.000 
#
# Total GULP energy -78099.768983 kJ/mol
# GULP energy per Si atom -5578.554927 kJ/mol
# Density = 1.850968 g / cm^3
# Si number density = 18.551902 Si / 1000 Ang^3
#
#
#
# Elastic Constant Matrix: (Units=GPa)
#
#
# Indices 1 2 3 4 5 6 
#
# 1 56.6838 -1.5739 -23.7418 0.0000 4.5593 0.0000
# 2 -1.5739 81.8678 22.1674 0.0000 -2.2319 0.0000
# 3 -23.7418 22.1674 57.3629 0.0000 0.3173 0.0000
# 4 0.0000 0.0000 0.0000 19.3435 0.0000 -1.1417
# 5 4.5593 -2.2319 0.3173 0.0000 29.8178 0.0000
# 6 0.0000 0.0000 0.0000 -1.1417 0.0000 13.9522
#
#
#
# Elastic Compliance Matrix: (Units=1/GPa)
#
#
# Indices 1 2 3 4 5 6 
#
# 1 0.022099 -0.002409 0.010098 0.000000 -0.003667 0.000000
# 2 -0.002409 0.013940 -0.006392 0.000000 0.001480 0.000000
# 3 0.010098 -0.006392 0.024095 0.000000 -0.002279 0.000000
# 4 0.000000 0.000000 0.000000 0.051948 0.000000 0.004251
# 5 -0.003667 0.001480 -0.002279 0.000000 0.034233 0.000000
# 6 0.000000 0.000000 0.000000 0.004251 0.000000 0.072021
#
#
# Mechanical properties :
#
#
# Convention : Reuss Voigt Hill
#
# Bulk Modulus (GPa) = 15.94214 21.06865 18.50540
# Shear Modulus (GPa) = 21.12809 25.89356 23.51083
#
# Velocity S-wave (km/s) = 3.37837 3.74001 3.56378
# Velocity P-wave (km/s) = 4.88157 5.48010 5.18947
#
# Compressibility (1/GPa) = 0.06272682
#
# Stress axis : x y z
#
# Youngs Moduli (GPa) = 45.25039 71.73769 41.50213
#
# Poissons Ratio (x) = 0.17284 -0.41909
# Poissons Ratio (y) = 0.10902 0.26529
# Poissons Ratio (z) = -0.45694 0.45857
#
# Static dielectric constant tensor:
#      x y z
#    x 1.618550 0.000000 0.006920 
#    y 0.000000 1.630580 0.000000 
#    z 0.006920 0.000000 1.644050 
# 
# From -- ./inp_files/221370.got.cif
#   From: 2010.05.17/outbox.cif.g08.bks.cpg/sg12_111_cif.got.tgz:221370.got - 2010.06.03 13:09:07.
