data_PCOD9216518
_publ_section_title
;
Structure prediction by ZEFSAII (Michael W. Deem and Ramdas Pophale) SiO2 
 PCOD9216518
Probable space group: C 2/M
;
_chemical_formula_sum "Si O2"
_cell_formula_units_Z 44
_cell_length_a 8.723144
_cell_length_b 13.731049
_cell_length_c 21.524850
_cell_angle_alpha 90.000000
_cell_angle_beta 125.387425
_cell_angle_gamma 90.000000
_cell_volume 2101.891615
_symmetry_space_group_name_H-M "C 2/M"
_symmetry_group_IT_number 12
_symmetry_cell_setting 'monoclinic'
loop_
_space_group_symop_operation_xyz
x,y,z
-x,y,-z
-x,-y,-z
x,-y,z
1/2+x,1/2+y,z
1/2-x,1/2+y,-z
1/2-x,1/2-y,-z
1/2+x,1/2-y,z
loop_
_atom_site_type_symbol
_atom_site_label
_atom_site_fract_x
_atom_site_fract_y
_atom_site_fract_z
Si Si1 0.649879 0.612798 0.923267
Si Si2 0.169087 0.500000 0.621418
Si Si3 0.431279 0.804669 0.678919
Si Si4 0.000000 0.752319 0.000000
Si Si5 0.010600 0.813667 0.568129
Si Si6 0.247017 0.500000 0.496970
Si Si7 0.836559 0.853706 0.750226
O O1 0.698341 0.500000 0.951379
O O2 0.558614 0.675741 0.957783
O O3 0.496516 0.608317 0.832514
O O4 0.827948 0.678664 0.944751
O O5 0.183173 0.500000 0.552557
O O6 0.286260 0.411235 0.675988
O O7 0.947965 0.500000 0.587602
O O8 0.224623 0.851166 0.625519
O O9 0.458791 0.745658 0.618916
O O10 0.631932 0.855859 0.733901
O O11 0.407224 0.746282 0.737676
O O12 0.000000 0.753098 0.500000
O O13 0.871894 0.903083 0.522814
#
# Coordination Sequence:
#
# PCOD9216518 Si02
#       7
#     8   4   8   4   8   4   8
#     4  11  22  42  71  98 139 175 211 259 329 382
#     4  11  22  38  58  82 116 159 208 250 312 373
#     4  10  23  36  58  82 116 149 209 261 311 368
#     4  10  24  42  68 108 136 164 220 264 304 408
#     4  11  21  37  54  79 109 153 204 264 316 366
#     4  11  23  38  56  80 116 159 204 267 306 362
#     4  11  21  41  60  88 118 162 201 253 311 381
#
# _framework density 20.933523999999998
#
# number of rings (size 3 to 8) (size 9 to 14) (size 15 to 20)
#    0.000    1.273    2.727    3.545    0.000    2.182 
#    0.000    0.000    0.000    0.000    0.000    0.000 
#    0.000    0.000    0.000    0.000    0.000    0.000 
#
# Total GULP energy -122572.189238 kJ/mol
# GULP energy per Si atom -5571.463147 kJ/mol
# Density = 2.088588 g / cm^3
# Si number density = 20.933524 Si / 1000 Ang^3
#
#
#
# Elastic Constant Matrix: (Units=GPa)
#
#
# Indices 1 2 3 4 5 6 
#
# 1 75.7276 13.0861 22.1167 0.0000 19.6573 0.0000
# 2 13.0861 73.7861 28.2495 0.0000 9.4669 0.0000
# 3 22.1167 28.2495 97.7641 0.0000 25.3666 0.0000
# 4 0.0000 0.0000 0.0000 20.7810 0.0000 7.9332
# 5 19.6573 9.4669 25.3666 0.0000 29.0051 0.0000
# 6 0.0000 0.0000 0.0000 7.9332 0.0000 19.2108
#
#
#
# Elastic Compliance Matrix: (Units=1/GPa)
#
#
# Indices 1 2 3 4 5 6 
#
# 1 0.016222 -0.001331 -0.000705 0.000000 -0.009943 0.000000
# 2 -0.001331 0.015395 -0.003981 0.000000 -0.000641 0.000000
# 3 -0.000705 -0.003981 0.014329 0.000000 -0.010754 0.000000
# 4 0.000000 0.000000 0.000000 0.057127 0.000000 -0.023591
# 5 -0.009943 -0.000641 -0.010754 0.000000 0.050829 0.000000
# 6 0.000000 0.000000 0.000000 -0.023591 0.000000 0.061796
#
#
# Mechanical properties :
#
#
# Convention : Reuss Voigt Hill
#
# Bulk Modulus (GPa) = 29.48913 41.57583 35.53248
# Shear Modulus (GPa) = 20.91725 26.05443 23.48584
#
# Velocity S-wave (km/s) = 3.16448 3.53175 3.35315
# Velocity P-wave (km/s) = 5.24114 6.04442 5.65706
#
# Compressibility (1/GPa) = 0.03391080
#
# Stress axis : x y z
#
# Youngs Moduli (GPa) = 61.64396 64.95526 69.78866
#
# Poissons Ratio (x) = 0.08648 0.04923
# Poissons Ratio (y) = 0.08207 0.27784
# Poissons Ratio (z) = 0.04348 0.25859
#
# Static dielectric constant tensor:
#      x y z
#    x 1.812000 0.000000 -0.002610 
#    y 0.000000 1.023890 0.000000 
#    z -0.002610 0.000000 1.725360 
# 
# From -- ./inp_files/332753.got.cif
#   From: 2010.05.17/outbox.cif.g08.bks.cpg/sg12_167_cif.got.tgz:332753.got - 2010.06.03 13:09:07.
