data_PCOD9216615
_publ_section_title
;
Structure prediction by ZEFSAII (Michael W. Deem and Ramdas Pophale) SiO2 
 PCOD9216615
Probable space group: C 2/M
;
_chemical_formula_sum "Si O2"
_cell_formula_units_Z 32
_cell_length_a 5.701610
_cell_length_b 29.154147
_cell_length_c 8.772572
_cell_angle_alpha 90.000000
_cell_angle_beta 87.972119
_cell_angle_gamma 90.000000
_cell_volume 1457.312586
_symmetry_space_group_name_H-M "C 2/M"
_symmetry_group_IT_number 12
_symmetry_cell_setting 'monoclinic'
loop_
_space_group_symop_operation_xyz
x,y,z
-x,y,-z
-x,-y,-z
x,-y,z
1/2+x,1/2+y,z
1/2-x,1/2+y,-z
1/2-x,1/2-y,-z
1/2+x,1/2-y,z
loop_
_atom_site_type_symbol
_atom_site_label
_atom_site_fract_x
_atom_site_fract_y
_atom_site_fract_z
Si Si1 0.000000 0.581663 0.500000
Si Si2 0.699249 0.630536 0.753995
Si Si3 0.296743 0.265997 0.322996
Si Si4 0.000000 0.407693 0.000000
Si Si5 0.323200 0.449839 0.740513
O O1 0.894073 0.614173 0.630312
O O2 0.803370 0.552262 0.420055
O O3 0.631620 0.681235 0.704870
O O4 0.497224 0.592800 0.745211
O O5 0.812980 0.624263 0.917363
O O6 0.250000 0.250000 0.500000
O O7 0.532378 0.239746 0.260247
O O8 0.130447 0.439812 0.874980
O O9 0.432643 0.500000 0.762034
#
# Coordination Sequence:
#
# PCOD9216615 Si02
#       5
#     4   8   8   4   8
#     4  10  23  38  66  98 142 172 226 288 349 408
#     4  11  24  42  69  99 139 178 232 287 346 418
#     4  10  23  40  70 102 136 177 229 288 355 420
#     4  10  25  44  66  92 142 182 234 278 347 410
#     4  11  24  42  67  99 137 183 230 283 349 417
#
# _framework density 21.958227999999998
#
# number of rings (size 3 to 8) (size 9 to 14) (size 15 to 20)
#    0.000    1.500    0.000    3.750   14.000    8.000 
#    0.000    1.250    0.000    0.000    0.000    0.000 
#    0.000    0.000    0.000    0.000    0.000    0.000 
#
# Total GULP energy -89317.567323 kJ/mol
# GULP energy per Si atom -5582.347958 kJ/mol
# Density = 2.190825 g / cm^3
# Si number density = 21.958228 Si / 1000 Ang^3
#
#
#
# Elastic Constant Matrix: (Units=GPa)
#
#
# Indices 1 2 3 4 5 6 
#
# 1 107.5492 30.1257 4.0370 0.0000 14.8683 0.0000
# 2 30.1257 162.3029 16.9926 0.0000 10.5457 0.0000
# 3 4.0370 16.9926 66.5943 0.0000 29.2852 0.0000
# 4 0.0000 0.0000 0.0000 10.4485 0.0000 8.0785
# 5 14.8683 10.5457 29.2852 0.0000 26.5345 0.0000
# 6 0.0000 0.0000 0.0000 8.0785 0.0000 28.2112
#
#
#
# Elastic Compliance Matrix: (Units=1/GPa)
#
#
# Indices 1 2 3 4 5 6 
#
# 1 0.011061 -0.001839 0.004280 0.000000 -0.010191 0.000000
# 2 -0.001839 0.006664 -0.001705 0.000000 0.000264 0.000000
# 3 0.004280 -0.001705 0.030989 0.000000 -0.035922 0.000000
# 4 0.000000 0.000000 0.000000 0.122923 0.000000 -0.035200
# 5 -0.010191 0.000264 -0.035922 0.000000 0.082939 0.000000
# 6 0.000000 0.000000 0.000000 -0.035200 0.000000 0.045527
#
#
# Mechanical properties :
#
#
# Convention : Reuss Voigt Hill
#
# Bulk Modulus (GPa) = 19.92536 48.75077 34.33806
# Shear Modulus (GPa) = 15.85494 32.05824 23.95659
#
# Velocity S-wave (km/s) = 2.69001 3.82509 3.30662
# Velocity P-wave (km/s) = 4.32922 6.46206 5.50002
#
# Compressibility (1/GPa) = 0.05018730
#
# Stress axis : x y z
#
# Youngs Moduli (GPa) = 90.40373 150.05880 32.26968
#
# Poissons Ratio (x) = 0.27598 -0.13813
# Poissons Ratio (y) = 0.16626 0.05502
# Poissons Ratio (z) = -0.38697 0.25583
#
# Static dielectric constant tensor:
#      x y z
#    x 1.898480 0.000000 0.033140 
#    y 0.000000 1.810380 0.000000 
#    z 0.033140 0.000000 1.832480 
# 
# From -- ./inp_files/34593.got.cif
#   From: 2010.05.17/outbox.cif.g08.bks.cpg/sg12_18_cif.got.tgz:34593.got - 2010.06.03 13:09:07.
