data_PCOD9216112
_publ_section_title
;
Structure prediction by ZEFSAII (Michael W. Deem and Ramdas Pophale) SiO2 
 PCOD9216112
Probable space group: C 2/M
;
_chemical_formula_sum "Si O2"
_cell_formula_units_Z 48
_cell_length_a 12.538743
_cell_length_b 18.104405
_cell_length_c 15.721917
_cell_angle_alpha 90.000000
_cell_angle_beta 35.227867
_cell_angle_gamma 90.000000
_cell_volume 2058.691908
_symmetry_space_group_name_H-M "C 2/M"
_symmetry_group_IT_number 12
_symmetry_cell_setting 'monoclinic'
loop_
_space_group_symop_operation_xyz
x,y,z
-x,y,-z
-x,-y,-z
x,-y,z
1/2+x,1/2+y,z
1/2-x,1/2+y,-z
1/2-x,1/2-y,-z
1/2+x,1/2-y,z
loop_
_atom_site_type_symbol
_atom_site_label
_atom_site_fract_x
_atom_site_fract_y
_atom_site_fract_z
Si Si1 0.114194 0.324175 0.344201
Si Si2 0.975753 0.086000 0.654841
Si Si3 0.975433 0.087378 0.171229
Si Si4 0.664500 0.831127 0.066871
Si Si5 0.813205 0.690726 0.131864
Si Si6 0.174122 0.326643 0.591557
O O1 0.295725 0.368572 0.254674
O O2 0.171427 0.257068 0.244985
O O3 0.000000 0.295966 0.500000
O O4 0.957808 0.366932 0.392367
O O5 0.008349 0.099450 0.736432
O O6 0.150896 0.124931 0.499417
O O7 0.787752 0.126440 0.750791
O O8 0.969771 0.000000 0.643426
O O9 0.957079 0.000000 0.167869
O O10 0.170032 0.117871 0.005626
O O11 0.466808 0.819450 0.238382
O O12 0.750000 0.750000 0.000000
O O13 0.639161 0.855117 0.985997
O O14 0.000000 0.737639 0.000000
O O15 0.250000 0.250000 0.500000
#
# Coordination Sequence:
#
# PCOD9216112 Si02
#       6
#     8   8   8   8   8   8
#     4  12  24  37  66  98 132 165 214 263 318 389
#     4  10  22  43  65  92 131 170 212 263 324 384
#     4  10  23  42  64  97 135 170 207 265 329 386
#     4  11  22  41  66  88 130 172 221 261 315 383
#     4  11  24  39  66  96 122 169 218 271 318 371
#     4  12  23  40  63  97 127 172 218 261 317 384
#
# _framework density 23.315777000000001
#
# number of rings (size 3 to 8) (size 9 to 14) (size 15 to 20)
#    0.000    1.000    5.000    2.000    2.333    2.000 
#    0.000    0.833    0.000    3.500    0.000    0.000 
#    0.000    0.000    0.000    0.000    0.000    0.000 
#
# Total GULP energy -133608.257285 kJ/mol
# GULP energy per Si atom -5567.010720 kJ/mol
# Density = 2.326271 g / cm^3
# Si number density = 23.315777 Si / 1000 Ang^3
#
#
#
# Elastic Constant Matrix: (Units=GPa)
#
#
# Indices 1 2 3 4 5 6 
#
# 1 27.0465 18.8068 36.1254 0.0005 11.5936 -0.0003
# 2 18.8068 112.2724 72.0754 -0.0009 -15.7694 0.0004
# 3 36.1254 72.0754 244.5128 -0.0055 -22.0002 0.0018
# 4 0.0005 -0.0009 -0.0055 23.5695 0.0015 -5.0302
# 5 11.5936 -15.7694 -22.0002 0.0015 19.1184 -0.0003
# 6 -0.0003 0.0004 0.0018 -5.0302 -0.0003 18.1820
#
#
#
# Elastic Compliance Matrix: (Units=1/GPa)
#
#
# Indices 1 2 3 4 5 6 
#
# 1 0.172370 -0.032469 -0.030911 -0.000001 -0.166878 0.000004
# 2 -0.032469 0.017744 0.002962 0.000000 0.037734 -0.000001
# 3 -0.030911 0.002962 0.010809 0.000001 0.033626 -0.000001
# 4 -0.000001 0.000000 0.000001 0.045090 -0.000002 0.012475
# 5 -0.166878 0.037734 0.033626 -0.000002 0.223319 -0.000004
# 6 0.000004 -0.000001 -0.000001 0.012475 -0.000004 0.058451
#
#
# Mechanical properties :
#
#
# Convention : Reuss Voigt Hill
#
# Bulk Modulus (GPa) = 12.48635 70.87187 41.67911
# Shear Modulus (GPa) = 7.40395 29.29559 18.34977
#
# Velocity S-wave (km/s) = 1.78393 3.54852 2.80841
# Velocity P-wave (km/s) = 3.10002 6.87400 5.33207
#
# Compressibility (1/GPa) = 0.08008745
#
# Stress axis : x y z
#
# Youngs Moduli (GPa) = 5.80148 56.35577 92.51448
#
# Poissons Ratio (x) = 1.82982 2.85968
# Poissons Ratio (y) = 0.18837 -0.27400
# Poissons Ratio (z) = 0.17933 -0.16691
#
# Static dielectric constant tensor:
#      x y z
#    x 3.215780 0.000000 -0.476720 
#    y 0.000000 1.828830 0.000000 
#    z -0.476720 0.000000 2.226800 
# 
# From -- ./inp_files/271599.got.cif
#   From: 2010.05.17/outbox.cif.g08.bks.cpg/sg12_136_cif.got.tgz:271599.got - 2010.06.03 13:09:07.
