data_PCOD9216362
_publ_section_title
;
Structure prediction by ZEFSAII (Michael W. Deem and Ramdas Pophale) SiO2 
 PCOD9216362
Probable space group: C 2/M
;
_chemical_formula_sum "Si O2"
_cell_formula_units_Z 56
_cell_length_a 12.489290
_cell_length_b 21.330418
_cell_length_c 10.164413
_cell_angle_alpha 90.000000
_cell_angle_beta 114.743613
_cell_angle_gamma 90.000000
_cell_volume 2459.212498
_symmetry_space_group_name_H-M "C 2/M"
_symmetry_group_IT_number 12
_symmetry_cell_setting 'monoclinic'
loop_
_space_group_symop_operation_xyz
x,y,z
-x,y,-z
-x,-y,-z
x,-y,z
1/2+x,1/2+y,z
1/2-x,1/2+y,-z
1/2-x,1/2-y,-z
1/2+x,1/2-y,z
loop_
_atom_site_type_symbol
_atom_site_label
_atom_site_fract_x
_atom_site_fract_y
_atom_site_fract_z
Si Si1 0.054231 0.372618 0.664301
Si Si2 0.008598 0.925447 0.856121
Si Si3 0.779989 0.428034 0.935690
Si Si4 0.920875 0.267146 0.744246
Si Si5 0.347063 0.931507 0.664923
Si Si6 0.150781 0.291557 0.012583
Si Si7 0.712613 0.357403 0.374322
O O1 0.190924 0.363239 0.695383
O O2 0.000000 0.396981 0.500000
O O3 0.983781 0.308607 0.664198
O O4 0.987607 0.419819 0.728818
O O5 0.140549 0.914018 0.874168
O O6 0.902074 0.898237 0.717709
O O7 0.992600 0.000000 0.852674
O O8 0.000000 0.899877 0.000000
O O9 0.798752 0.500000 0.998726
O O10 0.813876 0.430780 0.800184
O O11 0.842468 0.365150 0.025945
O O12 0.843037 0.294390 0.825579
O O13 0.842866 0.211764 0.646378
O O14 0.037051 0.256806 0.893272
O O15 0.275064 0.881759 0.539290
O O16 0.318430 0.000000 0.594887
O O17 0.250000 0.250000 0.000000
#
# Coordination Sequence:
#
# PCOD9216362 Si02
#       7
#     8   8   8   8   8   8   8
#     4  10  23  43  65  97 134 173 225 277 340 407
#     4  10  23  40  61  94 131 171 222 274 338 409
#     4  10  22  44  71  98 137 181 229 287 342 408
#     4  11  24  41  61  96 129 174 227 277 337 404
#     4  10  22  44  71 100 134 177 229 281 341 414
#     4  11  23  41  68  93 136 176 228 284 341 404
#     4  11  24  40  68  95 137 175 223 280 347 403
#
# _framework density 22.771518
#
# number of rings (size 3 to 8) (size 9 to 14) (size 15 to 20)
#    0.000    1.571    1.429    2.143    6.000    6.000 
#    5.143    4.286    0.000    0.000    0.000    0.000 
#    0.000    0.000    0.000    0.000    0.000    0.000 
#
# Total GULP energy -155973.975902 kJ/mol
# GULP energy per Si atom -5570.499139 kJ/mol
# Density = 2.271969 g / cm^3
# Si number density = 22.771518 Si / 1000 Ang^3
#
#
#
# Elastic Constant Matrix: (Units=GPa)
#
#
# Indices 1 2 3 4 5 6 
#
# 1 135.6630 37.2379 23.6715 0.0000 -18.7478 0.0000
# 2 37.2379 105.1939 17.0421 0.0000 11.2700 0.0000
# 3 23.6715 17.0421 47.8732 0.0000 9.0134 0.0000
# 4 0.0000 0.0000 0.0000 8.3316 0.0000 -29.4377
# 5 -18.7478 11.2700 9.0134 0.0000 34.9429 0.0000
# 6 0.0000 0.0000 0.0000 -29.4377 0.0000 -9.6460
#
#
#
# Elastic Compliance Matrix: (Units=1/GPa)
#
#
# Indices 1 2 3 4 5 6 
#
# 1 0.010465 -0.003709 -0.005399 0.000000 0.008203 0.000000
# 2 -0.003709 0.011605 -0.001280 0.000000 -0.005403 0.000000
# 3 -0.005399 -0.001280 0.025731 0.000000 -0.009121 0.000000
# 4 0.000000 0.000000 0.000000 0.010186 0.000000 -0.031087
# 5 0.008203 -0.005403 -0.009121 0.000000 0.037115 0.000000
# 6 0.000000 0.000000 0.000000 -0.031087 0.000000 -0.008798
#
#
# Mechanical properties :
#
#
# Convention : Reuss Voigt Hill
#
# Bulk Modulus (GPa) = 37.00190 49.40369 43.20279
# Shear Modulus (GPa) = 43.07070 20.77760 31.92415
#
# Velocity S-wave (km/s) = 4.35377 3.02394 3.74830
# Velocity P-wave (km/s) = 6.44657 5.82535 6.14382
#
# Compressibility (1/GPa) = 0.02702564
#
# Stress axis : x y z
#
# Youngs Moduli (GPa) = 95.55754 86.16704 38.86361
#
# Poissons Ratio (x) = 0.31957 0.20982
# Poissons Ratio (y) = 0.35440 0.04976
# Poissons Ratio (z) = 0.51589 0.11032
#
# Static dielectric constant tensor:
#      x y z
#    x 1.951780 0.000000 -0.057130 
#    y 0.000000 1.926330 0.000000 
#    z -0.057130 0.000000 1.957440 
# 
# From -- ./inp_files/133958.got.cif
#   From: 2010.05.17/outbox.cif.g08.bks.cpg/sg12_67_cif.got.tgz:133958.got - 2010.06.03 13:09:07.
