data_PCOD9216043
_publ_section_title
;
Structure prediction by ZEFSAII (Michael W. Deem and Ramdas Pophale) SiO2 
 PCOD9216043
Probable space group: C 2/M
;
_chemical_formula_sum "Si O2"
_cell_formula_units_Z 56
_cell_length_a 8.164916
_cell_length_b 28.745629
_cell_length_c 13.140656
_cell_angle_alpha 90.000000
_cell_angle_beta 60.760619
_cell_angle_gamma 90.000000
_cell_volume 2691.219363
_symmetry_space_group_name_H-M "C 2/M"
_symmetry_group_IT_number 12
_symmetry_cell_setting 'monoclinic'
loop_
_space_group_symop_operation_xyz
x,y,z
-x,y,-z
-x,-y,-z
x,-y,z
1/2+x,1/2+y,z
1/2-x,1/2+y,-z
1/2-x,1/2-y,-z
1/2+x,1/2-y,z
loop_
_atom_site_type_symbol
_atom_site_label
_atom_site_fract_x
_atom_site_fract_y
_atom_site_fract_z
Si Si1 0.222504 0.638575 0.922628
Si Si2 0.925175 0.364148 0.356960
Si Si3 0.862741 0.000000 0.412574
Si Si4 0.962079 0.221113 0.808971
Si Si5 0.622278 0.314387 0.561911
Si Si6 0.098647 0.093484 0.314594
Si Si7 0.000000 0.566385 0.500000
Si Si8 0.767793 0.316221 0.873061
O O1 0.287416 0.685772 0.844916
O O2 0.322448 0.598903 0.824990
O O3 0.500000 0.867816 0.000000
O O4 0.285569 0.650030 0.018191
O O5 0.828370 0.324957 0.457061
O O6 0.765047 0.390273 0.339849
O O7 0.027523 0.401523 0.394611
O O8 0.077124 0.342298 0.238752
O O9 0.691836 0.038880 0.459377
O O10 0.021400 0.042397 0.363544
O O11 0.079431 0.220302 0.667846
O O12 0.099912 0.200306 0.851900
O O13 0.875540 0.269171 0.873028
O O14 0.500000 0.301414 0.500000
O O15 0.553935 0.365553 0.621796
#
# Coordination Sequence:
#
# PCOD9216043 Si02
#       8
#     8   8   4   8   8   8   4   8
#     4  11  22  45  68  91 126 173 223 278 324 381
#     4  11  22  41  65  97 138 174 211 263 332 399
#     4  11  24  43  71 103 130 166 215 273 321 409
#     4  11  25  41  63  98 131 178 230 274 313 376
#     4   9  20  40  63  93 136 176 213 266 327 384
#     4  10  22  42  71  93 125 171 219 266 336 389
#     4  11  24  40  66 104 142 164 210 266 328 401
#     4  12  25  40  66  96 133 178 228 270 321 380
#
# _framework density 20.808411
#
# number of rings (size 3 to 8) (size 9 to 14) (size 15 to 20)
#    0.000    1.286    2.857    2.571    6.000    2.286 
#    1.286    0.357    0.000    0.857    0.000    0.000 
#    0.000    0.000    0.000    0.000    0.000    0.000 
#
# Total GULP energy -155900.980164 kJ/mol
# GULP energy per Si atom -5567.892149 kJ/mol
# Density = 2.076105 g / cm^3
# Si number density = 20.808411 Si / 1000 Ang^3
#
#
#
# Elastic Constant Matrix: (Units=GPa)
#
#
# Indices 1 2 3 4 5 6 
#
# 1 89.1587 19.5654 28.1524 0.0000 -5.3005 0.0000
# 2 19.5654 72.7989 17.1698 0.0000 -9.5256 0.0000
# 3 28.1524 17.1698 131.8663 0.0000 -2.1593 0.0000
# 4 0.0000 0.0000 0.0000 -8.1792 0.0000 -7.3260
# 5 -5.3005 -9.5256 -2.1593 0.0000 32.4979 0.0000
# 6 0.0000 0.0000 0.0000 -7.3260 0.0000 29.7653
#
#
#
# Elastic Compliance Matrix: (Units=1/GPa)
#
#
# Indices 1 2 3 4 5 6 
#
# 1 0.012607 -0.002695 -0.002322 0.000000 0.001112 0.000000
# 2 -0.002695 0.015297 -0.001352 0.000000 0.003954 0.000000
# 3 -0.002322 -0.001352 0.008252 0.000000 -0.000227 0.000000
# 4 0.000000 0.000000 0.000000 -0.100177 0.000000 -0.024656
# 5 0.001112 0.003954 -0.000227 0.000000 0.032097 0.000000
# 6 0.000000 0.000000 0.000000 -0.024656 0.000000 0.027528
#
#
# Mechanical properties :
#
#
# Convention : Reuss Voigt Hill
#
# Bulk Modulus (GPa) = 42.70335 47.06656 44.88496
# Shear Modulus (GPa) = 309.67870 26.07923 167.87897
#
# Velocity S-wave (km/s) = 12.21257 3.54404 8.99186
# Velocity P-wave (km/s) = 14.81314 6.27814 11.37639
#
# Compressibility (1/GPa) = 0.02341736
#
# Stress axis : x y z
#
# Youngs Moduli (GPa) = 79.32265 65.37233 121.18980
#
# Poissons Ratio (x) = 0.17618 0.28144
# Poissons Ratio (y) = 0.21377 0.16381
# Poissons Ratio (z) = 0.18421 0.08836
#
# Static dielectric constant tensor:
#      x y z
#    x 1.831700 0.000000 0.040750 
#    y 0.000000 1.738960 0.000000 
#    z 0.040750 0.000000 1.803880 
# 
# From -- ./inp_files/125679.got.cif
#   From: 2010.05.17/outbox.cif.g08.bks.cpg/sg12_63_cif.got.tgz:125679.got - 2010.06.03 13:09:07.
