data_PCOD9216850
_publ_section_title
;
Structure prediction by ZEFSAII (Michael W. Deem and Ramdas Pophale) SiO2 
 PCOD9216850
Probable space group: C 2/M
;
_chemical_formula_sum "Si O2"
_cell_formula_units_Z 58
_cell_length_a 18.908253
_cell_length_b 19.803714
_cell_length_c 11.958198
_cell_angle_alpha 90.000000
_cell_angle_beta 140.835737
_cell_angle_gamma 90.000000
_cell_volume 2827.930025
_symmetry_space_group_name_H-M "C 2/M"
_symmetry_group_IT_number 12
_symmetry_cell_setting 'monoclinic'
loop_
_space_group_symop_operation_xyz
x,y,z
-x,y,-z
-x,-y,-z
x,-y,z
1/2+x,1/2+y,z
1/2-x,1/2+y,-z
1/2-x,1/2-y,-z
1/2+x,1/2-y,z
loop_
_atom_site_type_symbol
_atom_site_label
_atom_site_fract_x
_atom_site_fract_y
_atom_site_fract_z
Si Si1 0.817515 0.737993 0.325565
Si Si2 0.168025 0.107588 0.690190
Si Si3 0.164789 0.076482 0.950253
Si Si4 0.088413 0.381154 0.699239
Si Si5 0.935091 0.800717 0.033705
Si Si6 0.500000 0.500000 0.500000
Si Si7 0.066802 0.679762 0.315955
Si Si8 0.877047 0.423449 0.796326
O O1 0.854287 0.814662 0.359899
O O2 0.876907 0.693108 0.303367
O O3 0.854489 0.706421 0.488406
O O4 0.684836 0.731739 0.145208
O O5 0.169485 0.091672 0.823951
O O6 0.073335 0.058948 0.527023
O O7 0.285475 0.088127 0.779220
O O8 0.094276 0.133826 0.927449
O O9 0.122867 0.000000 0.914039
O O10 0.294324 0.080665 0.149248
O O11 0.000000 0.409107 0.500000
O O12 0.025720 0.368870 0.739016
O O13 0.006161 0.743482 0.184750
O O14 0.000000 0.819441 0.000000
O O15 0.133170 0.634557 0.308750
O O16 0.866212 0.500000 0.738451
O O17 0.000000 0.416397 0.000000
#
# Coordination Sequence:
#
# PCOD9216850 Si02
#       8
#     8   8   8   8   8   2   8   8
#     4  10  23  40  66  94 125 163 213 269 307 373
#     4  12  24  43  63  93 128 164 216 260 313 380
#     4  11  23  41  64  89 124 169 209 254 320 378
#     4   9  20  38  62  96 122 153 211 260 316 374
#     4  11  24  42  61  93 126 163 215 262 312 377
#     4  12  28  40  62  96 128 164 212 266 312 382
#     4  11  22  39  67  95 123 169 205 257 328 371
#     4  11  23  41  65  96 132 163 207 268 326 378
#
# _framework density 20.509701
#
# number of rings (size 3 to 8) (size 9 to 14) (size 15 to 20)
#    0.000    1.241    1.379    4.552    4.828    6.621 
#    0.000    5.517    0.000    0.000    0.000    0.000 
#    0.000    0.000    0.000    0.000    0.000    0.000 
#
# Total GULP energy -161932.782739 kJ/mol
# GULP energy per Si atom -5583.889060 kJ/mol
# Density = 2.046302 g / cm^3
# Si number density = 20.509701 Si / 1000 Ang^3
#
#
#
# Elastic Constant Matrix: (Units=GPa)
#
#
# Indices 1 2 3 4 5 6 
#
# 1 114.3960 34.6607 16.8138 0.0000 -0.9685 0.0000
# 2 34.6607 140.9137 12.0874 0.0000 -10.4821 0.0000
# 3 16.8138 12.0874 33.2304 0.0000 -0.9903 0.0000
# 4 0.0000 0.0000 0.0000 -23.5519 0.0000 36.6940
# 5 -0.9685 -10.4821 -0.9903 0.0000 25.1594 0.0000
# 6 0.0000 0.0000 0.0000 36.6940 0.0000 -20.9845
#
#
#
# Elastic Compliance Matrix: (Units=1/GPa)
#
#
# Indices 1 2 3 4 5 6 
#
# 1 0.010019 -0.002145 -0.004309 0.000000 -0.000678 0.000000
# 2 -0.002145 0.008010 -0.001733 0.000000 0.003186 0.000000
# 3 -0.004309 -0.001733 0.032916 0.000000 0.000408 0.000000
# 4 0.000000 0.000000 0.000000 0.024623 0.000000 0.043057
# 5 -0.000678 0.003186 0.000408 0.000000 0.041064 0.000000
# 6 0.000000 0.000000 0.000000 0.043057 0.000000 0.027636
#
#
# Mechanical properties :
#
#
# Convention : Reuss Voigt Hill
#
# Bulk Modulus (GPa) = 28.92718 46.18485 37.55602
# Shear Modulus (GPa) = 29.04169 11.12318 20.08244
#
# Velocity S-wave (km/s) = 3.76706 2.33134 3.13256
# Velocity P-wave (km/s) = 5.74941 5.46025 5.60669
#
# Compressibility (1/GPa) = 0.03456956
#
# Stress axis : x y z
#
# Youngs Moduli (GPa) = 99.80860 124.84566 30.38042
#
# Poissons Ratio (x) = 0.26782 0.13092
# Poissons Ratio (y) = 0.21411 0.05265
# Poissons Ratio (z) = 0.43011 0.21638
#
# Static dielectric constant tensor:
#      x y z
#    x 1.653560 0.000000 -0.052640 
#    y 0.000000 1.710850 0.000000 
#    z -0.052640 0.000000 1.701740 
# 
# From -- ./inp_files/159808.got.cif
#   From: 2010.05.17/outbox.cif.g08.bks.cpg/sg12_80_cif.got.tgz:159808.got - 2010.06.03 13:09:07.
