data_PCOD9216682
_publ_section_title
;
Structure prediction by ZEFSAII (Michael W. Deem and Ramdas Pophale) SiO2 
 PCOD9216682
Probable space group: C 2/M
;
_chemical_formula_sum "Si O2"
_cell_formula_units_Z 36
_cell_length_a 11.784593
_cell_length_b 22.949246
_cell_length_c 13.749757
_cell_angle_alpha 90.000000
_cell_angle_beta 148.977945
_cell_angle_gamma 90.000000
_cell_volume 1916.441079
_symmetry_space_group_name_H-M "C 2/M"
_symmetry_group_IT_number 12
_symmetry_cell_setting 'monoclinic'
loop_
_space_group_symop_operation_xyz
x,y,z
-x,y,-z
-x,-y,-z
x,-y,z
1/2+x,1/2+y,z
1/2-x,1/2+y,-z
1/2-x,1/2-y,-z
1/2+x,1/2-y,z
loop_
_atom_site_type_symbol
_atom_site_label
_atom_site_fract_x
_atom_site_fract_y
_atom_site_fract_z
Si Si1 0.588145 0.000000 0.722803
Si Si2 0.500000 0.115180 0.000000
Si Si3 0.642697 0.500000 0.277516
Si Si4 0.878747 0.200759 0.000049
Si Si5 0.223928 0.221917 0.723934
Si Si6 0.749645 0.413097 0.999860
O O1 0.348009 0.000000 0.500179
O O2 0.629193 0.055621 0.821510
O O3 0.239533 0.000000 0.239623
O O4 0.318830 0.158500 0.818831
O O5 0.384338 0.079394 0.000010
O O6 0.486404 0.444375 0.178910
O O7 0.076372 0.242392 0.181897
O O8 0.779253 0.155285 0.000121
O O9 0.000000 0.165891 0.000000
O O10 0.712640 0.242387 0.818173
O O11 0.000000 0.221825 0.500000
#
# Coordination Sequence:
#
# PCOD9216682 Si02
#       6
#     4   4   4   8   8   8
#     4  10  23  39  63  90 105 133 185 240 290 330
#     4  10  24  35  56  80 114 165 190 200 280 334
#     4  10  23  39  63  90 105 133 185 240 290 330
#     4   7  17  32  57  79 101 149 181 231 291 311
#     4   8  18  36  53  84 114 140 195 238 263 324
#     4  11  20  40  56  81 120 150 179 233 269 338
#
# _framework density 18.78482
#
# number of rings (size 3 to 8) (size 9 to 14) (size 15 to 20)
#    1.333    1.556    0.000    2.667    0.000    8.889 
#    0.000    3.333    0.000    0.000    0.000    0.000 
#    0.000    0.000    0.000    0.000    0.000    0.000 
#
# Total GULP energy -100214.386461 kJ/mol
# GULP energy per Si atom -5567.465915 kJ/mol
# Density = 1.874206 g / cm^3
# Si number density = 18.784820 Si / 1000 Ang^3
#
#
#
# Elastic Constant Matrix: (Units=GPa)
#
#
# Indices 1 2 3 4 5 6 
#
# 1 139.9342 43.2916 54.6497 -0.0002 10.7195 -0.0001
# 2 43.2916 70.7383 49.3837 0.0001 -0.6860 0.0000
# 3 54.6497 49.3837 187.0880 -0.0045 -16.2591 0.0010
# 4 -0.0002 0.0001 -0.0045 29.2678 -0.0020 -2.5191
# 5 10.7195 -0.6860 -16.2591 -0.0020 5.2879 0.0003
# 6 -0.0001 0.0000 0.0010 -2.5191 0.0003 10.2248
#
#
#
# Elastic Compliance Matrix: (Units=1/GPa)
#
#
# Indices 1 2 3 4 5 6 
#
# 1 0.017134 -0.004562 -0.009376 -0.000005 -0.064153 0.000002
# 2 -0.004562 0.019615 -0.003848 -0.000001 -0.000039 0.000000
# 3 -0.009376 -0.003848 0.014613 0.000006 0.063438 -0.000002
# 4 -0.000005 -0.000001 0.000006 0.034907 0.000043 0.008600
# 5 -0.064153 -0.000039 0.063438 0.000043 0.514207 -0.000012
# 6 0.000002 0.000000 -0.000002 0.008600 -0.000012 0.099920
#
#
# Mechanical properties :
#
#
# Convention : Reuss Voigt Hill
#
# Bulk Modulus (GPa) = 63.33792 76.93448 70.13620
# Shear Modulus (GPa) = 6.74553 25.65182 16.19868
#
# Velocity S-wave (km/s) = 1.89704 3.69936 2.93973
# Velocity P-wave (km/s) = 6.21201 7.70010 6.99574
#
# Compressibility (1/GPa) = 0.01578833
#
# Stress axis : x y z
#
# Youngs Moduli (GPa) = 58.36468 50.98159 68.43360
#
# Poissons Ratio (x) = 0.23260 0.64162
# Poissons Ratio (y) = 0.26628 0.26335
# Poissons Ratio (z) = 0.54722 0.19619
#
# Static dielectric constant tensor:
#      x y z
#    x 1.700420 0.000000 0.011730 
#    y 0.000000 1.664340 0.000000 
#    z 0.011730 0.000000 1.608950 
# 
# From -- ./inp_files/272277.got.cif
#   From: 2010.05.17/outbox.cif.g08.bks.cpg/sg12_137_cif.got.tgz:272277.got - 2010.06.03 13:09:07.
