data_PCOD9216457
_publ_section_title
;
Structure prediction by ZEFSAII (Michael W. Deem and Ramdas Pophale) SiO2 
 PCOD9216457
Probable space group: C 2/M
;
_chemical_formula_sum "Si O2"
_cell_formula_units_Z 42
_cell_length_a 15.478250
_cell_length_b 11.659009
_cell_length_c 13.743705
_cell_angle_alpha 90.000000
_cell_angle_beta 86.498054
_cell_angle_gamma 90.000000
_cell_volume 2475.572295
_symmetry_space_group_name_H-M "C 2/M"
_symmetry_group_IT_number 12
_symmetry_cell_setting 'monoclinic'
loop_
_space_group_symop_operation_xyz
x,y,z
-x,y,-z
-x,-y,-z
x,-y,z
1/2+x,1/2+y,z
1/2-x,1/2+y,-z
1/2-x,1/2-y,-z
1/2+x,1/2-y,z
loop_
_atom_site_type_symbol
_atom_site_label
_atom_site_fract_x
_atom_site_fract_y
_atom_site_fract_z
Si Si1 0.336832 0.257678 0.203800
Si Si2 0.897796 0.000000 0.893800
Si Si3 0.101904 0.363426 0.994647
Si Si4 0.000000 0.500000 0.500000
Si Si5 0.894556 0.000000 0.118719
Si Si6 0.855519 0.245202 0.809657
Si Si7 0.515023 0.872060 0.699157
O O1 0.364377 0.386725 0.176433
O O2 0.236211 0.255853 0.236589
O O3 0.399303 0.196746 0.276828
O O4 0.351975 0.187811 0.102654
O O5 0.870393 0.114079 0.839414
O O6 0.001663 0.000000 0.891906
O O7 0.863961 0.000000 0.007817
O O8 0.105240 0.500000 0.993306
O O9 0.144913 0.315221 0.089014
O O10 0.000000 0.326962 0.000000
O O11 0.991657 0.402010 0.413753
O O12 0.933859 0.299464 0.743230
O O13 0.515205 0.000000 0.748765
#
# Coordination Sequence:
#
# PCOD9216457 Si02
#       7
#     8   4   8   2   4   8   8
#     4  12  24  36  60  91 131 167 211 251 299 374
#     4  11  22  37  50  80 133 176 197 235 292 347
#     4  11  21  35  55  88 129 179 216 256 280 352
#     4   8  24  44  84  80 116 154 204 284 334 366
#     4  11  22  37  50  80 133 176 197 235 292 347
#     4  12  24  36  60  91 131 167 211 251 299 374
#     4  10  22  46  66  90 112 158 212 257 324 373
#
# _framework density 16.965774
#
# number of rings (size 3 to 8) (size 9 to 14) (size 15 to 20)
#    0.571    0.381    5.714    1.714    5.333    0.000 
#    0.000    0.952    0.000    2.286    0.000    0.000 
#    0.000    0.000    0.000    0.000    0.000    0.000 
#
# Total GULP energy -117015.735406 kJ/mol
# GULP energy per Si atom -5572.177876 kJ/mol
# Density = 1.692716 g / cm^3
# Si number density = 16.965774 Si / 1000 Ang^3
#
#
#
# Elastic Constant Matrix: (Units=GPa)
#
#
# Indices 1 2 3 4 5 6 
#
# 1 106.9347 38.2480 24.2162 0.0000 9.8073 0.0000
# 2 38.2480 129.7997 35.6231 0.0000 10.4338 0.0000
# 3 24.2162 35.6231 89.3633 0.0000 24.3525 0.0000
# 4 0.0000 0.0000 0.0000 17.1109 0.0000 1.5918
# 5 9.8073 10.4338 24.3525 0.0000 6.9133 0.0000
# 6 0.0000 0.0000 0.0000 1.5918 0.0000 13.0177
#
#
#
# Elastic Compliance Matrix: (Units=1/GPa)
#
#
# Indices 1 2 3 4 5 6 
#
# 1 0.016770 -0.002977 0.047452 0.000000 -0.186451 0.000000
# 2 -0.002977 0.009324 -0.005646 0.000000 0.010041 0.000000
# 3 0.047452 -0.005646 0.414468 0.000000 -1.518785 0.000000
# 4 0.000000 0.000000 0.000000 0.059115 0.000000 -0.007228
# 5 -0.186451 0.010041 -1.518785 0.000000 5.744011 0.000000
# 6 0.000000 0.000000 0.000000 -0.007228 0.000000 0.077703
#
#
# Mechanical properties :
#
#
# Convention : Reuss Voigt Hill
#
# Bulk Modulus (GPa) = 1.92968 58.03026 29.97997
# Shear Modulus (GPa) = 0.77924 22.60906 11.69415
#
# Velocity S-wave (km/s) = 0.67845 3.65448 2.62826
# Velocity P-wave (km/s) = 1.32424 7.21703 5.18841
#
# Compressibility (1/GPa) = 0.51821992
#
# Stress axis : x y z
#
# Youngs Moduli (GPa) = 59.62894 107.25076 2.41273
#
# Poissons Ratio (x) = 0.31930 -0.11449
# Poissons Ratio (y) = 0.17753 0.01362
# Poissons Ratio (z) = -2.82952 0.60556
#
# Static dielectric constant tensor:
#      x y z
#    x 1.661500 0.000000 0.006570 
#    y 0.000000 0.637640 0.000000 
#    z 0.006570 0.000000 1.535060 
# 
# From -- ./inp_files/211969.got.cif
#   From: 2010.05.17/outbox.cif.g08.bks.cpg/sg12_106_cif.got.tgz:211969.got - 2010.06.03 13:09:07.
