data_PCOD9216854
_publ_section_title
;
Structure prediction by ZEFSAII (Michael W. Deem and Ramdas Pophale) SiO2 
 PCOD9216854
Probable space group: C 2/M
;
_chemical_formula_sum "Si O2"
_cell_formula_units_Z 42
_cell_length_a 16.832625
_cell_length_b 24.469141
_cell_length_c 9.752400
_cell_angle_alpha 90.000000
_cell_angle_beta 146.633751
_cell_angle_gamma 90.000000
_cell_volume 2209.204778
_symmetry_space_group_name_H-M "C 2/M"
_symmetry_group_IT_number 12
_symmetry_cell_setting 'monoclinic'
loop_
_space_group_symop_operation_xyz
x,y,z
-x,y,-z
-x,-y,-z
x,-y,z
1/2+x,1/2+y,z
1/2-x,1/2+y,-z
1/2-x,1/2-y,-z
1/2+x,1/2-y,z
loop_
_atom_site_type_symbol
_atom_site_label
_atom_site_fract_x
_atom_site_fract_y
_atom_site_fract_z
Si Si1 0.900601 0.719373 0.741917
Si Si2 0.506806 0.386150 0.672328
Si Si3 0.348317 0.437071 0.865415
Si Si4 0.500000 0.000000 0.000000
Si Si5 0.078124 0.241899 0.754390
Si Si6 0.293325 0.900577 0.602998
O O1 0.750000 0.750000 0.500000
O O2 0.862805 0.658159 0.730232
O O3 0.001421 0.720674 0.755366
O O4 0.000000 0.747679 0.000000
O O5 0.500000 0.400440 0.500000
O O6 0.538772 0.321422 0.728313
O O7 0.353670 0.400996 0.519845
O O8 0.623206 0.414860 0.940603
O O9 0.301428 0.500000 0.805350
O O10 0.243520 0.404292 0.612625
O O11 0.500000 0.435785 0.000000
O O12 0.390107 0.048326 0.784287
O O13 0.000000 0.254715 0.500000
O O14 0.250000 0.250000 0.000000
#
# Coordination Sequence:
#
# PCOD9216854 Si02
#       6
#     8   8   8   2   8   8
#     4  12  25  41  68  99 129 178 226 276 339 413
#     4  10  23  40  66  96 132 169 216 273 345 406
#     4   9  19  37  63  92 120 161 215 267 325 388
#     4  12  24  44  68  94 134 176 240 276 338 386
#     4  11  25  42  64  97 139 176 216 279 348 410
#     4  11  23  42  67  95 130 177 225 282 328 407
#
# _framework density 19.011365000000001
#
# number of rings (size 3 to 8) (size 9 to 14) (size 15 to 20)
#    0.000    1.333    3.810    1.143    9.333    0.381 
#    0.000    0.000    0.000    1.143    0.000    0.000 
#    0.000    0.000    0.000    0.000    0.000    0.000 
#
# Total GULP energy -116906.469025 kJ/mol
# GULP energy per Si atom -5566.974715 kJ/mol
# Density = 1.896809 g / cm^3
# Si number density = 19.011365 Si / 1000 Ang^3
#
#
#
# Elastic Constant Matrix: (Units=GPa)
#
#
# Indices 1 2 3 4 5 6 
#
# 1 75.5024 12.8393 50.5196 0.0000 -9.3854 0.0000
# 2 12.8393 61.4933 34.6687 0.0000 5.3716 0.0000
# 3 50.5196 34.6687 160.5646 0.0000 1.6106 0.0000
# 4 0.0000 0.0000 0.0000 54.3415 0.0000 -15.7978
# 5 -9.3854 5.3716 1.6106 0.0000 34.5716 0.0000
# 6 0.0000 0.0000 0.0000 -15.7978 0.0000 29.5676
#
#
#
# Elastic Compliance Matrix: (Units=1/GPa)
#
#
# Indices 1 2 3 4 5 6 
#
# 1 0.017680 -0.001118 -0.005374 0.000000 0.005224 0.000000
# 2 -0.001118 0.018840 -0.003685 0.000000 -0.003059 0.000000
# 3 -0.005374 -0.003685 0.008728 0.000000 -0.001293 0.000000
# 4 0.000000 0.000000 0.000000 0.021786 0.000000 0.011640
# 5 0.005224 -0.003059 -0.001293 0.000000 0.030879 0.000000
# 6 0.000000 0.000000 0.000000 0.011640 0.000000 0.040040
#
#
# Mechanical properties :
#
#
# Convention : Reuss Voigt Hill
#
# Bulk Modulus (GPa) = 40.17180 54.84614 47.50897
# Shear Modulus (GPa) = 30.01109 36.99832 33.50471
#
# Velocity S-wave (km/s) = 3.97745 4.41627 4.20259
# Velocity P-wave (km/s) = 6.50152 7.41055 6.97087
#
# Compressibility (1/GPa) = 0.02489309
#
# Stress axis : x y z
#
# Youngs Moduli (GPa) = 56.56211 53.07742 114.58023
#
# Poissons Ratio (x) = 0.05935 0.61572
# Poissons Ratio (y) = 0.06324 0.42228
# Poissons Ratio (z) = 0.30395 0.19562
#
# Static dielectric constant tensor:
#      x y z
#    x 1.668080 0.000000 -0.054410 
#    y 0.000000 1.650260 0.000000 
#    z -0.054410 0.000000 1.770700 
# 
# From -- ./inp_files/67194.got.cif
#   From: 2010.05.17/outbox.cif.g08.bks.cpg/sg12_34_cif.got.tgz:67194.got - 2010.06.03 13:09:07.
