data_PCOD9216623
_publ_section_title
;
Structure prediction by ZEFSAII (Michael W. Deem and Ramdas Pophale) SiO2 
 PCOD9216623
Probable space group: C 2/M
;
_chemical_formula_sum "Si O2"
_cell_formula_units_Z 50
_cell_length_a 11.643735
_cell_length_b 27.316245
_cell_length_c 8.559189
_cell_angle_alpha 90.000000
_cell_angle_beta 63.585367
_cell_angle_gamma 90.000000
_cell_volume 2438.142741
_symmetry_space_group_name_H-M "C 2/M"
_symmetry_group_IT_number 12
_symmetry_cell_setting 'monoclinic'
loop_
_space_group_symop_operation_xyz
x,y,z
-x,y,-z
-x,-y,-z
x,-y,z
1/2+x,1/2+y,z
1/2-x,1/2+y,-z
1/2-x,1/2-y,-z
1/2+x,1/2-y,z
loop_
_atom_site_type_symbol
_atom_site_label
_atom_site_fract_x
_atom_site_fract_y
_atom_site_fract_z
Si Si1 0.086443 0.848224 0.801929
Si Si2 0.345129 0.666797 0.733891
Si Si3 0.904705 0.648738 0.914400
Si Si4 0.000000 0.000000 0.500000
Si Si5 0.789248 0.728226 0.806209
Si Si6 0.309133 0.416172 0.498643
Si Si7 0.983136 0.555697 0.324485
O O1 0.174915 0.802888 0.799829
O O2 0.173455 0.891728 0.681693
O O3 0.982258 0.834101 0.734274
O O4 0.000000 0.864268 0.000000
O O5 0.320506 0.722484 0.694452
O O6 0.331298 0.628052 0.605685
O O7 0.237269 0.650199 0.925560
O O8 0.902470 0.690248 0.780916
O O9 0.942554 0.596865 0.818239
O O10 0.000000 0.660752 0.000000
O O11 0.913585 0.042678 0.466192
O O12 0.750000 0.750000 0.000000
O O13 0.167960 0.436993 0.613201
O O14 0.021692 0.500000 0.260973
O O15 0.000000 0.562522 0.500000
#
# Coordination Sequence:
#
# PCOD9216623 Si02
#       7
#     8   8   8   2   8   8   8
#     4  12  23  42  69  97 136 172 229 272 330 403
#     4  11  24  42  68 101 133 180 221 273 330 403
#     4  11  22  40  66  96 134 174 217 262 328 401
#     4  12  24  48  72  90 132 188 218 288 352 362
#     4  10  23  38  68  98 138 181 208 276 334 391
#     4  12  25  47  70  98 133 175 229 281 335 399
#     4  11  25  44  68  97 136 172 217 278 341 392
#
# _framework density 20.507414000000001
#
# number of rings (size 3 to 8) (size 9 to 14) (size 15 to 20)
#    0.000    0.800    7.200    0.960    4.480    0.960 
#    1.440    3.600    0.000    0.000    0.000    0.000 
#    0.000    0.000    0.000    0.000    0.000    0.000 
#
# Total GULP energy -139406.122178 kJ/mol
# GULP energy per Si atom -5576.244887 kJ/mol
# Density = 2.046074 g / cm^3
# Si number density = 20.507414 Si / 1000 Ang^3
#
#
#
# Elastic Constant Matrix: (Units=GPa)
#
#
# Indices 1 2 3 4 5 6 
#
# 1 100.9488 30.4381 -0.6902 0.0000 7.2702 0.0000
# 2 30.4381 155.9747 43.2395 0.0000 0.4751 0.0000
# 3 -0.6902 43.2395 46.5457 0.0000 -4.1990 0.0000
# 4 0.0000 0.0000 0.0000 -20.0136 0.0000 19.0699
# 5 7.2702 0.4751 -4.1990 0.0000 24.1283 0.0000
# 6 0.0000 0.0000 0.0000 19.0699 0.0000 37.1578
#
#
#
# Elastic Compliance Matrix: (Units=1/GPa)
#
#
# Indices 1 2 3 4 5 6 
#
# 1 0.010982 -0.002841 0.002549 0.000000 -0.002810 0.000000
# 2 -0.002841 0.009431 -0.008882 0.000000 -0.000875 0.000000
# 3 0.002549 -0.008882 0.030194 0.000000 0.004661 0.000000
# 4 0.000000 0.000000 0.000000 -0.033556 0.000000 0.017222
# 5 -0.002810 -0.000875 0.004661 0.000000 0.043120 0.000000
# 6 0.000000 0.000000 0.000000 0.017222 0.000000 0.018074
#
#
# Mechanical properties :
#
#
# Convention : Reuss Voigt Hill
#
# Bulk Modulus (GPa) = 30.99999 49.93825 40.46912
# Shear Modulus (GPa) = 46.57852 23.61996 35.09924
#
# Velocity S-wave (km/s) = 4.77099 3.39747 4.14156
# Velocity P-wave (km/s) = 6.74530 6.30829 6.53045
#
# Compressibility (1/GPa) = 0.03225807
#
# Stress axis : x y z
#
# Youngs Moduli (GPa) = 91.05419 106.03698 33.11962
#
# Poissons Ratio (x) = 0.30128 -0.08442
# Poissons Ratio (y) = 0.25871 0.29417
# Poissons Ratio (z) = -0.23208 0.94181
#
# Static dielectric constant tensor:
#      x y z
#    x 1.743040 0.000000 0.005340 
#    y 0.000000 1.729900 0.000000 
#    z 0.005340 0.000000 1.802860 
# 
# From -- ./inp_files/53078.got.cif
#   From: 2010.05.17/outbox.cif.g08.bks.cpg/sg12_27_cif.got.tgz:53078.got - 2010.06.03 13:09:07.
