data_PCOD9216096
_publ_section_title
;
Structure prediction by ZEFSAII (Michael W. Deem and Ramdas Pophale) SiO2 
 PCOD9216096
Probable space group: C 2/M
;
_chemical_formula_sum "Si O2"
_cell_formula_units_Z 56
_cell_length_a 9.983501
_cell_length_b 26.744893
_cell_length_c 14.087491
_cell_angle_alpha 90.000000
_cell_angle_beta 66.943171
_cell_angle_gamma 90.000000
_cell_volume 3460.990183
_symmetry_space_group_name_H-M "C 2/M"
_symmetry_group_IT_number 12
_symmetry_cell_setting 'monoclinic'
loop_
_space_group_symop_operation_xyz
x,y,z
-x,y,-z
-x,-y,-z
x,-y,z
1/2+x,1/2+y,z
1/2-x,1/2+y,-z
1/2-x,1/2-y,-z
1/2+x,1/2-y,z
loop_
_atom_site_type_symbol
_atom_site_label
_atom_site_fract_x
_atom_site_fract_y
_atom_site_fract_z
Si Si1 0.837775 0.558360 0.087670
Si Si2 0.325876 0.683134 0.545144
Si Si3 0.147898 0.124796 0.000175
Si Si4 0.607646 0.294415 0.170763
Si Si5 0.816593 0.640722 0.248180
Si Si6 0.139084 0.317986 0.194543
Si Si7 0.716548 0.709289 0.650887
O O1 0.804302 0.500000 0.108224
O O2 0.828190 0.589151 0.188061
O O3 0.731394 0.585905 0.043519
O O4 0.000000 0.563247 0.000000
O O5 0.500000 0.686965 0.500000
O O6 0.268194 0.639558 0.628889
O O7 0.276665 0.679437 0.449853
O O8 0.260423 0.734366 0.608344
O O9 0.251341 0.144592 0.887931
O O10 0.104757 0.172742 0.076757
O O11 0.000000 0.102821 0.000000
O O12 0.724107 0.321603 0.206773
O O13 0.652440 0.237055 0.144456
O O14 0.448493 0.292922 0.263890
O O15 0.976495 0.662464 0.223230
O O16 0.180035 0.310032 0.293622
#
# Coordination Sequence:
#
# PCOD9216096 Si02
#       7
#     8   8   8   8   8   8   8
#     4  10  22  43  65  84 105 138 188 240 286 341
#     4  11  21  34  52  78 112 157 200 228 261 315
#     4  11  23  35  56  84 115 145 181 227 288 339
#     4  11  20  35  49  77 118 157 187 217 261 330
#     4  11  22  35  57  81 110 148 192 230 277 325
#     4  12  20  35  49  82 119 155 183 221 268 335
#     4  11  21  32  51  75 114 160 191 224 257 314
#
# _framework density 16.180340999999999
#
# number of rings (size 3 to 8) (size 9 to 14) (size 15 to 20)
#    0.000    1.000    7.143    0.429    2.000    0.286 
#    0.000    0.000    0.000    0.429    0.000    3.000 
#    0.000    0.000    0.000    0.000    0.000    0.000 
#
# Total GULP energy -156333.081833 kJ/mol
# GULP energy per Si atom -5583.324351 kJ/mol
# Density = 1.614351 g / cm^3
# Si number density = 16.180341 Si / 1000 Ang^3
#
#
#
# Elastic Constant Matrix: (Units=GPa)
#
#
# Indices 1 2 3 4 5 6 
#
# 1 121.6861 42.9711 40.9505 0.0000 3.8045 0.0000
# 2 42.9711 93.4886 40.9521 0.0000 4.6219 0.0000
# 3 40.9505 40.9521 95.5342 0.0000 5.4501 0.0000
# 4 0.0000 0.0000 0.0000 14.4881 0.0000 -2.6961
# 5 3.8045 4.6219 5.4501 0.0000 33.8301 0.0000
# 6 0.0000 0.0000 0.0000 -2.6961 0.0000 14.3365
#
#
#
# Elastic Compliance Matrix: (Units=1/GPa)
#
#
# Indices 1 2 3 4 5 6 
#
# 1 0.010459 -0.003494 -0.002973 0.000000 -0.000220 0.000000
# 2 -0.003494 0.014364 -0.004612 0.000000 -0.000826 0.000000
# 3 -0.002973 -0.004612 0.013791 0.000000 -0.001257 0.000000
# 4 0.000000 0.000000 0.000000 0.071525 0.000000 0.013451
# 5 -0.000220 -0.000826 -0.001257 0.000000 0.029900 0.000000
# 6 0.000000 0.000000 0.000000 0.013451 0.000000 0.072282
#
#
# Mechanical properties :
#
#
# Convention : Reuss Voigt Hill
#
# Bulk Modulus (GPa) = 60.77300 62.27291 61.52296
# Shear Modulus (GPa) = 20.83647 24.91995 22.87821
#
# Velocity S-wave (km/s) = 3.59244 3.92872 3.76433
# Velocity P-wave (km/s) = 7.40600 7.69091 7.54980
#
# Compressibility (1/GPa) = 0.01645468
#
# Stress axis : x y z
#
# Youngs Moduli (GPa) = 95.61021 69.61922 72.51310
#
# Poissons Ratio (x) = 0.24327 0.21557
# Poissons Ratio (y) = 0.33409 0.33445
# Poissons Ratio (z) = 0.28424 0.32110
#
# Static dielectric constant tensor:
#      x y z
#    x 1.555600 0.000000 0.007890 
#    y 0.000000 1.511630 0.000000 
#    z 0.007890 0.000000 1.557600 
# 
# From -- ./inp_files/198354.got.cif
#   From: 2010.05.17/outbox.cif.g08.bks.cpg/sg12_100_cif.got.tgz:198354.got - 2010.06.03 13:09:07.
