data_PCOD9216256
_publ_section_title
;
Structure prediction by ZEFSAII (Michael W. Deem and Ramdas Pophale) SiO2 
 PCOD9216256
Probable space group: C 2/M
;
_chemical_formula_sum "Si O2"
_cell_formula_units_Z 56
_cell_length_a 9.088236
_cell_length_b 28.027609
_cell_length_c 10.899461
_cell_angle_alpha 90.000000
_cell_angle_beta 57.770532
_cell_angle_gamma 90.000000
_cell_volume 2348.548006
_symmetry_space_group_name_H-M "C 2/M"
_symmetry_group_IT_number 12
_symmetry_cell_setting 'monoclinic'
loop_
_space_group_symop_operation_xyz
x,y,z
-x,y,-z
-x,-y,-z
x,-y,z
1/2+x,1/2+y,z
1/2-x,1/2+y,-z
1/2-x,1/2-y,-z
1/2+x,1/2-y,z
loop_
_atom_site_type_symbol
_atom_site_label
_atom_site_fract_x
_atom_site_fract_y
_atom_site_fract_z
Si Si1 0.403412 0.620533 0.861604
Si Si2 0.201978 0.612782 0.278069
Si Si3 0.870492 0.552723 0.888970
Si Si4 0.245314 0.270196 0.640147
Si Si5 0.220405 0.054864 0.292216
Si Si6 0.679046 0.869433 0.575744
Si Si7 0.379688 0.267200 0.835986
O O1 0.594400 0.620786 0.837871
O O2 0.396616 0.586487 0.745283
O O3 0.368395 0.675380 0.845766
O O4 0.248737 0.595168 0.006587
O O5 0.155122 0.559994 0.247006
O O6 0.192663 0.627588 0.424233
O O7 0.027418 0.637747 0.301358
O O8 0.807117 0.500000 0.953837
O O9 0.072644 0.556243 0.837281
O O10 0.250000 0.250000 0.500000
O O11 0.269652 0.325960 0.603509
O O12 0.367543 0.253455 0.696313
O O13 0.065375 0.254887 0.783690
O O14 0.237105 0.082035 0.412635
O O15 0.167717 0.000000 0.321244
O O16 0.250000 0.250000 0.000000
#
# Coordination Sequence:
#
# PCOD9216256 Si02
#       7
#     8   8   8   8   8   8   8
#     4  12  24  42  66 100 139 173 235 285 352 420
#     4  10  24  39  68  98 133 181 223 290 341 419
#     4  10  23  42  68  99 138 186 230 280 359 440
#     4  12  27  48  75 104 143 196 251 297 365 449
#     4  10  22  43  70  99 134 180 230 283 351 420
#     4  10  23  46  70  95 138 183 237 285 360 420
#     4  12  30  45  70 107 146 186 241 307 369 427
#
# _framework density 23.844521
#
# number of rings (size 3 to 8) (size 9 to 14) (size 15 to 20)
#    0.000    1.143    1.429    3.000   10.000    6.286 
#    0.000    3.571    0.000    0.000    0.000    0.000 
#    0.000    0.000    0.000    0.000    0.000    0.000 
#
# Total GULP energy -156104.724633 kJ/mol
# GULP energy per Si atom -5575.168737 kJ/mol
# Density = 2.379025 g / cm^3
# Si number density = 23.844521 Si / 1000 Ang^3
#
#
#
# Elastic Constant Matrix: (Units=GPa)
#
#
# Indices 1 2 3 4 5 6 
#
# 1 77.8657 5.9556 25.2169 0.0000 6.0259 0.0000
# 2 5.9556 125.1519 22.5983 0.0000 8.7289 0.0000
# 3 25.2169 22.5983 89.7135 0.0000 -16.3563 0.0000
# 4 0.0000 0.0000 0.0000 28.8765 0.0000 10.7717
# 5 6.0259 8.7289 -16.3563 0.0000 38.5617 0.0000
# 6 0.0000 0.0000 0.0000 10.7717 0.0000 25.5442
#
#
#
# Elastic Compliance Matrix: (Units=1/GPa)
#
#
# Indices 1 2 3 4 5 6 
#
# 1 0.014826 0.000547 -0.005148 0.000000 -0.004624 0.000000
# 2 0.000547 0.008729 -0.002957 0.000000 -0.003316 0.000000
# 3 -0.005148 -0.002957 0.014748 0.000000 0.007729 0.000000
# 4 0.000000 0.000000 0.000000 0.041094 0.000000 -0.017329
# 5 -0.004624 -0.003316 0.007729 0.000000 0.030684 0.000000
# 6 0.000000 0.000000 0.000000 -0.017329 0.000000 0.046455
#
#
# Mechanical properties :
#
#
# Convention : Reuss Voigt Hill
#
# Bulk Modulus (GPa) = 43.12950 44.47474 43.80212
# Shear Modulus (GPa) = 27.87343 34.52717 31.20030
#
# Velocity S-wave (km/s) = 3.42272 3.80940 3.62123
# Velocity P-wave (km/s) = 5.80923 6.16776 5.99117
#
# Compressibility (1/GPa) = 0.02318599
#
# Stress axis : x y z
#
# Youngs Moduli (GPa) = 67.44971 114.55428 67.80754
#
# Poissons Ratio (x) = -0.06261 0.34907
# Poissons Ratio (y) = -0.03687 0.20051
# Poissons Ratio (z) = 0.34723 0.33874
#
# Static dielectric constant tensor:
#      x y z
#    x 1.897470 0.000000 0.016260 
#    y 0.000000 1.721250 0.000000 
#    z 0.016260 0.000000 2.066600 
# 
# From -- ./inp_files/125608.got.cif
#   From: 2010.05.17/outbox.cif.g08.bks.cpg/sg12_63_cif.got.tgz:125608.got - 2010.06.03 13:09:07.
