data_PCOD9216975
_publ_section_title
;
Structure prediction by ZEFSAII (Michael W. Deem and Ramdas Pophale) SiO2 
 PCOD9216975
Probable space group: C 2/M
;
_chemical_formula_sum "Si O2"
_cell_formula_units_Z 58
_cell_length_a 17.835747
_cell_length_b 12.466339
_cell_length_c 21.013317
_cell_angle_alpha 90.000000
_cell_angle_beta 38.023010
_cell_angle_gamma 90.000000
_cell_volume 2877.994586
_symmetry_space_group_name_H-M "C 2/M"
_symmetry_group_IT_number 12
_symmetry_cell_setting 'monoclinic'
loop_
_space_group_symop_operation_xyz
x,y,z
-x,y,-z
-x,-y,-z
x,-y,z
1/2+x,1/2+y,z
1/2-x,1/2+y,-z
1/2-x,1/2-y,-z
1/2+x,1/2-y,z
loop_
_atom_site_type_symbol
_atom_site_label
_atom_site_fract_x
_atom_site_fract_y
_atom_site_fract_z
Si Si1 0.052775 0.755946 0.239279
Si Si2 0.575877 0.121560 0.105047
Si Si3 0.203233 0.370778 0.885056
Si Si4 0.560560 0.167806 0.570313
Si Si5 0.676524 0.801613 0.770359
Si Si6 0.000000 0.500000 0.500000
Si Si7 0.947083 0.113937 0.605191
Si Si8 0.319416 0.372877 0.339893
O O1 0.109319 0.702063 0.138656
O O2 0.159365 0.825880 0.200008
O O3 0.996152 0.660120 0.321120
O O4 0.941843 0.831281 0.290983
O O5 0.430478 0.134225 0.192793
O O6 0.607723 0.000000 0.100401
O O7 0.637264 0.146150 0.996367
O O8 0.197415 0.500000 0.875832
O O9 0.143740 0.303003 0.867249
O O10 0.523556 0.290468 0.583556
O O11 0.703944 0.151307 0.462816
O O12 0.501679 0.093235 0.555415
O O13 0.806254 0.859181 0.687434
O O14 0.693402 0.692973 0.718027
O O15 0.000000 0.105046 0.500000
O O16 0.961808 0.000000 0.629140
O O17 0.318662 0.500000 0.327969
#
# Coordination Sequence:
#
# PCOD9216975 Si02
#       8
#     8   8   8   8   8   2   8   8
#     4  11  25  40  64  90 125 166 219 252 315 379
#     4  10  23  41  62  92 125 160 205 268 322 373
#     4  11  22  40  66  91 121 162 210 265 323 372
#     4  12  23  41  62  93 126 172 209 255 315 373
#     4  11  21  39  65  95 120 161 207 256 320 376
#     4  12  24  40  66  92 132 166 212 266 310 376
#     4  11  21  35  58  92 125 155 201 259 311 368
#     4  11  24  43  62  90 132 172 208 256 312 386
#
# _framework density 20.152922
#
# number of rings (size 3 to 8) (size 9 to 14) (size 15 to 20)
#    0.000    0.966    4.138    2.897    0.966    1.655 
#    0.000    0.690    0.000    7.448    0.000    0.000 
#    0.000    0.000    0.000    0.000    0.000    0.000 
#
# Total GULP energy -161517.379388 kJ/mol
# GULP energy per Si atom -5569.564806 kJ/mol
# Density = 2.010705 g / cm^3
# Si number density = 20.152922 Si / 1000 Ang^3
#
#
#
# Elastic Constant Matrix: (Units=GPa)
#
#
# Indices 1 2 3 4 5 6 
#
# 1 71.6667 33.1788 10.0231 0.0000 5.5986 0.0000
# 2 33.1788 110.1650 28.8602 0.0000 4.2700 0.0000
# 3 10.0231 28.8602 90.4208 0.0000 12.8669 0.0000
# 4 0.0000 0.0000 0.0000 28.3595 0.0000 15.7774
# 5 5.5986 4.2700 12.8669 0.0000 34.3529 0.0000
# 6 0.0000 0.0000 0.0000 15.7774 0.0000 -4.4256
#
#
#
# Elastic Compliance Matrix: (Units=1/GPa)
#
#
# Indices 1 2 3 4 5 6 
#
# 1 0.016359 -0.004855 0.000031 0.000000 -0.002074 0.000000
# 2 -0.004855 0.011346 -0.003164 0.000000 0.000566 0.000000
# 3 0.000031 -0.003164 0.012687 0.000000 -0.004364 0.000000
# 4 0.000000 0.000000 0.000000 0.011819 0.000000 0.042137
# 5 -0.002074 0.000566 -0.004364 0.000000 0.031012 0.000000
# 6 0.000000 0.000000 0.000000 0.042137 0.000000 -0.075740
#
#
# Mechanical properties :
#
#
# Convention : Reuss Voigt Hill
#
# Bulk Modulus (GPa) = 40.95453 46.26408 43.60930
# Shear Modulus (GPa) = 158.24489 25.00339 91.62414
#
# Velocity S-wave (km/s) = 8.87088 3.52615 6.75005
# Velocity P-wave (km/s) = 11.19327 6.29164 9.07948
#
# Compressibility (1/GPa) = 0.02441732
#
# Stress axis : x y z
#
# Youngs Moduli (GPa) = 61.12988 88.13468 78.82267
#
# Poissons Ratio (x) = 0.42786 -0.00247
# Poissons Ratio (y) = 0.29676 0.24938
# Poissons Ratio (z) = -0.00191 0.27885
#
# Static dielectric constant tensor:
#      x y z
#    x 1.744640 0.000000 0.057100 
#    y 0.000000 1.730810 0.000000 
#    z 0.057100 0.000000 1.806360 
# 
# From -- ./inp_files/315934.got.cif
#   From: 2010.05.17/outbox.cif.g08.bks.cpg/sg12_158_cif.got.tgz:315934.got - 2010.06.03 13:09:07.
