data_PCOD9216806
_publ_section_title
;
Structure prediction by ZEFSAII (Michael W. Deem and Ramdas Pophale) SiO2 
 PCOD9216806
Probable space group: C 2/M
;
_chemical_formula_sum "Si O2"
_cell_formula_units_Z 64
_cell_length_a 15.252416
_cell_length_b 22.984738
_cell_length_c 14.950072
_cell_angle_alpha 90.000000
_cell_angle_beta 140.748635
_cell_angle_gamma 90.000000
_cell_volume 3316.161241
_symmetry_space_group_name_H-M "C 2/M"
_symmetry_group_IT_number 12
_symmetry_cell_setting 'monoclinic'
loop_
_space_group_symop_operation_xyz
x,y,z
-x,y,-z
-x,-y,-z
x,-y,z
1/2+x,1/2+y,z
1/2-x,1/2+y,-z
1/2-x,1/2-y,-z
1/2+x,1/2-y,z
loop_
_atom_site_type_symbol
_atom_site_label
_atom_site_fract_x
_atom_site_fract_y
_atom_site_fract_z
Si Si1 0.531772 0.361290 0.378946
Si Si2 0.759681 0.068191 0.579701
Si Si3 0.408280 0.754527 0.659460
Si Si4 0.846080 0.357861 0.337465
Si Si5 0.213036 0.131328 0.697159
Si Si6 0.363334 0.251661 0.833127
Si Si7 0.523569 0.067686 0.120619
Si Si8 0.013892 0.384835 0.723688
O O1 0.616544 0.400476 0.376374
O O2 0.507571 0.297928 0.318065
O O3 0.390714 0.387595 0.306606
O O4 0.626816 0.350803 0.541375
O O5 0.729569 0.102107 0.648543
O O6 0.618645 0.077127 0.410848
O O7 0.785180 0.000000 0.613006
O O8 0.250000 0.750000 0.500000
O O9 0.407030 0.746718 0.764178
O O10 0.465480 0.817810 0.682007
O O11 0.754988 0.300509 0.248887
O O12 0.000000 0.344503 0.500000
O O13 0.872184 0.390299 0.263833
O O14 0.298669 0.187674 0.795999
O O15 0.313696 0.080987 0.742611
O O16 0.500000 0.261170 0.000000
O O17 0.450786 0.099863 0.145996
O O18 0.490084 0.000000 0.099588
O O19 0.500000 0.087670 0.000000
#
# Coordination Sequence:
#
# PCOD9216806 Si02
#       8
#     8   8   8   8   8   8   8   8
#     4  11  22  37  62  93 119 161 201 251 307 377
#     4  11  21  37  62  92 122 157 203 261 309 352
#     4  12  18  37  63  86 121 161 197 239 313 366
#     4  10  23  40  64  92 123 164 203 254 308 372
#     4  11  23  37  62  89 122 159 202 249 311 366
#     4  12  23  39  64  94 131 161 199 256 312 371
#     4  11  23  41  60  80 117 164 204 248 303 363
#     4  11  21  36  61  88 121 154 201 258 302 360
#
# _framework density 19.299423999999998
#
# number of rings (size 3 to 8) (size 9 to 14) (size 15 to 20)
#    0.000    0.875    6.250    2.250    1.750    3.250 
#    2.250    2.500    0.000    0.375    0.000    0.000 
#    0.000    0.000    0.000    0.000    0.000    0.000 
#
# Total GULP energy -178694.969465 kJ/mol
# GULP energy per Si atom -5584.217796 kJ/mol
# Density = 1.925550 g / cm^3
# Si number density = 19.299424 Si / 1000 Ang^3
#
#
#
# Elastic Constant Matrix: (Units=GPa)
#
#
# Indices 1 2 3 4 5 6 
#
# 1 161.5173 36.4012 37.0458 0.0000 -21.9506 0.0000
# 2 36.4012 87.9225 21.1052 0.0000 -5.9024 0.0000
# 3 37.0458 21.1052 66.7526 0.0000 -19.1099 0.0000
# 4 0.0000 0.0000 0.0000 12.4211 0.0000 -10.7260
# 5 -21.9506 -5.9024 -19.1099 0.0000 27.2750 0.0000
# 6 0.0000 0.0000 0.0000 -10.7260 0.0000 5.6600
#
#
#
# Elastic Compliance Matrix: (Units=1/GPa)
#
#
# Indices 1 2 3 4 5 6 
#
# 1 0.007843 -0.002390 -0.002424 0.000000 0.004096 0.000000
# 2 -0.002390 0.013036 -0.003175 0.000000 -0.001327 0.000000
# 3 -0.002424 -0.003175 0.020733 0.000000 0.011889 0.000000
# 4 0.000000 0.000000 0.000000 -0.126501 0.000000 -0.239726
# 5 0.004096 -0.001327 0.011889 0.000000 0.048002 0.000000
# 6 0.000000 0.000000 0.000000 -0.239726 0.000000 -0.277612
#
#
# Mechanical properties :
#
#
# Convention : Reuss Voigt Hill
#
# Bulk Modulus (GPa) = 39.01155 56.14409 47.57782
# Shear Modulus (GPa) = -17.24282 23.84724 3.30221
#
# Velocity S-wave (km/s) = -2.99228 3.51899 1.30949
# Velocity P-wave (km/s) = 2.88433 6.75761 5.19541
#
# Compressibility (1/GPa) = 0.02563344
#
# Stress axis : x y z
#
# Youngs Moduli (GPa) = 127.50880 76.70907 48.23135
#
# Poissons Ratio (x) = 0.18334 0.11692
# Poissons Ratio (y) = 0.30476 0.15314
# Poissons Ratio (z) = 0.30910 0.24357
#
# Static dielectric constant tensor:
#      x y z
#    x 1.698170 0.000000 -0.005680 
#    y 0.000000 1.675130 0.000000 
#    z -0.005680 0.000000 1.665000 
# 
# From -- ./inp_files/218507.got.cif
#   From: 2010.05.17/outbox.cif.g08.bks.cpg/sg12_110_cif.got.tgz:218507.got - 2010.06.03 13:09:07.
