data_PCOD9216240
_publ_section_title
;
Structure prediction by ZEFSAII (Michael W. Deem and Ramdas Pophale) SiO2 
 PCOD9216240
Probable space group: C 2/M
;
_chemical_formula_sum "Si O2"
_cell_formula_units_Z 50
_cell_length_a 9.553170
_cell_length_b 24.412282
_cell_length_c 14.537308
_cell_angle_alpha 90.000000
_cell_angle_beta 39.626265
_cell_angle_gamma 90.000000
_cell_volume 2162.264514
_symmetry_space_group_name_H-M "C 2/M"
_symmetry_group_IT_number 12
_symmetry_cell_setting 'monoclinic'
loop_
_space_group_symop_operation_xyz
x,y,z
-x,y,-z
-x,-y,-z
x,-y,z
1/2+x,1/2+y,z
1/2-x,1/2+y,-z
1/2-x,1/2-y,-z
1/2+x,1/2-y,z
loop_
_atom_site_type_symbol
_atom_site_label
_atom_site_fract_x
_atom_site_fract_y
_atom_site_fract_z
Si Si1 0.239346 0.275410 0.335620
Si Si2 0.936348 0.111961 0.303521
Si Si3 0.000000 0.000000 0.000000
Si Si4 0.832272 0.439478 0.183183
Si Si5 0.300291 0.593923 0.996857
Si Si6 0.905985 0.686820 0.788225
Si Si7 0.725136 0.401278 0.428532
O O1 0.322255 0.329841 0.347589
O O2 0.433289 0.231518 0.248340
O O3 0.000000 0.260142 0.500000
O O4 0.207654 0.288669 0.244232
O O5 0.181779 0.109781 0.221439
O O6 0.813755 0.079427 0.447162
O O7 0.985711 0.089393 0.176875
O O8 0.825523 0.048467 0.061116
O O9 0.779253 0.500000 0.171960
O O10 0.781664 0.441993 0.318048
O O11 0.085363 0.423905 0.049244
O O12 0.256056 0.654154 0.060681
O O13 0.076138 0.640688 0.668210
O O14 0.500000 0.375120 0.500000
#
# Coordination Sequence:
#
# PCOD9216240 Si02
#       7
#     8   8   2   8   8   8   8
#     4  12  25  43  74 106 139 192 236 295 359 428
#     4  11  24  41  68 105 143 178 237 292 353 424
#     4  12  24  48  74  94 136 200 222 284 362 430
#     4  10  22  43  70 103 138 185 238 300 355 419
#     4  11  25  45  71 100 143 185 234 291 354 425
#     4  11  25  44  71 101 142 184 238 289 356 420
#     4   9  20  39  67  99 139 176 227 292 347 418
#
# _framework density 23.123906999999999
#
# number of rings (size 3 to 8) (size 9 to 14) (size 15 to 20)
#    0.000    1.280    2.400    2.400    7.840    4.160 
#    0.000    0.000    0.000    2.400    0.000    0.000 
#    0.000    0.000    0.000    0.000    0.000    0.000 
#
# Total GULP energy -139171.679375 kJ/mol
# GULP energy per Si atom -5566.867175 kJ/mol
# Density = 2.307128 g / cm^3
# Si number density = 23.123907 Si / 1000 Ang^3
#
#
#
# Elastic Constant Matrix: (Units=GPa)
#
#
# Indices 1 2 3 4 5 6 
#
# 1 122.0626 55.5623 16.8876 0.0000 2.3198 0.0000
# 2 55.5623 92.1229 16.9271 0.0000 5.5673 0.0000
# 3 16.8876 16.9271 107.4550 0.0000 25.5648 0.0000
# 4 0.0000 0.0000 0.0000 4.5883 0.0000 12.7793
# 5 2.3198 5.5673 25.5648 0.0000 34.5864 0.0000
# 6 0.0000 0.0000 0.0000 12.7793 0.0000 39.6652
#
#
#
# Elastic Compliance Matrix: (Units=1/GPa)
#
#
# Indices 1 2 3 4 5 6 
#
# 1 0.011379 -0.006747 -0.000973 0.000000 0.001042 0.000000
# 2 -0.006747 0.015190 -0.001042 0.000000 -0.001223 0.000000
# 3 -0.000973 -0.001042 0.011609 0.000000 -0.008348 0.000000
# 4 0.000000 0.000000 0.000000 2.122995 0.000000 -0.683986
# 5 0.001042 -0.001223 -0.008348 0.000000 0.035211 0.000000
# 6 0.000000 0.000000 0.000000 -0.683986 0.000000 0.245577
#
#
# Mechanical properties :
#
#
# Convention : Reuss Voigt Hill
#
# Bulk Modulus (GPa) = 48.41720 55.59938 52.00829
# Shear Modulus (GPa) = 2.02727 31.25220 16.63974
#
# Velocity S-wave (km/s) = 0.93734 3.68028 2.68543
# Velocity P-wave (km/s) = 4.70692 6.49273 5.67057
#
# Compressibility (1/GPa) = 0.02065382
#
# Stress axis : x y z
#
# Youngs Moduli (GPa) = 87.88473 65.83446 86.13699
#
# Poissons Ratio (x) = 0.44418 0.08385
# Poissons Ratio (y) = 0.59295 0.08972
# Poissons Ratio (z) = 0.08555 0.06857
#
# Static dielectric constant tensor:
#      x y z
#    x 1.919420 0.000000 0.074350 
#    y 0.000000 1.769820 0.000000 
#    z 0.074350 0.000000 1.990200 
# 
# From -- ./inp_files/199629.got.cif
#   From: 2010.05.17/outbox.cif.g08.bks.cpg/sg12_100_cif.got.tgz:199629.got - 2010.06.03 13:09:07.
