data_PCOD9216433
_publ_section_title
;
Structure prediction by ZEFSAII (Michael W. Deem and Ramdas Pophale) SiO2 
 PCOD9216433
Probable space group: C 2/M
;
_chemical_formula_sum "Si O2"
_cell_formula_units_Z 28
_cell_length_a 11.852920
_cell_length_b 14.054842
_cell_length_c 9.007203
_cell_angle_alpha 90.000000
_cell_angle_beta 120.177044
_cell_angle_gamma 90.000000
_cell_volume 1297.162392
_symmetry_space_group_name_H-M "C 2/M"
_symmetry_group_IT_number 12
_symmetry_cell_setting 'monoclinic'
loop_
_space_group_symop_operation_xyz
x,y,z
-x,y,-z
-x,-y,-z
x,-y,z
1/2+x,1/2+y,z
1/2-x,1/2+y,-z
1/2-x,1/2-y,-z
1/2+x,1/2-y,z
loop_
_atom_site_type_symbol
_atom_site_label
_atom_site_fract_x
_atom_site_fract_y
_atom_site_fract_z
Si Si1 0.500000 0.326059 0.500000
Si Si2 0.255745 0.789066 0.838420
Si Si3 0.855333 0.500000 0.837619
Si Si4 0.824898 0.830462 0.642925
Si Si5 0.140072 0.500000 0.518119
O O1 0.613863 0.272648 0.666897
O O2 0.425797 0.374539 0.590242
O O3 0.362203 0.729210 0.813263
O O4 0.285291 0.901849 0.842065
O O5 0.250000 0.750000 0.000000
O O6 0.865589 0.500000 0.665199
O O7 0.000000 0.500000 0.000000
O O8 0.750000 0.750000 0.500000
O O9 0.723968 0.910119 0.622052
O O10 0.000000 0.500000 0.500000
#
# Coordination Sequence:
#
# PCOD9216433 Si02
#       5
#     4   8   4   8   4
#     4  10  22  45  72  93 148 184 246 285 360 429
#     4  11  27  44  71 108 146 190 239 301 369 420
#     4  12  28  44  70 105 142 190 245 293 362 429
#     4  10  23  40  70 104 138 193 234 293 362 414
#     4  12  26  44  72 109 144 184 251 285 363 442
#
# _framework density 21.585578000000002
#
# number of rings (size 3 to 8) (size 9 to 14) (size 15 to 20)
#    0.000    1.143    5.714    0.000   16.000    2.286 
#    0.000    0.000    0.000    3.429    0.000    0.000 
#    0.000    0.000    0.000    0.000    0.000    0.000 
#
# Total GULP energy -77983.050711 kJ/mol
# GULP energy per Si atom -5570.217908 kJ/mol
# Density = 2.153645 g / cm^3
# Si number density = 21.585578 Si / 1000 Ang^3
#
#
#
# Elastic Constant Matrix: (Units=GPa)
#
#
# Indices 1 2 3 4 5 6 
#
# 1 147.6367 62.2512 34.7603 0.0000 -32.1495 0.0000
# 2 62.2512 169.7452 33.0663 0.0000 -16.3197 0.0000
# 3 34.7603 33.0663 132.6845 0.0000 -18.8507 0.0000
# 4 0.0000 0.0000 0.0000 15.5443 0.0000 -10.8026
# 5 -32.1495 -16.3197 -18.8507 0.0000 53.6301 0.0000
# 6 0.0000 0.0000 0.0000 -10.8026 0.0000 26.0814
#
#
#
# Elastic Compliance Matrix: (Units=1/GPa)
#
#
# Indices 1 2 3 4 5 6 
#
# 1 0.009102 -0.002715 -0.001105 0.000000 0.004242 0.000000
# 2 -0.002715 0.007105 -0.001035 0.000000 0.000171 0.000000
# 3 -0.001105 -0.001035 0.008363 0.000000 0.001962 0.000000
# 4 0.000000 0.000000 0.000000 0.090334 0.000000 0.037415
# 5 0.004242 0.000171 0.001962 0.000000 0.021931 0.000000
# 6 0.000000 0.000000 0.000000 0.037415 0.000000 0.053838
#
#
# Mechanical properties :
#
#
# Convention : Reuss Voigt Hill
#
# Bulk Modulus (GPa) = 67.29839 78.91356 73.10598
# Shear Modulus (GPa) = 24.35029 40.38373 32.36701
#
# Velocity S-wave (km/s) = 3.36234 4.33004 3.87651
# Velocity P-wave (km/s) = 6.80580 7.85092 7.34696
#
# Compressibility (1/GPa) = 0.01485920
#
# Stress axis : x y z
#
# Youngs Moduli (GPa) = 109.86538 140.74842 119.57513
#
# Poissons Ratio (x) = 0.38212 0.13217
# Poissons Ratio (y) = 0.29827 0.12377
# Poissons Ratio (z) = 0.12144 0.14569
#
# Static dielectric constant tensor:
#      x y z
#    x 1.926430 0.000000 -0.025070 
#    y 0.000000 1.780310 0.000000 
#    z -0.025070 0.000000 1.802400 
# 
# From -- ./inp_files/45115.got.cif
#   From: 2010.05.17/outbox.cif.g08.bks.cpg/sg12_23_cif.got.tgz:45115.got - 2010.06.03 13:09:07.
