data_PCOD9216647
_publ_section_title
;
Structure prediction by ZEFSAII (Michael W. Deem and Ramdas Pophale) SiO2 
 PCOD9216647
Probable space group: C 2/M
;
_chemical_formula_sum "Si O2"
_cell_formula_units_Z 56
_cell_length_a 11.855074
_cell_length_b 27.344110
_cell_length_c 9.340387
_cell_angle_alpha 90.000000
_cell_angle_beta 53.641362
_cell_angle_gamma 90.000000
_cell_volume 2438.386158
_symmetry_space_group_name_H-M "C 2/M"
_symmetry_group_IT_number 12
_symmetry_cell_setting 'monoclinic'
loop_
_space_group_symop_operation_xyz
x,y,z
-x,y,-z
-x,-y,-z
x,-y,z
1/2+x,1/2+y,z
1/2-x,1/2+y,-z
1/2-x,1/2-y,-z
1/2+x,1/2-y,z
loop_
_atom_site_type_symbol
_atom_site_label
_atom_site_fract_x
_atom_site_fract_y
_atom_site_fract_z
Si Si1 0.598060 0.912614 0.139996
Si Si2 0.630221 0.444595 0.216919
Si Si3 0.562083 0.279595 0.294621
Si Si4 0.264774 0.945267 0.697804
Si Si5 0.801892 0.444379 0.332173
Si Si6 0.376241 0.193813 0.977718
Si Si7 0.954216 0.136822 0.183345
O O1 0.606854 0.935283 0.292113
O O2 0.442182 0.915409 0.196832
O O3 0.641537 0.856659 0.094479
O O4 0.713919 0.943082 0.967208
O O5 0.572257 0.500000 0.257850
O O6 0.662649 0.427542 0.354906
O O7 0.545025 0.406610 0.187240
O O8 0.500000 0.269207 0.500000
O O9 0.576390 0.233995 0.174878
O O10 0.461660 0.320562 0.295791
O O11 0.725598 0.297336 0.168494
O O12 0.287044 0.945691 0.512428
O O13 0.173130 0.896257 0.780007
O O14 0.207246 0.000000 0.779129
O O15 0.822968 0.500000 0.269247
O O16 0.500000 0.190413 0.000000
O O17 0.000000 0.161635 0.000000
#
# Coordination Sequence:
#
# PCOD9216647 Si02
#       7
#     8   8   8   8   8   8   8
#     4  12  22  39  68  95 133 178 230 280 344 421
#     4  11  22  37  62  94 128 175 225 275 335 410
#     4  11  27  48  74 105 142 184 237 303 369 432
#     4  11  24  40  63  96 139 185 230 287 351 420
#     4  10  23  39  58  93 137 177 225 286 347 414
#     4  11  25  48  75 105 143 184 238 300 364 432
#     4  12  24  42  66  94 133 181 229 288 350 419
#
# _framework density 22.966010000000001
#
# number of rings (size 3 to 8) (size 9 to 14) (size 15 to 20)
#    0.000    0.857    2.857    3.857    2.000    5.714 
#    0.000    2.143    0.000    0.000    0.000    0.000 
#    0.000    0.000    0.000    0.000    0.000    0.000 
#
# Total GULP energy -156267.667599 kJ/mol
# GULP energy per Si atom -5580.988129 kJ/mol
# Density = 2.291374 g / cm^3
# Si number density = 22.966010 Si / 1000 Ang^3
#
#
#
# Elastic Constant Matrix: (Units=GPa)
#
#
# Indices 1 2 3 4 5 6 
#
# 1 111.1623 21.7419 28.5134 0.0000 22.9125 0.0000
# 2 21.7419 98.8497 36.7685 0.0000 8.4632 0.0000
# 3 28.5134 36.7685 107.7037 0.0000 23.8877 0.0000
# 4 0.0000 0.0000 0.0000 20.1922 0.0000 3.9324
# 5 22.9125 8.4632 23.8877 0.0000 38.0505 0.0000
# 6 0.0000 0.0000 0.0000 3.9324 0.0000 31.2012
#
#
#
# Elastic Compliance Matrix: (Units=1/GPa)
#
#
# Indices 1 2 3 4 5 6 
#
# 1 0.010686 -0.001468 -0.001131 0.000000 -0.005398 0.000000
# 2 -0.001468 0.011790 -0.003777 0.000000 0.000632 0.000000
# 3 -0.001131 -0.003777 0.012240 0.000000 -0.006164 0.000000
# 4 0.000000 0.000000 0.000000 0.050770 0.000000 -0.006399
# 5 -0.005398 0.000632 -0.006164 0.000000 0.033260 0.000000
# 6 0.000000 0.000000 0.000000 -0.006399 0.000000 0.032857
#
#
# Mechanical properties :
#
#
# Convention : Reuss Voigt Hill
#
# Bulk Modulus (GPa) = 45.52454 54.64037 50.08245
# Shear Modulus (GPa) = 29.12497 33.26826 31.19662
#
# Velocity S-wave (km/s) = 3.56501 3.81016 3.68962
# Velocity P-wave (km/s) = 6.06724 6.57266 6.32500
#
# Compressibility (1/GPa) = 0.02196617
#
# Stress axis : x y z
#
# Youngs Moduli (GPa) = 93.58424 84.81932 81.69713
#
# Poissons Ratio (x) = 0.12448 0.09237
# Poissons Ratio (y) = 0.13734 0.30854
# Poissons Ratio (z) = 0.10581 0.32033
#
# Static dielectric constant tensor:
#      x y z
#    x 1.914590 0.000000 -0.005150 
#    y 0.000000 1.886720 0.000000 
#    z -0.005150 0.000000 1.948210 
# 
# From -- ./inp_files/54559.got.cif
#   From: 2010.05.17/outbox.cif.g08.bks.cpg/sg12_28_cif.got.tgz:54559.got - 2010.06.03 13:09:07.
