data_PCOD9216780
_publ_section_title
;
Structure prediction by ZEFSAII (Michael W. Deem and Ramdas Pophale) SiO2 
 PCOD9216780
Probable space group: C 2/M
;
_chemical_formula_sum "Si O2"
_cell_formula_units_Z 40
_cell_length_a 14.091525
_cell_length_b 30.487879
_cell_length_c 8.398056
_cell_angle_alpha 90.000000
_cell_angle_beta 144.110150
_cell_angle_gamma 90.000000
_cell_volume 2115.101240
_symmetry_space_group_name_H-M "C 2/M"
_symmetry_group_IT_number 12
_symmetry_cell_setting 'monoclinic'
loop_
_space_group_symop_operation_xyz
x,y,z
-x,y,-z
-x,-y,-z
x,-y,z
1/2+x,1/2+y,z
1/2-x,1/2+y,-z
1/2-x,1/2-y,-z
1/2+x,1/2-y,z
loop_
_atom_site_type_symbol
_atom_site_label
_atom_site_fract_x
_atom_site_fract_y
_atom_site_fract_z
Si Si1 0.720491 0.072462 0.455177
Si Si2 0.500000 0.145228 0.000000
Si Si3 0.505493 0.000000 0.696821
Si Si4 0.759359 0.285150 0.792657
Si Si5 0.000000 0.124430 0.000000
Si Si6 0.948181 0.203109 0.168260
Si Si7 0.824358 0.000000 0.342180
O O1 0.855965 0.092592 0.752345
O O2 0.592997 0.041660 0.371641
O O3 0.796543 0.042437 0.417947
O O4 0.623585 0.113635 0.256453
O O5 0.392042 0.177024 0.959980
O O6 0.500000 0.000000 0.500000
O O7 0.683081 0.000000 0.017089
O O8 0.656333 0.295380 0.811460
O O9 0.630998 0.285371 0.472960
O O10 0.857244 0.239725 0.939292
O O11 0.046515 0.157200 0.918166
O O12 0.000000 0.000000 0.500000
#
# Coordination Sequence:
#
# PCOD9216780 Si02
#       7
#     8   4   4   8   4   8   4
#     4  11  25  44  65  94 131 160 212 259 314 379
#     4  12  21  41  66  90 122 174 202 263 313 366
#     4  11  25  46  69  95 127 164 206 254 318 382
#     4  10  23  40  63  86 128 170 212 256 315 367
#     4  12  25  39  66  98 126 162 216 267 305 366
#     4  10  23  42  59  91 126 169 213 258 308 373
#     4  11  25  46  71  91 127 172 200 250 324 382
#
# _framework density 18.911625999999998
#
# number of rings (size 3 to 8) (size 9 to 14) (size 15 to 20)
#    0.000    1.200    4.000    1.200    5.600    5.600 
#    0.000    0.000    0.000    0.000    0.000    0.000 
#    0.000    0.000    0.000    0.000    0.000    0.000 
#
# Total GULP energy -111716.631983 kJ/mol
# GULP energy per Si atom -5585.831599 kJ/mol
# Density = 1.886858 g / cm^3
# Si number density = 18.911626 Si / 1000 Ang^3
#
#
#
# Elastic Constant Matrix: (Units=GPa)
#
#
# Indices 1 2 3 4 5 6 
#
# 1 93.4692 31.5613 45.1253 0.0000 12.8999 0.0000
# 2 31.5613 100.3603 61.7986 0.0000 13.8706 0.0000
# 3 45.1253 61.7986 174.3738 0.0000 8.0189 0.0000
# 4 0.0000 0.0000 0.0000 54.9937 0.0000 -15.3307
# 5 12.8999 13.8706 8.0189 0.0000 29.4515 0.0000
# 6 0.0000 0.0000 0.0000 -15.3307 0.0000 25.5150
#
#
#
# Elastic Compliance Matrix: (Units=1/GPa)
#
#
# Indices 1 2 3 4 5 6 
#
# 1 0.013159 -0.002031 -0.002496 0.000000 -0.004128 0.000000
# 2 -0.002031 0.013777 -0.004151 0.000000 -0.004468 0.000000
# 3 -0.002496 -0.004151 0.007810 0.000000 0.000922 0.000000
# 4 0.000000 0.000000 0.000000 0.021843 0.000000 0.013124
# 5 -0.004128 -0.004468 0.000922 0.000000 0.037616 0.000000
# 6 0.000000 0.000000 0.000000 0.013124 0.000000 0.047078
#
#
# Mechanical properties :
#
#
# Convention : Reuss Voigt Hill
#
# Bulk Modulus (GPa) = 57.50768 71.68597 64.59682
# Shear Modulus (GPa) = 30.40728 37.30657 33.85693
#
# Velocity S-wave (km/s) = 4.01417 4.44630 4.23575
# Velocity P-wave (km/s) = 7.20828 8.02169 7.62584
#
# Compressibility (1/GPa) = 0.01738898
#
# Stress axis : x y z
#
# Youngs Moduli (GPa) = 75.99308 72.58650 128.04830
#
# Poissons Ratio (x) = 0.14742 0.31958
# Poissons Ratio (y) = 0.15434 0.53158
# Poissons Ratio (z) = 0.18966 0.30134
#
# Static dielectric constant tensor:
#      x y z
#    x 1.656270 0.000000 -0.019130 
#    y 0.000000 1.489390 0.000000 
#    z -0.019130 0.000000 1.663540 
# 
# From -- ./inp_files/68798.got.cif
#   From: 2010.05.17/outbox.cif.g08.bks.cpg/sg12_35_cif.got.tgz:68798.got - 2010.06.03 13:09:07.
