data_PCOD9216062
_publ_section_title
;
Structure prediction by ZEFSAII (Michael W. Deem and Ramdas Pophale) SiO2 
 PCOD9216062
Probable space group: C 2/M
;
_chemical_formula_sum "Si O2"
_cell_formula_units_Z 34
_cell_length_a 21.976556
_cell_length_b 13.824119
_cell_length_c 13.858700
_cell_angle_alpha 90.000000
_cell_angle_beta 159.171194
_cell_angle_gamma 90.000000
_cell_volume 1497.108041
_symmetry_space_group_name_H-M "C 2/M"
_symmetry_group_IT_number 12
_symmetry_cell_setting 'monoclinic'
loop_
_space_group_symop_operation_xyz
x,y,z
-x,y,-z
-x,-y,-z
x,-y,z
1/2+x,1/2+y,z
1/2-x,1/2+y,-z
1/2-x,1/2-y,-z
1/2+x,1/2-y,z
loop_
_atom_site_type_symbol
_atom_site_label
_atom_site_fract_x
_atom_site_fract_y
_atom_site_fract_z
Si Si1 0.000000 0.500000 0.000000
Si Si2 0.140964 0.000000 0.574176
Si Si3 0.695834 0.715832 0.103468
Si Si4 0.249835 0.000000 0.446476
Si Si5 0.179969 0.285691 0.500795
Si Si6 0.500000 0.667756 0.500000
Si Si7 0.597450 0.500000 0.964003
O O1 0.157674 0.500000 0.150268
O O2 0.145620 0.500000 0.298901
O O3 0.078146 0.905603 0.538179
O O4 0.024735 0.000000 0.308594
O O5 0.723185 0.748075 0.257628
O O6 0.841328 0.760184 0.251202
O O7 0.514499 0.750095 0.792785
O O8 0.699737 0.599689 0.112697
O O9 0.301743 0.901104 0.472242
O O10 0.046756 0.000000 0.166385
O O11 0.250000 0.250000 0.500000
#
# Coordination Sequence:
#
# PCOD9216062 Si02
#       7
#     2   4   8   4   8   4   4
#     4  10  22  42  78 106 136 190 242 304 352 432
#     4  10  23  47  75 107 150 187 253 299 375 428
#     4  12  27  46  71 104 148 193 250 297 382 439
#     4  11  24  40  69 104 148 183 240 308 378 412
#     4  12  26  44  72 107 145 194 248 314 366 445
#     4  11  26  47  74 108 148 203 236 307 366 466
#     4  11  24  44  69 103 145 194 238 315 356 450
#
# _framework density 22.710453000000001
#
# number of rings (size 3 to 8) (size 9 to 14) (size 15 to 20)
#    0.000    0.706    2.353    4.235    6.588    6.118 
#    0.000    0.000    0.000    0.000    0.000    0.000 
#    0.000    0.000    0.000    0.000    0.000    0.000 
#
# Total GULP energy -94733.642110 kJ/mol
# GULP energy per Si atom -5572.567183 kJ/mol
# Density = 2.265876 g / cm^3
# Si number density = 22.710453 Si / 1000 Ang^3
#
#
#
# Elastic Constant Matrix: (Units=GPa)
#
#
# Indices 1 2 3 4 5 6 
#
# 1 85.7027 50.4270 46.7590 0.0000 19.1236 0.0000
# 2 50.4270 176.1335 39.0838 0.0000 19.6530 0.0000
# 3 46.7590 39.0838 89.1899 0.0000 21.9635 0.0000
# 4 0.0000 0.0000 0.0000 25.3833 0.0000 12.2790
# 5 19.1236 19.6530 21.9635 0.0000 50.9988 0.0000
# 6 0.0000 0.0000 0.0000 12.2790 0.0000 2.3499
#
#
#
# Elastic Compliance Matrix: (Units=1/GPa)
#
#
# Indices 1 2 3 4 5 6 
#
# 1 0.018240 -0.003288 -0.007550 0.000000 -0.002321 0.000000
# 2 -0.003288 0.006970 -0.001088 0.000000 -0.000984 0.000000
# 3 -0.007550 -0.001088 0.016608 0.000000 -0.003902 0.000000
# 4 0.000000 0.000000 0.000000 -0.025787 0.000000 0.134748
# 5 -0.002321 -0.000984 -0.003902 0.000000 0.022539 0.000000
# 6 0.000000 0.000000 0.000000 0.134748 0.000000 -0.278552
#
#
# Mechanical properties :
#
#
# Convention : Reuss Voigt Hill
#
# Bulk Modulus (GPa) = 55.66174 69.28509 62.47341
# Shear Modulus (GPa) = -23.79349 30.06348 3.13499
#
# Velocity S-wave (km/s) = -3.24031 3.64232 1.17619
# Velocity P-wave (km/s) = 3.25008 6.94715 5.42337
#
# Compressibility (1/GPa) = 0.01796566
#
# Stress axis : x y z
#
# Youngs Moduli (GPa) = 54.82440 143.46937 60.21132
#
# Poissons Ratio (x) = 0.47169 0.45461
# Poissons Ratio (y) = 0.18025 0.06553
# Poissons Ratio (z) = 0.41394 0.15614
#
# Static dielectric constant tensor:
#      x y z
#    x 1.950670 0.000000 -0.005510 
#    y 0.000000 1.805300 0.000000 
#    z -0.005510 0.000000 1.812130 
# 
# From -- ./inp_files/240854.got.cif
#   From: 2010.05.17/outbox.cif.g08.bks.cpg/sg12_121_cif.got.tgz:240854.got - 2010.06.03 13:09:07.
