data_PCOD9216492
_publ_section_title
;
Structure prediction by ZEFSAII (Michael W. Deem and Ramdas Pophale) SiO2 
 PCOD9216492
Probable space group: C 2/M
;
_chemical_formula_sum "Si O2"
_cell_formula_units_Z 34
_cell_length_a 6.585125
_cell_length_b 19.058995
_cell_length_c 10.531102
_cell_angle_alpha 90.000000
_cell_angle_beta 74.487444
_cell_angle_gamma 90.000000
_cell_volume 1273.567447
_symmetry_space_group_name_H-M "C 2/M"
_symmetry_group_IT_number 12
_symmetry_cell_setting 'monoclinic'
loop_
_space_group_symop_operation_xyz
x,y,z
-x,y,-z
-x,-y,-z
x,-y,z
1/2+x,1/2+y,z
1/2-x,1/2+y,-z
1/2-x,1/2-y,-z
1/2+x,1/2-y,z
loop_
_atom_site_type_symbol
_atom_site_label
_atom_site_fract_x
_atom_site_fract_y
_atom_site_fract_z
Si Si1 0.432709 0.615530 0.817909
Si Si2 0.500000 0.301023 0.500000
Si Si3 0.360249 0.189578 0.738655
Si Si4 0.797045 0.581461 0.399134
Si Si5 0.500000 0.500000 0.000000
Si Si6 0.000000 0.323518 0.000000
O O1 0.614442 0.672678 0.777273
O O2 0.353298 0.583230 0.699118
O O3 0.540982 0.559306 0.887104
O O4 0.212175 0.636442 0.921471
O O5 0.584182 0.250671 0.373071
O O6 0.310831 0.356009 0.500937
O O7 0.485617 0.118183 0.679174
O O8 0.423313 0.206872 0.875356
O O9 0.810183 0.500000 0.440487
#
# Coordination Sequence:
#
# PCOD9216492 Si02
#       6
#     8   4   8   8   2   4
#     4  11  24  42  81 119 163 207 265 330 405 473
#     4  12  29  56  79 116 162 216 268 334 395 478
#     4  11  26  47  82 118 163 209 264 328 404 473
#     4  11  27  48  79 116 157 210 270 328 395 476
#     4  12  20  42  78 116 164 212 258 332 404 472
#     4  10  22  49  75 122 156 206 264 332 392 477
#
# _framework density 26.696663000000001
#
# number of rings (size 3 to 8) (size 9 to 14) (size 15 to 20)
#    0.000    0.941    3.529    1.059    8.235    0.471 
#    0.000    6.471    0.000    0.000    0.000    0.000 
#    0.000    0.000    0.000    0.000    0.000    0.000 
#
# Total GULP energy -94751.790122 kJ/mol
# GULP energy per Si atom -5573.634713 kJ/mol
# Density = 2.663590 g / cm^3
# Si number density = 26.696663 Si / 1000 Ang^3
#
#
#
# Elastic Constant Matrix: (Units=GPa)
#
#
# Indices 1 2 3 4 5 6 
#
# 1 131.2885 68.7384 57.0658 0.0000 -6.4106 0.0000
# 2 68.7384 223.9617 103.0153 0.0000 -4.6130 0.0000
# 3 57.0658 103.0153 177.5687 0.0000 -5.6279 0.0000
# 4 0.0000 0.0000 0.0000 30.2052 0.0000 -88.3839
# 5 -6.4106 -4.6130 -5.6279 0.0000 66.1558 0.0000
# 6 0.0000 0.0000 0.0000 -88.3839 0.0000 -756.9848
#
#
#
# Elastic Compliance Matrix: (Units=1/GPa)
#
#
# Indices 1 2 3 4 5 6 
#
# 1 0.009530 -0.002063 -0.001846 0.000000 0.000623 0.000000
# 2 -0.002063 0.006538 -0.003130 0.000000 -0.000010 0.000000
# 3 -0.001846 -0.003130 0.008050 0.000000 0.000288 0.000000
# 4 0.000000 0.000000 0.000000 0.024676 0.000000 -0.002881
# 5 0.000623 -0.000010 0.000288 0.000000 0.015200 0.000000
# 6 0.000000 0.000000 0.000000 -0.002881 0.000000 -0.000985
#
#
# Mechanical properties :
#
#
# Convention : Reuss Voigt Hill
#
# Bulk Modulus (GPa) = 99.61071 110.05088 104.83080
# Shear Modulus (GPa) = 62.16293 -111.85813 -24.84760
#
# Velocity S-wave (km/s) = 4.83068 -6.48002 -3.05411
# Velocity P-wave (km/s) = 8.27689 3.83084 5.18805
#
# Compressibility (1/GPa) = 0.01003908
#
# Stress axis : x y z
#
# Youngs Moduli (GPa) = 104.93519 152.95706 124.22362
#
# Poissons Ratio (x) = 0.31553 0.22933
# Poissons Ratio (y) = 0.21647 0.38885
# Poissons Ratio (z) = 0.19372 0.47879
#
# Static dielectric constant tensor:
#      x y z
#    x 2.118470 0.000000 0.029780 
#    y 0.000000 2.003900 0.000000 
#    z 0.029780 0.000000 2.131160 
# 
# From -- ./inp_files/196381.got.cif
#   From: 2010.05.17/outbox.cif.g08.bks.cpg/sg12_99_cif.got.tgz:196381.got - 2010.06.03 13:09:07.
