data_PCOD9216512
_publ_section_title
;
Structure prediction by ZEFSAII (Michael W. Deem and Ramdas Pophale) SiO2 
 PCOD9216512
Probable space group: C 2/M
;
_chemical_formula_sum "Si O2"
_cell_formula_units_Z 40
_cell_length_a 8.661469
_cell_length_b 21.943301
_cell_length_c 14.972470
_cell_angle_alpha 90.000000
_cell_angle_beta 128.022348
_cell_angle_gamma 90.000000
_cell_volume 2241.747595
_symmetry_space_group_name_H-M "C 2/M"
_symmetry_group_IT_number 12
_symmetry_cell_setting 'monoclinic'
loop_
_space_group_symop_operation_xyz
x,y,z
-x,y,-z
-x,-y,-z
x,-y,z
1/2+x,1/2+y,z
1/2-x,1/2+y,-z
1/2-x,1/2-y,-z
1/2+x,1/2-y,z
loop_
_atom_site_type_symbol
_atom_site_label
_atom_site_fract_x
_atom_site_fract_y
_atom_site_fract_z
Si Si1 0.100310 0.428888 0.675009
Si Si2 0.691566 0.571390 0.444018
Si Si3 0.934925 0.186742 0.378636
Si Si4 0.526932 0.755259 0.232288
Si Si5 0.165311 0.833862 0.128551
O O1 0.101041 0.500000 0.699074
O O2 0.220159 0.422877 0.624526
O O3 0.205455 0.388182 0.785447
O O4 0.875228 0.411603 0.573277
O O5 0.642221 0.500000 0.440638
O O6 0.516096 0.618386 0.395576
O O7 0.702928 0.196399 0.287586
O O8 0.000000 0.208258 0.500000
O O9 0.024967 0.227845 0.331605
O O10 0.319321 0.786611 0.140684
O O11 0.568890 0.701557 0.177613
O O12 0.000000 0.852785 0.000000
#
# Coordination Sequence:
#
# PCOD9216512 Si02
#       5
#     8   8   8   8   8
#     4   9  18  34  56  82 107 138 180 221 268 319
#     4   9  18  34  56  80 111 142 171 218 273 325
#     4  11  20  34  54  81 113 144 173 216 272 326
#     4  10  23  36  51  81 113 142 179 221 265 320
#     4  11  21  38  58  78 106 145 186 224 262 310
#
# _framework density 17.843222000000001
#
# number of rings (size 3 to 8) (size 9 to 14) (size 15 to 20)
#    0.000    2.000    2.000    3.600    0.000    2.400 
#    0.000    1.000    0.000    0.000    0.000    2.800 
#    0.000    0.000    0.000    0.000    0.000    0.000 
#
# Total GULP energy -111654.550852 kJ/mol
# GULP energy per Si atom -5582.727543 kJ/mol
# Density = 1.780261 g / cm^3
# Si number density = 17.843222 Si / 1000 Ang^3
#
#
#
# Elastic Constant Matrix: (Units=GPa)
#
#
# Indices 1 2 3 4 5 6 
#
# 1 70.5536 29.5975 15.8847 0.0000 2.1328 0.0000
# 2 29.5975 77.2873 44.2904 0.0000 8.2085 0.0000
# 3 15.8847 44.2904 88.9306 0.0000 6.5301 0.0000
# 4 0.0000 0.0000 0.0000 18.9954 0.0000 13.4397
# 5 2.1328 8.2085 6.5301 0.0000 15.0627 0.0000
# 6 0.0000 0.0000 0.0000 13.4397 0.0000 11.4056
#
#
#
# Elastic Compliance Matrix: (Units=1/GPa)
#
#
# Indices 1 2 3 4 5 6 
#
# 1 0.016911 -0.006745 0.000253 0.000000 0.001172 0.000000
# 2 -0.006745 0.021367 -0.008936 0.000000 -0.006815 0.000000
# 3 0.000253 -0.008936 0.015798 0.000000 -0.002015 0.000000
# 4 0.000000 0.000000 0.000000 0.316570 0.000000 -0.373028
# 5 0.001172 -0.006815 -0.002015 0.000000 0.070810 0.000000
# 6 0.000000 0.000000 0.000000 -0.373028 0.000000 0.527231
#
#
# Mechanical properties :
#
#
# Convention : Reuss Voigt Hill
#
# Bulk Modulus (GPa) = 43.06965 46.25741 44.66353
# Shear Modulus (GPa) = 4.96384 18.89268 11.92826
#
# Velocity S-wave (km/s) = 1.66972 3.25747 2.58835
# Velocity P-wave (km/s) = 5.28276 6.33473 5.83251
#
# Compressibility (1/GPa) = 0.02321821
#
# Stress axis : x y z
#
# Youngs Moduli (GPa) = 59.13295 46.80198 63.29937
#
# Poissons Ratio (x) = 0.31570 -0.01600
# Poissons Ratio (y) = 0.39888 0.56564
# Poissons Ratio (z) = -0.01495 0.41822
#
# Static dielectric constant tensor:
#      x y z
#    x 1.629050 0.000000 -0.008510 
#    y 0.000000 1.603560 0.000000 
#    z -0.008510 0.000000 1.582270 
# 
# From -- ./inp_files/39233.got.cif
#   From: 2010.05.17/outbox.cif.g08.bks.cpg/sg12_20_cif.got.tgz:39233.got - 2010.06.03 13:09:07.
