data_PCOD9216556
_publ_section_title
;
Structure prediction by ZEFSAII (Michael W. Deem and Ramdas Pophale) SiO2 
 PCOD9216556
Probable space group: C 2/M
;
_chemical_formula_sum "Si O2"
_cell_formula_units_Z 64
_cell_length_a 11.755684
_cell_length_b 16.513127
_cell_length_c 18.438577
_cell_angle_alpha 90.000000
_cell_angle_beta 120.378208
_cell_angle_gamma 90.000000
_cell_volume 3087.930242
_symmetry_space_group_name_H-M "C 2/M"
_symmetry_group_IT_number 12
_symmetry_cell_setting 'monoclinic'
loop_
_space_group_symop_operation_xyz
x,y,z
-x,y,-z
-x,-y,-z
x,-y,z
1/2+x,1/2+y,z
1/2-x,1/2+y,-z
1/2-x,1/2-y,-z
1/2+x,1/2-y,z
loop_
_atom_site_type_symbol
_atom_site_label
_atom_site_fract_x
_atom_site_fract_y
_atom_site_fract_z
Si Si1 0.269393 0.133356 0.707641
Si Si2 0.225764 0.322474 0.706194
Si Si3 0.454884 0.904342 0.636213
Si Si4 0.213437 0.327638 0.037641
Si Si5 0.005604 0.910246 0.341597
Si Si6 0.764715 0.336240 0.464803
Si Si7 0.962617 0.662059 0.879261
Si Si8 0.509568 0.331078 0.816419
O O1 0.236061 0.226085 0.717121
O O2 0.348024 0.126936 0.659085
O O3 0.131253 0.089269 0.660454
O O4 0.369895 0.104221 0.802330
O O5 0.222870 0.333520 0.618114
O O6 0.359409 0.359830 0.784009
O O7 0.092579 0.359650 0.693253
O O8 0.389953 0.880933 0.538749
O O9 0.471911 0.000000 0.647859
O O10 0.132058 0.307065 0.085303
O O11 0.355332 0.365252 0.105013
O O12 0.250000 0.250000 0.000000
O O13 0.098547 0.373118 0.955371
O O14 0.126563 0.882876 0.430159
O O15 0.984734 0.848829 0.267496
O O16 0.033417 0.000000 0.320845
O O17 0.750000 0.250000 0.500000
O O18 0.004578 0.737308 0.840702
#
# Coordination Sequence:
#
# PCOD9216556 Si02
#       8
#     8   8   8   8   8   8   8   8
#     4  11  22  39  62  88 127 163 211 251 314 373
#     4  10  23  37  64  89 120 164 210 256 309 377
#     4  12  26  42  62  91 126 165 211 265 321 374
#     4   9  16  31  55  92 127 150 194 256 317 354
#     4  11  23  38  59  87 123 163 207 254 310 376
#     4  11  22  43  65  90 119 160 210 266 316 374
#     4   9  18  30  58  93 123 155 198 259 306 364
#     4   9  19  34  57  86 122 157 198 249 309 362
#
# _framework density 20.725856
#
# number of rings (size 3 to 8) (size 9 to 14) (size 15 to 20)
#    0.000    1.750    2.500    1.875    3.500    4.500 
#    0.000    1.250    0.000    2.250    0.000    7.875 
#    0.000    0.000    0.000    0.000    0.000    0.000 
#
# Total GULP energy -178290.023250 kJ/mol
# GULP energy per Si atom -5571.563227 kJ/mol
# Density = 2.067868 g / cm^3
# Si number density = 20.725856 Si / 1000 Ang^3
#
#
#
# Elastic Constant Matrix: (Units=GPa)
#
#
# Indices 1 2 3 4 5 6 
#
# 1 84.3030 31.5945 35.4151 0.0000 26.2406 0.0000
# 2 31.5945 66.2190 16.3524 0.0000 14.9591 0.0000
# 3 35.4151 16.3524 113.2165 0.0000 39.9731 0.0000
# 4 0.0000 0.0000 0.0000 -10.7547 0.0000 -3.1653
# 5 26.2406 14.9591 39.9731 0.0000 45.7842 0.0000
# 6 0.0000 0.0000 0.0000 -3.1653 0.0000 7.3756
#
#
#
# Elastic Compliance Matrix: (Units=1/GPa)
#
#
# Indices 1 2 3 4 5 6 
#
# 1 0.016950 -0.006231 -0.002445 0.000000 -0.005545 0.000000
# 2 -0.006231 0.018632 0.000212 0.000000 -0.002701 0.000000
# 3 -0.002445 0.000212 0.013150 0.000000 -0.010149 0.000000
# 4 0.000000 0.000000 0.000000 -0.082555 0.000000 -0.035429
# 5 -0.005545 -0.002701 -0.010149 0.000000 0.034763 0.000000
# 6 0.000000 0.000000 0.000000 -0.035429 0.000000 0.120378
#
#
# Mechanical properties :
#
#
# Convention : Reuss Voigt Hill
#
# Bulk Modulus (GPa) = 31.44188 47.82917 39.63552
# Shear Modulus (GPa) = 33.59152 20.50611 27.04882
#
# Velocity S-wave (km/s) = 4.03023 3.14888 3.61650
# Velocity P-wave (km/s) = 6.07127 6.02891 6.05013
#
# Compressibility (1/GPa) = 0.03180471
#
# Stress axis : x y z
#
# Youngs Moduli (GPa) = 58.99730 53.67015 76.04542
#
# Poissons Ratio (x) = 0.33442 0.18589
# Poissons Ratio (y) = 0.36761 -0.01610
# Poissons Ratio (z) = 0.14422 -0.01136
#
# Static dielectric constant tensor:
#      x y z
#    x 1.782750 0.000000 0.009260 
#    y 0.000000 1.822120 0.000000 
#    z 0.009260 0.000000 1.822310 
# 
# From -- ./inp_files/306250.got.cif
#   From: 2010.05.17/outbox.cif.g08.bks.cpg/sg12_154_cif.got.tgz:306250.got - 2010.06.03 13:09:07.
