data_PCOD9216768
_publ_section_title
;
Structure prediction by ZEFSAII (Michael W. Deem and Ramdas Pophale) SiO2 
 PCOD9216768
Probable space group: C 2/M
;
_chemical_formula_sum "Si O2"
_cell_formula_units_Z 36
_cell_length_a 8.974787
_cell_length_b 15.241164
_cell_length_c 16.749594
_cell_angle_alpha 90.000000
_cell_angle_beta 130.481758
_cell_angle_gamma 90.000000
_cell_volume 1742.649892
_symmetry_space_group_name_H-M "C 2/M"
_symmetry_group_IT_number 12
_symmetry_cell_setting 'monoclinic'
loop_
_space_group_symop_operation_xyz
x,y,z
-x,y,-z
-x,-y,-z
x,-y,z
1/2+x,1/2+y,z
1/2-x,1/2+y,-z
1/2-x,1/2-y,-z
1/2+x,1/2-y,z
loop_
_atom_site_type_symbol
_atom_site_label
_atom_site_fract_x
_atom_site_fract_y
_atom_site_fract_z
Si Si1 0.397610 0.814822 0.101270
Si Si2 0.157817 0.170136 0.797099
Si Si3 0.715405 0.000000 0.543492
Si Si4 0.275276 0.500000 0.896603
Si Si5 0.896491 0.830508 0.547935
Si Si6 0.460582 0.500000 0.791250
O O1 0.607631 0.825155 0.131532
O O2 0.421723 0.758394 0.190086
O O3 0.319192 0.911118 0.099702
O O4 0.250000 0.750000 0.000000
O O5 0.053761 0.164679 0.674687
O O6 0.093214 0.087893 0.830638
O O7 0.500000 0.000000 0.500000
O O8 0.764704 0.084052 0.509749
O O9 0.845996 0.000000 0.668318
O O10 0.306013 0.500000 0.810720
O O11 0.500000 0.500000 0.000000
O O12 0.750000 0.750000 0.500000
O O13 0.000000 0.828535 0.500000
#
# Coordination Sequence:
#
# PCOD9216768 Si02
#       6
#     8   8   4   4   8   4
#     4  12  25  42  66  94 125 164 207 255 309 368
#     4  11  23  42  63  92 126 163 208 258 308 368
#     4  10  23  40  62  91 125 162 207 257 306 364
#     4  12  25  42  64  92 124 162 204 252 308 368
#     4  11  23  40  63  91 125 166 208 255 310 368
#     4  10  23  42  65  91 124 162 206 255 309 364
#
# _framework density 20.658192
#
# number of rings (size 3 to 8) (size 9 to 14) (size 15 to 20)
#    0.000    0.889    0.000    7.667    0.000    7.111 
#    0.000    3.333    0.000    0.000    0.000    0.000 
#    0.000    0.000    0.000    0.000    0.000    0.000 
#
# Total GULP energy -100581.026767 kJ/mol
# GULP energy per Si atom -5587.834820 kJ/mol
# Density = 2.061117 g / cm^3
# Si number density = 20.658192 Si / 1000 Ang^3
#
#
#
# Elastic Constant Matrix: (Units=GPa)
#
#
# Indices 1 2 3 4 5 6 
#
# 1 170.7211 91.1893 31.0831 0.0000 6.7305 0.0000
# 2 91.1893 211.2226 32.9560 0.0000 6.7816 0.0000
# 3 31.0831 32.9560 47.7402 0.0000 -4.7001 0.0000
# 4 0.0000 0.0000 0.0000 29.7422 0.0000 0.7750
# 5 6.7305 6.7816 -4.7001 0.0000 44.7520 0.0000
# 6 0.0000 0.0000 0.0000 0.7750 0.0000 48.5715
#
#
#
# Elastic Compliance Matrix: (Units=1/GPa)
#
#
# Indices 1 2 3 4 5 6 
#
# 1 0.008075 -0.002928 -0.003347 0.000000 -0.001122 0.000000
# 2 -0.002928 0.006432 -0.002614 0.000000 -0.000809 0.000000
# 3 -0.003347 -0.002614 0.025280 0.000000 0.003554 0.000000
# 4 0.000000 0.000000 0.000000 0.033636 0.000000 -0.000537
# 5 -0.001122 -0.000809 0.003554 0.000000 0.023010 0.000000
# 6 0.000000 0.000000 0.000000 -0.000537 0.000000 0.020597
#
#
# Mechanical properties :
#
#
# Convention : Reuss Voigt Hill
#
# Bulk Modulus (GPa) = 45.43291 82.23786 63.83539
# Shear Modulus (GPa) = 35.17570 42.91018 39.04294
#
# Velocity S-wave (km/s) = 4.13091 4.56252 4.35207
# Velocity P-wave (km/s) = 6.69276 8.22501 7.49812
#
# Compressibility (1/GPa) = 0.02201048
#
# Stress axis : x y z
#
# Youngs Moduli (GPa) = 123.83824 155.46926 39.55712
#
# Poissons Ratio (x) = 0.45521 0.13239
# Poissons Ratio (y) = 0.36259 0.10338
# Poissons Ratio (z) = 0.41447 0.40632
#
# Static dielectric constant tensor:
#      x y z
#    x 1.753640 0.000000 -0.031270 
#    y 0.000000 1.735820 0.000000 
#    z -0.031270 0.000000 1.789210 
# 
# From -- ./inp_files/255622.got.cif
#   From: 2010.05.17/outbox.cif.g08.bks.cpg/sg12_128_cif.got.tgz:255622.got - 2010.06.03 13:09:07.
