data_PCOD9216756
_publ_section_title
;
Structure prediction by ZEFSAII (Michael W. Deem and Ramdas Pophale) SiO2 
 PCOD9216756
Probable space group: C 2/M
;
_chemical_formula_sum "Si O2"
_cell_formula_units_Z 24
_cell_length_a 5.139011
_cell_length_b 31.870936
_cell_length_c 7.368154
_cell_angle_alpha 90.000000
_cell_angle_beta 117.071514
_cell_angle_gamma 90.000000
_cell_volume 1074.576456
_symmetry_space_group_name_H-M "C 2/M"
_symmetry_group_IT_number 12
_symmetry_cell_setting 'monoclinic'
loop_
_space_group_symop_operation_xyz
x,y,z
-x,y,-z
-x,-y,-z
x,-y,z
1/2+x,1/2+y,z
1/2-x,1/2+y,-z
1/2-x,1/2-y,-z
1/2+x,1/2-y,z
loop_
_atom_site_type_symbol
_atom_site_label
_atom_site_fract_x
_atom_site_fract_y
_atom_site_fract_z
Si Si1 0.344148 0.500000 0.645090
Si Si2 0.434273 0.221319 0.279670
Si Si3 0.847880 0.092233 0.646427
Si Si4 0.500000 0.343295 0.000000
O O1 0.500000 0.500000 0.500000
O O2 0.409500 0.545581 0.748178
O O3 0.000000 0.500000 0.500000
O O4 0.500000 0.202093 0.500000
O O5 0.711248 0.241363 0.267435
O O6 0.274541 0.187636 0.105604
O O7 0.500000 0.096577 0.500000
O O8 0.000000 0.094920 0.500000
O O9 0.980570 0.127094 0.819462
#
# Coordination Sequence:
#
# PCOD9216756 Si02
#       4
#     4   8   8   4
#     4   8  16  37  60  81 120 164 196 237 294 351
#     4  10  23  42  62  85 118 159 200 244 299 363
#     4  10  23  40  61  91 125 160 201 248 296 355
#     4  12  24  39  66  94 122 156 202 253 306 352
#
# _framework density 22.334382000000002
#
# number of rings (size 3 to 8) (size 9 to 14) (size 15 to 20)
#    0.000    2.000    0.000    2.000    0.000   11.333 
#    0.000    0.000    0.000   12.000    0.000    0.000 
#    0.000    0.000    0.000    0.000    0.000    0.000 
#
# Total GULP energy -67069.436796 kJ/mol
# GULP energy per Si atom -5589.119733 kJ/mol
# Density = 2.228355 g / cm^3
# Si number density = 22.334382 Si / 1000 Ang^3
#
#
#
# Elastic Constant Matrix: (Units=GPa)
#
#
# Indices 1 2 3 4 5 6 
#
# 1 124.0000 11.5786 32.1135 0.0000 -6.9636 0.0000
# 2 11.5786 101.2811 66.2281 0.0000 5.2893 0.0000
# 3 32.1135 66.2281 126.5031 0.0000 2.7187 0.0000
# 4 0.0000 0.0000 0.0000 -54.2600 0.0000 -37.3148
# 5 -6.9636 5.2893 2.7187 0.0000 22.3981 0.0000
# 6 0.0000 0.0000 0.0000 -37.3148 0.0000 11.8842
#
#
#
# Elastic Compliance Matrix: (Units=1/GPa)
#
#
# Indices 1 2 3 4 5 6 
#
# 1 0.008850 0.000525 -0.002585 0.000000 0.002941 0.000000
# 2 0.000525 0.015196 -0.008036 0.000000 -0.002450 0.000000
# 3 -0.002585 -0.008036 0.012778 0.000000 -0.000457 0.000000
# 4 0.000000 0.000000 0.000000 -0.005833 0.000000 -0.018316
# 5 0.002941 -0.002450 -0.000457 0.000000 0.046195 0.000000
# 6 0.000000 0.000000 0.000000 -0.018316 0.000000 0.026634
#
#
# Mechanical properties :
#
#
# Convention : Reuss Voigt Hill
#
# Bulk Modulus (GPa) = 60.12414 63.51385 61.81899
# Shear Modulus (GPa) = 38.59307 12.12872 25.36089
#
# Velocity S-wave (km/s) = 4.16139 2.33287 3.37339
# Velocity P-wave (km/s) = 7.07587 5.97962 6.55072
#
# Compressibility (1/GPa) = 0.01663225
#
# Stress axis : x y z
#
# Youngs Moduli (GPa) = 112.99383 65.80472 78.25879
#
# Poissons Ratio (x) = -0.03453 0.20226
# Poissons Ratio (y) = -0.05929 0.62891
# Poissons Ratio (z) = 0.29204 0.52883
#
# Static dielectric constant tensor:
#      x y z
#    x 1.843470 0.000000 0.024670 
#    y 0.000000 1.879200 0.000000 
#    z 0.024670 0.000000 1.850070 
# 
# From -- ./inp_files/34197.got.cif
#   From: 2010.05.17/outbox.cif.g08.bks.cpg/sg12_18_cif.got.tgz:34197.got - 2010.06.03 13:09:07.
