data_PCOD9216862
_publ_section_title
;
Structure prediction by ZEFSAII (Michael W. Deem and Ramdas Pophale) SiO2 
 PCOD9216862
Probable space group: C 2/M
;
_chemical_formula_sum "Si O2"
_cell_formula_units_Z 48
_cell_length_a 26.791119
_cell_length_b 16.330998
_cell_length_c 12.101477
_cell_angle_alpha 90.000000
_cell_angle_beta 24.988613
_cell_angle_gamma 90.000000
_cell_volume 2236.686279
_symmetry_space_group_name_H-M "C 2/M"
_symmetry_group_IT_number 12
_symmetry_cell_setting 'monoclinic'
loop_
_space_group_symop_operation_xyz
x,y,z
-x,y,-z
-x,-y,-z
x,-y,z
1/2+x,1/2+y,z
1/2-x,1/2+y,-z
1/2-x,1/2-y,-z
1/2+x,1/2-y,z
loop_
_atom_site_type_symbol
_atom_site_label
_atom_site_fract_x
_atom_site_fract_y
_atom_site_fract_z
Si Si1 0.346317 0.168868 0.226669
Si Si2 0.051885 0.593389 0.189798
Si Si3 0.104228 0.165166 0.002902
Si Si4 0.152915 0.404978 0.542671
Si Si5 0.874512 0.257623 0.814379
Si Si6 0.597645 0.594538 0.707179
O O1 0.387170 0.255012 0.094156
O O2 0.381477 0.148319 0.281504
O O3 0.204852 0.156516 0.509391
O O4 0.388564 0.103439 0.050352
O O5 0.053417 0.500000 0.223327
O O6 0.111933 0.652880 0.156281
O O7 0.918431 0.619859 0.424310
O O8 0.208667 0.105626 0.755205
O O9 0.128479 0.195911 0.076632
O O10 0.977713 0.122680 0.246763
O O11 0.126258 0.500000 0.619029
O O12 0.000000 0.244346 0.500000
O O13 0.750000 0.250000 0.000000
O O14 0.638375 0.500000 0.620229
O O15 0.500000 0.599267 0.000000
#
# Coordination Sequence:
#
# PCOD9216862 Si02
#       6
#     8   8   8   8   8   8
#     4  11  23  37  63  95 138 173 209 249 306 388
#     4  10  23  40  67  95 125 163 209 262 321 386
#     4  11  25  38  66  92 127 168 221 262 318 386
#     4  11  21  39  63  97 136 170 203 250 312 388
#     4  11  26  47  69  91 123 163 218 283 336 376
#     4  11  23  39  61  94 136 177 208 253 315 387
#
# _framework density 21.460318999999998
#
# number of rings (size 3 to 8) (size 9 to 14) (size 15 to 20)
#    0.000    1.167    1.667    4.000    9.333    1.667 
#    0.000    1.667    0.000    2.500    0.000    0.000 
#    0.000    0.000    0.000    0.000    0.000    0.000 
#
# Total GULP energy -134159.254505 kJ/mol
# GULP energy per Si atom -5589.968938 kJ/mol
# Density = 2.141147 g / cm^3
# Si number density = 21.460319 Si / 1000 Ang^3
#
#
#
# Elastic Constant Matrix: (Units=GPa)
#
#
# Indices 1 2 3 4 5 6 
#
# 1 130.8920 36.6453 22.3066 0.0000 -20.5231 0.0000
# 2 36.6453 62.2281 14.0377 0.0000 -1.7831 0.0000
# 3 22.3066 14.0377 76.7679 0.0000 -8.1391 0.0000
# 4 0.0000 0.0000 0.0000 19.6513 0.0000 -11.3901
# 5 -20.5231 -1.7831 -8.1391 0.0000 36.3397 0.0000
# 6 0.0000 0.0000 0.0000 -11.3901 0.0000 21.4660
#
#
#
# Elastic Compliance Matrix: (Units=1/GPa)
#
#
# Indices 1 2 3 4 5 6 
#
# 1 0.010256 -0.005573 -0.001409 0.000000 0.005203 0.000000
# 2 -0.005573 0.019790 -0.002284 0.000000 -0.002688 0.000000
# 3 -0.001409 -0.002284 0.014092 0.000000 0.002248 0.000000
# 4 0.000000 0.000000 0.000000 0.073488 0.000000 0.038994
# 5 0.005203 -0.002688 0.002248 0.000000 0.030828 0.000000
# 6 0.000000 0.000000 0.000000 0.038994 0.000000 0.067276
#
#
# Mechanical properties :
#
#
# Convention : Reuss Voigt Hill
#
# Bulk Modulus (GPa) = 39.05532 46.20748 42.63140
# Shear Modulus (GPa) = 20.59327 28.61797 24.60562
#
# Velocity S-wave (km/s) = 3.10110 3.65571 3.38977
# Velocity P-wave (km/s) = 5.57322 6.27673 5.93541
#
# Compressibility (1/GPa) = 0.02560471
#
# Stress axis : x y z
#
# Youngs Moduli (GPa) = 97.50353 50.53091 70.96265
#
# Poissons Ratio (x) = 0.28159 0.10002
# Poissons Ratio (y) = 0.54335 0.16211
# Poissons Ratio (z) = 0.13743 0.11544
#
# Static dielectric constant tensor:
#      x y z
#    x 1.805150 0.000000 -0.037480 
#    y 0.000000 1.761860 0.000000 
#    z -0.037480 0.000000 1.852900 
# 
# From -- ./inp_files/177299.got.cif
#   From: 2010.05.17/outbox.cif.g08.bks.cpg/sg12_89_cif.got.tgz:177299.got - 2010.06.03 13:09:07.
