data_PCOD9216686
_publ_section_title
;
Structure prediction by ZEFSAII (Michael W. Deem and Ramdas Pophale) SiO2 
 PCOD9216686
Probable space group: C 2/M
;
_chemical_formula_sum "Si O2"
_cell_formula_units_Z 40
_cell_length_a 11.967482
_cell_length_b 19.678617
_cell_length_c 8.067891
_cell_angle_alpha 90.000000
_cell_angle_beta 55.356397
_cell_angle_gamma 90.000000
_cell_volume 1563.151181
_symmetry_space_group_name_H-M "C 2/M"
_symmetry_group_IT_number 12
_symmetry_cell_setting 'monoclinic'
loop_
_space_group_symop_operation_xyz
x,y,z
-x,y,-z
-x,-y,-z
x,-y,z
1/2+x,1/2+y,z
1/2-x,1/2+y,-z
1/2-x,1/2-y,-z
1/2+x,1/2-y,z
loop_
_atom_site_type_symbol
_atom_site_label
_atom_site_fract_x
_atom_site_fract_y
_atom_site_fract_z
Si Si1 0.079083 0.712086 0.194206
Si Si2 0.192832 0.347063 0.393572
Si Si3 0.837285 0.500000 0.619207
Si Si4 0.172659 0.500000 0.735725
Si Si5 0.000000 0.618743 0.000000
Si Si6 0.424360 0.500000 0.742217
Si Si7 0.478760 0.643853 0.318496
O O1 0.940726 0.677634 0.390664
O O2 0.101414 0.666561 0.014688
O O3 0.050714 0.790183 0.184934
O O4 0.191260 0.704285 0.240971
O O5 0.191531 0.421977 0.306611
O O6 0.321920 0.347043 0.403045
O O7 0.764979 0.500000 0.498320
O O8 0.000000 0.500000 0.500000
O O9 0.081023 0.433519 0.817143
O O10 0.268084 0.500000 0.814963
O O11 0.500000 0.500000 0.500000
O O12 0.464564 0.571106 0.790796
O O13 0.500000 0.645892 0.500000
#
# Coordination Sequence:
#
# PCOD9216686 Si02
#       7
#     8   8   4   4   4   4   8
#     4  11  23  38  62  93 126 169 204 264 315 362
#     4  11  21  38  63  95 126 156 215 271 308 358
#     4  12  17  33  62  90 122 156 206 265 314 354
#     4  11  22  40  61  90 134 164 211 258 303 386
#     4  11  24  40  64  93 130 174 206 251 318 374
#     4  10  23  39  63  94 118 166 211 255 320 369
#     4  11  22  38  65  93 125 159 207 267 318 365
#
# _framework density 25.589335999999999
#
# number of rings (size 3 to 8) (size 9 to 14) (size 15 to 20)
#    0.000    1.000    6.000    3.600    0.000    0.800 
#    0.000    4.000    0.000    1.800    0.000    0.000 
#    0.000    0.000    0.000    0.000    0.000    0.000 
#
# Total GULP energy -111791.836426 kJ/mol
# GULP energy per Si atom -5589.591821 kJ/mol
# Density = 2.553109 g / cm^3
# Si number density = 25.589336 Si / 1000 Ang^3
#
#
#
# Elastic Constant Matrix: (Units=GPa)
#
#
# Indices 1 2 3 4 5 6 
#
# 1 161.8145 36.2347 9.1494 0.0000 20.7657 0.0000
# 2 36.2347 225.5312 23.1712 0.0000 -4.6327 0.0000
# 3 9.1494 23.1712 25.2075 0.0000 -2.2488 0.0000
# 4 0.0000 0.0000 0.0000 72.8190 0.0000 44.9957
# 5 20.7657 -4.6327 -2.2488 0.0000 30.9492 0.0000
# 6 0.0000 0.0000 0.0000 44.9957 0.0000 56.4730
#
#
#
# Elastic Compliance Matrix: (Units=1/GPa)
#
#
# Indices 1 2 3 4 5 6 
#
# 1 0.007192 -0.001044 -0.002109 0.000000 -0.005135 0.000000
# 2 -0.001044 0.005053 -0.004163 0.000000 0.001155 0.000000
# 3 -0.002109 -0.004163 0.044622 0.000000 0.004034 0.000000
# 4 0.000000 0.000000 0.000000 0.027050 0.000000 -0.021553
# 5 -0.005135 0.001155 0.004034 0.000000 0.036222 0.000000
# 6 0.000000 0.000000 0.000000 -0.021553 0.000000 0.034880
#
#
# Mechanical properties :
#
#
# Convention : Reuss Voigt Hill
#
# Bulk Modulus (GPa) = 23.67646 61.07376 42.37511
# Shear Modulus (GPa) = 27.21372 54.98145 41.09758
#
# Velocity S-wave (km/s) = 3.26464 4.64034 4.01189
# Velocity P-wave (km/s) = 4.84593 7.25458 6.16896
#
# Compressibility (1/GPa) = 0.04223605
#
# Stress axis : x y z
#
# Youngs Moduli (GPa) = 139.04385 197.89516 22.41024
#
# Poissons Ratio (x) = 0.20667 0.04725
# Poissons Ratio (y) = 0.14521 0.09329
# Poissons Ratio (z) = 0.29318 0.82382
#
# Static dielectric constant tensor:
#      x y z
#    x 2.074150 0.000000 -0.054910 
#    y 0.000000 1.995230 0.000000 
#    z -0.054910 0.000000 2.096900 
# 
# From -- ./inp_files/48659.got.cif
#   From: 2010.05.17/outbox.cif.g08.bks.cpg/sg12_25_cif.got.tgz:48659.got - 2010.06.03 13:09:07.
