data_PCOD9216052
_publ_section_title
;
Structure prediction by ZEFSAII (Michael W. Deem and Ramdas Pophale) SiO2 
 PCOD9216052
Probable space group: C 2/M
;
_chemical_formula_sum "Si O2"
_cell_formula_units_Z 26
_cell_length_a 11.267058
_cell_length_b 18.222112
_cell_length_c 7.460377
_cell_angle_alpha 90.000000
_cell_angle_beta 45.268872
_cell_angle_gamma 90.000000
_cell_volume 1088.136802
_symmetry_space_group_name_H-M "C 2/M"
_symmetry_group_IT_number 12
_symmetry_cell_setting 'monoclinic'
loop_
_space_group_symop_operation_xyz
x,y,z
-x,y,-z
-x,-y,-z
x,-y,z
1/2+x,1/2+y,z
1/2-x,1/2+y,-z
1/2-x,1/2-y,-z
1/2+x,1/2-y,z
loop_
_atom_site_type_symbol
_atom_site_label
_atom_site_fract_x
_atom_site_fract_y
_atom_site_fract_z
Si Si1 0.958391 0.421475 0.831479
Si Si2 0.068131 0.891715 0.234174
Si Si3 0.554969 0.764143 0.733294
Si Si4 0.000000 0.000000 0.000000
O O1 0.019593 0.500000 0.692789
O O2 0.026787 0.345255 0.684970
O O3 0.759968 0.415880 0.016491
O O4 0.000000 0.422213 0.000000
O O5 0.000000 0.912351 0.500000
O O6 0.046964 0.804013 0.238879
O O7 0.972232 0.935395 0.182401
O O8 0.750000 0.750000 0.500000
O O9 0.500000 0.766491 0.000000
#
# Coordination Sequence:
#
# PCOD9216052 Si02
#       4
#     8   8   8   2
#     4  10  22  42  72 109 147 198 251 305 375 443
#     4  12  24  47  78 105 156 201 245 317 382 449
#     4  11  24  47  75 111 155 201 255 310 375 459
#     4  12  26  44  74 116 148 186 268 304 382 462
#
# _framework density 23.894051999999999
#
# number of rings (size 3 to 8) (size 9 to 14) (size 15 to 20)
#    0.000    0.923    3.077    5.077    0.000    0.000 
#    2.769    0.000    0.000   10.154    0.000    0.000 
#    0.000    0.000    0.000    0.000    0.000    0.000 
#
# Total GULP energy -72507.756067 kJ/mol
# GULP energy per Si atom -5577.519697 kJ/mol
# Density = 2.383967 g / cm^3
# Si number density = 23.894052 Si / 1000 Ang^3
#
#
#
# Elastic Constant Matrix: (Units=GPa)
#
#
# Indices 1 2 3 4 5 6 
#
# 1 34.8711 41.4529 24.0089 0.0000 27.2282 0.0000
# 2 41.4529 283.0783 37.2175 0.0000 -0.1946 0.0000
# 3 24.0089 37.2175 94.5212 0.0000 11.6755 0.0000
# 4 0.0000 0.0000 0.0000 -98.8985 0.0000 -39.9386
# 5 27.2282 -0.1946 11.6755 0.0000 59.3758 0.0000
# 6 0.0000 0.0000 0.0000 -39.9386 0.0000 32.6481
#
#
#
# Elastic Compliance Matrix: (Units=1/GPa)
#
#
# Indices 1 2 3 4 5 6 
#
# 1 0.069945 -0.008874 -0.010563 0.000000 -0.030027 0.000000
# 2 -0.008874 0.004857 -0.000167 0.000000 0.004118 0.000000
# 3 -0.010563 -0.000167 0.013047 0.000000 0.002278 0.000000
# 4 0.000000 0.000000 0.000000 -0.006768 0.000000 -0.008279
# 5 -0.030027 0.004118 0.002278 0.000000 0.030177 0.000000
# 6 0.000000 0.000000 0.000000 -0.008279 0.000000 0.020502
#
#
# Mechanical properties :
#
#
# Convention : Reuss Voigt Hill
#
# Bulk Modulus (GPa) = 20.55922 68.64769 44.60345
# Shear Modulus (GPa) = 26.71203 19.27782 22.99493
#
# Velocity S-wave (km/s) = 3.34718 2.84351 3.10557
# Velocity P-wave (km/s) = 4.85399 6.29072 5.61847
#
# Compressibility (1/GPa) = 0.04863999
#
# Stress axis : x y z
#
# Youngs Moduli (GPa) = 14.29699 205.89272 76.64538
#
# Poissons Ratio (x) = 1.82716 0.80961
# Poissons Ratio (y) = 0.12688 0.01280
# Poissons Ratio (z) = 0.15102 0.03438
#
# Static dielectric constant tensor:
#      x y z
#    x 1.932030 0.000000 -0.015360 
#    y 0.000000 1.990200 0.000000 
#    z -0.015360 0.000000 1.826200 
# 
# From -- ./inp_files/48247.got.cif
#   From: 2010.05.17/outbox.cif.g08.bks.cpg/sg12_25_cif.got.tgz:48247.got - 2010.06.03 13:09:07.
