data_PCOD9216717
_publ_section_title
;
Structure prediction by ZEFSAII (Michael W. Deem and Ramdas Pophale) SiO2 
 PCOD9216717
Probable space group: C 2/M
;
_chemical_formula_sum "Si O2"
_cell_formula_units_Z 56
_cell_length_a 30.121276
_cell_length_b 8.530730
_cell_length_c 12.179584
_cell_angle_alpha 90.000000
_cell_angle_beta 111.680937
_cell_angle_gamma 90.000000
_cell_volume 2908.219458
_symmetry_space_group_name_H-M "C 2/M"
_symmetry_group_IT_number 12
_symmetry_cell_setting 'monoclinic'
loop_
_space_group_symop_operation_xyz
x,y,z
-x,y,-z
-x,-y,-z
x,-y,z
1/2+x,1/2+y,z
1/2-x,1/2+y,-z
1/2-x,1/2-y,-z
1/2+x,1/2-y,z
loop_
_atom_site_type_symbol
_atom_site_label
_atom_site_fract_x
_atom_site_fract_y
_atom_site_fract_z
Si Si1 0.069368 0.309939 0.148144
Si Si2 0.887342 0.687188 0.219688
Si Si3 0.700278 0.314099 0.002898
Si Si4 0.160924 0.811420 0.614603
Si Si5 0.035717 0.309587 0.877226
Si Si6 0.770234 0.687021 0.744174
Si Si7 0.840181 0.812769 0.637669
O O1 0.073866 0.500000 0.156245
O O2 0.114193 0.234546 0.248459
O O3 0.019486 0.263465 0.160976
O O4 0.063049 0.264284 0.014550
O O5 0.888822 0.500000 0.225526
O O6 0.876302 0.749700 0.330525
O O7 0.935363 0.744654 0.202739
O O8 0.843411 0.738177 0.102104
O O9 0.698423 0.500000 0.986816
O O10 0.700955 0.268298 0.131263
O O11 0.750000 0.250000 0.000000
O O12 0.214856 0.762993 0.697103
O O13 0.152635 0.761663 0.481680
O O14 0.160008 0.000000 0.617023
O O15 0.035637 0.500000 0.876835
O O16 0.772432 0.500000 0.761331
O O17 0.794429 0.733046 0.651931
O O18 0.833513 0.000000 0.632856
#
# Coordination Sequence:
#
# PCOD9216717 Si02
#       7
#     8   8   8   8   8   8   8
#     4   9  17  36  62  84 111 144 181 230 283 338
#     4  11  21  35  58  86 115 149 190 234 282 335
#     4  12  23  36  55  83 117 150 184 228 277 329
#     4  10  23  40  55  75 112 155 193 233 277 336
#     4   8  17  34  59  88 112 140 181 228 282 340
#     4  11  22  38  59  81 108 149 195 235 280 334
#     4  11  23  38  56  82 113 146 189 238 286 337
#
# _framework density 19.255769000000001
#
# number of rings (size 3 to 8) (size 9 to 14) (size 15 to 20)
#    0.000    1.714    1.429    4.714    0.000    2.857 
#    0.000    4.286    0.000    4.286    0.000    0.000 
#    0.000    0.000    0.000    0.000    0.000    0.000 
#
# Total GULP energy -156453.230610 kJ/mol
# GULP energy per Si atom -5587.615379 kJ/mol
# Density = 1.921194 g / cm^3
# Si number density = 19.255769 Si / 1000 Ang^3
#
#
#
# Elastic Constant Matrix: (Units=GPa)
#
#
# Indices 1 2 3 4 5 6 
#
# 1 110.1096 4.5674 21.7044 0.0000 -34.8847 0.0000
# 2 4.5674 12.5343 3.6071 0.0000 -7.2355 0.0000
# 3 21.7044 3.6071 49.2603 0.0000 -23.3004 0.0000
# 4 0.0000 0.0000 0.0000 27.9661 0.0000 -5.6023
# 5 -34.8847 -7.2355 -23.3004 0.0000 34.2387 0.0000
# 6 0.0000 0.0000 0.0000 -5.6023 0.0000 21.8550
#
#
#
# Elastic Compliance Matrix: (Units=1/GPa)
#
#
# Indices 1 2 3 4 5 6 
#
# 1 0.013572 0.003575 0.000968 0.000000 0.015242 0.000000
# 2 0.003575 0.092238 0.003854 0.000000 0.025757 0.000000
# 3 0.000968 0.003854 0.030148 0.000000 0.022317 0.000000
# 4 0.000000 0.000000 0.000000 0.037693 0.000000 0.009662
# 5 0.015242 0.025757 0.022317 0.000000 0.065367 0.000000
# 6 0.000000 0.000000 0.000000 0.009662 0.000000 0.048233
#
#
# Mechanical properties :
#
#
# Convention : Reuss Voigt Hill
#
# Bulk Modulus (GPa) = 6.54664 25.74022 16.14343
# Shear Modulus (GPa) = 15.55819 26.28030 20.91924
#
# Velocity S-wave (km/s) = 2.84557 3.69833 3.29962
# Velocity P-wave (km/s) = 3.76877 5.62436 4.78733
#
# Compressibility (1/GPa) = 0.15275021
#
# Stress axis : x y z
#
# Youngs Moduli (GPa) = 73.68277 10.84151 33.17010
#
# Poissons Ratio (x) = -0.03875 -0.03211
# Poissons Ratio (y) = -0.26338 -0.12784
# Poissons Ratio (z) = -0.07132 -0.04178
#
# Static dielectric constant tensor:
#      x y z
#    x 1.672200 0.000000 -0.016780 
#    y 0.000000 1.654450 0.000000 
#    z -0.016780 0.000000 1.652140 
# 
# From -- ./inp_files/187723.got.cif
#   From: 2010.05.17/outbox.cif.g08.bks.cpg/sg12_94_cif.got.tgz:187723.got - 2010.06.03 13:09:07.
