data_PCOD9216566
_publ_section_title
;
Structure prediction by ZEFSAII (Michael W. Deem and Ramdas Pophale) SiO2 
 PCOD9216566
Probable space group: C 2/M
;
_chemical_formula_sum "Si O2"
_cell_formula_units_Z 44
_cell_length_a 13.743025
_cell_length_b 24.691139
_cell_length_c 11.455291
_cell_angle_alpha 90.000000
_cell_angle_beta 148.989685
_cell_angle_gamma 90.000000
_cell_volume 2002.622173
_symmetry_space_group_name_H-M "C 2/M"
_symmetry_group_IT_number 12
_symmetry_cell_setting 'monoclinic'
loop_
_space_group_symop_operation_xyz
x,y,z
-x,y,-z
-x,-y,-z
x,-y,z
1/2+x,1/2+y,z
1/2-x,1/2+y,-z
1/2-x,1/2-y,-z
1/2+x,1/2-y,z
loop_
_atom_site_type_symbol
_atom_site_label
_atom_site_fract_x
_atom_site_fract_y
_atom_site_fract_z
Si Si1 0.656760 0.690785 0.920534
Si Si2 0.749007 0.063213 0.839546
Si Si3 0.000000 0.221162 0.000000
Si Si4 0.126860 0.245482 0.515978
Si Si5 0.841576 0.937035 0.660096
Si Si6 0.020011 0.638075 0.302349
O O1 0.608444 0.687101 0.010204
O O2 0.459421 0.698038 0.651528
O O3 0.750000 0.750000 0.000000
O O4 0.822684 0.654086 0.035459
O O5 0.799952 0.068882 0.756107
O O6 0.578480 0.101026 0.700236
O O7 0.699949 0.000000 0.807407
O O8 0.934152 0.074908 0.110673
O O9 0.844616 0.257280 0.774957
O O10 0.098508 0.304975 0.430517
O O11 0.000000 0.245308 0.500000
O O12 0.695684 0.898410 0.442674
O O13 0.813815 0.000000 0.600652
#
# Coordination Sequence:
#
# PCOD9216566 Si02
#       6
#     8   8   4   8   8   8
#     4  10  23  38  52  82 105 138 187 219 264 323
#     4   9  18  29  42  67  98 134 177 213 253 310
#     4  12  22  38  60  70 107 150 171 230 276 300
#     4  11  22  38  54  78 107 141 183 222 262 322
#     4   9  18  29  44  66  97 137 176 212 257 310
#     4  11  20  30  49  70 104 134 179 219 255 307
#
# _framework density 21.971193
#
# number of rings (size 3 to 8) (size 9 to 14) (size 15 to 20)
#    0.000    1.818    3.636    3.818    2.545    1.455 
#    0.000    0.000    0.000    0.000    0.000    0.000 
#    0.000    2.909    0.000   59.636    0.000    5.818 
#
# Total GULP energy -122698.356753 kJ/mol
# GULP energy per Si atom -5577.198034 kJ/mol
# Density = 2.192119 g / cm^3
# Si number density = 21.971193 Si / 1000 Ang^3
#
#
#
# Elastic Constant Matrix: (Units=GPa)
#
#
# Indices 1 2 3 4 5 6 
#
# 1 50.0980 5.4315 13.0241 0.0000 13.9221 0.0000
# 2 5.4315 72.6468 54.6258 0.0000 15.7175 0.0000
# 3 13.0241 54.6258 171.9783 0.0000 34.1387 0.0000
# 4 0.0000 0.0000 0.0000 -45.8278 0.0000 -15.7046
# 5 13.9221 15.7175 34.1387 0.0000 30.1047 0.0000
# 6 0.0000 0.0000 0.0000 -15.7046 0.0000 10.0495
#
#
#
# Elastic Compliance Matrix: (Units=1/GPa)
#
#
# Indices 1 2 3 4 5 6 
#
# 1 0.022946 0.000454 0.000350 0.000000 -0.011246 0.000000
# 2 0.000454 0.018433 -0.005081 0.000000 -0.004072 0.000000
# 3 0.000350 -0.005081 0.008914 0.000000 -0.007618 0.000000
# 4 0.000000 0.000000 0.000000 -0.014211 0.000000 -0.022207
# 5 -0.011246 -0.004072 -0.007618 0.000000 0.049183 0.000000
# 6 0.000000 0.000000 0.000000 -0.022207 0.000000 0.064804
#
#
# Mechanical properties :
#
#
# Convention : Reuss Voigt Hill
#
# Bulk Modulus (GPa) = 23.95790 48.98729 36.47260
# Shear Modulus (GPa) = 28.97966 13.64140 21.31053
#
# Velocity S-wave (km/s) = 3.63572 2.49444 3.11775
# Velocity P-wave (km/s) = 5.34346 5.53542 5.44029
#
# Compressibility (1/GPa) = 0.04173988
#
# Stress axis : x y z
#
# Youngs Moduli (GPa) = 43.58110 54.25109 112.18001
#
# Poissons Ratio (x) = -0.02463 -0.03931
# Poissons Ratio (y) = -0.01979 0.56998
# Poissons Ratio (z) = -0.01527 0.27565
#
# Static dielectric constant tensor:
#      x y z
#    x 1.835780 0.000000 0.020490 
#    y 0.000000 1.876840 0.000000 
#    z 0.020490 0.000000 1.954700 
# 
# From -- ./inp_files/136867.got.cif
#   From: 2010.05.17/outbox.cif.g08.bks.cpg/sg12_69_cif.got.tgz:136867.got - 2010.06.03 13:09:07.
