data_PCOD9216122
_publ_section_title
;
Structure prediction by ZEFSAII (Michael W. Deem and Ramdas Pophale) SiO2 
 PCOD9216122
Probable space group: C 2/M
;
_chemical_formula_sum "Si O2"
_cell_formula_units_Z 36
_cell_length_a 13.874687
_cell_length_b 13.849962
_cell_length_c 14.020911
_cell_angle_alpha 90.000000
_cell_angle_beta 32.396189
_cell_angle_gamma 90.000000
_cell_volume 1443.533659
_symmetry_space_group_name_H-M "C 2/M"
_symmetry_group_IT_number 12
_symmetry_cell_setting 'monoclinic'
loop_
_space_group_symop_operation_xyz
x,y,z
-x,y,-z
-x,-y,-z
x,-y,z
1/2+x,1/2+y,z
1/2-x,1/2+y,-z
1/2-x,1/2-y,-z
1/2+x,1/2-y,z
loop_
_atom_site_type_symbol
_atom_site_label
_atom_site_fract_x
_atom_site_fract_y
_atom_site_fract_z
Si Si1 0.409967 0.500000 0.304617
Si Si2 0.139246 0.643233 0.470366
Si Si3 0.637006 0.268853 0.968825
Si Si4 0.405063 0.893433 0.847503
Si Si5 0.500429 0.344264 0.605490
O O1 0.465982 0.416509 0.337278
O O2 0.321264 0.584912 0.309255
O O3 0.051582 0.604072 0.641712
O O4 0.146577 0.757992 0.477629
O O5 0.000000 0.624940 0.500000
O O6 0.718598 0.362574 0.952698
O O7 0.813805 0.212942 0.780466
O O8 0.500000 0.288522 0.000000
O O9 0.558593 0.191927 0.109367
O O10 0.389920 0.000000 0.903841
O O11 0.500000 0.388491 0.500000
#
# Coordination Sequence:
#
# PCOD9216122 Si02
#       5
#     4   8   8   8   8
#     4  12  22  38  67  98 129 168 208 273 309 384
#     4  10  22  43  65  96 131 169 209 264 324 376
#     4  10  24  45  66  92 133 172 208 265 323 376
#     4  10  22  43  66  95 128 164 222 257 316 390
#     4  10  24  43  63  98 130 165 219 260 317 385
#
# _framework density 24.938801999999999
#
# number of rings (size 3 to 8) (size 9 to 14) (size 15 to 20)
#    0.000    1.778    1.111    1.333    4.667    0.889 
#   24.000    0.000    0.000    0.000    0.000    0.000 
#    0.000    0.000    0.000    0.000    0.000    0.000 
#
# Total GULP energy -100338.518387 kJ/mol
# GULP energy per Si atom -5574.362133 kJ/mol
# Density = 2.488204 g / cm^3
# Si number density = 24.938802 Si / 1000 Ang^3
#
#
#
# Elastic Constant Matrix: (Units=GPa)
#
#
# Indices 1 2 3 4 5 6 
#
# 1 105.9573 -20.5260 10.0196 0.0003 -13.6791 -0.0007
# 2 -20.5260 85.3244 -6.8490 0.0002 -13.6534 -0.0012
# 3 10.0196 -6.8490 89.9874 0.0002 2.0149 -0.0015
# 4 0.0003 0.0002 0.0002 -12.6881 -0.0004 0.7328
# 5 -13.6791 -13.6534 2.0149 -0.0004 39.0175 0.0009
# 6 -0.0007 -0.0012 -0.0015 0.7328 0.0009 121.8207
#
#
#
# Elastic Compliance Matrix: (Units=1/GPa)
#
#
# Indices 1 2 3 4 5 6 
#
# 1 0.010829 0.003322 -0.001065 0.000000 0.005014 0.000000
# 2 0.003322 0.013499 0.000526 0.000000 0.005861 0.000000
# 3 -0.001065 0.000526 0.011289 0.000000 -0.000772 0.000000
# 4 0.000000 0.000000 0.000000 -0.078787 -0.000001 0.000474
# 5 0.005014 0.005861 -0.000772 -0.000001 0.029478 0.000000
# 6 0.000000 0.000000 0.000000 0.000474 0.000000 0.008206
#
#
# Mechanical properties :
#
#
# Convention : Reuss Voigt Hill
#
# Bulk Modulus (GPa) = 24.28159 27.39535 25.83847
# Shear Modulus (GPa) = 1868.15694 49.53832 958.84763
#
# Velocity S-wave (km/s) = 27.39932 4.46173 19.62944
# Velocity P-wave (km/s) = 31.79184 6.12794 22.89403
#
# Compressibility (1/GPa) = 0.04118346
#
# Stress axis : x y z
#
# Youngs Moduli (GPa) = 92.34163 74.07798 88.58476
#
# Poissons Ratio (x) = -0.24609 0.09436
# Poissons Ratio (y) = -0.30676 -0.04662
# Poissons Ratio (z) = 0.09836 -0.03899
#
# Static dielectric constant tensor:
#      x y z
#    x 1.930740 0.000000 -0.020430 
#    y 0.000000 1.992790 0.000000 
#    z -0.020430 0.000000 2.164130 
# 
# From -- ./inp_files/86254.got.cif
#   From: 2010.05.17/outbox.cif.g08.bks.cpg/sg12_44_cif.got.tgz:86254.got - 2010.06.03 13:09:07.
