data_PCOD9216067
_publ_section_title
;
Structure prediction by ZEFSAII (Michael W. Deem and Ramdas Pophale) SiO2 
 PCOD9216067
Probable space group: C 2/M
;
_chemical_formula_sum "Si O2"
_cell_formula_units_Z 28
_cell_length_a 22.769330
_cell_length_b 8.806698
_cell_length_c 7.198429
_cell_angle_alpha 90.000000
_cell_angle_beta 48.971692
_cell_angle_gamma 90.000000
_cell_volume 1088.915869
_symmetry_space_group_name_H-M "C 2/M"
_symmetry_group_IT_number 12
_symmetry_cell_setting 'monoclinic'
loop_
_space_group_symop_operation_xyz
x,y,z
-x,y,-z
-x,-y,-z
x,-y,z
1/2+x,1/2+y,z
1/2-x,1/2+y,-z
1/2-x,1/2-y,-z
1/2+x,1/2-y,z
loop_
_atom_site_type_symbol
_atom_site_label
_atom_site_fract_x
_atom_site_fract_y
_atom_site_fract_z
Si Si1 0.609135 0.500000 0.691042
Si Si2 0.784432 0.500000 0.331560
Si Si3 0.122950 0.712921 0.120787
Si Si4 0.195646 0.000000 0.878140
Si Si5 0.054033 0.672482 0.653598
O O1 0.697321 0.500000 0.434260
O O2 0.621720 0.500000 0.886931
O O3 0.574937 0.334239 0.708364
O O4 0.768197 0.500000 0.586383
O O5 0.830730 0.637452 0.146469
O O6 0.109213 0.657693 0.358606
O O7 0.034228 0.705170 0.231075
O O8 0.177806 0.856947 0.037070
O O9 0.055987 0.500000 0.736125
#
# Coordination Sequence:
#
# PCOD9216067 Si02
#       5
#     4   4   8   4   8
#     4  10  26  42  60 102 136 158 207 263 341 357
#     4  10  22  43  61  94 130 167 208 263 312 387
#     4  11  20  43  69  88 126 167 226 254 303 385
#     4  10  24  40  64  93 131 171 208 257 322 384
#     4  11  22  43  69  97 121 170 216 268 309 373
#
# _framework density 25.713647000000002
#
# number of rings (size 3 to 8) (size 9 to 14) (size 15 to 20)
#    0.857    0.571    2.857    3.429    0.000    5.714 
#    5.143    1.429    0.000    0.000    0.000    0.000 
#    0.000    0.000    0.000    0.000    0.000    0.000 
#
# Total GULP energy -77947.093400 kJ/mol
# GULP energy per Si atom -5567.649529 kJ/mol
# Density = 2.565512 g / cm^3
# Si number density = 25.713647 Si / 1000 Ang^3
#
#
#
# Elastic Constant Matrix: (Units=GPa)
#
#
# Indices 1 2 3 4 5 6 
#
# 1 63.1971 12.3260 15.3790 0.0000 4.5699 0.0000
# 2 12.3260 100.6738 72.6285 0.0000 2.8557 0.0000
# 3 15.3790 72.6285 221.8755 0.0000 -1.7254 0.0000
# 4 0.0000 0.0000 0.0000 37.8154 0.0000 -5.1396
# 5 4.5699 2.8557 -1.7254 0.0000 28.2096 0.0000
# 6 0.0000 0.0000 0.0000 -5.1396 0.0000 25.9339
#
#
#
# Elastic Compliance Matrix: (Units=1/GPa)
#
#
# Indices 1 2 3 4 5 6 
#
# 1 0.016458 -0.001447 -0.000687 0.000000 -0.002562 0.000000
# 2 -0.001447 0.013202 -0.004232 0.000000 -0.001361 0.000000
# 3 -0.000687 -0.004232 0.005947 0.000000 0.000903 0.000000
# 4 0.000000 0.000000 0.000000 0.027176 0.000000 0.005386
# 5 -0.002562 -0.001361 0.000903 0.000000 0.036057 0.000000
# 6 0.000000 0.000000 0.000000 0.005386 0.000000 0.039627
#
#
# Mechanical properties :
#
#
# Convention : Reuss Voigt Hill
#
# Bulk Modulus (GPa) = 43.71466 65.15704 54.43585
# Shear Modulus (GPa) = 31.48156 37.41930 34.45043
#
# Velocity S-wave (km/s) = 3.50281 3.81889 3.66426
# Velocity P-wave (km/s) = 5.77902 6.69624 6.25447
#
# Compressibility (1/GPa) = 0.02287562
#
# Stress axis : x y z
#
# Youngs Moduli (GPa) = 60.76029 75.74794 168.15480
#
# Poissons Ratio (x) = 0.10958 0.11555
# Poissons Ratio (y) = 0.08790 0.71159
# Poissons Ratio (z) = 0.04175 0.32055
#
# Static dielectric constant tensor:
#      x y z
#    x 2.048150 0.000000 0.006570 
#    y 0.000000 1.287810 0.000000 
#    z 0.006570 0.000000 1.900960 
# 
# From -- ./inp_files/101457.got.cif
#   From: 2010.05.17/outbox.cif.g08.bks.cpg/sg12_51_cif.got.tgz:101457.got - 2010.06.03 13:09:07.
