data_PCOD9216009
_publ_section_title
;
Structure prediction by ZEFSAII (Michael W. Deem and Ramdas Pophale) SiO2 
 PCOD9216009
Probable space group: C 2/M
;
_chemical_formula_sum "Si O2"
_cell_formula_units_Z 48
_cell_length_a 14.806252
_cell_length_b 11.727755
_cell_length_c 21.153028
_cell_angle_alpha 90.000000
_cell_angle_beta 38.746067
_cell_angle_gamma 90.000000
_cell_volume 2298.881877
_symmetry_space_group_name_H-M "C 2/M"
_symmetry_group_IT_number 12
_symmetry_cell_setting 'monoclinic'
loop_
_space_group_symop_operation_xyz
x,y,z
-x,y,-z
-x,-y,-z
x,-y,z
1/2+x,1/2+y,z
1/2-x,1/2+y,-z
1/2-x,1/2-y,-z
1/2+x,1/2-y,z
loop_
_atom_site_type_symbol
_atom_site_label
_atom_site_fract_x
_atom_site_fract_y
_atom_site_fract_z
Si Si1 0.520013 0.500000 0.283492
Si Si2 0.894997 0.780602 0.682346
Si Si3 0.912872 0.634514 0.189746
Si Si4 0.000000 0.694174 0.500000
Si Si5 0.738015 0.000000 0.366232
Si Si6 0.904245 0.211060 0.989835
Si Si7 0.396552 0.134546 0.798391
Si Si8 0.479727 0.500000 0.859758
O O1 0.565909 0.389026 0.296489
O O2 0.348419 0.500000 0.364581
O O3 0.581917 0.500000 0.178013
O O4 0.729399 0.796575 0.751355
O O5 0.916168 0.671687 0.715717
O O6 0.991762 0.769081 0.567394
O O7 0.885161 0.500000 0.198932
O O8 0.041105 0.674054 0.073289
O O9 0.966859 0.658932 0.231372
O O10 0.137602 0.610530 0.422406
O O11 0.847341 0.000000 0.246953
O O12 0.934204 0.110434 0.923653
O O13 0.738743 0.204999 0.100619
O O14 0.000000 0.191298 0.000000
O O15 0.364181 0.000000 0.821456
#
# Coordination Sequence:
#
# PCOD9216009 Si02
#       8
#     4   8   8   4   4   8   8   4
#     4  10  25  46  71  96 138 186 216 278 347 419
#     4  12  25  48  70 102 136 182 231 282 352 406
#     4  11  25  47  64  99 145 182 224 283 341 408
#     4  11  26  43  76 102 134 173 231 302 340 408
#     4   9  24  47  68 104 131 178 225 286 348 393
#     4  12  22  39  69 101 135 187 231 277 335 405
#     4  11  26  44  68 101 137 184 232 284 335 401
#     4  10  22  42  69  98 140 174 227 279 335 399
#
# _framework density 20.879715999999998
#
# number of rings (size 3 to 8) (size 9 to 14) (size 15 to 20)
#    0.500    0.500    3.333    2.750    4.667    1.333 
#    1.500    0.000    0.000    0.000    0.000    0.000 
#    0.000    0.000    0.000    0.000    0.000    0.000 
#
# Total GULP energy -134246.510322 kJ/mol
# GULP energy per Si atom -5593.604597 kJ/mol
# Density = 2.083219 g / cm^3
# Si number density = 20.879716 Si / 1000 Ang^3
#
#
#
# Elastic Constant Matrix: (Units=GPa)
#
#
# Indices 1 2 3 4 5 6 
#
# 1 124.2818 35.7532 23.1202 0.0000 20.4512 0.0000
# 2 35.7532 45.1294 4.3948 0.0000 12.1433 0.0000
# 3 23.1202 4.3948 74.4455 -0.0001 31.0378 0.0000
# 4 0.0000 0.0000 -0.0001 9.5578 0.0000 7.7553
# 5 20.4512 12.1433 31.0378 0.0000 37.2697 0.0000
# 6 0.0000 0.0000 0.0000 7.7553 0.0000 24.0861
#
#
#
# Elastic Compliance Matrix: (Units=1/GPa)
#
#
# Indices 1 2 3 4 5 6 
#
# 1 0.011067 -0.008145 -0.002345 0.000000 -0.001466 0.000000
# 2 -0.008145 0.030685 0.004631 0.000000 -0.009385 0.000000
# 3 -0.002345 0.004631 0.021416 0.000000 -0.018057 0.000000
# 4 0.000000 0.000000 0.000000 0.141629 0.000000 -0.045602
# 5 -0.001466 -0.009385 -0.018057 0.000000 0.045732 0.000000
# 6 0.000000 0.000000 0.000000 -0.045602 0.000000 0.056201
#
#
# Mechanical properties :
#
#
# Convention : Reuss Voigt Hill
#
# Bulk Modulus (GPa) = 19.43606 41.15479 30.29542
# Shear Modulus (GPa) = 14.89885 26.22195 20.56040
#
# Velocity S-wave (km/s) = 2.67415 3.54765 3.14141
# Velocity P-wave (km/s) = 4.34322 6.04436 5.26298
#
# Compressibility (1/GPa) = 0.05145077
#
# Stress axis : x y z
#
# Youngs Moduli (GPa) = 90.36075 32.58883 46.69456
#
# Poissons Ratio (x) = 0.26542 0.10949
# Poissons Ratio (y) = 0.73595 -0.21624
# Poissons Ratio (z) = 0.21188 -0.15091
#
# Static dielectric constant tensor:
#      x y z
#    x 1.751540 0.000000 -0.002030 
#    y 0.000000 1.729560 0.000000 
#    z -0.002030 0.000000 1.723960 
# 
# From -- ./inp_files/310250.got.cif
#   From: 2010.05.17/outbox.cif.g08.bks.cpg/sg12_156_cif.got.tgz:310250.got - 2010.06.03 13:09:07.
