data_PCOD9216795
_publ_section_title
;
Structure prediction by ZEFSAII (Michael W. Deem and Ramdas Pophale) SiO2 
 PCOD9216795
Probable space group: C 2/M
;
_chemical_formula_sum "Si O2"
_cell_formula_units_Z 48
_cell_length_a 18.869548
_cell_length_b 17.743325
_cell_length_c 18.375143
_cell_angle_alpha 90.000000
_cell_angle_beta 157.787718
_cell_angle_gamma 90.000000
_cell_volume 2325.755861
_symmetry_space_group_name_H-M "C 2/M"
_symmetry_group_IT_number 12
_symmetry_cell_setting 'monoclinic'
loop_
_space_group_symop_operation_xyz
x,y,z
-x,y,-z
-x,-y,-z
x,-y,z
1/2+x,1/2+y,z
1/2-x,1/2+y,-z
1/2-x,1/2-y,-z
1/2+x,1/2-y,z
loop_
_atom_site_type_symbol
_atom_site_label
_atom_site_fract_x
_atom_site_fract_y
_atom_site_fract_z
Si Si1 0.549040 0.788601 0.799345
Si Si2 0.510291 0.500000 0.922600
Si Si3 0.185826 0.622524 0.815515
Si Si4 0.569844 0.414980 0.649413
Si Si5 0.221280 0.732628 0.196408
Si Si6 0.804887 0.206204 0.441817
Si Si7 0.079859 0.500000 0.495631
O O1 0.623044 0.866757 0.838780
O O2 0.409310 0.790989 0.734161
O O3 0.426914 0.752801 0.616701
O O4 0.750000 0.750000 0.000000
O O5 0.299995 0.500000 0.695496
O O6 0.500000 0.500000 0.000000
O O7 0.627611 0.572905 0.011443
O O8 0.221708 0.697193 0.800843
O O9 0.012515 0.575408 0.621387
O O10 0.500000 0.422080 0.500000
O O11 0.623797 0.500000 0.724758
O O12 0.720912 0.346561 0.787500
O O13 0.397027 0.377139 0.528757
O O14 0.311813 0.734370 0.364324
O O15 0.000000 0.735045 0.000000
O O16 0.000000 0.500000 0.500000
#
# Coordination Sequence:
#
# PCOD9216795 Si02
#       7
#     8   4   8   8   8   8   4
#     4  11  24  42  65  92 131 170 221 270 318 391
#     4  11  23  40  59  99 134 167 209 267 326 385
#     4  11  24  41  66  95 134 169 220 271 327 398
#     4   9  19  39  63  94 129 159 209 270 326 385
#     4  11  22  37  70 102 126 163 219 272 333 391
#     4  10  23  40  63  96 127 170 214 264 327 389
#     4  11  25  40  65  97 136 171 211 276 336 389
#
# _framework density 20.638452999999998
#
# number of rings (size 3 to 8) (size 9 to 14) (size 15 to 20)
#    0.000    1.500    3.333    1.500    2.333    3.000 
#    3.000    0.000    3.667    0.000    0.000    0.000 
#    0.000    0.000    0.000    0.000    0.000    0.000 
#
# Total GULP energy -133760.019175 kJ/mol
# GULP energy per Si atom -5573.334132 kJ/mol
# Density = 2.059148 g / cm^3
# Si number density = 20.638453 Si / 1000 Ang^3
#
#
#
# Elastic Constant Matrix: (Units=GPa)
#
#
# Indices 1 2 3 4 5 6 
#
# 1 95.6286 29.2522 36.3069 -0.0243 41.0127 -0.0958
# 2 29.2522 127.4437 45.3919 -0.0700 27.6480 -0.2554
# 3 36.3069 45.3919 135.4397 -0.0312 40.1366 -0.1751
# 4 -0.0243 -0.0700 -0.0312 13.3297 -0.0011 -33.3481
# 5 41.0127 27.6480 40.1366 -0.0011 39.9022 -0.0126
# 6 -0.0958 -0.2554 -0.1751 -33.3481 -0.0126 -110.6658
#
#
#
# Elastic Compliance Matrix: (Units=1/GPa)
#
#
# Indices 1 2 3 4 5 6 
#
# 1 0.018801 -0.000313 0.001036 -0.000002 -0.020150 -0.000014
# 2 -0.000313 0.009526 -0.001778 -0.000001 -0.004490 -0.000018
# 3 0.001036 -0.001778 0.010902 -0.000008 -0.010799 -0.000010
# 4 -0.000002 -0.000001 -0.000008 0.042774 0.000008 -0.012889
# 5 -0.020150 -0.004490 -0.010799 0.000008 0.059745 0.000036
# 6 -0.000014 -0.000018 -0.000010 -0.012889 0.000036 -0.005152
#
#
# Mechanical properties :
#
#
# Convention : Reuss Voigt Hill
#
# Bulk Modulus (GPa) = 26.94069 64.49045 45.71557
# Shear Modulus (GPa) = 33.09547 5.01729 19.05638
#
# Velocity S-wave (km/s) = 4.00882 1.56087 3.04195
# Velocity P-wave (km/s) = 5.87448 5.87911 5.87680
#
# Compressibility (1/GPa) = 0.03711857
#
# Stress axis : x y z
#
# Youngs Moduli (GPa) = 53.18812 104.97793 91.72987
#
# Poissons Ratio (x) = 0.03288 -0.09505
# Poissons Ratio (y) = 0.01666 0.16310
# Poissons Ratio (z) = -0.05511 0.18665
#
# Static dielectric constant tensor:
#      x y z
#    x 1.792390 0.000010 -0.021850 
#    y 0.000010 1.743690 0.000000 
#    z -0.021850 0.000000 1.740470 
# 
# From -- ./inp_files/322600.got.cif
#   From: 2010.05.17/outbox.cif.g08.bks.cpg/sg12_162_cif.got.tgz:322600.got - 2010.06.03 13:09:07.
