data_PCOD9216705
_publ_section_title
;
Structure prediction by ZEFSAII (Michael W. Deem and Ramdas Pophale) SiO2 
 PCOD9216705
Probable space group: C 2/M
;
_chemical_formula_sum "Si O2"
_cell_formula_units_Z 58
_cell_length_a 12.118656
_cell_length_b 16.448268
_cell_length_c 25.724024
_cell_angle_alpha 90.000000
_cell_angle_beta 32.492984
_cell_angle_gamma 90.000000
_cell_volume 2754.524082
_symmetry_space_group_name_H-M "C 2/M"
_symmetry_group_IT_number 12
_symmetry_cell_setting 'monoclinic'
loop_
_space_group_symop_operation_xyz
x,y,z
-x,y,-z
-x,-y,-z
x,-y,z
1/2+x,1/2+y,z
1/2-x,1/2+y,-z
1/2-x,1/2-y,-z
1/2+x,1/2-y,z
loop_
_atom_site_type_symbol
_atom_site_label
_atom_site_fract_x
_atom_site_fract_y
_atom_site_fract_z
Si Si1 0.546933 0.401934 0.607074
Si Si2 0.000000 0.000000 0.000000
Si Si3 0.923145 0.403555 0.390161
Si Si4 0.472004 0.321213 0.747246
Si Si5 0.504292 0.187324 0.943066
Si Si6 0.817531 0.141240 0.006645
Si Si7 0.887153 0.902622 0.205331
Si Si8 0.697049 0.320035 0.388206
O O1 0.532970 0.500000 0.609727
O O2 0.771763 0.375324 0.496140
O O3 0.516693 0.370955 0.677141
O O4 0.386085 0.361367 0.631082
O O5 0.151448 0.072124 0.963306
O O6 0.940410 0.500000 0.388992
O O7 0.809677 0.383856 0.381500
O O8 0.153367 0.369769 0.299408
O O9 0.237940 0.291223 0.837611
O O10 0.500726 0.375804 0.786920
O O11 0.637208 0.249632 0.686792
O O12 0.363775 0.267633 0.007682
O O13 0.500000 0.141458 0.000000
O O14 0.398747 0.140668 0.937388
O O15 0.989202 0.126246 0.894033
O O16 0.880137 0.000000 0.204666
O O17 0.500000 0.290217 0.500000
#
# Coordination Sequence:
#
# PCOD9216705 Si02
#       8
#     8   2   8   8   8   8   8   8
#     4  10  23  44  64  93 133 174 222 270 326 397
#     4  12  24  48  74 112 124 166 230 290 318 392
#     4   9  20  40  66  92 129 175 213 264 336 389
#     4  12  26  40  65  96 131 170 224 269 323 396
#     4  11  24  46  67  94 133 183 210 269 346 410
#     4  11  24  45  71  97 135 168 223 278 334 396
#     4  11  23  41  64  94 131 173 213 265 330 394
#     4  10  23  39  66  96 131 170 220 279 326 380
#
# _framework density 21.056270000000001
#
# number of rings (size 3 to 8) (size 9 to 14) (size 15 to 20)
#    0.000    1.379    2.759    1.655    5.793    2.759 
#    4.966    3.103    0.000    0.000    0.000    0.000 
#    0.000    0.000    0.000    0.000    0.000    0.000 
#
# Total GULP energy -161817.265344 kJ/mol
# GULP energy per Si atom -5579.905702 kJ/mol
# Density = 2.100834 g / cm^3
# Si number density = 21.056270 Si / 1000 Ang^3
#
#
#
# Elastic Constant Matrix: (Units=GPa)
#
#
# Indices 1 2 3 4 5 6 
#
# 1 63.3199 12.8013 11.0587 0.0005 -27.8773 -0.0024
# 2 12.8013 39.3564 12.7958 0.0000 -8.4944 -0.0002
# 3 11.0587 12.7958 79.3418 -0.0030 -30.8725 0.0015
# 4 0.0005 0.0000 -0.0030 22.9633 0.0017 -2.2895
# 5 -27.8773 -8.4944 -30.8725 0.0017 36.1685 0.0011
# 6 -0.0024 -0.0002 0.0015 -2.2895 0.0011 35.9512
#
#
#
# Elastic Compliance Matrix: (Units=1/GPa)
#
#
# Indices 1 2 3 4 5 6 
#
# 1 0.026877 -0.005544 0.007040 -0.000001 0.025423 0.000001
# 2 -0.005544 0.028331 -0.004297 0.000000 -0.001287 0.000000
# 3 0.007040 -0.004297 0.021013 0.000001 0.022354 -0.000001
# 4 -0.000001 0.000000 0.000001 0.043826 -0.000003 0.002791
# 5 0.025423 -0.001287 0.022354 -0.000003 0.066021 -0.000001
# 6 0.000001 0.000000 -0.000001 0.002791 -0.000001 0.027993
#
#
# Mechanical properties :
#
#
# Convention : Reuss Voigt Hill
#
# Bulk Modulus (GPa) = 14.16037 28.36996 21.26517
# Shear Modulus (GPa) = 20.55886 28.70743 24.63314
#
# Velocity S-wave (km/s) = 3.12809 3.69639 3.42405
# Velocity P-wave (km/s) = 4.44817 5.63208 5.07477
#
# Compressibility (1/GPa) = 0.07061962
#
# Stress axis : x y z
#
# Youngs Moduli (GPa) = 37.20688 35.29650 47.58856
#
# Poissons Ratio (x) = 0.19568 -0.33503
# Poissons Ratio (y) = 0.20627 0.20450
# Poissons Ratio (z) = -0.26195 0.15168
#
# Static dielectric constant tensor:
#      x y z
#    x 1.862950 0.000000 0.102400 
#    y 0.000000 1.743470 0.000000 
#    z 0.102400 0.000000 1.875140 
# 
# From -- ./inp_files/358798.got.cif
#   From: 2010.05.17/outbox.cif.g08.bks.cpg/sg12_180_cif.got.tgz:358798.got - 2010.06.03 13:09:07.
