data_PCOD9216471
_publ_section_title
;
Structure prediction by ZEFSAII (Michael W. Deem and Ramdas Pophale) SiO2 
 PCOD9216471
Probable space group: C 2/M
;
_chemical_formula_sum "Si O2"
_cell_formula_units_Z 44
_cell_length_a 10.856986
_cell_length_b 17.035888
_cell_length_c 12.881676
_cell_angle_alpha 90.000000
_cell_angle_beta 113.170679
_cell_angle_gamma 90.000000
_cell_volume 2190.388138
_symmetry_space_group_name_H-M "C 2/M"
_symmetry_group_IT_number 12
_symmetry_cell_setting 'monoclinic'
loop_
_space_group_symop_operation_xyz
x,y,z
-x,y,-z
-x,-y,-z
x,-y,z
1/2+x,1/2+y,z
1/2-x,1/2+y,-z
1/2-x,1/2-y,-z
1/2+x,1/2-y,z
loop_
_atom_site_type_symbol
_atom_site_label
_atom_site_fract_x
_atom_site_fract_y
_atom_site_fract_z
Si Si1 0.439134 0.500000 0.861976
Si Si2 0.369709 0.317003 0.535969
Si Si3 0.160965 0.000000 0.536990
Si Si4 0.287588 0.869404 0.934781
Si Si5 0.371021 0.000000 0.797995
Si Si6 0.312213 0.000000 0.110298
Si Si7 0.999460 0.835733 0.797458
Si Si8 0.000000 0.247798 0.000000
O O1 0.279100 0.500000 0.819435
O O2 0.485739 0.427464 0.810951
O O3 0.500000 0.500000 0.000000
O O4 0.500000 0.305263 0.500000
O O5 0.250000 0.250000 0.500000
O O6 0.320037 0.409463 0.503871
O O7 0.430942 0.309942 0.670930
O O8 0.000000 0.000000 0.500000
O O9 0.261038 0.000000 0.669965
O O10 0.158383 0.825642 0.849246
O O11 0.388793 0.804675 0.006580
O O12 0.347207 0.924499 0.863964
O O13 0.266867 0.926172 0.025386
O O14 0.528221 0.000000 0.819683
O O15 0.943424 0.800396 0.885583
#
# Coordination Sequence:
#
# PCOD9216471 Si02
#       8
#     4   8   4   8   4   4   8   4
#     4  12  21  44  62  98 133 174 225 272 348 423
#     4  11  27  51  75 106 141 192 254 306 353 421
#     4  10  22  46  73 100 129 189 252 288 353 423
#     4  11  20  38  59  96 136 175 222 268 343 428
#     4  11  21  37  69  94 129 181 222 292 337 416
#     4  11  20  37  62  94 142 174 215 281 343 418
#     4  12  25  41  71  94 135 182 225 287 343 424
#     4  12  24  36  60 104 142 170 216 272 364 418
#
# _framework density 20.087762999999999
#
# number of rings (size 3 to 8) (size 9 to 14) (size 15 to 20)
#    0.000    0.727    4.545    4.364    5.091    0.000 
#    3.273    0.455    0.000    0.000    0.000    0.000 
#    0.000    0.000    0.000    0.000    0.000    0.000 
#
# Total GULP energy -122559.636812 kJ/mol
# GULP energy per Si atom -5570.892582 kJ/mol
# Density = 2.004204 g / cm^3
# Si number density = 20.087763 Si / 1000 Ang^3
#
#
#
# Elastic Constant Matrix: (Units=GPa)
#
#
# Indices 1 2 3 4 5 6 
#
# 1 76.0611 23.7930 22.2511 0.0000 12.8425 0.0000
# 2 23.7930 117.8808 33.3795 0.0000 2.4117 0.0000
# 3 22.2511 33.3795 120.1176 0.0000 9.7844 0.0000
# 4 0.0000 0.0000 0.0000 -11.9305 0.0000 0.5990
# 5 12.8425 2.4117 9.7844 0.0000 32.5807 0.0000
# 6 0.0000 0.0000 0.0000 0.5990 0.0000 11.2064
#
#
#
# Elastic Compliance Matrix: (Units=1/GPa)
#
#
# Indices 1 2 3 4 5 6 
#
# 1 0.015332 -0.002501 -0.001710 0.000000 -0.005345 0.000000
# 2 -0.002501 0.009616 -0.002287 0.000000 0.000961 0.000000
# 3 -0.001710 -0.002287 0.009440 0.000000 -0.001992 0.000000
# 4 0.000000 0.000000 0.000000 -0.083594 0.000000 0.004468
# 5 -0.005345 0.000961 -0.001992 0.000000 0.033327 0.000000
# 6 0.000000 0.000000 0.000000 0.004468 0.000000 0.088996
#
#
# Mechanical properties :
#
#
# Convention : Reuss Voigt Hill
#
# Bulk Modulus (GPa) = 46.74677 52.54520 49.64599
# Shear Modulus (GPa) = 53.62313 22.01371 37.81842
#
# Velocity S-wave (km/s) = 5.17227 3.31399 4.34367
# Velocity P-wave (km/s) = 7.68060 6.39203 7.06575
#
# Compressibility (1/GPa) = 0.02139185
#
# Stress axis : x y z
#
# Youngs Moduli (GPa) = 65.22137 103.99384 105.93552
#
# Poissons Ratio (x) = 0.26011 0.18113
# Poissons Ratio (y) = 0.16313 0.24229
# Poissons Ratio (z) = 0.11152 0.23785
#
# Static dielectric constant tensor:
#      x y z
#    x 1.831170 0.000000 -0.074940 
#    y 0.000000 1.826860 0.000000 
#    z -0.074940 0.000000 1.848260 
# 
# From -- ./inp_files/131899.got.cif
#   From: 2010.05.17/outbox.cif.g08.bks.cpg/sg12_66_cif.got.tgz:131899.got - 2010.06.03 13:09:07.
