data_PCOD9216586
_publ_section_title
;
Structure prediction by ZEFSAII (Michael W. Deem and Ramdas Pophale) SiO2 
 PCOD9216586
Probable space group: C 2/M
;
_chemical_formula_sum "Si O2"
_cell_formula_units_Z 58
_cell_length_a 13.079133
_cell_length_b 29.186307
_cell_length_c 19.977189
_cell_angle_alpha 90.000000
_cell_angle_beta 155.884958
_cell_angle_gamma 90.000000
_cell_volume 3115.724550
_symmetry_space_group_name_H-M "C 2/M"
_symmetry_group_IT_number 12
_symmetry_cell_setting 'monoclinic'
loop_
_space_group_symop_operation_xyz
x,y,z
-x,y,-z
-x,-y,-z
x,-y,z
1/2+x,1/2+y,z
1/2-x,1/2+y,-z
1/2-x,1/2-y,-z
1/2+x,1/2-y,z
loop_
_atom_site_type_symbol
_atom_site_label
_atom_site_fract_x
_atom_site_fract_y
_atom_site_fract_z
Si Si1 0.367715 0.949850 0.663694
Si Si2 0.057282 0.221289 0.428912
Si Si3 0.000000 0.500000 0.000000
Si Si4 0.993265 0.345082 0.707226
Si Si5 0.269746 0.303668 0.994236
Si Si6 0.640577 0.842238 0.150775
Si Si7 0.803880 0.061746 0.287205
Si Si8 0.651573 0.184948 0.653680
O O1 0.484628 0.899871 0.716096
O O2 0.318109 0.949418 0.713850
O O3 0.095435 0.950681 0.465786
O O4 0.490240 0.000000 0.721119
O O5 0.250000 0.250000 0.500000
O O6 0.229773 0.181711 0.565102
O O7 0.841998 0.197214 0.257341
O O8 0.911197 0.260558 0.381803
O O9 0.148470 0.538828 0.134627
O O10 0.192994 0.318635 0.873332
O O11 0.059540 0.336344 0.668962
O O12 0.065095 0.327298 0.918756
O O13 0.250000 0.250000 0.000000
O O14 0.551787 0.319823 0.176611
O O15 0.789680 0.884341 0.269489
O O16 0.500000 0.855003 0.000000
O O17 0.500000 0.165430 0.500000
#
# Coordination Sequence:
#
# PCOD9216586 Si02
#       8
#     8   8   2   8   8   8   8   8
#     4  11  21  39  64  92 123 168 210 257 322 393
#     4  10  23  38  59  87 131 170 208 251 314 379
#     4  12  20  38  56  92 132 170 196 256 322 386
#     4  11  24  41  65  93 128 166 218 266 316 384
#     4  12  25  39  62  90 127 170 215 264 313 372
#     4  12  25  36  59  96 132 164 209 262 316 375
#     4  11  21  36  58  92 132 164 201 256 322 386
#     4  11  25  42  63  87 124 173 217 263 319 380
#
# _framework density 18.615252999999999
#
# number of rings (size 3 to 8) (size 9 to 14) (size 15 to 20)
#    0.000    0.828    6.207    1.655    7.724    0.000 
#    0.000    0.000    0.000    2.069    0.000    0.000 
#    0.000    0.000    0.000    0.000    0.000    0.000 
#
# Total GULP energy -161466.444750 kJ/mol
# GULP energy per Si atom -5567.808440 kJ/mol
# Density = 1.857288 g / cm^3
# Si number density = 18.615253 Si / 1000 Ang^3
#
#
#
# Elastic Constant Matrix: (Units=GPa)
#
#
# Indices 1 2 3 4 5 6 
#
# 1 52.1332 27.3482 37.5181 -0.0035 -12.8329 0.0003
# 2 27.3482 132.8301 26.7727 -0.0042 -6.2875 0.0010
# 3 37.5181 26.7727 129.7610 -0.0135 -15.4223 0.0043
# 4 -0.0035 -0.0042 -0.0135 32.2458 -0.0038 -9.1300
# 5 -12.8329 -6.2875 -15.4223 -0.0038 34.1606 0.0003
# 6 0.0003 0.0010 0.0043 -9.1300 0.0003 21.1496
#
#
#
# Elastic Compliance Matrix: (Units=1/GPa)
#
#
# Indices 1 2 3 4 5 6 
#
# 1 0.027523 -0.004075 -0.006316 0.000001 0.006738 0.000001
# 2 -0.004075 0.008477 -0.000599 0.000000 -0.000241 0.000000
# 3 -0.006316 -0.000599 0.009892 0.000004 0.001983 0.000000
# 4 0.000001 0.000000 0.000004 0.035330 0.000006 0.015252
# 5 0.006738 -0.000241 0.001983 0.000006 0.032655 0.000002
# 6 0.000001 0.000000 0.000000 0.015252 0.000002 0.053866
#
#
# Mechanical properties :
#
#
# Convention : Reuss Voigt Hill
#
# Bulk Modulus (GPa) = 41.82159 55.33360 48.57759
# Shear Modulus (GPa) = 25.29143 32.38355 28.83749
#
# Velocity S-wave (km/s) = 3.68997 4.17541 3.94017
# Velocity P-wave (km/s) = 6.37727 7.28250 6.84486
#
# Compressibility (1/GPa) = 0.02391109
#
# Stress axis : x y z
#
# Youngs Moduli (GPa) = 36.33275 117.96952 101.09100
#
# Poissons Ratio (x) = 0.48069 0.63853
# Poissons Ratio (y) = 0.14805 0.06060
# Poissons Ratio (z) = 0.22949 0.07072
#
# Static dielectric constant tensor:
#      x y z
#    x 1.621110 0.000030 0.021960 
#    y 0.000030 1.705300 -0.000040 
#    z 0.021960 -0.000040 1.639280 
# 
# From -- ./inp_files/312879.got.cif
#   From: 2010.05.17/outbox.cif.g08.bks.cpg/sg12_157_cif.got.tgz:312879.got - 2010.06.03 13:09:07.
