data_PCOD9216484
_publ_section_title
;
Structure prediction by ZEFSAII (Michael W. Deem and Ramdas Pophale) SiO2 
 PCOD9216484
Probable space group: C 2/M
;
_chemical_formula_sum "Si O2"
_cell_formula_units_Z 36
_cell_length_a 17.087284
_cell_length_b 11.946173
_cell_length_c 11.235823
_cell_angle_alpha 90.000000
_cell_angle_beta 138.764296
_cell_angle_gamma 90.000000
_cell_volume 1511.807120
_symmetry_space_group_name_H-M "C 2/M"
_symmetry_group_IT_number 12
_symmetry_cell_setting 'monoclinic'
loop_
_space_group_symop_operation_xyz
x,y,z
-x,y,-z
-x,-y,-z
x,-y,z
1/2+x,1/2+y,z
1/2-x,1/2+y,-z
1/2-x,1/2-y,-z
1/2+x,1/2-y,z
loop_
_atom_site_type_symbol
_atom_site_label
_atom_site_fract_x
_atom_site_fract_y
_atom_site_fract_z
Si Si1 0.410120 0.806921 0.500424
Si Si2 0.616335 0.738821 0.292128
Si Si3 0.232170 0.625731 0.236156
Si Si4 0.992145 0.000000 0.158734
Si Si5 0.264328 0.500000 0.047404
Si Si6 0.748583 0.000000 0.762617
O O1 0.500000 0.837997 0.500000
O O2 0.456307 0.805020 0.688112
O O3 0.356220 0.685443 0.407420
O O4 0.302150 0.893312 0.361634
O O5 0.750000 0.750000 0.500000
O O6 0.630928 0.799606 0.182086
O O7 0.566692 0.613748 0.237080
O O8 0.227249 0.500000 0.282513
O O9 0.230164 0.604634 0.092326
O O10 0.110738 0.000000 0.059583
O O11 0.905391 0.000000 0.177085
O O12 0.205368 0.500000 0.850938
#
# Coordination Sequence:
#
# PCOD9216484 Si02
#       6
#     8   8   8   4   4   4
#     4  11  23  41  74 104 137 184 241 299 348 416
#     4  10  23  39  71 105 142 180 237 296 346 425
#     4   9  21  41  66 103 140 184 227 297 344 422
#     4  10  22  47  73 107 133 195 237 287 350 428
#     4   8  20  43  72  93 136 183 234 283 338 422
#     4  10  25  44  71 102 143 179 240 298 350 415
#
# _framework density 23.812560999999999
#
# number of rings (size 3 to 8) (size 9 to 14) (size 15 to 20)
#    1.333    0.889    0.000    1.667    7.778    4.000 
#    0.000    8.889    4.889    4.000    0.000    0.000 
#    0.000    0.000    0.000    0.000    0.000    0.000 
#
# Total GULP energy -100420.447351 kJ/mol
# GULP energy per Si atom -5578.913742 kJ/mol
# Density = 2.375836 g / cm^3
# Si number density = 23.812561 Si / 1000 Ang^3
#
#
#
# Elastic Constant Matrix: (Units=GPa)
#
#
# Indices 1 2 3 4 5 6 
#
# 1 169.1500 70.5002 57.4360 0.0000 -20.6360 0.0000
# 2 70.5002 168.5199 59.6007 0.0000 3.8909 0.0000
# 3 57.4360 59.6007 72.5863 0.0000 -3.9950 0.0000
# 4 0.0000 0.0000 0.0000 267.7850 0.0000 146.2194
# 5 -20.6360 3.8909 -3.9950 0.0000 55.0124 0.0000
# 6 0.0000 0.0000 0.0000 146.2194 0.0000 148.8757
#
#
#
# Elastic Compliance Matrix: (Units=1/GPa)
#
#
# Indices 1 2 3 4 5 6 
#
# 1 0.008882 -0.001918 -0.005283 0.000000 0.003084 0.000000
# 2 -0.001918 0.008843 -0.005840 0.000000 -0.001769 0.000000
# 3 -0.005283 -0.005840 0.022757 0.000000 0.000084 0.000000
# 4 0.000000 0.000000 0.000000 0.008053 0.000000 -0.007909
# 5 0.003084 -0.001769 0.000084 0.000000 0.019466 0.000000
# 6 0.000000 0.000000 0.000000 -0.007909 0.000000 0.014485
#
#
# Mechanical properties :
#
#
# Convention : Reuss Voigt Hill
#
# Bulk Modulus (GPa) = 69.45238 87.25888 78.35563
# Shear Modulus (GPa) = 44.10394 109.18257 76.64326
#
# Velocity S-wave (km/s) = 4.30831 6.77867 5.67943
# Velocity P-wave (km/s) = 7.34699 9.89903 8.71691
#
# Compressibility (1/GPa) = 0.01439835
#
# Stress axis : x y z
#
# Youngs Moduli (GPa) = 112.59356 113.08377 43.94230
#
# Poissons Ratio (x) = 0.21694 0.23214
# Poissons Ratio (y) = 0.21600 0.25664
# Poissons Ratio (z) = 0.59482 0.66045
#
# Static dielectric constant tensor:
#      x y z
#    x 2.065140 0.000000 -0.037580 
#    y 0.000000 1.906390 0.000000 
#    z -0.037580 0.000000 1.925310 
# 
# From -- ./inp_files/153971.got.cif
#   From: 2010.05.17/outbox.cif.g08.bks.cpg/sg12_77_cif.got.tgz:153971.got - 2010.06.03 13:09:07.
