data_PCOD9216674
_publ_section_title
;
Structure prediction by ZEFSAII (Michael W. Deem and Ramdas Pophale) SiO2 
 PCOD9216674
Probable space group: C 2/M
;
_chemical_formula_sum "Si O2"
_cell_formula_units_Z 64
_cell_length_a 24.371126
_cell_length_b 22.540728
_cell_length_c 8.687270
_cell_angle_alpha 90.000000
_cell_angle_beta 135.649679
_cell_angle_gamma 90.000000
_cell_volume 3336.038913
_symmetry_space_group_name_H-M "C 2/M"
_symmetry_group_IT_number 12
_symmetry_cell_setting 'monoclinic'
loop_
_space_group_symop_operation_xyz
x,y,z
-x,y,-z
-x,-y,-z
x,-y,z
1/2+x,1/2+y,z
1/2-x,1/2+y,-z
1/2-x,1/2-y,-z
1/2+x,1/2-y,z
loop_
_atom_site_type_symbol
_atom_site_label
_atom_site_fract_x
_atom_site_fract_y
_atom_site_fract_z
Si Si1 0.554872 0.219304 0.302895
Si Si2 0.126712 0.719132 0.994339
Si Si3 0.777959 0.930546 0.393826
Si Si4 0.412728 0.864270 0.351569
Si Si5 0.192431 0.834343 0.119054
Si Si6 0.241272 0.431723 0.957252
Si Si7 0.324545 0.156960 0.625469
Si Si8 0.589910 0.344756 0.219441
O O1 0.461730 0.230453 0.123955
O O2 0.577121 0.191944 0.513520
O O3 0.586543 0.166785 0.253983
O O4 0.590292 0.281647 0.312429
O O5 0.118488 0.662942 0.869615
O O6 0.164349 0.774335 0.982013
O O7 0.182321 0.703693 0.249159
O O8 0.710567 0.902671 0.370353
O O9 0.856918 0.892496 0.583329
O O10 0.789332 0.000000 0.451788
O O11 0.754199 0.925701 0.166745
O O12 0.500000 0.889340 0.500000
O O13 0.346764 0.911149 0.265709
O O14 0.201349 0.888299 0.020933
O O15 0.273647 0.827581 0.374287
O O16 0.131548 0.841164 0.136740
O O17 0.253886 0.500000 0.941008
O O18 0.500000 0.360580 0.000000
#
# Coordination Sequence:
#
# PCOD9216674 Si02
#       8
#     8   8   8   8   8   8   8   8
#     4  11  21  38  60  95 127 156 191 247 314 371
#     4  11  21  37  59  92 130 154 196 249 310 377
#     4  10  25  42  62  87 118 163 212 257 297 351
#     4  10  23  39  62  92 123 168 204 245 307 366
#     4  11  23  35  61  96 118 161 200 247 312 364
#     4  11  24  45  62  84 123 164 216 261 294 348
#     4  11  20  36  64  87 124 154 197 247 309 369
#     4  11  22  41  65  93 127 158 195 248 316 373
#
# _framework density 19.184428
#
# number of rings (size 3 to 8) (size 9 to 14) (size 15 to 20)
#    0.000    1.250    5.000    0.750    3.500    3.000 
#    0.000    0.625    0.000    3.000    0.000    0.000 
#    0.000    0.000    0.000    0.000    0.000    0.000 
#
# Total GULP energy -178310.008187 kJ/mol
# GULP energy per Si atom -5572.187756 kJ/mol
# Density = 1.914076 g / cm^3
# Si number density = 19.184428 Si / 1000 Ang^3
#
#
#
# Elastic Constant Matrix: (Units=GPa)
#
#
# Indices 1 2 3 4 5 6 
#
# 1 63.3294 24.3119 5.3491 0.0000 14.1584 0.0000
# 2 24.3119 87.7260 27.8930 0.0000 17.2104 0.0000
# 3 5.3491 27.8930 67.9426 0.0000 10.6970 0.0000
# 4 0.0000 0.0000 0.0000 24.5146 0.0000 -6.7324
# 5 14.1584 17.2104 10.6970 0.0000 20.5890 0.0000
# 6 0.0000 0.0000 0.0000 -6.7324 0.0000 26.8239
#
#
#
# Elastic Compliance Matrix: (Units=1/GPa)
#
#
# Indices 1 2 3 4 5 6 
#
# 1 0.019610 -0.003797 0.001784 0.000000 -0.011238 0.000000
# 2 -0.003797 0.015532 -0.004840 0.000000 -0.007857 0.000000
# 3 0.001784 -0.004840 0.017557 0.000000 -0.006303 0.000000
# 4 0.000000 0.000000 0.000000 0.043812 0.000000 0.010996
# 5 -0.011238 -0.007857 -0.006303 0.000000 0.066140 0.000000
# 6 0.000000 0.000000 0.000000 0.010996 0.000000 0.040040
#
#
# Mechanical properties :
#
#
# Convention : Reuss Voigt Hill
#
# Bulk Modulus (GPa) = 25.64586 37.12288 31.38437
# Shear Modulus (GPa) = 21.79643 25.14844 23.47243
#
# Velocity S-wave (km/s) = 3.37434 3.62453 3.50167
# Velocity P-wave (km/s) = 5.34590 6.07527 5.72222
#
# Compressibility (1/GPa) = 0.03899265
#
# Stress axis : x y z
#
# Youngs Moduli (GPa) = 50.99450 64.38337 56.95631
#
# Poissons Ratio (x) = 0.24448 -0.10163
# Poissons Ratio (y) = 0.19364 0.27569
# Poissons Ratio (z) = -0.09099 0.31165
#
# Static dielectric constant tensor:
#      x y z
#    x 1.713110 0.000000 -0.006540 
#    y 0.000000 1.669250 0.000000 
#    z -0.006540 0.000000 1.716370 
# 
# From -- ./inp_files/99135.got.cif
#   From: 2010.05.17/outbox.cif.g08.bks.cpg/sg12_50_cif.got.tgz:99135.got - 2010.06.03 13:09:07.
