data_PCOD9216723
_publ_section_title
;
Structure prediction by ZEFSAII (Michael W. Deem and Ramdas Pophale) SiO2 
 PCOD9216723
Probable space group: C 2/M
;
_chemical_formula_sum "Si O2"
_cell_formula_units_Z 48
_cell_length_a 8.668320
_cell_length_b 23.511645
_cell_length_c 15.119973
_cell_angle_alpha 90.000000
_cell_angle_beta 48.597177
_cell_angle_gamma 90.000000
_cell_volume 2311.403015
_symmetry_space_group_name_H-M "C 2/M"
_symmetry_group_IT_number 12
_symmetry_cell_setting 'monoclinic'
loop_
_space_group_symop_operation_xyz
x,y,z
-x,y,-z
-x,-y,-z
x,-y,z
1/2+x,1/2+y,z
1/2-x,1/2+y,-z
1/2-x,1/2-y,-z
1/2+x,1/2-y,z
loop_
_atom_site_type_symbol
_atom_site_label
_atom_site_fract_x
_atom_site_fract_y
_atom_site_fract_z
Si Si1 0.184046 0.566104 0.055506
Si Si2 0.691352 0.875780 0.748921
Si Si3 0.635862 0.617358 0.641137
Si Si4 0.291470 0.000000 0.526156
Si Si5 0.136283 0.066224 0.815317
Si Si6 0.232817 0.808390 0.450119
Si Si7 0.721832 0.500000 0.367481
O O1 0.119222 0.500000 0.064938
O O2 0.255675 0.571134 0.130968
O O3 0.002587 0.611586 0.114853
O O4 0.390970 0.575421 0.921490
O O5 0.650579 0.831880 0.682530
O O6 0.902986 0.859774 0.718733
O O7 0.736353 0.939767 0.694411
O O8 0.651892 0.553268 0.601701
O O9 0.706841 0.611310 0.715081
O O10 0.769172 0.648463 0.516882
O O11 0.500000 0.000000 0.500000
O O12 0.367799 0.000000 0.397041
O O13 0.157058 0.000000 0.780247
O O14 0.250000 0.750000 0.500000
O O15 0.000000 0.811617 0.500000
O O16 0.500000 0.500000 0.500000
#
# Coordination Sequence:
#
# PCOD9216723 Si02
#       7
#     8   8   8   4   8   8   4
#     4   9  19  33  50  77 110 150 179 211 263 314
#     4  11  20  33  56  77 107 145 175 215 270 324
#     4  11  21  35  52  79 110 140 177 222 264 320
#     4  12  24  30  47  82 113 141 178 216 262 327
#     4   9  19  33  49  76 116 144 178 219 254 314
#     4  10  23  40  56  78 107 139 180 227 275 321
#     4  12  18  34  49  74 115 141 168 214 270 327
#
# _framework density 20.766607
#
# number of rings (size 3 to 8) (size 9 to 14) (size 15 to 20)
#    0.000    1.667    5.000    1.500    2.333    2.667 
#    0.000    1.667    0.000    1.000    0.000    0.000 
#    0.000    0.000    0.000    0.000    0.000    0.000 
#
# Total GULP energy -133647.786702 kJ/mol
# GULP energy per Si atom -5568.657779 kJ/mol
# Density = 2.071934 g / cm^3
# Si number density = 20.766607 Si / 1000 Ang^3
#
#
#
# Elastic Constant Matrix: (Units=GPa)
#
#
# Indices 1 2 3 4 5 6 
#
# 1 49.1833 -7.9441 10.3116 0.0000 6.8331 0.0000
# 2 -7.9441 55.6365 -0.8383 0.0000 8.8593 0.0000
# 3 10.3116 -0.8383 52.7090 0.0000 -10.3713 0.0000
# 4 0.0000 0.0000 0.0000 6.8482 0.0000 4.4729
# 5 6.8331 8.8593 -10.3713 0.0000 38.7336 0.0000
# 6 0.0000 0.0000 0.0000 4.4729 0.0000 20.8681
#
#
#
# Elastic Compliance Matrix: (Units=1/GPa)
#
#
# Indices 1 2 3 4 5 6 
#
# 1 0.023146 0.004269 -0.005759 0.000000 -0.006602 0.000000
# 2 0.004269 0.019457 -0.001636 0.000000 -0.005642 0.000000
# 3 -0.005759 -0.001636 0.021478 0.000000 0.007141 0.000000
# 4 0.000000 0.000000 0.000000 0.169793 0.000000 -0.036394
# 5 -0.006602 -0.005642 0.007141 0.000000 0.030185 0.000000
# 6 0.000000 0.000000 0.000000 -0.036394 0.000000 0.055721
#
#
# Mechanical properties :
#
#
# Convention : Reuss Voigt Hill
#
# Bulk Modulus (GPa) = 17.29208 17.84304 17.56756
# Shear Modulus (GPa) = 14.47981 23.68995 19.08488
#
# Velocity S-wave (km/s) = 2.64344 3.38119 3.03482
# Velocity P-wave (km/s) = 4.20262 4.88407 4.55610
#
# Compressibility (1/GPa) = 0.05782994
#
# Stress axis : x y z
#
# Youngs Moduli (GPa) = 43.20327 51.39509 46.55945
#
# Poissons Ratio (x) = -0.21943 0.26815
# Poissons Ratio (y) = -0.18445 0.07616
# Poissons Ratio (z) = 0.24882 0.08408
#
# Static dielectric constant tensor:
#      x y z
#    x 1.879620 0.000000 -0.010100 
#    y 0.000000 1.619170 0.000000 
#    z -0.010100 0.000000 1.815710 
# 
# From -- ./inp_files/258823.got.cif
#   From: 2010.05.17/outbox.cif.g08.bks.cpg/sg12_130_cif.got.tgz:258823.got - 2010.06.03 13:09:07.
