data_PCOD9216472
_publ_section_title
;
Structure prediction by ZEFSAII (Michael W. Deem and Ramdas Pophale) SiO2 
 PCOD9216472
Probable space group: C 2/M
;
_chemical_formula_sum "Si O2"
_cell_formula_units_Z 34
_cell_length_a 14.921495
_cell_length_b 8.655379
_cell_length_c 19.872338
_cell_angle_alpha 90.000000
_cell_angle_beta 45.254298
_cell_angle_gamma 90.000000
_cell_volume 1822.852004
_symmetry_space_group_name_H-M "C 2/M"
_symmetry_group_IT_number 12
_symmetry_cell_setting 'monoclinic'
loop_
_space_group_symop_operation_xyz
x,y,z
-x,y,-z
-x,-y,-z
x,-y,z
1/2+x,1/2+y,z
1/2-x,1/2+y,-z
1/2-x,1/2-y,-z
1/2+x,1/2-y,z
loop_
_atom_site_type_symbol
_atom_site_label
_atom_site_fract_x
_atom_site_fract_y
_atom_site_fract_z
Si Si1 0.764635 0.671428 0.564729
Si Si2 0.401020 0.182037 0.232846
Si Si3 0.500000 0.000000 0.500000
Si Si4 0.825372 0.817730 0.896372
Si Si5 0.863951 0.181946 0.106332
O O1 0.702588 0.500000 0.595320
O O2 0.750000 0.750000 0.500000
O O3 0.694737 0.771235 0.657996
O O4 0.906988 0.632522 0.513782
O O5 0.541422 0.232868 0.179360
O O6 0.369908 0.273550 0.180992
O O7 0.397890 0.000000 0.221194
O O8 0.739924 0.781414 0.877172
O O9 0.844573 0.000000 0.895662
O O10 0.750000 0.750000 0.000000
O O11 0.835755 0.000000 0.113221
O O12 0.000000 0.210821 0.000000
#
# Coordination Sequence:
#
# PCOD9216472 Si02
#       5
#     8   8   2   8   8
#     4  10  22  46  73 102 138 177 229 290 358 422
#     4  12  25  42  67 100 136 177 226 280 337 413
#     4   8  24  44  78 102 138 184 214 308 356 414
#     4  12  24  40  63  94 132 181 230 277 338 403
#     4  11  23  40  63  91 135 183 225 281 335 395
#
# _framework density 18.652090000000001
#
# number of rings (size 3 to 8) (size 9 to 14) (size 15 to 20)
#    0.706    0.235    2.353    5.647    0.000    2.824 
#    0.000    4.706    0.000    0.000    0.000    0.000 
#    0.000    0.000    0.000    0.000    0.000    0.000 
#
# Total GULP energy -94692.140980 kJ/mol
# GULP energy per Si atom -5570.125940 kJ/mol
# Density = 1.860964 g / cm^3
# Si number density = 18.652090 Si / 1000 Ang^3
#
#
#
# Elastic Constant Matrix: (Units=GPa)
#
#
# Indices 1 2 3 4 5 6 
#
# 1 105.7182 -1.2377 38.6260 0.0000 -1.2021 0.0000
# 2 -1.2377 57.1434 3.1260 0.0000 -5.1831 0.0000
# 3 38.6260 3.1260 87.3444 0.0000 17.1965 0.0000
# 4 0.0000 0.0000 0.0000 28.0096 0.0000 1.2897
# 5 -1.2021 -5.1831 17.1965 0.0000 23.4967 0.0000
# 6 0.0000 0.0000 0.0000 1.2897 0.0000 39.4224
#
#
#
# Elastic Compliance Matrix: (Units=1/GPa)
#
#
# Indices 1 2 3 4 5 6 
#
# 1 0.011862 0.001106 -0.006371 0.000000 0.005513 0.000000
# 2 0.001106 0.018167 -0.002266 0.000000 0.005722 0.000000
# 3 -0.006371 -0.002266 0.016953 0.000000 -0.013233 0.000000
# 4 0.000000 0.000000 0.000000 0.035756 0.000000 -0.001170
# 5 0.005513 0.005722 -0.013233 0.000000 0.053788 0.000000
# 6 0.000000 0.000000 0.000000 -0.001170 0.000000 0.025405
#
#
# Mechanical properties :
#
#
# Convention : Reuss Voigt Hill
#
# Bulk Modulus (GPa) = 31.32852 36.80384 34.06618
# Shear Modulus (GPa) = 26.64777 32.16518 29.40647
#
# Velocity S-wave (km/s) = 3.78388 4.15719 3.97492
# Velocity P-wave (km/s) = 5.99358 6.54351 6.27458
#
# Compressibility (1/GPa) = 0.03191980
#
# Stress axis : x y z
#
# Youngs Moduli (GPa) = 84.29929 55.04570 58.98740
#
# Poissons Ratio (x) = -0.06086 0.37581
# Poissons Ratio (y) = -0.09320 0.13365
# Poissons Ratio (z) = 0.53707 0.12471
#
# Static dielectric constant tensor:
#      x y z
#    x 1.634370 0.000000 0.005490 
#    y 0.000000 1.635530 0.000000 
#    z 0.005490 0.000000 1.632780 
# 
# From -- ./inp_files/266898.got.cif
#   From: 2010.05.17/outbox.cif.g08.bks.cpg/sg12_134_cif.got.tgz:266898.got - 2010.06.03 13:09:07.
