data_PCOD9216636
_publ_section_title
;
Structure prediction by ZEFSAII (Michael W. Deem and Ramdas Pophale) SiO2 
 PCOD9216636
Probable space group: C 2/M
;
_chemical_formula_sum "Si O2"
_cell_formula_units_Z 56
_cell_length_a 8.789590
_cell_length_b 23.208677
_cell_length_c 13.211839
_cell_angle_alpha 90.000000
_cell_angle_beta 98.618008
_cell_angle_gamma 90.000000
_cell_volume 2664.715870
_symmetry_space_group_name_H-M "C 2/M"
_symmetry_group_IT_number 12
_symmetry_cell_setting 'monoclinic'
loop_
_space_group_symop_operation_xyz
x,y,z
-x,y,-z
-x,-y,-z
x,-y,z
1/2+x,1/2+y,z
1/2-x,1/2+y,-z
1/2-x,1/2-y,-z
1/2+x,1/2-y,z
loop_
_atom_site_type_symbol
_atom_site_label
_atom_site_fract_x
_atom_site_fract_y
_atom_site_fract_z
Si Si1 0.400837 0.647138 0.387089
Si Si2 0.246577 0.259331 0.877945
Si Si3 0.398617 0.936416 0.200659
Si Si4 0.854004 0.275917 0.422567
Si Si5 0.647748 0.352279 0.250798
Si Si6 0.461664 0.169997 0.878919
Si Si7 0.386702 0.934736 0.583191
O O1 0.500000 0.640149 0.500000
O O2 0.392708 0.716501 0.368677
O O3 0.499708 0.627364 0.299477
O O4 0.243477 0.612320 0.397759
O O5 0.368277 0.305227 0.841843
O O6 0.296552 0.197263 0.840478
O O7 0.087028 0.290005 0.835189
O O8 0.250000 0.250000 0.000000
O O9 0.238987 0.905123 0.210297
O O10 0.501891 0.894878 0.142689
O O11 0.495553 0.938523 0.312712
O O12 0.376724 0.000000 0.156909
O O13 0.750000 0.250000 0.500000
O O14 0.760587 0.320654 0.344691
O O15 0.000000 0.298916 0.500000
O O16 0.500000 0.177303 0.000000
O O17 0.500000 0.922709 0.500000
O O18 0.319033 0.000000 0.560864
#
# Coordination Sequence:
#
# PCOD9216636 Si02
#       7
#     8   8   8   8   8   8   8
#     4  11  23  36  55  85 115 151 197 239 292 349
#     4   9  20  36  55  86 118 149 190 234 292 358
#     4  10  23  39  57  82 112 153 200 240 285 344
#     4  11  23  36  52  84 121 150 189 237 296 359
#     4  11  23  36  59  85 116 162 189 242 305 343
#     4   9  19  36  59  85 116 148 184 238 294 349
#     4  10  23  40  59  80 111 157 198 241 290 343
#
# _framework density 21.015374000000001
#
# number of rings (size 3 to 8) (size 9 to 14) (size 15 to 20)
#    0.000    1.857    2.857    0.857    8.000    1.143 
#    0.000    0.000    0.000    0.000    0.000    0.000 
#    0.000   20.000    0.000    0.000    0.000    0.000 
#
# Total GULP energy -156046.176100 kJ/mol
# GULP energy per Si atom -5573.077718 kJ/mol
# Density = 2.096754 g / cm^3
# Si number density = 21.015374 Si / 1000 Ang^3
#
#
#
# Elastic Constant Matrix: (Units=GPa)
#
#
# Indices 1 2 3 4 5 6 
#
# 1 61.5023 41.5513 26.0801 0.0000 -22.3115 0.0000
# 2 41.5513 151.0658 13.0321 0.0000 -19.2803 0.0000
# 3 26.0801 13.0321 67.4710 0.0000 -21.0839 0.0000
# 4 0.0000 0.0000 0.0000 39.3202 0.0000 -32.4125
# 5 -22.3115 -19.2803 -21.0839 0.0000 31.5243 0.0000
# 6 0.0000 0.0000 0.0000 -32.4125 0.0000 73.0123
#
#
#
# Elastic Compliance Matrix: (Units=1/GPa)
#
#
# Indices 1 2 3 4 5 6 
#
# 1 0.026456 -0.005295 -0.005517 0.000000 0.011796 0.000000
# 2 -0.005295 0.008240 0.001086 0.000000 0.002018 0.000000
# 3 -0.005517 0.001086 0.019888 0.000000 0.010060 0.000000
# 4 0.000000 0.000000 0.000000 0.040110 0.000000 0.017806
# 5 0.011796 0.002018 0.010060 0.000000 0.048033 0.000000
# 6 0.000000 0.000000 0.000000 0.017806 0.000000 0.021601
#
#
# Mechanical properties :
#
#
# Convention : Reuss Voigt Hill
#
# Bulk Modulus (GPa) = 28.46568 49.04066 38.75317
# Shear Modulus (GPa) = 25.57652 42.06306 33.81979
#
# Velocity S-wave (km/s) = 3.49239 4.47871 4.01595
# Velocity P-wave (km/s) = 5.46232 7.08035 6.32330
#
# Compressibility (1/GPa) = 0.03513003
#
# Stress axis : x y z
#
# Youngs Moduli (GPa) = 37.79869 121.35866 50.28180
#
# Poissons Ratio (x) = 0.64264 0.27743
# Poissons Ratio (y) = 0.20016 -0.05460
# Poissons Ratio (z) = 0.20855 -0.13179
#
# Static dielectric constant tensor:
#      x y z
#    x 1.863780 0.000000 -0.049530 
#    y 0.000000 1.857320 0.000000 
#    z -0.049530 0.000000 1.831950 
# 
# From -- ./inp_files/197553.got.cif
#   From: 2010.05.17/outbox.cif.g08.bks.cpg/sg12_99_cif.got.tgz:197553.got - 2010.06.03 13:09:07.
