data_PCOD9216861
_publ_section_title
;
Structure prediction by ZEFSAII (Michael W. Deem and Ramdas Pophale) SiO2 
 PCOD9216861
Probable space group: C 2/M
;
_chemical_formula_sum "Si O2"
_cell_formula_units_Z 48
_cell_length_a 11.421717
_cell_length_b 20.560770
_cell_length_c 15.703744
_cell_angle_alpha 90.000000
_cell_angle_beta 38.167930
_cell_angle_gamma 90.000000
_cell_volume 2278.978711
_symmetry_space_group_name_H-M "C 2/M"
_symmetry_group_IT_number 12
_symmetry_cell_setting 'monoclinic'
loop_
_space_group_symop_operation_xyz
x,y,z
-x,y,-z
-x,-y,-z
x,-y,z
1/2+x,1/2+y,z
1/2-x,1/2+y,-z
1/2-x,1/2-y,-z
1/2+x,1/2-y,z
loop_
_atom_site_type_symbol
_atom_site_label
_atom_site_fract_x
_atom_site_fract_y
_atom_site_fract_z
Si Si1 0.214749 0.273421 0.236238
Si Si2 0.626122 0.688590 0.541106
Si Si3 0.635257 0.829056 0.986962
Si Si4 0.440988 0.635971 0.235536
Si Si5 0.323994 0.000000 0.864359
Si Si6 0.096844 0.000000 0.818134
Si Si7 0.029310 0.362295 0.746624
O O1 0.307953 0.233211 0.104135
O O2 0.349197 0.310546 0.225376
O O3 0.090752 0.328896 0.260435
O O4 0.075552 0.222428 0.363120
O O5 0.750000 0.750000 0.500000
O O6 0.599156 0.648845 0.643239
O O7 0.751560 0.646490 0.404643
O O8 0.832408 0.859950 0.902165
O O9 0.500000 0.868946 0.000000
O O10 0.517805 0.821897 0.140695
O O11 0.366116 0.565967 0.252681
O O12 0.231046 0.000000 0.823618
O O13 0.451093 0.064675 0.803854
O O14 0.128946 0.000000 0.030478
#
# Coordination Sequence:
#
# PCOD9216861 Si02
#       7
#     8   8   8   8   4   4   8
#     4  10  23  40  67  94 137 176 227 287 353 410
#     4   9  23  42  62  95 140 180 217 281 349 415
#     4  11  26  39  65 100 133 182 231 289 346 406
#     4  11  23  45  66 103 138 185 230 286 349 418
#     4  11  22  39  69 105 134 180 229 300 338 410
#     4  11  22  41  69 103 144 176 231 292 344 411
#     4  11  22  43  62 101 137 177 230 278 359 403
#
# _framework density 21.062065
#
# number of rings (size 3 to 8) (size 9 to 14) (size 15 to 20)
#    0.000    1.500    3.333    0.500    9.333    3.333 
#    3.000    2.500    0.000    0.000    0.000    3.500 
#    0.000    0.000    0.000    0.000    0.000    0.000 
#
# Total GULP energy -134005.439224 kJ/mol
# GULP energy per Si atom -5583.559968 kJ/mol
# Density = 2.101413 g / cm^3
# Si number density = 21.062065 Si / 1000 Ang^3
#
#
#
# Elastic Constant Matrix: (Units=GPa)
#
#
# Indices 1 2 3 4 5 6 
#
# 1 116.0142 36.3910 33.3781 0.0017 -5.0265 -0.0007
# 2 36.3910 136.8011 49.0604 0.0027 -2.9266 0.0000
# 3 33.3781 49.0604 132.9180 0.0010 2.7286 0.0010
# 4 0.0017 0.0027 0.0010 21.5521 -0.0001 -5.5016
# 5 -5.0265 -2.9266 2.7286 -0.0001 26.9216 0.0004
# 6 -0.0007 0.0000 0.0010 -5.5016 0.0004 16.4409
#
#
#
# Elastic Compliance Matrix: (Units=1/GPa)
#
#
# Indices 1 2 3 4 5 6 
#
# 1 0.009819 -0.001931 -0.001790 0.000000 0.001805 0.000000
# 2 -0.001931 0.008846 -0.002798 -0.000001 0.000885 0.000000
# 3 -0.001790 -0.002798 0.009038 0.000000 -0.001554 -0.000001
# 4 0.000000 -0.000001 0.000000 0.050733 0.000000 0.016977
# 5 0.001805 0.000885 -0.001554 0.000000 0.037736 -0.000001
# 6 0.000000 0.000000 -0.000001 0.016977 -0.000001 0.066505
#
#
# Mechanical properties :
#
#
# Convention : Reuss Voigt Hill
#
# Bulk Modulus (GPa) = 68.19695 69.26583 68.73139
# Shear Modulus (GPa) = 24.92491 30.77650 27.85071
#
# Velocity S-wave (km/s) = 3.44379 3.82675 3.64031
# Velocity P-wave (km/s) = 6.94711 7.24453 7.09738
#
# Compressibility (1/GPa) = 0.01466341
#
# Stress axis : x y z
#
# Youngs Moduli (GPa) = 101.84756 113.04390 110.64835
#
# Poissons Ratio (x) = 0.21833 0.19804
# Poissons Ratio (y) = 0.19671 0.30962
# Poissons Ratio (z) = 0.18229 0.31633
#
# Static dielectric constant tensor:
#      x y z
#    x 1.764310 -0.000010 0.102470 
#    y -0.000010 1.685400 0.000050 
#    z 0.102470 0.000050 1.109880 
# 
# From -- ./inp_files/207968.got.cif
#   From: 2010.05.17/outbox.cif.g08.bks.cpg/sg12_104_cif.got.tgz:207968.got - 2010.06.03 13:09:07.
