data_PCOD9216115
_publ_section_title
;
Structure prediction by ZEFSAII (Michael W. Deem and Ramdas Pophale) SiO2 
 PCOD9216115
Probable space group: C 2/M
;
_chemical_formula_sum "Si O2"
_cell_formula_units_Z 64
_cell_length_a 14.715206
_cell_length_b 15.940714
_cell_length_c 14.015986
_cell_angle_alpha 90.000000
_cell_angle_beta 115.950462
_cell_angle_gamma 90.000000
_cell_volume 2956.248221
_symmetry_space_group_name_H-M "C 2/M"
_symmetry_group_IT_number 12
_symmetry_cell_setting 'monoclinic'
loop_
_space_group_symop_operation_xyz
x,y,z
-x,y,-z
-x,-y,-z
x,-y,z
1/2+x,1/2+y,z
1/2-x,1/2+y,-z
1/2-x,1/2-y,-z
1/2+x,1/2-y,z
loop_
_atom_site_type_symbol
_atom_site_label
_atom_site_fract_x
_atom_site_fract_y
_atom_site_fract_z
Si Si1 0.758157 0.161421 0.451386
Si Si2 0.553920 0.601370 0.837248
Si Si3 0.914851 0.649849 0.889113
Si Si4 0.700326 0.404030 0.730868
Si Si5 0.040599 0.600352 0.297345
Si Si6 0.177601 0.601262 0.741432
Si Si7 0.659523 0.598575 0.329169
Si Si8 0.184471 0.198158 0.046781
O O1 0.750000 0.250000 0.500000
O O2 0.795029 0.155403 0.359293
O O3 0.646055 0.121312 0.396537
O O4 0.833162 0.111996 0.555295
O O5 0.554357 0.500000 0.847286
O O6 0.620206 0.621348 0.773848
O O7 0.441017 0.633685 0.765440
O O8 0.605968 0.641729 0.952367
O O9 0.810973 0.598332 0.830274
O O10 0.960338 0.648958 0.803840
O O11 0.876529 0.737930 0.913898
O O12 0.000000 0.616202 0.000000
O O13 0.680314 0.500000 0.690541
O O14 0.038806 0.500000 0.277282
O O15 0.940281 0.623483 0.309283
O O16 0.182357 0.500000 0.751671
O O17 0.238452 0.628770 0.675281
O O18 0.238617 0.642598 0.856216
O O19 0.654776 0.500000 0.309445
O O20 0.250000 0.250000 0.000000
#
# Coordination Sequence:
#
# PCOD9216115 Si02
#       8
#     8   8   8   8   8   8   8   8
#     4  11  24  40  66  98 132 168 210 274 336 393
#     4  10  23  42  65  93 129 177 225 267 318 391
#     4  11  23  37  61  97 130 172 212 267 336 389
#     4  10  22  43  65  93 132 171 222 275 323 388
#     4  10  23  45  68  95 129 172 227 278 324 383
#     4  10  24  44  67  92 128 175 226 271 318 397
#     4  10  23  43  67  91 122 174 224 268 323 386
#     4  12  24  39  61  95 137 171 209 267 334 390
#
# _framework density 21.649062000000001
#
# number of rings (size 3 to 8) (size 9 to 14) (size 15 to 20)
#    0.000    1.500    1.250    3.375    5.250    3.000 
#    0.000    6.875    0.000    0.000    0.000    0.000 
#    0.000    0.000    0.000    0.000    0.000    0.000 
#
# Total GULP energy -178887.591596 kJ/mol
# GULP energy per Si atom -5590.237237 kJ/mol
# Density = 2.159979 g / cm^3
# Si number density = 21.649062 Si / 1000 Ang^3
#
#
#
# Elastic Constant Matrix: (Units=GPa)
#
#
# Indices 1 2 3 4 5 6 
#
# 1 66.1985 43.9753 -6.9002 0.0000 -2.3524 0.0000
# 2 43.9753 54.0179 27.4758 0.0000 -14.6664 0.0000
# 3 -6.9002 27.4758 78.8271 0.0000 0.9159 0.0000
# 4 0.0000 0.0000 0.0000 273.2971 0.0000 301.4515
# 5 -2.3524 -14.6664 0.9159 0.0000 22.7300 0.0000
# 6 0.0000 0.0000 0.0000 301.4515 0.0000 432.9425
#
#
#
# Elastic Compliance Matrix: (Units=1/GPa)
#
#
# Indices 1 2 3 4 5 6 
#
# 1 0.141342 -0.183574 0.077602 0.000000 -0.106949 0.000000
# 2 -0.183574 0.267364 -0.111097 0.000000 0.157993 0.000000
# 3 0.077602 -0.111097 0.058970 0.000000 -0.066030 0.000000
# 4 0.000000 0.000000 0.000000 0.015773 0.000000 -0.010982
# 5 -0.106949 0.157993 -0.066030 0.000000 0.137531 0.000000
# 6 0.000000 0.000000 0.000000 -0.010982 0.000000 0.009957
#
#
# Mechanical properties :
#
#
# Convention : Reuss Voigt Hill
#
# Bulk Modulus (GPa) = 29.81861 36.46058 33.13960
# Shear Modulus (GPa) = 4.64574 154.76010 79.70292
#
# Velocity S-wave (km/s) = 1.46649 8.46410 6.07419
# Velocity P-wave (km/s) = 4.08301 10.60187 8.03338
#
# Compressibility (1/GPa) = 0.03353610
#
# Stress axis : x y z
#
# Youngs Moduli (GPa) = 7.07505 3.74022 16.95779
#
# Poissons Ratio (x) = 0.68661 -1.31595
# Poissons Ratio (y) = 1.29880 1.88396
# Poissons Ratio (z) = -0.54903 0.41553
#
# Static dielectric constant tensor:
#      x y z
#    x 1.800190 0.000000 0.000020 
#    y 0.000000 1.757890 0.000000 
#    z 0.000020 0.000000 1.754230 
# 
# From -- ./inp_files/216859.got.cif
#   From: 2010.05.17/outbox.cif.g08.bks.cpg/sg12_109_cif.got.tgz:216859.got - 2010.06.03 13:09:07.
