data_PCOD9216964
_publ_section_title
;
Structure prediction by ZEFSAII (Michael W. Deem and Ramdas Pophale) SiO2 
 PCOD9216964
Probable space group: C 2/M
;
_chemical_formula_sum "Si O2"
_cell_formula_units_Z 56
_cell_length_a 9.807380
_cell_length_b 26.231448
_cell_length_c 19.113888
_cell_angle_alpha 90.000000
_cell_angle_beta 139.155647
_cell_angle_gamma 90.000000
_cell_volume 3215.927907
_symmetry_space_group_name_H-M "C 2/M"
_symmetry_group_IT_number 12
_symmetry_cell_setting 'monoclinic'
loop_
_space_group_symop_operation_xyz
x,y,z
-x,y,-z
-x,-y,-z
x,-y,z
1/2+x,1/2+y,z
1/2-x,1/2+y,-z
1/2-x,1/2-y,-z
1/2+x,1/2-y,z
loop_
_atom_site_type_symbol
_atom_site_label
_atom_site_fract_x
_atom_site_fract_y
_atom_site_fract_z
Si Si1 0.526121 0.872817 0.697624
Si Si2 0.677382 0.690564 0.630301
Si Si3 0.247009 0.559146 0.107776
Si Si4 0.424595 0.559744 0.890662
Si Si5 0.670215 0.191176 0.627237
Si Si6 0.336692 0.440340 0.500827
Si Si7 0.480140 0.372521 0.305693
O O1 0.373400 0.846381 0.694089
O O2 0.733351 0.901683 0.803003
O O3 0.574651 0.827332 0.662726
O O4 0.380317 0.914286 0.603185
O O5 0.500000 0.683894 0.500000
O O6 0.736027 0.749906 0.653631
O O7 0.587589 0.673393 0.669790
O O8 0.288082 0.500000 0.144583
O O9 0.388492 0.568347 0.093100
O O10 0.313222 0.598152 0.193932
O O11 0.000000 0.563750 0.000000
O O12 0.359345 0.500000 0.856986
O O13 0.500000 0.565709 0.000000
O O14 0.500000 0.186389 0.500000
O O15 0.851404 0.151771 0.680179
O O16 0.500000 0.433258 0.500000
O O17 0.311468 0.500000 0.502207
O O18 0.423294 0.413257 0.603216
#
# Coordination Sequence:
#
# PCOD9216964 Si02
#       7
#     8   8   8   8   8   8   8
#     4  12  20  39  58  88 120 154 195 244 299 343
#     4  11  22  38  59  88 121 161 206 236 284 360
#     4  10  23  41  62  88 116 154 200 242 292 356
#     4  10  23  41  62  88 116 154 200 242 292 356
#     4  11  22  36  61  88 121 155 198 250 292 348
#     4  11  22  35  54  88 125 160 193 233 292 361
#     4  12  20  39  58  88 120 154 195 244 299 343
#
# _framework density 17.413326000000001
#
# number of rings (size 3 to 8) (size 9 to 14) (size 15 to 20)
#    0.000    1.000    5.714    1.714    2.000    2.286 
#    0.000    0.714    0.000    5.143    0.000    0.000 
#    0.000    0.000    0.000    0.000    0.000    0.000 
#
# Total GULP energy -156261.340120 kJ/mol
# GULP energy per Si atom -5580.762147 kJ/mol
# Density = 1.737369 g / cm^3
# Si number density = 17.413326 Si / 1000 Ang^3
#
#
#
# Elastic Constant Matrix: (Units=GPa)
#
#
# Indices 1 2 3 4 5 6 
#
# 1 37.7091 -3.4597 9.6038 -0.0005 5.0502 -0.0001
# 2 -3.4597 97.8072 37.8922 -0.0002 6.6514 -0.0001
# 3 9.6038 37.8922 80.8559 -0.0021 5.1448 -0.0002
# 4 -0.0005 -0.0002 -0.0021 20.5259 -0.0005 2.0785
# 5 5.0502 6.6514 5.1448 -0.0005 26.2820 -0.0001
# 6 -0.0001 -0.0001 -0.0002 2.0785 -0.0001 37.4032
#
#
#
# Elastic Compliance Matrix: (Units=1/GPa)
#
#
# Indices 1 2 3 4 5 6 
#
# 1 0.028687 0.003140 -0.004534 0.000000 -0.005419 0.000000
# 2 0.003140 0.012945 -0.006271 -0.000001 -0.002652 0.000000
# 3 -0.004534 -0.006271 0.015886 0.000001 -0.000652 0.000000
# 4 0.000000 -0.000001 0.000001 0.048995 0.000001 -0.002723
# 5 -0.005419 -0.002652 -0.000652 0.000001 0.039889 0.000000
# 6 0.000000 0.000000 0.000000 -0.002723 0.000000 0.026887
#
#
# Mechanical properties :
#
#
# Convention : Reuss Voigt Hill
#
# Bulk Modulus (GPa) = 23.70287 33.82720 28.76504
# Shear Modulus (GPa) = 24.66920 28.33129 26.50024
#
# Velocity S-wave (km/s) = 3.76797 4.03797 3.90531
# Velocity P-wave (km/s) = 5.70715 6.41938 6.07372
#
# Compressibility (1/GPa) = 0.04218899
#
# Stress axis : x y z
#
# Youngs Moduli (GPa) = 34.85854 77.24997 62.94695
#
# Poissons Ratio (x) = -0.24255 0.28540
# Poissons Ratio (y) = -0.10945 0.39472
# Poissons Ratio (z) = 0.15805 0.48441
#
# Static dielectric constant tensor:
#      x y z
#    x 1.589240 0.000000 0.009370 
#    y 0.000000 1.573230 0.000000 
#    z 0.009370 0.000000 1.557020 
# 
# From -- ./inp_files/124231.got.cif
#   From: 2010.05.17/outbox.cif.g08.bks.cpg/sg12_63_cif.got.tgz:124231.got - 2010.06.03 13:09:07.
