data_PCOD9216092
_publ_section_title
;
Structure prediction by ZEFSAII (Michael W. Deem and Ramdas Pophale) SiO2 
 PCOD9216092
Probable space group: C 2/M
;
_chemical_formula_sum "Si O2"
_cell_formula_units_Z 42
_cell_length_a 10.288784
_cell_length_b 10.311741
_cell_length_c 22.122134
_cell_angle_alpha 90.000000
_cell_angle_beta 108.862113
_cell_angle_gamma 90.000000
_cell_volume 2221.015572
_symmetry_space_group_name_H-M "C 2/M"
_symmetry_group_IT_number 12
_symmetry_cell_setting 'monoclinic'
loop_
_space_group_symop_operation_xyz
x,y,z
-x,y,-z
-x,-y,-z
x,-y,z
1/2+x,1/2+y,z
1/2-x,1/2+y,-z
1/2-x,1/2-y,-z
1/2+x,1/2-y,z
loop_
_atom_site_type_symbol
_atom_site_label
_atom_site_fract_x
_atom_site_fract_y
_atom_site_fract_z
Si Si1 0.801607 0.000000 0.379991
Si Si2 0.555136 0.500000 0.728202
Si Si3 0.153130 0.264541 0.543586
Si Si4 0.260807 0.000000 0.358439
Si Si5 0.005702 0.500000 0.707854
Si Si6 0.066790 0.738250 0.804518
Si Si7 0.500000 0.500000 0.000000
Si Si8 0.366497 0.357081 0.869386
O O1 0.861263 0.000000 0.321505
O O2 0.850436 0.872058 0.422122
O O3 0.636615 0.000000 0.350033
O O4 0.394102 0.500000 0.688230
O O5 0.587434 0.371010 0.770775
O O6 0.250000 0.250000 0.500000
O O7 0.212379 0.373736 0.596754
O O8 0.000000 0.301043 0.500000
O O9 0.368003 0.000000 0.319535
O O10 0.015096 0.626656 0.751564
O O11 0.213164 0.695180 0.853286
O O12 0.957134 0.766179 0.840478
O O13 0.439858 0.388889 0.943656
O O14 0.356414 0.500000 0.837020
#
# Coordination Sequence:
#
# PCOD9216092 Si02
#       8
#     4   4   8   4   4   8   2   8
#     4  12  24  39  58  92 116 153 217 265 313 389
#     4  12  23  39  63  95 127 164 207 269 321 383
#     4  12  24  42  61  83 116 162 208 263 323 384
#     4  12  24  42  62  90 126 163 207 265 329 383
#     4  12  23  39  63  95 127 167 211 265 329 393
#     4  12  22  42  68  96 136 176 214 266 331 390
#     4   8  20  46  64  96 140 178 212 284 310 368
#     4  10  22  43  64  99 133 177 216 266 322 372
#
# _framework density 18.910267999999999
#
# number of rings (size 3 to 8) (size 9 to 14) (size 15 to 20)
#    0.571    0.000    1.905    8.000    0.000    0.762 
#    0.000    0.000    0.000    2.286    0.000    0.000 
#    0.000    0.000    0.000    0.000    0.000    0.000 
#
# Total GULP energy -117181.451409 kJ/mol
# GULP energy per Si atom -5580.069115 kJ/mol
# Density = 1.886723 g / cm^3
# Si number density = 18.910268 Si / 1000 Ang^3
#
#
#
# Elastic Constant Matrix: (Units=GPa)
#
#
# Indices 1 2 3 4 5 6 
#
# 1 87.5157 -12.4470 0.6755 0.0000 7.1366 0.0000
# 2 -12.4470 106.0703 22.0150 0.0000 2.9732 0.0000
# 3 0.6755 22.0150 71.5581 0.0000 15.7776 0.0000
# 4 0.0000 0.0000 0.0000 48.0555 0.0000 1.4570
# 5 7.1366 2.9732 15.7776 0.0000 11.3829 0.0000
# 6 0.0000 0.0000 0.0000 1.4570 0.0000 30.7632
#
#
#
# Elastic Compliance Matrix: (Units=1/GPa)
#
#
# Indices 1 2 3 4 5 6 
#
# 1 0.012483 0.001388 0.001815 0.000000 -0.010705 0.000000
# 2 0.001388 0.010271 -0.003441 0.000000 0.001217 0.000000
# 3 0.001815 -0.003441 0.021701 0.000000 -0.030319 0.000000
# 4 0.000000 0.000000 0.000000 0.020839 0.000000 -0.000987
# 5 -0.010705 0.001217 -0.030319 0.000000 0.136269 0.000000
# 6 0.000000 0.000000 0.000000 -0.000987 0.000000 0.032553
#
#
# Mechanical properties :
#
#
# Convention : Reuss Voigt Hill
#
# Bulk Modulus (GPa) = 22.73789 31.73680 27.23734
# Shear Modulus (GPa) = 20.06010 35.03370 27.54690
#
# Velocity S-wave (km/s) = 3.26053 4.30889 3.82084
# Velocity P-wave (km/s) = 5.12103 6.44784 5.82235
#
# Compressibility (1/GPa) = 0.04397946
#
# Stress axis : x y z
#
# Youngs Moduli (GPa) = 80.10962 97.36422 46.08055
#
# Poissons Ratio (x) = -0.13515 -0.08366
# Poissons Ratio (y) = -0.11120 0.15857
# Poissons Ratio (z) = -0.14544 0.33505
#
# Static dielectric constant tensor:
#      x y z
#    x 1.635350 0.000000 -0.003950 
#    y 0.000000 1.634170 0.000000 
#    z -0.003950 0.000000 1.620300 
# 
# From -- ./inp_files/299426.got.cif
#   From: 2010.05.17/outbox.cif.g08.bks.cpg/sg12_150_cif.got.tgz:299426.got - 2010.06.03 13:09:07.
