data_PCOD9216400
_publ_section_title
;
Structure prediction by ZEFSAII (Michael W. Deem and Ramdas Pophale) SiO2 
 PCOD9216400
Probable space group: C 2/M
;
_chemical_formula_sum "Si O2"
_cell_formula_units_Z 64
_cell_length_a 12.124511
_cell_length_b 14.718153
_cell_length_c 24.568406
_cell_angle_alpha 90.000000
_cell_angle_beta 39.196236
_cell_angle_gamma 90.000000
_cell_volume 2770.746255
_symmetry_space_group_name_H-M "C 2/M"
_symmetry_group_IT_number 12
_symmetry_cell_setting 'monoclinic'
loop_
_space_group_symop_operation_xyz
x,y,z
-x,y,-z
-x,-y,-z
x,-y,z
1/2+x,1/2+y,z
1/2-x,1/2+y,-z
1/2-x,1/2-y,-z
1/2+x,1/2-y,z
loop_
_atom_site_type_symbol
_atom_site_label
_atom_site_fract_x
_atom_site_fract_y
_atom_site_fract_z
Si Si1 0.081172 0.331295 0.843825
Si Si2 0.617009 0.711712 0.691145
Si Si3 0.000018 0.604011 0.242446
Si Si4 0.993612 0.733815 0.567692
Si Si5 0.314943 0.597962 0.846343
Si Si6 0.749374 0.598038 0.005653
Si Si7 0.102830 0.839920 0.904874
Si Si8 0.681388 0.390968 0.554863
O O1 0.177225 0.395882 0.850402
O O2 0.144934 0.235750 0.843189
O O3 0.096003 0.368836 0.777534
O O4 0.873180 0.327768 0.932428
O O5 0.572246 0.815356 0.690951
O O6 0.454562 0.677484 0.787964
O O7 0.637425 0.643070 0.632915
O O8 0.795524 0.709321 0.656433
O O9 0.961595 0.500000 0.272322
O O10 0.210667 0.614028 0.154529
O O11 0.130592 0.654793 0.530479
O O12 0.048096 0.831268 0.570251
O O13 0.000000 0.740522 0.500000
O O14 0.405740 0.500000 0.808899
O O15 0.229445 0.604369 0.937892
O O16 0.818433 0.500000 0.960257
O O17 0.548911 0.602085 0.065459
O O18 0.000000 0.808581 0.000000
O O19 0.676045 0.500000 0.551661
#
# Coordination Sequence:
#
# PCOD9216400 Si02
#       8
#     8   8   8   8   8   8   8   8
#     4  12  24  41  64  90 126 174 235 292 354 416
#     4  11  24  42  63  99 140 176 221 270 328 405
#     4  12  27  45  66  95 134 183 232 288 353 410
#     4   9  22  44  71 105 144 174 221 270 318 391
#     4  11  23  39  62  96 133 175 227 289 347 407
#     4  11  23  39  61  88 124 171 233 294 351 414
#     4  12  24  40  65  88 124 170 232 292 358 415
#     4  10  22  44  76 108 139 181 221 265 323 391
#
# _framework density 23.098469999999999
#
# number of rings (size 3 to 8) (size 9 to 14) (size 15 to 20)
#    0.000    1.000    2.500    4.125    1.750    6.000 
#    0.000    5.000    0.000    1.500    0.000    0.000 
#    0.000    0.000    0.000    0.000    0.000    0.000 
#
# Total GULP energy -178716.312861 kJ/mol
# GULP energy per Si atom -5584.884777 kJ/mol
# Density = 2.304590 g / cm^3
# Si number density = 23.098470 Si / 1000 Ang^3
#
#
#
# Elastic Constant Matrix: (Units=GPa)
#
#
# Indices 1 2 3 4 5 6 
#
# 1 103.6101 20.4522 4.1882 0.0000 -9.4544 0.0000
# 2 20.4522 153.8378 6.4896 -0.0002 3.1276 0.0000
# 3 4.1882 6.4896 36.0884 -0.0008 -7.9461 -0.0002
# 4 0.0000 -0.0002 -0.0008 23.2603 -0.0001 3.8896
# 5 -9.4544 3.1276 -7.9461 -0.0001 25.7027 0.0001
# 6 0.0000 0.0000 -0.0002 3.8896 0.0001 1.0015
#
#
#
# Elastic Compliance Matrix: (Units=1/GPa)
#
#
# Indices 1 2 3 4 5 6 
#
# 1 0.010300 -0.001447 -0.000067 0.000000 0.003944 -0.000001
# 2 -0.001447 0.006791 -0.001451 0.000000 -0.001807 0.000000
# 3 -0.000067 -0.001451 0.030058 0.000001 0.009445 0.000002
# 4 0.000000 0.000000 0.000001 0.122634 0.000003 -0.476272
# 5 0.003944 -0.001807 0.009445 0.000003 0.043497 -0.000013
# 6 -0.000001 0.000000 0.000002 -0.476272 -0.000013 2.848185
#
#
# Mechanical properties :
#
#
# Convention : Reuss Voigt Hill
#
# Bulk Modulus (GPa) = 24.26056 39.53292 31.89674
# Shear Modulus (GPa) = 1.62278 27.48665 14.55472
#
# Velocity S-wave (km/s) = 0.83909 3.45335 2.51293
# Velocity P-wave (km/s) = 3.38595 5.74917 4.71792
#
# Compressibility (1/GPa) = 0.04121916
#
# Stress axis : x y z
#
# Youngs Moduli (GPa) = 97.08992 147.26151 33.26909
#
# Poissons Ratio (x) = 0.21304 0.00222
# Poissons Ratio (y) = 0.14046 0.04828
# Poissons Ratio (z) = 0.00648 0.21369
#
# Static dielectric constant tensor:
#      x y z
#    x 1.880410 0.000000 0.019820 
#    y 0.000000 1.917130 0.000000 
#    z 0.019820 0.000000 1.926580 
# 
# From -- ./inp_files/358390.got.cif
#   From: 2010.05.17/outbox.cif.g08.bks.cpg/sg12_180_cif.got.tgz:358390.got - 2010.06.03 13:09:07.
