data_PCOD9216993
_publ_section_title
;
Structure prediction by ZEFSAII (Michael W. Deem and Ramdas Pophale) SiO2 
 PCOD9216993
Probable space group: C 2/M
;
_chemical_formula_sum "Si O2"
_cell_formula_units_Z 48
_cell_length_a 32.103885
_cell_length_b 16.575913
_cell_length_c 9.237260
_cell_angle_alpha 90.000000
_cell_angle_beta 152.173090
_cell_angle_gamma 90.000000
_cell_volume 2294.621036
_symmetry_space_group_name_H-M "C 2/M"
_symmetry_group_IT_number 12
_symmetry_cell_setting 'monoclinic'
loop_
_space_group_symop_operation_xyz
x,y,z
-x,y,-z
-x,-y,-z
x,-y,z
1/2+x,1/2+y,z
1/2-x,1/2+y,-z
1/2-x,1/2-y,-z
1/2+x,1/2-y,z
loop_
_atom_site_type_symbol
_atom_site_label
_atom_site_fract_x
_atom_site_fract_y
_atom_site_fract_z
Si Si1 0.483741 0.660855 0.780565
Si Si2 0.497175 0.816489 0.656942
Si Si3 0.820478 0.906155 0.125756
Si Si4 0.704045 0.166676 0.303119
Si Si5 0.141050 0.907594 0.069945
Si Si6 0.178351 0.404275 0.913459
O O1 0.459837 0.749774 0.650923
O O2 0.403457 0.603072 0.487949
O O3 0.500000 0.657909 0.000000
O O4 0.571372 0.637105 0.958721
O O5 0.500000 0.784161 0.500000
O O6 0.426652 0.889011 0.432686
O O7 0.598726 0.835549 0.012967
O O8 0.802734 0.000000 0.039692
O O9 0.849520 0.869843 0.061083
O O10 0.734110 0.875731 0.945067
O O11 0.750000 0.250000 0.500000
O O12 0.761767 0.099002 0.560802
O O13 0.709080 0.147414 0.147346
O O14 0.110127 0.000000 0.963748
O O15 0.195342 0.500000 0.989465
#
# Coordination Sequence:
#
# PCOD9216993 Si02
#       6
#     8   8   8   8   8   8
#     4  12  24  38  62  95 130 168 213 267 328 389
#     4  10  23  41  64  92 129 170 211 269 320 382
#     4  10  23  41  63  91 127 169 215 265 321 387
#     4  11  22  39  65  95 131 165 208 271 320 382
#     4  11  23  41  65  91 127 172 212 264 330 393
#     4  10  23  44  67  95 127 172 225 269 316 385
#
# _framework density 20.918486000000001
#
# number of rings (size 3 to 8) (size 9 to 14) (size 15 to 20)
#    0.000    1.333    1.667    3.500    2.333    9.667 
#    0.000    0.000    0.000    3.500    0.000    0.000 
#    0.000    0.000    0.000    0.000    0.000    0.000 
#
# Total GULP energy -134015.410573 kJ/mol
# GULP energy per Si atom -5583.975441 kJ/mol
# Density = 2.087088 g / cm^3
# Si number density = 20.918486 Si / 1000 Ang^3
#
#
#
# Elastic Constant Matrix: (Units=GPa)
#
#
# Indices 1 2 3 4 5 6 
#
# 1 148.3034 32.8323 43.2360 0.0000 -4.1050 0.0000
# 2 32.8323 54.1819 8.5399 0.0000 1.0639 0.0000
# 3 43.2360 8.5399 108.1846 0.0000 5.7642 0.0000
# 4 0.0000 0.0000 0.0000 35.9318 0.0000 2.9281
# 5 -4.1050 1.0639 5.7642 0.0000 25.6717 0.0000
# 6 0.0000 0.0000 0.0000 2.9281 0.0000 21.6786
#
#
#
# Elastic Compliance Matrix: (Units=1/GPa)
#
#
# Indices 1 2 3 4 5 6 
#
# 1 0.008845 -0.004890 -0.003274 0.000000 0.002352 0.000000
# 2 -0.004890 0.021397 0.000358 0.000000 -0.001749 0.000000
# 3 -0.003274 0.000358 0.010680 0.000000 -0.002937 0.000000
# 4 0.000000 0.000000 0.000000 0.028140 0.000000 -0.003801
# 5 0.002352 -0.001749 -0.002937 0.000000 0.040061 0.000000
# 6 0.000000 0.000000 0.000000 -0.003801 0.000000 0.046642
#
#
# Mechanical properties :
#
#
# Convention : Reuss Voigt Hill
#
# Bulk Modulus (GPa) = 39.50850 53.32070 46.41460
# Shear Modulus (GPa) = 27.80634 31.72718 29.76676
#
# Velocity S-wave (km/s) = 3.64987 3.89872 3.77634
# Velocity P-wave (km/s) = 6.05723 6.76844 6.42268
#
# Compressibility (1/GPa) = 0.02531101
#
# Stress axis : x y z
#
# Youngs Moduli (GPa) = 113.05562 46.73475 93.63106
#
# Poissons Ratio (x) = 0.22853 0.30658
# Poissons Ratio (y) = 0.55284 -0.03356
# Poissons Ratio (z) = 0.37018 -0.01675
#
# Static dielectric constant tensor:
#      x y z
#    x 1.762520 0.000000 0.006870 
#    y 0.000000 1.774360 0.000000 
#    z 0.006870 0.000000 1.742060 
# 
# From -- ./inp_files/112954.got.cif
#   From: 2010.05.17/outbox.cif.g08.bks.cpg/sg12_57_cif.got.tgz:112954.got - 2010.06.03 13:09:07.
