data_PCOD9216255
_publ_section_title
;
Structure prediction by ZEFSAII (Michael W. Deem and Ramdas Pophale) SiO2 
 PCOD9216255
Probable space group: C 2/M
;
_chemical_formula_sum "Si O2"
_cell_formula_units_Z 56
_cell_length_a 9.081383
_cell_length_b 18.937913
_cell_length_c 27.365272
_cell_angle_alpha 90.000000
_cell_angle_beta 143.000069
_cell_angle_gamma 90.000000
_cell_volume 2832.345370
_symmetry_space_group_name_H-M "C 2/M"
_symmetry_group_IT_number 12
_symmetry_cell_setting 'monoclinic'
loop_
_space_group_symop_operation_xyz
x,y,z
-x,y,-z
-x,-y,-z
x,-y,z
1/2+x,1/2+y,z
1/2-x,1/2+y,-z
1/2-x,1/2-y,-z
1/2+x,1/2-y,z
loop_
_atom_site_type_symbol
_atom_site_label
_atom_site_fract_x
_atom_site_fract_y
_atom_site_fract_z
Si Si1 0.824488 0.416380 0.845700
Si Si2 0.797718 0.500000 0.575609
Si Si3 0.689895 0.172730 0.005795
Si Si4 0.902415 0.880682 0.315084
Si Si5 0.101784 0.369662 0.332036
Si Si6 0.691108 0.000000 0.593340
Si Si7 0.065616 0.914539 0.169742
Si Si8 0.240818 0.760175 0.438706
O O1 0.872212 0.500000 0.851558
O O2 0.755384 0.381969 0.775769
O O3 0.598780 0.410994 0.824386
O O4 0.050646 0.375466 0.929317
O O5 0.500000 0.500000 0.500000
O O6 0.872220 0.431215 0.623213
O O7 0.995045 0.500000 0.584516
O O8 0.910897 0.125656 0.086699
O O9 0.500000 0.183359 0.000000
O O10 0.750000 0.250000 0.000000
O O11 0.742058 0.895534 0.320534
O O12 0.019857 0.807232 0.361942
O O13 0.123728 0.934248 0.362180
O O14 0.220895 0.305120 0.394869
O O15 0.814109 0.369672 0.242853
O O16 0.500000 0.000000 0.500000
O O17 0.105942 0.000000 0.171205
O O18 0.500000 0.797984 0.500000
O O19 0.250000 0.750000 0.500000
#
# Coordination Sequence:
#
# PCOD9216255 Si02
#       8
#     8   4   8   8   8   4   8   8
#     4  10  22  43  70  99 133 178 230 278 338 407
#     4  12  26  42  70  97 136 175 228 282 339 402
#     4  10  23  43  69 101 137 178 225 277 340 412
#     4  12  26  44  68 100 137 177 229 284 343 408
#     4  12  26  44  67 100 137 176 227 286 344 407
#     4  12  26  42  68  99 132 179 226 282 341 402
#     4  10  22  43  70  99 133 180 228 279 340 405
#     4  12  28  48  67  92 132 184 234 284 347 409
#
# _framework density 19.771598999999998
#
# number of rings (size 3 to 8) (size 9 to 14) (size 15 to 20)
#    0.000    0.857    2.857    3.429    8.000    2.857 
#    0.000    0.000    0.000    2.571    0.000    0.000 
#    0.000    0.000    0.000    0.000    0.000    0.000 
#
# Total GULP energy -155991.607589 kJ/mol
# GULP energy per Si atom -5571.128842 kJ/mol
# Density = 1.972660 g / cm^3
# Si number density = 19.771599 Si / 1000 Ang^3
#
#
#
# Elastic Constant Matrix: (Units=GPa)
#
#
# Indices 1 2 3 4 5 6 
#
# 1 127.2436 34.4219 68.8788 -0.0002 -17.1874 0.0000
# 2 34.4219 64.8555 41.2824 -0.0001 -18.3134 -0.0003
# 3 68.8788 41.2824 162.7139 -0.0003 -19.1007 -0.0001
# 4 -0.0002 -0.0001 -0.0003 36.4425 -0.0002 1.4342
# 5 -17.1874 -18.3134 -19.1007 -0.0002 37.5032 -0.0002
# 6 0.0000 -0.0003 -0.0001 1.4342 -0.0002 30.2262
#
#
#
# Elastic Compliance Matrix: (Units=1/GPa)
#
#
# Indices 1 2 3 4 5 6 
#
# 1 0.010863 -0.002972 -0.003649 0.000000 0.001669 0.000000
# 2 -0.002972 0.021123 -0.003244 0.000000 0.007300 0.000000
# 3 -0.003649 -0.003244 0.008648 0.000000 0.001148 0.000000
# 4 0.000000 0.000000 0.000000 0.027492 0.000000 -0.001304
# 5 0.001669 0.007300 0.001148 0.000000 0.031579 0.000000
# 6 0.000000 0.000000 0.000000 -0.001304 0.000000 0.033146
#
#
# Mechanical properties :
#
#
# Convention : Reuss Voigt Hill
#
# Bulk Modulus (GPa) = 47.83585 71.55325 59.69455
# Shear Modulus (GPa) = 31.33848 34.84970 33.09409
#
# Velocity S-wave (km/s) = 3.98556 4.20290 4.09567
# Velocity P-wave (km/s) = 6.73990 7.73441 7.25422
#
# Compressibility (1/GPa) = 0.02090482
#
# Stress axis : x y z
#
# Youngs Moduli (GPa) = 92.05183 47.34280 115.63190
#
# Poissons Ratio (x) = 0.14070 0.42190
# Poissons Ratio (y) = 0.27357 0.37511
# Poissons Ratio (z) = 0.33587 0.15358
#
# Static dielectric constant tensor:
#      x y z
#    x 1.692890 0.000000 -0.006780 
#    y 0.000000 1.681100 0.000000 
#    z -0.006780 0.000000 1.804170 
# 
# From -- ./inp_files/356769.got.cif
#   From: 2010.05.17/outbox.cif.g08.bks.cpg/sg12_179_cif.got.tgz:356769.got - 2010.06.03 13:09:07.
