data_PCOD9216109
_publ_section_title
;
Structure prediction by ZEFSAII (Michael W. Deem and Ramdas Pophale) SiO2 
 PCOD9216109
Probable space group: C 2/M
;
_chemical_formula_sum "Si O2"
_cell_formula_units_Z 40
_cell_length_a 11.215506
_cell_length_b 13.459026
_cell_length_c 25.531163
_cell_angle_alpha 90.000000
_cell_angle_beta 32.560374
_cell_angle_gamma 90.000000
_cell_volume 2074.135490
_symmetry_space_group_name_H-M "C 2/M"
_symmetry_group_IT_number 12
_symmetry_cell_setting 'monoclinic'
loop_
_space_group_symop_operation_xyz
x,y,z
-x,y,-z
-x,-y,-z
x,-y,z
1/2+x,1/2+y,z
1/2-x,1/2+y,-z
1/2-x,1/2-y,-z
1/2+x,1/2-y,z
loop_
_atom_site_type_symbol
_atom_site_label
_atom_site_fract_x
_atom_site_fract_y
_atom_site_fract_z
Si Si1 0.903279 0.000000 0.092649
Si Si2 0.893126 0.500000 0.270392
Si Si3 0.326496 0.500000 0.746659
Si Si4 0.198734 0.798191 0.385335
Si Si5 0.569113 0.682082 0.097061
Si Si6 0.761041 0.000000 0.894627
Si Si7 0.609067 0.720918 0.302536
O O1 0.986746 0.100796 0.086953
O O2 0.642258 0.000000 0.195939
O O3 0.000000 0.000000 0.000000
O O4 0.897747 0.500000 0.205127
O O5 0.765676 0.405822 0.339422
O O6 0.305715 0.500000 0.816295
O O7 0.433302 0.602883 0.688577
O O8 0.419756 0.764634 0.334757
O O9 0.114804 0.746872 0.361887
O O10 0.000000 0.797548 0.500000
O O11 0.651312 0.605180 0.112727
O O12 0.358018 0.749194 0.191758
O O13 0.750000 0.750000 0.000000
O O14 0.500000 0.000000 0.000000
#
# Coordination Sequence:
#
# PCOD9216109 Si02
#       7
#     4   4   4   8   8   4   8
#     4  11  25  39  63  92 125 161 214 256 308 376
#     4  10  22  43  65  92 126 163 208 270 317 379
#     4  10  23  38  61  87 124 165 202 255 321 366
#     4  11  23  42  68  96 125 169 217 269 327 383
#     4  11  25  40  64  93 125 172 209 258 318 386
#     4  11  23  40  58  89 130 165 212 255 311 378
#     4  11  23  42  65  93 132 166 215 267 321 383
#
# _framework density 19.285142
#
# number of rings (size 3 to 8) (size 9 to 14) (size 15 to 20)
#    0.000    1.200    2.000    3.300    8.400    2.400 
#    0.000    0.500    0.000    0.000    0.000    0.000 
#    0.000    0.000    0.000    0.000    0.000    0.000 
#
# Total GULP energy -111367.866763 kJ/mol
# GULP energy per Si atom -5568.393338 kJ/mol
# Density = 1.924125 g / cm^3
# Si number density = 19.285142 Si / 1000 Ang^3
#
#
#
# Elastic Constant Matrix: (Units=GPa)
#
#
# Indices 1 2 3 4 5 6 
#
# 1 153.5923 44.2174 47.7027 0.0012 17.9892 -0.0003
# 2 44.2174 90.9183 16.8824 0.0020 -0.3162 -0.0001
# 3 47.7027 16.8824 99.5878 0.0042 15.4531 0.0004
# 4 0.0012 0.0020 0.0042 16.1885 -0.0012 5.0427
# 5 17.9892 -0.3162 15.4531 -0.0012 37.0452 0.0001
# 6 -0.0003 -0.0001 0.0004 5.0427 0.0001 43.4583
#
#
#
# Elastic Compliance Matrix: (Units=1/GPa)
#
#
# Indices 1 2 3 4 5 6 
#
# 1 0.008937 -0.003769 -0.003169 0.000000 -0.003050 0.000000
# 2 -0.003769 0.012978 -0.000744 -0.000001 0.002251 0.000000
# 3 -0.003169 -0.000744 0.012240 -0.000003 -0.003573 0.000000
# 4 0.000000 -0.000001 -0.000003 0.064089 0.000003 -0.007437
# 5 -0.003050 0.002251 -0.003573 0.000003 0.029985 0.000000
# 6 0.000000 0.000000 0.000000 -0.007437 0.000000 0.023873
#
#
# Mechanical properties :
#
#
# Convention : Reuss Voigt Hill
#
# Bulk Modulus (GPa) = 53.21521 62.41148 57.81335
# Shear Modulus (GPa) = 28.78050 35.02481 31.90265
#
# Velocity S-wave (km/s) = 3.86731 4.26626 4.07167
# Velocity P-wave (km/s) = 6.89893 7.52999 7.22135
#
# Compressibility (1/GPa) = 0.01879162
#
# Stress axis : x y z
#
# Youngs Moduli (GPa) = 111.89317 77.05484 81.70043
#
# Poissons Ratio (x) = 0.29040 0.25888
# Poissons Ratio (y) = 0.42169 0.06080
# Poissons Ratio (z) = 0.35456 0.05734
#
# Static dielectric constant tensor:
#      x y z
#    x 1.752940 0.000000 0.007000 
#    y 0.000000 1.673220 0.000000 
#    z 0.007000 0.000000 1.634550 
# 
# From -- ./inp_files/129867.got.cif
#   From: 2010.05.17/outbox.cif.g08.bks.cpg/sg12_65_cif.got.tgz:129867.got - 2010.06.03 13:09:07.
