data_PCOD9216634
_publ_section_title
;
Structure prediction by ZEFSAII (Michael W. Deem and Ramdas Pophale) SiO2 
 PCOD9216634
Probable space group: C 2/M
;
_chemical_formula_sum "Si O2"
_cell_formula_units_Z 56
_cell_length_a 12.295506
_cell_length_b 27.452862
_cell_length_c 14.351714
_cell_angle_alpha 90.000000
_cell_angle_beta 137.370259
_cell_angle_gamma 90.000000
_cell_volume 3280.891959
_symmetry_space_group_name_H-M "C 2/M"
_symmetry_group_IT_number 12
_symmetry_cell_setting 'monoclinic'
loop_
_space_group_symop_operation_xyz
x,y,z
-x,y,-z
-x,-y,-z
x,-y,z
1/2+x,1/2+y,z
1/2-x,1/2+y,-z
1/2-x,1/2-y,-z
1/2+x,1/2-y,z
loop_
_atom_site_type_symbol
_atom_site_label
_atom_site_fract_x
_atom_site_fract_y
_atom_site_fract_z
Si Si1 0.204512 0.693669 0.947941
Si Si2 0.417580 0.144039 0.847715
Si Si3 0.266102 0.055274 0.682756
Si Si4 0.837216 0.794007 0.842351
Si Si5 0.603007 0.296072 0.657708
Si Si6 0.004640 0.845464 0.234161
Si Si7 0.030109 0.056314 0.361167
O O1 0.243497 0.679525 0.866744
O O2 0.022156 0.683413 0.858096
O O3 0.250000 0.750000 0.000000
O O4 0.321225 0.660667 0.083864
O O5 0.408391 0.092664 0.790511
O O6 0.233922 0.161077 0.735816
O O7 0.500000 0.140075 0.000000
O O8 0.137142 0.057973 0.686390
O O9 0.166465 0.065550 0.525619
O O10 0.323760 0.000000 0.714261
O O11 0.716216 0.750791 0.741059
O O12 0.890127 0.825312 0.786195
O O13 0.000000 0.776745 0.000000
O O14 0.500000 0.293373 0.500000
O O15 0.489472 0.308601 0.673964
O O16 0.036714 0.900115 0.290352
O O17 0.048092 0.000000 0.338825
#
# Coordination Sequence:
#
# PCOD9216634 Si02
#       7
#     8   8   8   8   8   8   8
#     4  11  20  38  58  78 111 153 193 226 281 339
#     4  12  20  33  57  80 111 150 180 228 285 342
#     4   9  18  32  53  84 114 142 181 234 293 337
#     4  10  23  39  57  76 110 151 191 231 274 334
#     4  12  23  35  53  82 115 144 189 230 281 334
#     4  11  20  36  59  82 109 148 195 230 274 343
#     4   9  17  34  56  81 115 148 184 232 284 341
#
# _framework density 17.068529000000002
#
# number of rings (size 3 to 8) (size 9 to 14) (size 15 to 20)
#    0.000    1.429    4.286    3.857    0.000    0.857 
#    2.571    0.714    0.000    4.714    0.000    2.000 
#    0.000    0.000    0.000    0.000    0.000    0.000 
#
# Total GULP energy -156075.397039 kJ/mol
# GULP energy per Si atom -5574.121323 kJ/mol
# Density = 1.702968 g / cm^3
# Si number density = 17.068529 Si / 1000 Ang^3
#
#
#
# Elastic Constant Matrix: (Units=GPa)
#
#
# Indices 1 2 3 4 5 6 
#
# 1 98.6006 46.5636 31.3072 0.0000 -21.0779 0.0000
# 2 46.5636 114.6542 52.5868 0.0000 -13.0732 0.0000
# 3 31.3072 52.5868 88.9832 0.0000 -17.6457 0.0000
# 4 0.0000 0.0000 0.0000 31.9778 0.0000 -7.6481
# 5 -21.0779 -13.0732 -17.6457 0.0000 24.2578 0.0000
# 6 0.0000 0.0000 0.0000 -7.6481 0.0000 5.3375
#
#
#
# Elastic Compliance Matrix: (Units=1/GPa)
#
#
# Indices 1 2 3 4 5 6 
#
# 1 0.014554 -0.004575 -0.000465 0.000000 0.009842 0.000000
# 2 -0.004575 0.013452 -0.006650 0.000000 -0.001563 0.000000
# 3 -0.000465 -0.006650 0.016992 0.000000 0.008372 0.000000
# 4 0.000000 0.000000 0.000000 0.047577 0.000000 0.068173
# 5 0.009842 -0.001563 0.008372 0.000000 0.055024 0.000000
# 6 0.000000 0.000000 0.000000 0.068173 0.000000 0.285040
#
#
# Mechanical properties :
#
#
# Convention : Reuss Voigt Hill
#
# Bulk Modulus (GPa) = 46.25882 62.57258 54.41570
# Shear Modulus (GPa) = 10.79391 23.76665 17.28028
#
# Velocity S-wave (km/s) = 2.51746 3.73557 3.18528
# Velocity P-wave (km/s) = 5.96748 7.43943 6.74374
#
# Compressibility (1/GPa) = 0.02161750
#
# Stress axis : x y z
#
# Youngs Moduli (GPa) = 68.70855 74.33968 58.85157
#
# Poissons Ratio (x) = 0.34012 0.02737
# Poissons Ratio (y) = 0.31436 0.39136
# Poissons Ratio (z) = 0.03195 0.49435
#
# Static dielectric constant tensor:
#      x y z
#    x 1.614880 0.000000 -0.012940 
#    y 0.000000 1.627720 0.000000 
#    z -0.012940 0.000000 1.579880 
# 
# From -- ./inp_files/209711.got.cif
#   From: 2010.05.17/outbox.cif.g08.bks.cpg/sg12_105_cif.got.tgz:209711.got - 2010.06.03 13:09:07.
