data_PCOD9216536
_publ_section_title
;
Structure prediction by ZEFSAII (Michael W. Deem and Ramdas Pophale) SiO2 
 PCOD9216536
Probable space group: C 2/M
;
_chemical_formula_sum "Si O2"
_cell_formula_units_Z 64
_cell_length_a 17.729965
_cell_length_b 20.765773
_cell_length_c 9.730523
_cell_angle_alpha 90.000000
_cell_angle_beta 100.066208
_cell_angle_gamma 90.000000
_cell_volume 3527.401008
_symmetry_space_group_name_H-M "C 2/M"
_symmetry_group_IT_number 12
_symmetry_cell_setting 'monoclinic'
loop_
_space_group_symop_operation_xyz
x,y,z
-x,y,-z
-x,-y,-z
x,-y,z
1/2+x,1/2+y,z
1/2-x,1/2+y,-z
1/2-x,1/2-y,-z
1/2+x,1/2-y,z
loop_
_atom_site_type_symbol
_atom_site_label
_atom_site_fract_x
_atom_site_fract_y
_atom_site_fract_z
Si Si1 0.120186 0.638202 0.503387
Si Si2 0.450774 0.746553 0.113553
Si Si3 0.903448 0.575664 0.788100
Si Si4 0.441879 0.718742 0.600823
Si Si5 0.070418 0.381107 0.780950
Si Si6 0.200227 0.194975 0.057477
Si Si7 0.203173 0.573824 0.999433
Si Si8 0.220585 0.193664 0.387936
O O1 0.121432 0.592091 0.373675
O O2 0.086304 0.707470 0.440882
O O3 0.071024 0.614290 0.617121
O O4 0.207431 0.646028 0.583563
O O5 0.509834 0.718186 0.243331
O O6 0.411180 0.807065 0.176058
O O7 0.500000 0.769854 0.000000
O O8 0.385131 0.701382 0.030905
O O9 0.909852 0.500000 0.814440
O O10 0.988623 0.604189 0.821846
O O11 0.840648 0.599438 0.877369
O O12 0.500000 0.699580 0.500000
O O13 0.364272 0.677322 0.584121
O O14 0.135452 0.424982 0.865819
O O15 0.234507 0.125149 0.030638
O O16 0.205773 0.209026 0.222671
O O17 0.250000 0.250000 0.000000
O O18 0.229862 0.500000 0.028112
O O19 0.250000 0.250000 0.500000
#
# Coordination Sequence:
#
# PCOD9216536 Si02
#       8
#     8   8   8   8   8   8   8   8
#     4  11  21  37  55  81 121 160 200 242 292 355
#     4  12  22  35  59  89 121 152 191 251 303 356
#     4  11  24  38  56  84 119 166 206 239 288 355
#     4  11  21  36  55  84 121 153 188 244 311 357
#     4  12  21  36  58  85 122 165 199 240 291 359
#     4  12  24  39  61  92 117 159 210 249 304 362
#     4  11  25  42  59  84 123 163 207 253 300 354
#     4  10  23  37  56  84 122 156 192 249 303 350
#
# _framework density 18.14367
#
# number of rings (size 3 to 8) (size 9 to 14) (size 15 to 20)
#    0.000    0.750    6.250    1.875    5.250    2.500 
#    0.000    0.000    0.000    0.375    0.000    0.000 
#    0.000    3.500    0.000    0.000    0.000    0.000 
#
# Total GULP energy -178578.460120 kJ/mol
# GULP energy per Si atom -5580.576879 kJ/mol
# Density = 1.810237 g / cm^3
# Si number density = 18.143670 Si / 1000 Ang^3
#
#
#
# Elastic Constant Matrix: (Units=GPa)
#
#
# Indices 1 2 3 4 5 6 
#
# 1 111.6691 22.5808 44.7954 0.0000 7.3666 0.0000
# 2 22.5808 40.4927 14.5469 0.0000 -2.7187 0.0000
# 3 44.7954 14.5469 127.3144 0.0000 -0.6833 0.0000
# 4 0.0000 0.0000 0.0000 17.5645 0.0000 -1.4726
# 5 7.3666 -2.7187 -0.6833 0.0000 37.1986 0.0000
# 6 0.0000 0.0000 0.0000 -1.4726 0.0000 21.2536
#
#
#
# Elastic Compliance Matrix: (Units=1/GPa)
#
#
# Indices 1 2 3 4 5 6 
#
# 1 0.011633 -0.005419 -0.003489 0.000000 -0.002764 0.000000
# 2 -0.005419 0.028402 -0.001322 0.000000 0.003125 0.000000
# 3 -0.003489 -0.001322 0.009237 0.000000 0.000764 0.000000
# 4 0.000000 0.000000 0.000000 0.057266 0.000000 0.003968
# 5 -0.002764 0.003125 0.000764 0.000000 0.027672 0.000000
# 6 0.000000 0.000000 0.000000 0.003968 0.000000 0.047326
#
#
# Mechanical properties :
#
#
# Convention : Reuss Voigt Hill
#
# Bulk Modulus (GPa) = 34.70640 49.25807 41.98223
# Shear Modulus (GPa) = 23.62954 28.37355 26.00155
#
# Velocity S-wave (km/s) = 3.61273 3.95881 3.78973
# Velocity P-wave (km/s) = 6.04753 6.93571 6.50680
#
# Compressibility (1/GPa) = 0.02881313
#
# Stress axis : x y z
#
# Youngs Moduli (GPa) = 85.96532 35.20822 108.25870
#
# Poissons Ratio (x) = 0.19080 0.37767
# Poissons Ratio (y) = 0.46587 0.14309
# Poissons Ratio (z) = 0.29989 0.04654
#
# Static dielectric constant tensor:
#      x y z
#    x 1.656060 0.000000 -0.001960 
#    y 0.000000 1.619900 0.000000 
#    z -0.001960 0.000000 1.658860 
# 
# From -- ./inp_files/78791.got.cif
#   From: 2010.05.17/outbox.cif.g08.bks.cpg/sg12_40_cif.got.tgz:78791.got - 2010.06.03 13:09:07.
