data_PCOD9216032
_publ_section_title
;
Structure prediction by ZEFSAII (Michael W. Deem and Ramdas Pophale) SiO2 
 PCOD9216032
Probable space group: C 2/M
;
_chemical_formula_sum "Si O2"
_cell_formula_units_Z 56
_cell_length_a 8.227641
_cell_length_b 15.822918
_cell_length_c 28.099580
_cell_angle_alpha 90.000000
_cell_angle_beta 138.259941
_cell_angle_gamma 90.000000
_cell_volume 2435.422748
_symmetry_space_group_name_H-M "C 2/M"
_symmetry_group_IT_number 12
_symmetry_cell_setting 'monoclinic'
loop_
_space_group_symop_operation_xyz
x,y,z
-x,y,-z
-x,-y,-z
x,-y,z
1/2+x,1/2+y,z
1/2-x,1/2+y,-z
1/2-x,1/2-y,-z
1/2+x,1/2-y,z
loop_
_atom_site_type_symbol
_atom_site_label
_atom_site_fract_x
_atom_site_fract_y
_atom_site_fract_z
Si Si1 0.114950 0.905247 0.447481
Si Si2 0.404664 0.409701 0.155762
Si Si3 0.106987 0.597640 0.396003
Si Si4 0.084177 0.216161 0.669815
Si Si5 0.662186 0.097199 0.940095
Si Si6 0.574116 0.265227 0.774105
Si Si7 0.924896 0.850859 0.905359
O O1 0.319910 0.892645 0.532393
O O2 0.858848 0.900901 0.420599
O O3 0.098985 0.837345 0.402202
O O4 0.139490 0.000000 0.433235
O O5 0.477552 0.500000 0.191988
O O6 0.522658 0.332140 0.208737
O O7 0.477238 0.407309 0.116610
O O8 0.114544 0.399962 0.102150
O O9 0.009569 0.500000 0.368669
O O10 0.968234 0.684427 0.351995
O O11 0.365907 0.196574 0.718391
O O12 0.091750 0.192552 0.726912
O O13 0.715134 0.117219 0.896106
O O14 0.744041 0.000000 0.965975
O O15 0.839444 0.157281 0.009295
O O16 0.810242 0.226961 0.851386
#
# Coordination Sequence:
#
# PCOD9216032 Si02
#       7
#     8   8   8   8   8   8   8
#     4   9  19  38  66  96 124 165 218 269 319 377
#     4  11  24  44  67  93 130 171 218 278 332 391
#     4   9  19  38  65  96 126 164 219 266 316 387
#     4  12  22  42  62  91 132 174 211 263 320 388
#     4  10  22  42  70  99 123 163 223 278 335 391
#     4  12  26  41  59  92 131 171 219 252 320 407
#     4  11  22  43  66  92 130 167 213 275 329 391
#
# _framework density 22.993953999999999
#
# number of rings (size 3 to 8) (size 9 to 14) (size 15 to 20)
#    0.000    1.429    2.857    4.286    0.000    2.857 
#    2.571    2.143    0.000    1.714    0.000    0.000 
#    0.000    0.000    0.000    0.000    0.000    0.000 
#
# Total GULP energy -156109.999056 kJ/mol
# GULP energy per Si atom -5575.357109 kJ/mol
# Density = 2.294162 g / cm^3
# Si number density = 22.993954 Si / 1000 Ang^3
#
#
#
# Elastic Constant Matrix: (Units=GPa)
#
#
# Indices 1 2 3 4 5 6 
#
# 1 81.2002 29.2028 38.6316 -0.0001 -22.2409 0.0000
# 2 29.2028 123.4648 60.9571 0.0000 -19.9664 0.0000
# 3 38.6316 60.9571 115.5867 -0.0003 -22.7282 -0.0001
# 4 -0.0001 0.0000 -0.0003 2.4560 0.0000 0.5465
# 5 -22.2409 -19.9664 -22.7282 0.0000 35.2335 0.0000
# 6 0.0000 0.0000 -0.0001 0.5465 0.0000 9.0500
#
#
#
# Elastic Compliance Matrix: (Units=1/GPa)
#
#
# Indices 1 2 3 4 5 6 
#
# 1 0.016384 -0.000924 -0.003502 0.000000 0.007560 0.000000
# 2 -0.000924 0.011257 -0.005140 -0.000001 0.002480 0.000000
# 3 -0.003502 -0.005140 0.013200 0.000001 0.003391 0.000000
# 4 0.000000 -0.000001 0.000001 0.412717 0.000001 -0.024920
# 5 0.007560 0.002480 0.003391 0.000001 0.036747 0.000000
# 6 0.000000 0.000000 0.000000 -0.024920 0.000000 0.112002
#
#
# Mechanical properties :
#
#
# Convention : Reuss Voigt Hill
#
# Bulk Modulus (GPa) = 46.06479 64.20385 55.13432
# Shear Modulus (GPa) = 7.95323 22.11191 15.03257
#
# Velocity S-wave (km/s) = 1.86181 3.10440 2.55965
# Velocity P-wave (km/s) = 4.96978 6.39002 5.72412
#
# Compressibility (1/GPa) = 0.02170856
#
# Stress axis : x y z
#
# Youngs Moduli (GPa) = 61.03388 88.83503 75.75966
#
# Poissons Ratio (x) = 0.08205 0.26534
# Poissons Ratio (y) = 0.05637 0.38941
# Poissons Ratio (z) = 0.21377 0.45662
#
# Static dielectric constant tensor:
#      x y z
#    x 1.946180 0.000000 0.004570 
#    y 0.000000 1.926190 0.000000 
#    z 0.004570 0.000000 1.820760 
# 
# From -- ./inp_files/356761.got.cif
#   From: 2010.05.17/outbox.cif.g08.bks.cpg/sg12_179_cif.got.tgz:356761.got - 2010.06.03 13:09:07.
