data_PCOD9216508
_publ_section_title
;
Structure prediction by ZEFSAII (Michael W. Deem and Ramdas Pophale) SiO2 
 PCOD9216508
Probable space group: C 2/M
;
_chemical_formula_sum "Si O2"
_cell_formula_units_Z 56
_cell_length_a 21.296896
_cell_length_b 23.512921
_cell_length_c 7.611955
_cell_angle_alpha 90.000000
_cell_angle_beta 43.558229
_cell_angle_gamma 90.000000
_cell_volume 2626.612112
_symmetry_space_group_name_H-M "C 2/M"
_symmetry_group_IT_number 12
_symmetry_cell_setting 'monoclinic'
loop_
_space_group_symop_operation_xyz
x,y,z
-x,y,-z
-x,-y,-z
x,-y,z
1/2+x,1/2+y,z
1/2-x,1/2+y,-z
1/2-x,1/2-y,-z
1/2+x,1/2-y,z
loop_
_atom_site_type_symbol
_atom_site_label
_atom_site_fract_x
_atom_site_fract_y
_atom_site_fract_z
Si Si1 0.268318 0.146131 0.678026
Si Si2 0.225130 0.323533 0.919430
Si Si3 0.959601 0.743973 0.766953
Si Si4 0.926140 0.434962 0.406178
Si Si5 0.361492 0.746770 0.420204
Si Si6 0.626940 0.065724 0.069048
Si Si7 0.423616 0.650240 0.029397
O O1 0.348873 0.102716 0.477660
O O2 0.292970 0.202431 0.518246
O O3 0.169570 0.120075 0.835727
O O4 0.270812 0.167731 0.877117
O O5 0.314812 0.291958 0.666589
O O6 0.139287 0.284833 0.032606
O O7 0.203932 0.386636 0.887115
O O8 0.000000 0.727396 0.500000
O O9 0.042321 0.724542 0.723133
O O10 0.958398 0.812869 0.793273
O O11 0.920601 0.500000 0.358768
O O12 0.899605 0.433803 0.668622
O O13 0.031247 0.417220 0.172979
O O14 0.390121 0.703484 0.213594
O O15 0.649837 0.000000 0.978976
O O16 0.500000 0.622033 0.000000
#
# Coordination Sequence:
#
# PCOD9216508 Si02
#       7
#     8   8   8   8   8   8   8
#     4  11  18  31  51  73 102 135 173 216 251 306
#     4  11  20  30  53  80 105 139 174 213 258 306
#     4  11  20  33  50  75 107 133 169 214 256 305
#     4   8  15  27  48  75 102 134 171 212 257 305
#     4  11  21  33  49  74 106 139 177 207 255 318
#     4   8  15  28  46  75 109 135 164 209 262 307
#     4  10  23  36  48  69 104 145 172 211 263 310
#
# _framework density 21.320239000000001
#
# number of rings (size 3 to 8) (size 9 to 14) (size 15 to 20)
#    0.000    2.000    2.857    3.429    2.000    0.000 
#    0.000    0.000    0.000    1.286    0.000    5.000 
#    0.000   19.429    0.000    0.000    0.000    0.000 
#
# Total GULP energy -156152.501860 kJ/mol
# GULP energy per Si atom -5576.875066 kJ/mol
# Density = 2.127171 g / cm^3
# Si number density = 21.320239 Si / 1000 Ang^3
#
#
#
# Elastic Constant Matrix: (Units=GPa)
#
#
# Indices 1 2 3 4 5 6 
#
# 1 95.6453 23.5136 24.0263 0.0000 -33.2943 0.0000
# 2 23.5136 65.3198 12.3449 0.0000 -16.9103 0.0000
# 3 24.0263 12.3449 62.0048 0.0000 -10.0375 0.0000
# 4 0.0000 0.0000 0.0000 15.0797 0.0000 -13.5996
# 5 -33.2943 -16.9103 -10.0375 0.0000 33.4196 0.0000
# 6 0.0000 0.0000 0.0000 -13.5996 0.0000 24.8596
#
#
#
# Elastic Compliance Matrix: (Units=1/GPa)
#
#
# Indices 1 2 3 4 5 6 
#
# 1 0.017035 -0.001506 -0.003865 0.000000 0.015048 0.000000
# 2 -0.001506 0.018032 -0.001863 0.000000 0.007065 0.000000
# 3 -0.003865 -0.001863 0.018100 0.000000 0.000643 0.000000
# 4 0.000000 0.000000 0.000000 0.130890 0.000000 0.071604
# 5 0.015048 0.007065 0.000643 0.000000 0.048682 0.000000
# 6 0.000000 0.000000 0.000000 0.071604 0.000000 0.079397
#
#
# Mechanical properties :
#
#
# Convention : Reuss Voigt Hill
#
# Bulk Modulus (GPa) = 25.83996 38.08216 31.96106
# Shear Modulus (GPa) = 14.72735 25.54413 20.13574
#
# Velocity S-wave (km/s) = 2.63110 3.46514 3.07651
# Velocity P-wave (km/s) = 4.62347 5.82326 5.25770
#
# Compressibility (1/GPa) = 0.03869975
#
# Stress axis : x y z
#
# Youngs Moduli (GPa) = 58.70411 55.45570 55.24723
#
# Poissons Ratio (x) = 0.08351 0.21353
# Poissons Ratio (y) = 0.08840 0.10293
# Poissons Ratio (z) = 0.22689 0.10331
#
# Static dielectric constant tensor:
#      x y z
#    x 1.918450 0.000000 0.036190 
#    y 0.000000 1.760230 0.000000 
#    z 0.036190 0.000000 1.903670 
# 
# From -- ./inp_files/99636.got.cif
#   From: 2010.05.17/outbox.cif.g08.bks.cpg/sg12_50_cif.got.tgz:99636.got - 2010.06.03 13:09:07.
