data_PCOD9216712
_publ_section_title
;
Structure prediction by ZEFSAII (Michael W. Deem and Ramdas Pophale) SiO2 
 PCOD9216712
Probable space group: C 2/M
;
_chemical_formula_sum "Si O2"
_cell_formula_units_Z 48
_cell_length_a 10.821327
_cell_length_b 26.398440
_cell_length_c 14.444096
_cell_angle_alpha 90.000000
_cell_angle_beta 145.894044
_cell_angle_gamma 90.000000
_cell_volume 2313.657793
_symmetry_space_group_name_H-M "C 2/M"
_symmetry_group_IT_number 12
_symmetry_cell_setting 'monoclinic'
loop_
_space_group_symop_operation_xyz
x,y,z
-x,y,-z
-x,-y,-z
x,-y,z
1/2+x,1/2+y,z
1/2-x,1/2+y,-z
1/2-x,1/2-y,-z
1/2+x,1/2-y,z
loop_
_atom_site_type_symbol
_atom_site_label
_atom_site_fract_x
_atom_site_fract_y
_atom_site_fract_z
Si Si1 0.929135 0.204280 0.851604
Si Si2 0.099734 0.500000 0.458196
Si Si3 0.200677 0.892011 0.954412
Si Si4 0.656429 0.604061 0.413446
Si Si5 0.440045 0.187399 0.853922
Si Si6 0.786591 0.000000 0.932451
Si Si7 0.000000 0.848114 0.500000
Si Si8 0.000000 0.331475 0.500000
O O1 0.004236 0.257437 0.851181
O O2 0.670199 0.198940 0.669833
O O3 0.035684 0.149992 0.894948
O O4 0.000000 0.211582 0.000000
O O5 0.248433 0.548646 0.537693
O O6 0.000000 0.500000 0.500000
O O7 0.914898 0.500000 0.264334
O O8 0.087695 0.896173 0.783560
O O9 0.429552 0.861751 0.101257
O O10 0.210487 0.947440 0.006990
O O11 0.630651 0.620928 0.502812
O O12 0.834956 0.637584 0.466090
O O13 0.183330 0.182203 0.671376
O O14 0.500000 0.187143 0.000000
O O15 0.000000 0.000000 0.000000
#
# Coordination Sequence:
#
# PCOD9216712 Si02
#       8
#     8   4   8   8   8   4   4   4
#     4  10  23  39  69  99 135 183 231 286 343 410
#     4  12  24  43  68 103 136 179 237 288 348 414
#     4  11  23  45  66 100 137 179 236 286 349 413
#     4  11  24  43  70  97 140 185 227 294 343 417
#     4  11  23  45  65  98 140 185 228 285 344 419
#     4  12  26  40  71 102 133 181 228 293 352 407
#     4  12  25  43  70  98 142 187 228 282 357 412
#     4  10  23  43  64 104 136 179 230 288 345 406
#
# _framework density 20.746368
#
# number of rings (size 3 to 8) (size 9 to 14) (size 15 to 20)
#    0.000    1.000    2.500    4.000    7.000    0.333 
#    0.000    3.750    0.000    0.000    0.000    0.000 
#    0.000    0.000    0.000    0.000    0.000    0.000 
#
# Total GULP energy -133757.359957 kJ/mol
# GULP energy per Si atom -5573.223332 kJ/mol
# Density = 2.069915 g / cm^3
# Si number density = 20.746368 Si / 1000 Ang^3
#
#
#
# Elastic Constant Matrix: (Units=GPa)
#
#
# Indices 1 2 3 4 5 6 
#
# 1 72.0794 45.6840 27.0723 -0.0001 -5.9891 0.0000
# 2 45.6840 177.6026 53.2008 0.0000 1.2872 0.0000
# 3 27.0723 53.2008 172.6190 -0.0003 4.7441 0.0001
# 4 -0.0001 0.0000 -0.0003 372.0945 -0.0002 -85.7102
# 5 -5.9891 1.2872 4.7441 -0.0002 35.7868 0.0000
# 6 0.0000 0.0000 0.0001 -85.7102 0.0000 47.8650
#
#
#
# Elastic Compliance Matrix: (Units=1/GPa)
#
#
# Indices 1 2 3 4 5 6 
#
# 1 0.017263 -0.003995 -0.001565 0.000000 0.003240 0.000000
# 2 -0.003995 0.007128 -0.001550 0.000000 -0.000719 0.000000
# 3 -0.001565 -0.001550 0.006546 0.000000 -0.001074 0.000000
# 4 0.000000 0.000000 0.000000 0.004574 0.000000 0.008191
# 5 0.003240 -0.000719 -0.001074 0.000000 0.028654 0.000000
# 6 0.000000 0.000000 0.000000 0.008191 0.000000 0.035559
#
#
# Mechanical properties :
#
#
# Convention : Reuss Voigt Hill
#
# Bulk Modulus (GPa) = 59.82589 74.91281 67.36935
# Shear Modulus (GPa) = 41.83510 110.90551 76.37031
#
# Velocity S-wave (km/s) = 4.49542 7.31942 6.07382
# Velocity P-wave (km/s) = 7.47292 10.37396 9.04056
#
# Compressibility (1/GPa) = 0.01671517
#
# Stress axis : x y z
#
# Youngs Moduli (GPa) = 57.92823 140.29499 152.76669
#
# Poissons Ratio (x) = 0.56049 0.23910
# Poissons Ratio (y) = 0.23143 0.23686
# Poissons Ratio (z) = 0.09067 0.21752
#
# Static dielectric constant tensor:
#      x y z
#    x 1.780530 0.000000 0.053880 
#    y 0.000000 1.946100 0.000000 
#    z 0.053880 0.000000 1.840590 
# 
# From -- ./inp_files/209503.got.cif
#   From: 2010.05.17/outbox.cif.g08.bks.cpg/sg12_105_cif.got.tgz:209503.got - 2010.06.03 13:09:07.
