data_PCOD9216278
_publ_section_title
;
Structure prediction by ZEFSAII (Michael W. Deem and Ramdas Pophale) SiO2 
 PCOD9216278
Probable space group: C 2/M
;
_chemical_formula_sum "Si O2"
_cell_formula_units_Z 42
_cell_length_a 14.838567
_cell_length_b 10.949117
_cell_length_c 10.841339
_cell_angle_alpha 90.000000
_cell_angle_beta 93.853528
_cell_angle_gamma 90.000000
_cell_volume 1757.401459
_symmetry_space_group_name_H-M "C 2/M"
_symmetry_group_IT_number 12
_symmetry_cell_setting 'monoclinic'
loop_
_space_group_symop_operation_xyz
x,y,z
-x,y,-z
-x,-y,-z
x,-y,z
1/2+x,1/2+y,z
1/2-x,1/2+y,-z
1/2-x,1/2-y,-z
1/2+x,1/2-y,z
loop_
_atom_site_type_symbol
_atom_site_label
_atom_site_fract_x
_atom_site_fract_y
_atom_site_fract_z
Si Si1 0.106223 0.500000 0.490186
Si Si2 0.875343 0.500000 0.800992
Si Si3 0.805978 0.500000 0.097646
Si Si4 0.121895 0.234049 0.233991
Si Si5 0.807154 0.309590 0.321842
Si Si6 0.000000 0.500000 0.000000
Si Si7 0.462918 0.360084 0.357374
Si Si8 0.103694 0.000000 0.059870
O O1 0.129977 0.500000 0.349586
O O2 0.146994 0.385632 0.566194
O O3 0.000000 0.500000 0.500000
O O4 0.845338 0.359718 0.822640
O O5 0.981025 0.500000 0.851627
O O6 0.812894 0.383634 0.191869
O O7 0.708564 0.500000 0.017101
O O8 0.889414 0.500000 0.010723
O O9 0.200494 0.197558 0.335144
O O10 0.109420 0.125881 0.135852
O O11 0.025555 0.236521 0.291087
O O12 0.860871 0.182745 0.326473
O O13 0.500000 0.358119 0.500000
O O14 0.475493 0.500000 0.313958
O O15 0.000000 0.000000 0.000000
#
# Coordination Sequence:
#
# PCOD9216278 Si02
#       8
#     4   4   4   8   8   2   8   4
#     4  11  21  40  70 100 134 193 238 279 360 432
#     4  12  27  39  69 102 145 184 237 293 358 410
#     4   9  21  44  74 101 131 188 230 291 365 410
#     4  11  24  47  68 104 137 189 237 288 361 425
#     4  10  22  43  72  97 140 183 236 289 351 439
#     4  12  24  46  66 104 152 166 240 318 334 410
#     4  11  23  38  63 101 145 181 222 287 355 415
#     4  10  23  48  76  94 137 195 242 284 356 437
#
# _framework density 23.898921000000001
#
# number of rings (size 3 to 8) (size 9 to 14) (size 15 to 20)
#    0.000    1.333    0.952    5.714    2.667    3.048 
#    3.429    1.905    0.000    0.000    0.000    0.000 
#    0.000    0.000    0.000    0.000    0.000    0.000 
#
# Total GULP energy -116951.268167 kJ/mol
# GULP energy per Si atom -5569.108008 kJ/mol
# Density = 2.384453 g / cm^3
# Si number density = 23.898921 Si / 1000 Ang^3
#
#
#
# Elastic Constant Matrix: (Units=GPa)
#
#
# Indices 1 2 3 4 5 6 
#
# 1 141.2462 24.1061 37.1340 0.0000 37.8606 0.0000
# 2 24.1061 131.8827 41.1386 0.0000 10.0615 0.0000
# 3 37.1340 41.1386 49.6242 0.0000 25.4656 0.0000
# 4 0.0000 0.0000 0.0000 -5.3396 0.0000 -9.0276
# 5 37.8606 10.0615 25.4656 0.0000 52.3914 0.0000
# 6 0.0000 0.0000 0.0000 -9.0276 0.0000 -31.8955
#
#
#
# Elastic Compliance Matrix: (Units=1/GPa)
#
#
# Indices 1 2 3 4 5 6 
#
# 1 0.009574 0.000141 -0.004952 0.000000 -0.004539 0.000000
# 2 0.000141 0.010565 -0.010352 0.000000 0.002901 0.000000
# 3 -0.004952 -0.010352 0.039414 0.000000 -0.013591 0.000000
# 4 0.000000 0.000000 0.000000 -0.359134 0.000000 0.101648
# 5 -0.004539 0.002901 -0.013591 0.000000 0.028416 0.000000
# 6 0.000000 0.000000 0.000000 0.101648 0.000000 -0.060122
#
#
# Mechanical properties :
#
#
# Convention : Reuss Voigt Hill
#
# Bulk Modulus (GPa) = 34.21673 58.61228 46.41451
# Shear Modulus (GPa) = -17.16921 17.72287 0.27683
#
# Velocity S-wave (km/s) = -2.68322 2.72614 0.34071
# Velocity P-wave (km/s) = 2.17917 5.87260 4.42923
#
# Compressibility (1/GPa) = 0.02922547
#
# Stress axis : x y z
#
# Youngs Moduli (GPa) = 104.44557 94.65536 25.37191
#
# Poissons Ratio (x) = -0.01335 0.12565
# Poissons Ratio (y) = -0.01473 0.26266
# Poissons Ratio (z) = 0.51724 0.97991
#
# Static dielectric constant tensor:
#      x y z
#    x 1.877240 0.000000 -0.069800 
#    y 0.000000 1.902470 0.000000 
#    z -0.069800 0.000000 2.512150 
# 
# From -- ./inp_files/141085.got.cif
#   From: 2010.05.17/outbox.cif.g08.bks.cpg/sg12_71_cif.got.tgz:141085.got - 2010.06.03 13:09:07.
