data_PCOD9216108
_publ_section_title
;
Structure prediction by ZEFSAII (Michael W. Deem and Ramdas Pophale) SiO2 
 PCOD9216108
Probable space group: C 2/M
;
_chemical_formula_sum "Si O2"
_cell_formula_units_Z 34
_cell_length_a 18.881366
_cell_length_b 10.599325
_cell_length_c 16.983328
_cell_angle_alpha 90.000000
_cell_angle_beta 28.760750
_cell_angle_gamma 90.000000
_cell_volume 1635.376846
_symmetry_space_group_name_H-M "C 2/M"
_symmetry_group_IT_number 12
_symmetry_cell_setting 'monoclinic'
loop_
_space_group_symop_operation_xyz
x,y,z
-x,y,-z
-x,-y,-z
x,-y,z
1/2+x,1/2+y,z
1/2-x,1/2+y,-z
1/2-x,1/2-y,-z
1/2+x,1/2-y,z
loop_
_atom_site_type_symbol
_atom_site_label
_atom_site_fract_x
_atom_site_fract_y
_atom_site_fract_z
Si Si1 0.042371 0.855886 0.089297
Si Si2 0.042679 0.856669 0.647792
Si Si3 0.743082 0.358730 0.184740
Si Si4 0.000000 0.500000 0.500000
Si Si5 0.717722 0.788504 0.360650
O O1 0.019673 0.832708 0.204485
O O2 0.882370 0.841130 0.206382
O O3 0.097088 0.000000 0.024558
O O4 0.150819 0.751744 0.949009
O O5 0.161145 0.758427 0.500361
O O6 0.907137 0.850904 0.718535
O O7 0.101770 0.000000 0.590803
O O8 0.804070 0.500000 0.114592
O O9 0.715532 0.329487 0.302969
O O10 0.107674 0.390762 0.432910
#
# Coordination Sequence:
#
# PCOD9216108 Si02
#       5
#     8   8   8   2   8
#     4  11  25  41  64  94 129 163 208 261 313 371
#     4  10  22  43  65  92 123 165 208 259 316 370
#     4  11  24  42  65  93 127 168 208 256 314 373
#     4  12  24  40  64 100 124 164 212 262 318 364
#     4  12  23  42  66  92 125 165 214 259 309 375
#
# _framework density 20.790315
#
# number of rings (size 3 to 8) (size 9 to 14) (size 15 to 20)
#    0.000    0.941    3.529    2.824    1.647    5.647 
#    2.118    0.000    0.000    0.000    0.000    0.000 
#    0.000    0.000    0.000    0.000    0.000    0.000 
#
# Total GULP energy -94831.123338 kJ/mol
# GULP energy per Si atom -5578.301373 kJ/mol
# Density = 2.074300 g / cm^3
# Si number density = 20.790315 Si / 1000 Ang^3
#
#
#
# Elastic Constant Matrix: (Units=GPa)
#
#
# Indices 1 2 3 4 5 6 
#
# 1 55.1494 -6.4633 -12.8029 0.0000 9.9408 0.0000
# 2 -6.4633 126.9583 44.0706 0.0000 2.4643 0.0000
# 3 -12.8029 44.0706 41.1337 0.0000 2.7230 0.0000
# 4 0.0000 0.0000 0.0000 -7.3758 0.0000 -24.2562
# 5 9.9408 2.4643 2.7230 0.0000 24.8176 0.0000
# 6 0.0000 0.0000 0.0000 -24.2562 0.0000 8.1856
#
#
#
# Elastic Compliance Matrix: (Units=1/GPa)
#
#
# Indices 1 2 3 4 5 6 
#
# 1 0.021861 -0.002043 0.009630 0.000000 -0.009610 0.000000
# 2 -0.002043 0.012733 -0.014353 0.000000 0.001129 0.000000
# 3 0.009630 -0.014353 0.043160 0.000000 -0.007168 0.000000
# 4 0.000000 0.000000 0.000000 -0.012618 0.000000 -0.037390
# 5 -0.009610 0.001129 -0.007168 0.000000 0.044818 0.000000
# 6 0.000000 0.000000 0.000000 -0.037390 0.000000 0.011369
#
#
# Mechanical properties :
#
#
# Convention : Reuss Voigt Hill
#
# Bulk Modulus (GPa) = 15.57120 30.31668 22.94394
# Shear Modulus (GPa) = 31.99734 18.35462 25.17598
#
# Velocity S-wave (km/s) = 3.92733 2.97449 3.48364
# Velocity P-wave (km/s) = 5.29822 5.13912 5.21928
#
# Compressibility (1/GPa) = 0.06422112
#
# Stress axis : x y z
#
# Youngs Moduli (GPa) = 45.74383 78.53698 23.16955
#
# Poissons Ratio (x) = 0.16047 -0.22311
# Poissons Ratio (y) = 0.09346 0.33254
# Poissons Ratio (z) = -0.44049 1.12721
#
# Static dielectric constant tensor:
#      x y z
#    x 1.730370 0.000000 0.018080 
#    y 0.000000 1.722570 0.000000 
#    z 0.018080 0.000000 1.743130 
# 
# From -- ./inp_files/70947.got.cif
#   From: 2010.05.17/outbox.cif.g08.bks.cpg/sg12_36_cif.got.tgz:70947.got - 2010.06.03 13:09:07.
