data_PCOD9216948
_publ_section_title
;
Structure prediction by ZEFSAII (Michael W. Deem and Ramdas Pophale) SiO2 
 PCOD9216948
Probable space group: C 2/M
;
_chemical_formula_sum "Si O2"
_cell_formula_units_Z 46
_cell_length_a 14.460256
_cell_length_b 7.665225
_cell_length_c 24.444045
_cell_angle_alpha 90.000000
_cell_angle_beta 41.650308
_cell_angle_gamma 90.000000
_cell_volume 1800.623441
_symmetry_space_group_name_H-M "C 2/M"
_symmetry_group_IT_number 12
_symmetry_cell_setting 'monoclinic'
loop_
_space_group_symop_operation_xyz
x,y,z
-x,y,-z
-x,-y,-z
x,-y,z
1/2+x,1/2+y,z
1/2-x,1/2+y,-z
1/2-x,1/2-y,-z
1/2+x,1/2-y,z
loop_
_atom_site_type_symbol
_atom_site_label
_atom_site_fract_x
_atom_site_fract_y
_atom_site_fract_z
Si Si1 0.500000 0.500000 0.000000
Si Si2 0.499964 0.210706 0.169254
Si Si3 0.250000 0.750000 0.500000
Si Si4 0.202993 0.302072 0.938134
Si Si5 0.461458 0.193553 0.605193
Si Si6 0.760928 0.795154 0.785373
Si Si7 0.797736 0.710317 0.354784
O O1 0.410897 0.653786 0.007036
O O2 0.653530 0.281620 0.092555
O O3 0.385928 0.263804 0.174913
O O4 0.426436 0.264959 0.258963
O O5 0.510909 0.000000 0.164466
O O6 0.402196 0.691719 0.458194
O O7 0.189458 0.771253 0.589118
O O8 0.148785 0.500000 0.968576
O O9 0.256084 0.273625 0.851838
O O10 0.381304 0.203762 0.698120
O O11 0.343549 0.224272 0.612246
O O12 0.527655 0.000000 0.571964
O O13 0.775022 0.000000 0.766074
O O14 0.795548 0.500000 0.355246
#
# Coordination Sequence:
#
# PCOD9216948 Si02
#       7
#     2   8   4   8   8   8   8
#     4  12  26  44  68  98 144 174 198 272 320 390
#     4   9  18  40  68  93 124 167 216 269 323 378
#     4  12  24  36  56  86 126 172 218 264 334 386
#     4  11  23  42  69  98 133 174 216 258 322 388
#     4  11  24  39  60  90 122 164 218 274 325 386
#     4   9  21  41  68  95 126 166 218 266 316 383
#     4  10  23  41  61  87 124 169 215 272 328 382
#
# _framework density 25.546704999999999
#
# number of rings (size 3 to 8) (size 9 to 14) (size 15 to 20)
#    0.000    1.739    0.870    3.913    1.217    9.739 
#    0.000    0.870    0.000    0.000    0.000    0.000 
#    0.000    0.000    0.000    0.000    0.000    0.000 
#
# Total GULP energy -128068.128635 kJ/mol
# GULP energy per Si atom -5568.179506 kJ/mol
# Density = 2.548856 g / cm^3
# Si number density = 25.546705 Si / 1000 Ang^3
#
#
#
# Elastic Constant Matrix: (Units=GPa)
#
#
# Indices 1 2 3 4 5 6 
#
# 1 91.4317 13.3354 50.6277 0.0000 -23.5622 0.0001
# 2 13.3354 74.2247 37.2436 -0.0002 2.9095 0.0009
# 3 50.6277 37.2436 108.3461 0.0000 -21.5564 -0.0001
# 4 0.0000 -0.0002 0.0000 17.0782 0.0000 -24.0493
# 5 -23.5622 2.9095 -21.5564 0.0000 42.8284 -0.0002
# 6 0.0001 0.0009 -0.0001 -24.0493 -0.0002 30.2086
#
#
#
# Elastic Compliance Matrix: (Units=1/GPa)
#
#
# Indices 1 2 3 4 5 6 
#
# 1 0.015861 0.000123 -0.006356 0.000001 0.005518 0.000000
# 2 0.000123 0.017049 -0.006818 0.000005 -0.004522 0.000003
# 3 -0.006356 -0.006818 0.015491 -0.000003 0.004763 -0.000002
# 4 0.000001 0.000005 -0.000003 -0.483634 -0.000003 -0.385024
# 5 0.005518 -0.004522 0.004763 -0.000003 0.029090 -0.000002
# 6 0.000000 0.000003 -0.000002 -0.385024 -0.000002 -0.273418
#
#
# Mechanical properties :
#
#
# Convention : Reuss Voigt Hill
#
# Bulk Modulus (GPa) = 44.84358 52.93510 48.88934
# Shear Modulus (GPa) = -7.73960 29.54275 10.90158
#
# Velocity S-wave (km/s) = -1.74246 3.40431 2.06799
# Velocity P-wave (km/s) = 3.68014 6.01817 4.98807
#
# Compressibility (1/GPa) = 0.02229974
#
# Stress axis : x y z
#
# Youngs Moduli (GPa) = 63.04958 58.65587 64.55431
#
# Poissons Ratio (x) = -0.00723 0.41029
# Poissons Ratio (y) = -0.00777 0.44011
# Poissons Ratio (z) = 0.40072 0.39990
#
# Static dielectric constant tensor:
#      x y z
#    x 1.970110 0.000000 0.017510 
#    y 0.000000 1.908740 0.000000 
#    z 0.017510 0.000000 1.992910 
# 
# From -- ./inp_files/360263.got.cif
#   From: 2010.05.17/outbox.cif.g08.bks.cpg/sg12_181_cif.got.tgz:360263.got - 2010.06.03 13:09:07.
