data_PCOD9216503
_publ_section_title
;
Structure prediction by ZEFSAII (Michael W. Deem and Ramdas Pophale) SiO2 
 PCOD9216503
Probable space group: C 2/M
;
_chemical_formula_sum "Si O2"
_cell_formula_units_Z 28
_cell_length_a 25.997299
_cell_length_b 7.671868
_cell_length_c 13.509823
_cell_angle_alpha 90.000000
_cell_angle_beta 140.095245
_cell_angle_gamma 90.000000
_cell_volume 1728.560850
_symmetry_space_group_name_H-M "C 2/M"
_symmetry_group_IT_number 12
_symmetry_cell_setting 'monoclinic'
loop_
_space_group_symop_operation_xyz
x,y,z
-x,y,-z
-x,-y,-z
x,-y,z
1/2+x,1/2+y,z
1/2-x,1/2+y,-z
1/2-x,1/2-y,-z
1/2+x,1/2-y,z
loop_
_atom_site_type_symbol
_atom_site_label
_atom_site_fract_x
_atom_site_fract_y
_atom_site_fract_z
Si Si1 0.286703 0.297347 0.947999
Si Si2 0.814767 0.803667 0.391016
Si Si3 0.823765 0.500000 0.724421
Si Si4 0.593503 0.000000 0.366212
Si Si5 0.594952 0.000000 0.946868
O O1 0.309557 0.500000 0.979226
O O2 0.220494 0.261559 0.765124
O O3 0.250000 0.250000 0.000000
O O4 0.359803 0.168234 0.031114
O O5 0.736528 0.836882 0.345618
O O6 0.874765 0.668624 0.527983
O O7 0.848288 0.000000 0.427876
O O8 0.865574 0.500000 0.681381
O O9 0.885899 0.500000 0.907367
O O10 0.498346 0.000000 0.213706
#
# Coordination Sequence:
#
# PCOD9216503 Si02
#       5
#     8   8   4   4   4
#     4  11  19  38  62  77 105 148 187 225 272 337
#     4   9  20  34  56  85 106 144 196 213 265 337
#     4   8  19  38  54  78 116 152 188 212 264 338
#     4  12  19  35  58  82 121 143 173 244 274 299
#     4  10  23  35  54  90 111 141 187 228 278 323
#
# _framework density 16.198447000000002
#
# number of rings (size 3 to 8) (size 9 to 14) (size 15 to 20)
#    0.857    1.143    4.286    1.286    0.000    1.143 
#    0.000    2.857    0.000    8.571    0.000    0.000 
#    0.000    0.000    0.000    0.000    0.000    0.000 
#
# Total GULP energy -77986.222109 kJ/mol
# GULP energy per Si atom -5570.444436 kJ/mol
# Density = 1.616158 g / cm^3
# Si number density = 16.198447 Si / 1000 Ang^3
#
#
#
# Elastic Constant Matrix: (Units=GPa)
#
#
# Indices 1 2 3 4 5 6 
#
# 1 36.2080 28.6973 39.7134 0.0000 -14.5933 0.0000
# 2 28.6973 152.8226 60.4269 0.0000 2.9116 0.0000
# 3 39.7134 60.4269 126.5060 0.0000 13.5893 0.0000
# 4 0.0000 0.0000 0.0000 28.9518 0.0000 -3.8292
# 5 -14.5933 2.9116 13.5893 0.0000 24.1137 0.0000
# 6 0.0000 0.0000 0.0000 -3.8292 0.0000 11.6702
#
#
#
# Elastic Compliance Matrix: (Units=1/GPa)
#
#
# Indices 1 2 3 4 5 6 
#
# 1 0.130350 -0.007128 -0.049051 0.000000 0.107390 0.000000
# 2 -0.007128 0.008494 -0.001326 0.000000 -0.004592 0.000000
# 3 -0.049051 -0.001326 0.028855 0.000000 -0.045786 0.000000
# 4 0.000000 0.000000 0.000000 0.036107 0.000000 0.011847
# 5 0.107390 -0.004592 -0.045786 0.000000 0.132819 0.000000
# 6 0.000000 0.000000 0.000000 0.011847 0.000000 0.089576
#
#
# Mechanical properties :
#
#
# Convention : Reuss Voigt Hill
#
# Bulk Modulus (GPa) = 18.97962 63.69019 41.33491
# Shear Modulus (GPa) = 8.94815 25.39375 17.17095
#
# Velocity S-wave (km/s) = 2.35289 3.96367 3.25935
# Velocity P-wave (km/s) = 4.37308 7.76863 6.30379
#
# Compressibility (1/GPa) = 0.05268808
#
# Stress axis : x y z
#
# Youngs Moduli (GPa) = 7.67163 117.73056 34.65614
#
# Poissons Ratio (x) = 0.83922 1.69992
# Poissons Ratio (y) = 0.05469 0.04596
# Poissons Ratio (z) = 0.37630 0.15613
#
# Static dielectric constant tensor:
#      x y z
#    x 1.519200 0.000000 -0.011150 
#    y 0.000000 1.549340 0.000000 
#    z -0.011150 0.000000 1.517780 
# 
# From -- ./inp_files/171690.got.cif
#   From: 2010.05.17/outbox.cif.g08.bks.cpg/sg12_86_cif.got.tgz:171690.got - 2010.06.03 13:09:07.
