data_PCOD9216233
_publ_section_title
;
Structure prediction by ZEFSAII (Michael W. Deem and Ramdas Pophale) SiO2 
 PCOD9216233
Probable space group: C 2/M
;
_chemical_formula_sum "Si O2"
_cell_formula_units_Z 60
_cell_length_a 19.295919
_cell_length_b 8.046539
_cell_length_c 19.792671
_cell_angle_alpha 90.000000
_cell_angle_beta 52.607067
_cell_angle_gamma 90.000000
_cell_volume 2441.558710
_symmetry_space_group_name_H-M "C 2/M"
_symmetry_group_IT_number 12
_symmetry_cell_setting 'monoclinic'
loop_
_space_group_symop_operation_xyz
x,y,z
-x,y,-z
-x,-y,-z
x,-y,z
1/2+x,1/2+y,z
1/2-x,1/2+y,-z
1/2-x,1/2-y,-z
1/2+x,1/2-y,z
loop_
_atom_site_type_symbol
_atom_site_label
_atom_site_fract_x
_atom_site_fract_y
_atom_site_fract_z
Si Si1 0.841176 0.693527 0.476415
Si Si2 0.172670 0.195689 0.747510
Si Si3 0.625320 0.193995 0.394814
Si Si4 0.867578 0.191710 0.078325
Si Si5 0.179934 0.809347 0.148309
Si Si6 0.478442 0.307239 0.667884
Si Si7 0.921379 0.500000 0.239428
Si Si8 0.587649 0.822941 0.083477
O O1 0.829734 0.500000 0.495881
O O2 0.750000 0.750000 0.500000
O O3 0.864013 0.766958 0.536491
O O4 0.928543 0.719335 0.380975
O O5 0.277320 0.194628 0.693174
O O6 0.134303 0.250396 0.843346
O O7 0.149486 0.347076 0.711722
O O8 0.148281 0.000000 0.746410
O O9 0.559037 0.286594 0.385262
O O10 0.596820 0.000000 0.414247
O O11 0.768843 0.214471 0.109437
O O12 0.890979 0.000000 0.066589
O O13 0.925105 0.277221 0.986813
O O14 0.099106 0.737601 0.239524
O O15 0.145892 0.801612 0.091884
O O16 0.193757 0.000000 0.161590
O O17 0.490962 0.500000 0.677594
O O18 0.997097 0.357982 0.174653
O O19 0.636700 0.000000 0.055231
#
# Coordination Sequence:
#
# PCOD9216233 Si02
#       8
#     8   8   8   8   8   8   4   8
#     4  11  25  45  68  98 139 181 217 267 339 406
#     4  10  23  42  68 100 132 177 229 288 339 404
#     4  10  22  43  69  99 133 174 224 281 337 397
#     4  11  22  38  66  95 130 171 224 282 348 401
#     4  11  23  40  65  94 131 172 225 282 341 399
#     4  11  24  41  68 103 133 173 224 283 334 400
#     4  10  26  43  66  92 135 178 233 268 350 419
#     4  10  24  41  58  90 129 176 218 275 334 409
#
# _framework density 24.574468
#
# number of rings (size 3 to 8) (size 9 to 14) (size 15 to 20)
#    0.400    1.067    1.333    2.800    2.800    7.467 
#    2.400    4.000    0.000    0.000    0.000    0.000 
#    0.000    0.000    0.000    0.000    0.000    0.000 
#
# Total GULP energy -167257.643628 kJ/mol
# GULP energy per Si atom -5575.254788 kJ/mol
# Density = 2.451853 g / cm^3
# Si number density = 24.574468 Si / 1000 Ang^3
#
#
#
# Elastic Constant Matrix: (Units=GPa)
#
#
# Indices 1 2 3 4 5 6 
#
# 1 106.2737 18.1757 33.5519 0.0001 -2.6501 0.0000
# 2 18.1757 50.0723 -11.4836 0.0004 3.8247 -0.0002
# 3 33.5519 -11.4836 77.2254 0.0001 -10.1427 -0.0002
# 4 0.0001 0.0004 0.0001 17.5484 0.0000 -6.2471
# 5 -2.6501 3.8247 -10.1427 0.0000 38.3282 0.0001
# 6 0.0000 -0.0002 -0.0002 -6.2471 0.0001 15.1241
#
#
#
# Elastic Compliance Matrix: (Units=1/GPa)
#
#
# Indices 1 2 3 4 5 6 
#
# 1 0.012408 -0.005933 -0.006302 0.000000 -0.000218 0.000000
# 2 -0.005933 0.023575 0.005926 0.000000 -0.001194 0.000000
# 3 -0.006302 0.005926 0.017025 0.000000 0.003478 0.000000
# 4 0.000000 0.000000 0.000000 0.066809 0.000000 0.027596
# 5 -0.000218 -0.001194 0.003478 0.000000 0.027115 0.000000
# 6 0.000000 0.000000 0.000000 0.027596 0.000000 0.077518
#
#
# Mechanical properties :
#
#
# Convention : Reuss Voigt Hill
#
# Bulk Modulus (GPa) = 24.75729 34.89549 29.82639
# Shear Modulus (GPa) = 19.95751 27.08863 23.52307
#
# Velocity S-wave (km/s) = 2.85287 3.32370 3.09725
# Velocity P-wave (km/s) = 4.57691 5.38146 4.99541
#
# Compressibility (1/GPa) = 0.04039215
#
# Stress axis : x y z
#
# Youngs Moduli (GPa) = 80.58995 42.41771 58.73653
#
# Poissons Ratio (x) = 0.25166 0.37015
# Poissons Ratio (y) = 0.47812 -0.34810
# Poissons Ratio (z) = 0.50787 -0.25138
#
# Static dielectric constant tensor:
#      x y z
#    x 1.958840 0.000000 0.062020 
#    y 0.000000 1.924280 0.000000 
#    z 0.062020 0.000000 2.060450 
# 
# From -- ./inp_files/320499.got.cif
#   From: 2010.05.17/outbox.cif.g08.bks.cpg/sg12_161_cif.got.tgz:320499.got - 2010.06.03 13:09:07.
