data_PCOD9216829
_publ_section_title
;
Structure prediction by ZEFSAII (Michael W. Deem and Ramdas Pophale) SiO2 
 PCOD9216829
Probable space group: C 2/M
;
_chemical_formula_sum "Si O2"
_cell_formula_units_Z 50
_cell_length_a 5.298226
_cell_length_b 32.622731
_cell_length_c 12.626374
_cell_angle_alpha 90.000000
_cell_angle_beta 95.330628
_cell_angle_gamma 90.000000
_cell_volume 2172.936947
_symmetry_space_group_name_H-M "C 2/M"
_symmetry_group_IT_number 12
_symmetry_cell_setting 'monoclinic'
loop_
_space_group_symop_operation_xyz
x,y,z
-x,y,-z
-x,-y,-z
x,-y,z
1/2+x,1/2+y,z
1/2-x,1/2+y,-z
1/2-x,1/2-y,-z
1/2+x,1/2-y,z
loop_
_atom_site_type_symbol
_atom_site_label
_atom_site_fract_x
_atom_site_fract_y
_atom_site_fract_z
Si Si1 0.723724 0.423782 0.731555
Si Si2 0.249353 0.576206 0.874509
Si Si3 0.263645 0.000000 0.573647
Si Si4 0.767529 0.650234 0.571223
Si Si5 0.567163 0.238025 0.364186
Si Si6 0.500000 0.500000 0.000000
Si Si7 0.085559 0.227064 0.869413
Si Si8 0.500000 0.350634 0.000000
O O1 0.463363 0.425628 0.789013
O O2 0.759652 0.461288 0.651800
O O3 0.729975 0.384131 0.658084
O O4 0.966394 0.424210 0.818140
O O5 0.310028 0.536479 0.947130
O O6 0.297450 0.618246 0.941306
O O7 0.500000 0.000000 0.500000
O O8 0.000000 0.000000 0.500000
O O9 0.500000 0.655059 0.500000
O O10 0.844967 0.691444 0.635366
O O11 0.000000 0.639903 0.500000
O O12 0.299667 0.234883 0.413250
O O13 0.465318 0.262533 0.256402
O O14 0.338431 0.251234 0.905266
O O15 0.092790 0.180530 0.910979
#
# Coordination Sequence:
#
# PCOD9216829 Si02
#       8
#     8   8   4   8   8   2   8   4
#     4  12  26  46  72 106 141 183 219 285 347 395
#     4  11  27  43  75 100 149 179 227 275 337 417
#     4  12  24  45  78 107 140 177 232 273 336 416
#     4  12  26  44  70  98 138 178 233 287 342 416
#     4  10  23  40  65  93 129 179 223 291 338 400
#     4  10  24  52  68 114 140 186 228 268 328 412
#     4  10  23  40  65  93 134 171 231 291 336 395
#     4  11  26  43  70 104 130 188 234 281 342 401
#
# _framework density 23.010331000000001
#
# number of rings (size 3 to 8) (size 9 to 14) (size 15 to 20)
#    0.000    0.960    0.000    5.280    8.960    6.400 
#    0.000    0.000    0.000    0.000    0.000    0.000 
#    0.000    0.000    0.000    0.000    0.000    0.000 
#
# Total GULP energy -139463.553094 kJ/mol
# GULP energy per Si atom -5578.542124 kJ/mol
# Density = 2.295796 g / cm^3
# Si number density = 23.010331 Si / 1000 Ang^3
#
#
#
# Elastic Constant Matrix: (Units=GPa)
#
#
# Indices 1 2 3 4 5 6 
#
# 1 143.0482 16.5471 36.6457 0.0000 16.5061 0.0000
# 2 16.5471 185.4134 55.3248 0.0000 11.0481 0.0000
# 3 36.6457 55.3248 100.4380 0.0000 11.1322 0.0000
# 4 0.0000 0.0000 0.0000 27.1480 0.0000 5.8606
# 5 16.5061 11.0481 11.1322 0.0000 50.4040 0.0000
# 6 0.0000 0.0000 0.0000 5.8606 0.0000 7.6153
#
#
#
# Elastic Compliance Matrix: (Units=1/GPa)
#
#
# Indices 1 2 3 4 5 6 
#
# 1 0.007913 0.000250 -0.002800 0.000000 -0.002028 0.000000
# 2 0.000250 0.006483 -0.003583 0.000000 -0.000711 0.000000
# 3 -0.002800 -0.003583 0.013083 0.000000 -0.001187 0.000000
# 4 0.000000 0.000000 0.000000 0.044174 0.000000 -0.033995
# 5 -0.002028 -0.000711 -0.001187 0.000000 0.020922 0.000000
# 6 0.000000 0.000000 0.000000 -0.033995 0.000000 0.157477
#
#
# Mechanical properties :
#
#
# Convention : Reuss Voigt Hill
#
# Bulk Modulus (GPa) = 65.73544 71.77053 68.75299
# Shear Modulus (GPa) = 18.69935 38.39226 28.54581
#
# Velocity S-wave (km/s) = 2.85379 4.08913 3.52599
# Velocity P-wave (km/s) = 6.28400 7.31799 6.82062
#
# Compressibility (1/GPa) = 0.01521249
#
# Stress axis : x y z
#
# Youngs Moduli (GPa) = 126.37375 154.25861 76.43240
#
# Poissons Ratio (x) = -0.03859 0.21403
# Poissons Ratio (y) = -0.03162 0.27388
# Poissons Ratio (z) = 0.35387 0.55275
#
# Static dielectric constant tensor:
#      x y z
#    x 2.010500 0.000000 -0.198200 
#    y 0.000000 2.038880 0.000000 
#    z -0.198200 0.000000 2.110340 
# 
# From -- ./inp_files/192644.got.cif
#   From: 2010.05.17/outbox.cif.g08.bks.cpg/sg12_97_cif.got.tgz:192644.got - 2010.06.03 13:09:07.
