data_PCOD9216552
_publ_section_title
;
Structure prediction by ZEFSAII (Michael W. Deem and Ramdas Pophale) SiO2 
 PCOD9216552
Probable space group: C 2/M
;
_chemical_formula_sum "Si O2"
_cell_formula_units_Z 32
_cell_length_a 12.760284
_cell_length_b 18.203569
_cell_length_c 9.402970
_cell_angle_alpha 90.000000
_cell_angle_beta 44.688261
_cell_angle_gamma 90.000000
_cell_volume 1535.999567
_symmetry_space_group_name_H-M "C 2/M"
_symmetry_group_IT_number 12
_symmetry_cell_setting 'monoclinic'
loop_
_space_group_symop_operation_xyz
x,y,z
-x,y,-z
-x,-y,-z
x,-y,z
1/2+x,1/2+y,z
1/2-x,1/2+y,-z
1/2-x,1/2-y,-z
1/2+x,1/2-y,z
loop_
_atom_site_type_symbol
_atom_site_label
_atom_site_fract_x
_atom_site_fract_y
_atom_site_fract_z
Si Si1 0.239005 0.651215 0.984509
Si Si2 0.242072 0.339262 0.326582
Si Si3 0.132121 0.500000 0.487446
Si Si4 0.398061 0.000000 0.961475
Si Si5 0.011247 0.756757 0.730115
O O1 0.245298 0.657406 0.151687
O O2 0.205069 0.570586 0.963460
O O3 0.095304 0.699887 0.083931
O O4 0.390967 0.686624 0.780266
O O5 0.223273 0.424575 0.388635
O O6 0.107450 0.291025 0.525416
O O7 0.384031 0.301925 0.264128
O O8 0.000000 0.500000 0.500000
O O9 0.030822 0.500000 0.721469
O O10 0.500000 0.000000 0.000000
#
# Coordination Sequence:
#
# PCOD9216552 Si02
#       5
#     8   8   4   4   8
#     4  11  22  43  66  94 132 172 213 266 325 384
#     4  11  21  41  68  96 127 171 222 260 320 387
#     4  12  20  43  69  91 123 175 221 265 322 391
#     4  12  26  43  65  97 131 171 215 274 329 383
#     4  10  23  37  63 103 129 163 214 270 316 377
#
# _framework density 20.833338999999999
#
# number of rings (size 3 to 8) (size 9 to 14) (size 15 to 20)
#    0.000    1.000    5.000    1.500    0.000    5.000 
#    4.500    2.500    0.000    1.500    0.000    0.000 
#    0.000    0.000    0.000    0.000    0.000    0.000 
#
# Total GULP energy -89363.829315 kJ/mol
# GULP energy per Si atom -5585.239332 kJ/mol
# Density = 2.078592 g / cm^3
# Si number density = 20.833339 Si / 1000 Ang^3
#
#
#
# Elastic Constant Matrix: (Units=GPa)
#
#
# Indices 1 2 3 4 5 6 
#
# 1 131.0726 86.1060 45.0094 0.0000 -12.0916 0.0000
# 2 86.1060 225.1488 46.4408 0.0000 -21.0730 0.0000
# 3 45.0094 46.4408 77.7235 0.0000 -7.6006 0.0000
# 4 0.0000 0.0000 0.0000 25.9166 0.0000 -5.9314
# 5 -12.0916 -21.0730 -7.6006 0.0000 44.6688 0.0000
# 6 0.0000 0.0000 0.0000 -5.9314 0.0000 62.9290
#
#
#
# Elastic Compliance Matrix: (Units=1/GPa)
#
#
# Indices 1 2 3 4 5 6 
#
# 1 0.011485 -0.003383 -0.004557 0.000000 0.000737 0.000000
# 2 -0.003383 0.006227 -0.001590 0.000000 0.001751 0.000000
# 3 -0.004557 -0.001590 0.016537 0.000000 0.000830 0.000000
# 4 0.000000 0.000000 0.000000 0.039436 0.000000 0.003717
# 5 0.000737 0.001751 0.000830 0.000000 0.023554 0.000000
# 6 0.000000 0.000000 0.000000 0.003717 0.000000 0.016241
#
#
# Mechanical properties :
#
#
# Convention : Reuss Voigt Hill
#
# Bulk Modulus (GPa) = 65.84541 87.67306 76.75923
# Shear Modulus (GPa) = 36.33606 43.79545 40.06576
#
# Velocity S-wave (km/s) = 4.18081 4.58993 4.39014
# Velocity P-wave (km/s) = 7.41485 8.38238 7.91342
#
# Compressibility (1/GPa) = 0.01518709
#
# Stress axis : x y z
#
# Youngs Moduli (GPa) = 87.07101 160.58109 60.47182
#
# Poissons Ratio (x) = 0.54329 0.27558
# Poissons Ratio (y) = 0.29458 0.09618
# Poissons Ratio (z) = 0.39680 0.25539
#
# Static dielectric constant tensor:
#      x y z
#    x 1.742270 0.000000 -0.009340 
#    y 0.000000 1.742960 0.000000 
#    z -0.009340 0.000000 1.746550 
# 
# From -- ./inp_files/48325.got.cif
#   From: 2010.05.17/outbox.cif.g08.bks.cpg/sg12_25_cif.got.tgz:48325.got - 2010.06.03 13:09:07.
