data_PCOD9216859
_publ_section_title
;
Structure prediction by ZEFSAII (Michael W. Deem and Ramdas Pophale) SiO2 
 PCOD9216859
Probable space group: C 2/M
;
_chemical_formula_sum "Si O2"
_cell_formula_units_Z 34
_cell_length_a 13.190327
_cell_length_b 13.964234
_cell_length_c 15.644201
_cell_angle_alpha 90.000000
_cell_angle_beta 152.950121
_cell_angle_gamma 90.000000
_cell_volume 1310.430676
_symmetry_space_group_name_H-M "C 2/M"
_symmetry_group_IT_number 12
_symmetry_cell_setting 'monoclinic'
loop_
_space_group_symop_operation_xyz
x,y,z
-x,y,-z
-x,-y,-z
x,-y,z
1/2+x,1/2+y,z
1/2-x,1/2+y,-z
1/2-x,1/2-y,-z
1/2+x,1/2-y,z
loop_
_atom_site_type_symbol
_atom_site_label
_atom_site_fract_x
_atom_site_fract_y
_atom_site_fract_z
Si Si1 0.000000 0.000000 0.500000
Si Si2 0.127694 0.106913 0.381300
Si Si3 0.731655 0.110475 0.950538
Si Si4 0.633601 0.834507 0.189921
Si Si5 0.066289 0.291341 0.669775
O O1 0.809995 0.082219 0.336356
O O2 0.372005 0.130236 0.529116
O O3 0.049390 0.192500 0.384384
O O4 0.118234 0.000000 0.416339
O O5 0.951897 0.107890 0.172686
O O6 0.538952 0.158984 0.862495
O O7 0.740951 0.170716 0.871741
O O8 0.670966 0.000000 0.887696
O O9 0.500000 0.848529 0.000000
O O10 0.219524 0.737897 0.705598
#
# Coordination Sequence:
#
# PCOD9216859 Si02
#       5
#     2   8   8   8   8
#     4  12  30  40  68 114 150 178 230 310 370 424
#     4  10  23  40  67 102 140 184 241 294 355 428
#     4  11  24  45  74 105 144 187 240 300 365 425
#     4  12  27  43  71 108 148 184 240 299 364 431
#     4  11  25  42  71 106 145 189 238 298 363 432
#
# _framework density 25.945667
#
# number of rings (size 3 to 8) (size 9 to 14) (size 15 to 20)
#    0.000    0.941    3.529    1.765    8.235    0.000 
#    0.000    0.000    0.000    7.059    0.000    0.000 
#    0.000    0.000    0.000    0.000    0.000    0.000 
#
# Total GULP energy -95173.438899 kJ/mol
# GULP energy per Si atom -5598.437582 kJ/mol
# Density = 2.588661 g / cm^3
# Si number density = 25.945667 Si / 1000 Ang^3
#
#
#
# Elastic Constant Matrix: (Units=GPa)
#
#
# Indices 1 2 3 4 5 6 
#
# 1 66.6649 45.7301 6.1588 0.0044 6.3809 0.0007
# 2 45.7301 126.2517 12.8563 0.0136 10.6794 0.0058
# 3 6.1588 12.8563 134.4214 0.0211 17.5927 0.0115
# 4 0.0044 0.0136 0.0211 54.3128 0.0063 2.3710
# 5 6.3809 10.6794 17.5927 0.0063 29.5423 0.0018
# 6 0.0007 0.0058 0.0115 2.3710 0.0018 26.0569
#
#
#
# Elastic Compliance Matrix: (Units=1/GPa)
#
#
# Indices 1 2 3 4 5 6 
#
# 1 0.020048 -0.007112 -0.000009 0.000000 -0.001754 0.000001
# 2 -0.007112 0.010717 -0.000426 -0.000002 -0.002084 -0.000002
# 3 -0.000009 -0.000426 0.008091 -0.000002 -0.004662 -0.000003
# 4 0.000000 -0.000002 -0.000002 0.018485 -0.000002 -0.001682
# 5 -0.001754 -0.002084 -0.004662 -0.000002 0.037758 0.000000
# 6 0.000001 -0.000002 -0.000003 -0.001682 0.000000 0.038531
#
#
# Mechanical properties :
#
#
# Convention : Reuss Voigt Hill
#
# Bulk Modulus (GPa) = 42.08725 50.75869 46.42297
# Shear Modulus (GPa) = 31.91947 39.48861 35.70404
#
# Velocity S-wave (km/s) = 3.51129 3.90548 3.71362
# Velocity P-wave (km/s) = 5.71799 6.32004 6.02654
#
# Compressibility (1/GPa) = 0.02376016
#
# Stress axis : x y z
#
# Youngs Moduli (GPa) = 49.88043 93.31338 123.59986
#
# Poissons Ratio (x) = 0.66368 0.00108
# Poissons Ratio (y) = 0.35477 0.05270
# Poissons Ratio (z) = 0.00044 0.03978
#
# Static dielectric constant tensor:
#      x y z
#    x 2.196130 0.000000 -0.063190 
#    y 0.000000 1.993730 -0.000010 
#    z -0.063190 -0.000010 2.070010 
# 
# From -- ./inp_files/316583.got.cif
#   From: 2010.05.17/outbox.cif.g08.bks.cpg/sg12_159_cif.got.tgz:316583.got - 2010.06.03 13:09:07.
