data_PCOD9216312
_publ_section_title
;
Structure prediction by ZEFSAII (Michael W. Deem and Ramdas Pophale) SiO2 
 PCOD9216312
Probable space group: C 2/M
;
_chemical_formula_sum "Si O2"
_cell_formula_units_Z 56
_cell_length_a 14.895831
_cell_length_b 17.327924
_cell_length_c 12.476570
_cell_angle_alpha 90.000000
_cell_angle_beta 53.386225
_cell_angle_gamma 90.000000
_cell_volume 2584.911821
_symmetry_space_group_name_H-M "C 2/M"
_symmetry_group_IT_number 12
_symmetry_cell_setting 'monoclinic'
loop_
_space_group_symop_operation_xyz
x,y,z
-x,y,-z
-x,-y,-z
x,-y,z
1/2+x,1/2+y,z
1/2-x,1/2+y,-z
1/2-x,1/2-y,-z
1/2+x,1/2-y,z
loop_
_atom_site_type_symbol
_atom_site_label
_atom_site_fract_x
_atom_site_fract_y
_atom_site_fract_z
Si Si1 0.618203 0.688130 0.131414
Si Si2 0.978525 0.500000 0.885120
Si Si3 0.191403 0.245814 0.872095
Si Si4 0.470848 0.169484 0.176011
Si Si5 0.028165 0.908042 0.601037
Si Si6 0.049965 0.500000 0.341226
Si Si7 0.229948 0.342477 0.523423
Si Si8 0.125279 0.650885 0.377923
O O1 0.738944 0.697703 0.100012
O O2 0.545075 0.767312 0.185560
O O3 0.549323 0.627949 0.250993
O O4 0.639961 0.680860 0.988293
O O5 0.956668 0.593721 0.899769
O O6 0.010799 0.500000 0.730710
O O7 0.000000 0.500000 0.000000
O O8 0.095308 0.287155 0.873262
O O9 0.288992 0.213521 0.727300
O O10 0.364845 0.144409 0.321956
O O11 0.000000 0.881402 0.500000
O O12 0.154195 0.882035 0.532185
O O13 0.017223 0.000000 0.611616
O O14 0.115685 0.580809 0.301384
O O15 0.000000 0.500000 0.500000
O O16 0.250000 0.250000 0.500000
O O17 0.181453 0.375949 0.448017
O O18 0.000000 0.678264 0.500000
#
# Coordination Sequence:
#
# PCOD9216312 Si02
#       8
#     8   4   8   8   8   4   8   8
#     4  11  23  43  66  92 138 183 229 283 348 424
#     4  12  26  44  68 102 143 191 231 293 376 434
#     4  11  23  39  66  99 130 182 233 281 340 433
#     4  12  24  43  69 101 140 181 234 299 355 427
#     4  11  26  46  70 101 143 184 236 303 367 435
#     4  10  22  44  66  98 138 181 225 301 369 408
#     4  12  23  40  70 105 130 184 240 294 363 426
#     4  11  23  40  69 100 136 178 233 298 357 417
#
# _framework density 21.664180999999999
#
# number of rings (size 3 to 8) (size 9 to 14) (size 15 to 20)
#    0.000    0.714    2.857    5.571    2.000    1.143 
#    2.571    0.000    3.143    1.714    0.000    0.000 
#    0.000    0.000    0.000    0.000    0.000    0.000 
#
# Total GULP energy -155894.952175 kJ/mol
# GULP energy per Si atom -5567.676863 kJ/mol
# Density = 2.161487 g / cm^3
# Si number density = 21.664181 Si / 1000 Ang^3
#
#
#
# Elastic Constant Matrix: (Units=GPa)
#
#
# Indices 1 2 3 4 5 6 
#
# 1 120.9480 32.6322 56.8114 0.0000 8.9486 0.0000
# 2 32.6322 107.1134 28.9406 0.0000 -1.1540 0.0000
# 3 56.8114 28.9406 136.7062 0.0000 5.5105 0.0000
# 4 0.0000 0.0000 0.0000 50.2544 0.0000 30.6231
# 5 8.9486 -1.1540 5.5105 0.0000 48.3053 0.0000
# 6 0.0000 0.0000 0.0000 30.6231 0.0000 42.8067
#
#
#
# Elastic Compliance Matrix: (Units=1/GPa)
#
#
# Indices 1 2 3 4 5 6 
#
# 1 0.010861 -0.002253 -0.003971 0.000000 -0.001613 0.000000
# 2 -0.002253 0.010381 -0.001294 0.000000 0.000813 0.000000
# 3 -0.003971 -0.001294 0.009253 0.000000 -0.000351 0.000000
# 4 0.000000 0.000000 0.000000 0.035277 0.000000 -0.025236
# 5 -0.001613 0.000813 -0.000351 0.000000 0.021060 0.000000
# 6 0.000000 0.000000 0.000000 -0.025236 0.000000 0.041415
#
#
# Mechanical properties :
#
#
# Convention : Reuss Voigt Hill
#
# Bulk Modulus (GPa) = 64.69240 66.83733 65.76486
# Shear Modulus (GPa) = 33.68462 44.69885 39.19173
#
# Velocity S-wave (km/s) = 3.94744 4.54724 4.25792
# Velocity P-wave (km/s) = 7.12058 7.64777 7.38888
#
# Compressibility (1/GPa) = 0.01545777
#
# Stress axis : x y z
#
# Youngs Moduli (GPa) = 92.07542 96.33275 108.06770
#
# Poissons Ratio (x) = 0.21704 0.42918
# Poissons Ratio (y) = 0.20745 0.13984
# Poissons Ratio (z) = 0.36567 0.12466
#
# Static dielectric constant tensor:
#      x y z
#    x 1.764690 0.000000 0.039090 
#    y 0.000000 1.818090 0.000000 
#    z 0.039090 0.000000 1.865330 
# 
# From -- ./inp_files/146084.got.cif
#   From: 2010.05.17/outbox.cif.g08.bks.cpg/sg12_74_cif.got.tgz:146084.got - 2010.06.03 13:09:07.
