data_PCOD9216416
_publ_section_title
;
Structure prediction by ZEFSAII (Michael W. Deem and Ramdas Pophale) SiO2 
 PCOD9216416
Probable space group: C 2/M
;
_chemical_formula_sum "Si O2"
_cell_formula_units_Z 36
_cell_length_a 11.275061
_cell_length_b 22.027498
_cell_length_c 7.501475
_cell_angle_alpha 90.000000
_cell_angle_beta 118.967605
_cell_angle_gamma 90.000000
_cell_volume 1629.994036
_symmetry_space_group_name_H-M "C 2/M"
_symmetry_group_IT_number 12
_symmetry_cell_setting 'monoclinic'
loop_
_space_group_symop_operation_xyz
x,y,z
-x,y,-z
-x,-y,-z
x,-y,z
1/2+x,1/2+y,z
1/2-x,1/2+y,-z
1/2-x,1/2-y,-z
1/2+x,1/2-y,z
loop_
_atom_site_type_symbol
_atom_site_label
_atom_site_fract_x
_atom_site_fract_y
_atom_site_fract_z
Si Si1 0.000000 0.213566 0.000000
Si Si2 0.245490 0.374244 0.725701
Si Si3 0.876636 0.000000 0.689516
Si Si4 0.331905 0.500000 0.230644
Si Si5 0.149710 0.383561 0.035895
Si Si6 0.351815 0.797660 0.660106
O O1 0.869717 0.170278 0.877730
O O2 0.984512 0.259498 0.818664
O O3 0.310136 0.439368 0.722366
O O4 0.159798 0.350355 0.494665
O O5 0.149292 0.374627 0.825900
O O6 0.858760 0.000000 0.461803
O O7 0.959834 0.000000 0.189350
O O8 0.247162 0.439892 0.135438
O O9 0.199842 0.327143 0.192316
O O10 0.000000 0.396225 0.000000
O O11 0.250000 0.750000 0.500000
#
# Coordination Sequence:
#
# PCOD9216416 Si02
#       6
#     4   8   4   4   8   8
#     4  10  22  45  70 101 138 186 240 292 344 414
#     4  11  24  45  74 104 140 184 239 288 360 418
#     4  11  23  46  77 109 136 180 232 303 361 421
#     4  11  24  44  74 106 145 174 233 298 359 425
#     4  12  25  46  67 103 143 188 233 289 350 424
#     4  10  23  45  65 101 138 182 240 285 346 408
#
# _framework density 22.085968999999999
#
# number of rings (size 3 to 8) (size 9 to 14) (size 15 to 20)
#    0.000    1.111    3.333    2.333    0.000    5.778 
#    4.000    1.111    0.000    0.000    0.000    0.000 
#    0.000    0.000    0.000    0.000    0.000    0.000 
#
# Total GULP energy -100469.061171 kJ/mol
# GULP energy per Si atom -5581.614510 kJ/mol
# Density = 2.203570 g / cm^3
# Si number density = 22.085969 Si / 1000 Ang^3
#
#
#
# Elastic Constant Matrix: (Units=GPa)
#
#
# Indices 1 2 3 4 5 6 
#
# 1 135.1421 67.1345 66.6104 0.0000 -11.8678 0.0000
# 2 67.1345 164.1985 72.7191 0.0000 -0.1439 0.0000
# 3 66.6104 72.7191 167.6196 0.0000 -2.3646 0.0000
# 4 0.0000 0.0000 0.0000 357.0200 0.0000 -262.7102
# 5 -11.8678 -0.1439 -2.3646 0.0000 48.7511 0.0000
# 6 0.0000 0.0000 0.0000 -262.7102 0.0000 270.5802
#
#
#
# Elastic Compliance Matrix: (Units=1/GPa)
#
#
# Indices 1 2 3 4 5 6 
#
# 1 0.010517 -0.003048 -0.002823 0.000000 0.002414 0.000000
# 2 -0.003048 0.008423 -0.002455 0.000000 -0.000836 0.000000
# 3 -0.002823 -0.002455 0.008149 0.000000 -0.000299 0.000000
# 4 0.000000 0.000000 0.000000 0.009809 0.000000 0.009523
# 5 0.002414 -0.000836 -0.000299 0.000000 0.021083 0.000000
# 6 0.000000 0.000000 0.000000 0.009523 0.000000 0.012942
#
#
# Mechanical properties :
#
#
# Convention : Reuss Voigt Hill
#
# Bulk Modulus (GPa) = 95.81097 97.76537 96.78817
# Shear Modulus (GPa) = 54.91350 152.63669 103.77510
#
# Velocity S-wave (km/s) = 4.99174 8.32228 6.86213
# Velocity P-wave (km/s) = 8.75776 11.69226 10.32975
#
# Compressibility (1/GPa) = 0.01043722
#
# Stress axis : x y z
#
# Youngs Moduli (GPa) = 95.08301 118.72746 122.72170
#
# Poissons Ratio (x) = 0.36184 0.34646
# Poissons Ratio (y) = 0.28978 0.30125
# Poissons Ratio (z) = 0.26844 0.29144
#
# Static dielectric constant tensor:
#      x y z
#    x 1.790100 0.000000 0.033270 
#    y 0.000000 1.826090 0.000000 
#    z 0.033270 0.000000 1.832670 
# 
# From -- ./inp_files/11482.got.cif
#   From: 2010.05.17/outbox.cif.g08.bks.cpg/sg12_6_cif.got.tgz:11482.got - 2010.06.03 13:09:07.
