data_PCOD9216781
_publ_section_title
;
Structure prediction by ZEFSAII (Michael W. Deem and Ramdas Pophale) SiO2 
 PCOD9216781
Probable space group: C 2/M
;
_chemical_formula_sum "Si O2"
_cell_formula_units_Z 64
_cell_length_a 27.769591
_cell_length_b 23.635648
_cell_length_c 4.935260
_cell_angle_alpha 90.000000
_cell_angle_beta 114.613954
_cell_angle_gamma 90.000000
_cell_volume 2944.931980
_symmetry_space_group_name_H-M "C 2/M"
_symmetry_group_IT_number 12
_symmetry_cell_setting 'monoclinic'
loop_
_space_group_symop_operation_xyz
x,y,z
-x,y,-z
-x,-y,-z
x,-y,z
1/2+x,1/2+y,z
1/2-x,1/2+y,-z
1/2-x,1/2-y,-z
1/2+x,1/2-y,z
loop_
_atom_site_type_symbol
_atom_site_label
_atom_site_fract_x
_atom_site_fract_y
_atom_site_fract_z
Si Si1 0.062938 0.938408 0.694170
Si Si2 0.557703 0.674718 0.013769
Si Si3 0.294501 0.716897 0.932786
Si Si4 0.749963 0.566676 0.782101
Si Si5 0.126206 0.688055 0.752614
Si Si6 0.855256 0.124326 0.433525
Si Si7 0.217457 0.370428 0.615944
Si Si8 0.558232 0.801609 0.061672
O O1 0.103369 0.925807 0.545530
O O2 0.000000 0.941574 0.500000
O O3 0.077049 0.000000 0.849782
O O4 0.069028 0.877733 0.847510
O O5 0.608417 0.668941 0.324086
O O6 0.552189 0.739203 0.908787
O O7 0.500000 0.661222 0.000000
O O8 0.339113 0.764470 0.004101
O O9 0.325964 0.665341 0.149468
O O10 0.250000 0.750000 0.000000
O O11 0.256540 0.682856 0.637129
O O12 0.752610 0.500000 0.765572
O O13 0.693451 0.590958 0.546967
O O14 0.792158 0.597432 0.685888
O O15 0.756368 0.586073 0.107886
O O16 0.168188 0.652257 0.674323
O O17 0.087853 0.707534 0.417462
O O18 0.090414 0.663217 0.911994
O O19 0.500000 0.823258 0.000000
#
# Coordination Sequence:
#
# PCOD9216781 Si02
#       8
#     8   8   8   8   8   8   8   8
#     4  11  24  39  55  76 109 155 215 274 316 354
#     4  11  23  37  56  80 114 156 207 258 306 361
#     4   9  20  37  58  82 112 150 199 251 300 362
#     4  11  24  41  61  88 123 158 204 260 304 356
#     4  11  21  40  63  89 124 161 198 245 302 368
#     4  11  22  39  57  81 111 156 202 251 317 361
#     4  10  23  40  63  89 119 158 206 250 302 361
#     4  11  24  37  62  93 127 161 197 243 303 369
#
# _framework density 21.732253
#
# number of rings (size 3 to 8) (size 9 to 14) (size 15 to 20)
#    0.000    1.375    2.500    2.625    5.250    1.250 
#    0.000    5.000    0.000    0.000    0.000    0.000 
#    0.000   35.000    0.000    0.000    0.000    0.000 
#
# Total GULP energy -178226.252756 kJ/mol
# GULP energy per Si atom -5569.570399 kJ/mol
# Density = 2.168279 g / cm^3
# Si number density = 21.732253 Si / 1000 Ang^3
#
#
#
# Elastic Constant Matrix: (Units=GPa)
#
#
# Indices 1 2 3 4 5 6 
#
# 1 125.6457 25.8534 19.6164 0.0000 1.2387 0.0000
# 2 25.8534 56.0773 2.2519 0.0000 3.8712 0.0000
# 3 19.6164 2.2519 56.5597 0.0000 -1.2876 0.0000
# 4 0.0000 0.0000 0.0000 23.5615 0.0000 -4.8395
# 5 1.2387 3.8712 -1.2876 0.0000 30.1551 0.0000
# 6 0.0000 0.0000 0.0000 -4.8395 0.0000 -19.7072
#
#
#
# Elastic Compliance Matrix: (Units=1/GPa)
#
#
# Indices 1 2 3 4 5 6 
#
# 1 0.009292 -0.004163 -0.003057 0.000000 0.000022 0.000000
# 2 -0.004163 0.019890 0.000598 0.000000 -0.002357 0.000000
# 3 -0.003057 0.000598 0.018736 0.000000 0.000849 0.000000
# 4 0.000000 0.000000 0.000000 0.040404 0.000000 -0.009922
# 5 0.000022 -0.002357 0.000849 0.000000 0.033500 0.000000
# 6 0.000000 0.000000 0.000000 -0.009922 0.000000 -0.048306
#
#
# Mechanical properties :
#
#
# Convention : Reuss Voigt Hill
#
# Bulk Modulus (GPa) = 28.83812 37.08069 32.95940
# Shear Modulus (GPa) = 50.85535 19.50593 35.18064
#
# Velocity S-wave (km/s) = 4.84269 2.99918 4.02782
# Velocity P-wave (km/s) = 6.67588 5.39379 6.06879
#
# Compressibility (1/GPa) = 0.03467632
#
# Stress axis : x y z
#
# Youngs Moduli (GPa) = 107.61408 50.27539 53.37303
#
# Poissons Ratio (x) = 0.20929 0.16314
# Poissons Ratio (y) = 0.44799 -0.03193
# Poissons Ratio (z) = 0.32894 -0.03008
#
# Static dielectric constant tensor:
#      x y z
#    x 1.870670 0.000000 -0.048020 
#    y 0.000000 1.834380 0.000000 
#    z -0.048020 0.000000 1.918090 
# 
# From -- ./inp_files/26216.got.cif
#   From: 2010.05.17/outbox.cif.g08.bks.cpg/sg12_14_cif.got.tgz:26216.got - 2010.06.03 13:09:07.
