data_PCOD9216659
_publ_section_title
;
Structure prediction by ZEFSAII (Michael W. Deem and Ramdas Pophale) SiO2 
 PCOD9216659
Probable space group: C 2/M
;
_chemical_formula_sum "Si O2"
_cell_formula_units_Z 44
_cell_length_a 5.269745
_cell_length_b 24.194311
_cell_length_c 16.159537
_cell_angle_alpha 90.000000
_cell_angle_beta 107.982028
_cell_angle_gamma 90.000000
_cell_volume 1959.667260
_symmetry_space_group_name_H-M "C 2/M"
_symmetry_group_IT_number 12
_symmetry_cell_setting 'monoclinic'
loop_
_space_group_symop_operation_xyz
x,y,z
-x,y,-z
-x,-y,-z
x,-y,z
1/2+x,1/2+y,z
1/2-x,1/2+y,-z
1/2-x,1/2-y,-z
1/2+x,1/2-y,z
loop_
_atom_site_type_symbol
_atom_site_label
_atom_site_fract_x
_atom_site_fract_y
_atom_site_fract_z
Si Si1 0.305335 0.717945 0.188458
Si Si2 0.500000 0.804588 0.000000
Si Si3 0.352156 0.621574 0.738890
Si Si4 0.103577 0.500000 0.147675
Si Si5 0.747654 0.900619 0.922451
Si Si6 0.385927 0.787730 0.400943
Si Si7 0.196294 0.000000 0.256860
O O1 0.577015 0.752466 0.216486
O O2 0.369793 0.656227 0.226885
O O3 0.211922 0.721638 0.083428
O O4 0.334024 0.844018 0.043640
O O5 0.292822 0.612613 0.830408
O O6 0.163327 0.662117 0.667610
O O7 0.332632 0.559325 0.701192
O O8 0.420979 0.500000 0.176156
O O9 0.986347 0.445139 0.095677
O O10 0.961172 0.500000 0.225375
O O11 0.000000 0.921818 0.000000
O O12 0.500000 0.809447 0.500000
O O13 0.606578 0.743371 0.392932
#
# Coordination Sequence:
#
# PCOD9216659 Si02
#       7
#     8   4   8   4   8   8   4
#     4  12  25  39  59  83 119 166 212 261 318 380
#     4  12  24  39  56  84 128 167 222 276 330 384
#     4  11  23  45  66  95 132 174 218 272 335 385
#     4  10  23  39  60  84 122 175 235 271 315 366
#     4  11  23  40  57  88 127 176 224 275 318 383
#     4  10  23  45  75 107 134 167 217 270 324 395
#     4  10  24  42  63  96 127 169 218 276 321 395
#
# _framework density 22.452793
#
# number of rings (size 3 to 8) (size 9 to 14) (size 15 to 20)
#    0.000    1.091    1.818    4.091    2.545    6.182 
#    0.000    0.455    0.000    0.000    0.000    8.909 
#    0.000    0.000    0.000    0.000    0.000    0.000 
#
# Total GULP energy -123022.575294 kJ/mol
# GULP energy per Si atom -5591.935241 kJ/mol
# Density = 2.240169 g / cm^3
# Si number density = 22.452793 Si / 1000 Ang^3
#
#
#
# Elastic Constant Matrix: (Units=GPa)
#
#
# Indices 1 2 3 4 5 6 
#
# 1 87.3021 21.2199 13.6546 0.0000 13.1327 0.0000
# 2 21.2199 140.5498 43.2596 0.0000 7.2059 0.0000
# 3 13.6546 43.2596 120.9605 0.0000 -4.3678 0.0000
# 4 0.0000 0.0000 0.0000 17.2534 0.0000 13.9379
# 5 13.1327 7.2059 -4.3678 0.0000 23.9120 0.0000
# 6 0.0000 0.0000 0.0000 13.9379 0.0000 34.1733
#
#
#
# Elastic Compliance Matrix: (Units=1/GPa)
#
#
# Indices 1 2 3 4 5 6 
#
# 1 0.013005 -0.001207 -0.001290 0.000000 -0.007014 0.000000
# 2 -0.001207 0.008319 -0.002925 0.000000 -0.002379 0.000000
# 3 -0.001290 -0.002925 0.009579 0.000000 0.003340 0.000000
# 4 0.000000 0.000000 0.000000 0.086441 0.000000 -0.035256
# 5 -0.007014 -0.002379 0.003340 0.000000 0.046999 0.000000
# 6 0.000000 0.000000 0.000000 -0.035256 0.000000 0.043642
#
#
# Mechanical properties :
#
#
# Convention : Reuss Voigt Hill
#
# Bulk Modulus (GPa) = 49.84933 56.12005 52.98469
# Shear Modulus (GPa) = 22.17151 33.11296 27.64224
#
# Velocity S-wave (km/s) = 3.14582 3.84445 3.51255
# Velocity P-wave (km/s) = 5.95356 6.68995 6.33247
#
# Compressibility (1/GPa) = 0.02006045
#
# Stress axis : x y z
#
# Youngs Moduli (GPa) = 76.89539 120.20202 104.39079
#
# Poissons Ratio (x) = 0.14507 0.13463
# Poissons Ratio (y) = 0.09280 0.30534
# Poissons Ratio (z) = 0.09917 0.35158
#
# Static dielectric constant tensor:
#      x y z
#    x 1.875380 0.000000 0.028460 
#    y 0.000000 1.876830 0.000000 
#    z 0.028460 0.000000 1.886570 
# 
# From -- ./inp_files/253270.got.cif
#   From: 2010.05.17/outbox.cif.g08.bks.cpg/sg12_127_cif.got.tgz:253270.got - 2010.06.03 13:09:07.
