data_PCOD9216184
_publ_section_title
;
Structure prediction by ZEFSAII (Michael W. Deem and Ramdas Pophale) SiO2 
 PCOD9216184
Probable space group: C 2/M
;
_chemical_formula_sum "Si O2"
_cell_formula_units_Z 56
_cell_length_a 15.032223
_cell_length_b 19.178088
_cell_length_c 9.324696
_cell_angle_alpha 90.000000
_cell_angle_beta 107.966581
_cell_angle_gamma 90.000000
_cell_volume 2557.123767
_symmetry_space_group_name_H-M "C 2/M"
_symmetry_group_IT_number 12
_symmetry_cell_setting 'monoclinic'
loop_
_space_group_symop_operation_xyz
x,y,z
-x,y,-z
-x,-y,-z
x,-y,z
1/2+x,1/2+y,z
1/2-x,1/2+y,-z
1/2-x,1/2-y,-z
1/2+x,1/2-y,z
loop_
_atom_site_type_symbol
_atom_site_label
_atom_site_fract_x
_atom_site_fract_y
_atom_site_fract_z
Si Si1 0.728341 0.586998 0.880009
Si Si2 0.523468 0.420435 0.857807
Si Si3 0.328152 0.116863 0.633593
Si Si4 0.795897 0.330795 0.191806
Si Si5 0.612746 0.249940 0.535211
Si Si6 0.165452 0.882583 0.372679
Si Si7 0.028138 0.426406 0.680125
O O1 0.741432 0.500000 0.904632
O O2 0.617014 0.603061 0.824881
O O3 0.778128 0.611269 0.760279
O O4 0.767596 0.639497 0.022586
O O5 0.547428 0.500000 0.904927
O O6 0.431032 0.418839 0.715502
O O7 0.500000 0.385062 0.000000
O O8 0.352269 0.188832 0.558445
O O9 0.254081 0.079706 0.489792
O O10 0.430172 0.084787 0.707977
O O11 0.828919 0.258846 0.286705
O O12 0.709400 0.354237 0.247343
O O13 0.893769 0.369908 0.264149
O O14 0.500000 0.245312 0.500000
O O15 0.638654 0.321082 0.468713
O O16 0.070596 0.500000 0.744468
O O17 0.000000 0.427796 0.500000
#
# Coordination Sequence:
#
# PCOD9216184 Si02
#       7
#     8   8   8   8   8   8   8
#     4  11  25  41  65 101 141 175 219 275 339 403
#     4  10  22  43  68 100 136 174 220 272 328 408
#     4  11  22  43  61  97 137 174 223 282 330 388
#     4  11  20  43  64  92 130 174 219 271 338 393
#     4  11  23  46  69  92 129 174 231 282 329 395
#     4  11  24  41  72  95 125 178 228 279 331 390
#     4  11  20  34  62  95 128 171 223 270 327 401
#
# _framework density 21.899604
#
# number of rings (size 3 to 8) (size 9 to 14) (size 15 to 20)
#    0.000    1.143    5.714    2.571    2.000    2.286 
#    0.000    7.143    0.000    0.000    0.000    0.000 
#    0.000    0.000    0.000    0.000    0.000    0.000 
#
# Total GULP energy -155877.482128 kJ/mol
# GULP energy per Si atom -5567.052933 kJ/mol
# Density = 2.184976 g / cm^3
# Si number density = 21.899604 Si / 1000 Ang^3
#
#
#
# Elastic Constant Matrix: (Units=GPa)
#
#
# Indices 1 2 3 4 5 6 
#
# 1 186.1950 20.8211 39.6846 0.0000 -12.2242 0.0000
# 2 20.8211 55.7636 11.8745 0.0000 -14.0031 0.0000
# 3 39.6846 11.8745 73.6472 0.0000 -12.9462 0.0000
# 4 0.0000 0.0000 0.0000 13.7346 0.0000 12.2406
# 5 -12.2242 -14.0031 -12.9462 0.0000 40.7811 0.0000
# 6 0.0000 0.0000 0.0000 12.2406 0.0000 18.4045
#
#
#
# Elastic Compliance Matrix: (Units=1/GPa)
#
#
# Indices 1 2 3 4 5 6 
#
# 1 0.006218 -0.001586 -0.003032 0.000000 0.000357 0.000000
# 2 -0.001586 0.020340 -0.001356 0.000000 0.006078 0.000000
# 3 -0.003032 -0.001356 0.016087 0.000000 0.003732 0.000000
# 4 0.000000 0.000000 0.000000 0.178780 0.000000 -0.118904
# 5 0.000357 0.006078 0.003732 0.000000 0.027900 0.000000
# 6 0.000000 0.000000 0.000000 -0.118904 0.000000 0.133417
#
#
# Mechanical properties :
#
#
# Convention : Reuss Voigt Hill
#
# Bulk Modulus (GPa) = 32.57803 51.15182 41.86492
# Shear Modulus (GPa) = 12.34805 30.79906 21.57356
#
# Velocity S-wave (km/s) = 2.37712 3.75424 3.14205
# Velocity P-wave (km/s) = 4.73737 6.49619 5.68521
#
# Compressibility (1/GPa) = 0.03069554
#
# Stress axis : x y z
#
# Youngs Moduli (GPa) = 160.83023 49.16342 62.16293
#
# Poissons Ratio (x) = 0.07799 0.18847
# Poissons Ratio (y) = 0.25515 0.08431
# Poissons Ratio (z) = 0.48763 0.06668
#
# Static dielectric constant tensor:
#      x y z
#    x 1.812250 0.000000 0.008650 
#    y 0.000000 1.865640 0.000000 
#    z 0.008650 0.000000 1.833770 
# 
# From -- ./inp_files/65440.got.cif
#   From: 2010.05.17/outbox.cif.g08.bks.cpg/sg12_33_cif.got.tgz:65440.got - 2010.06.03 13:09:07.
