data_PCOD9216822
_publ_section_title
;
Structure prediction by ZEFSAII (Michael W. Deem and Ramdas Pophale) SiO2 
 PCOD9216822
Probable space group: C 2/M
;
_chemical_formula_sum "Si O2"
_cell_formula_units_Z 64
_cell_length_a 16.022952
_cell_length_b 14.757613
_cell_length_c 11.774299
_cell_angle_alpha 90.000000
_cell_angle_beta 92.568139
_cell_angle_gamma 90.000000
_cell_volume 2781.360626
_symmetry_space_group_name_H-M "C 2/M"
_symmetry_group_IT_number 12
_symmetry_cell_setting 'monoclinic'
loop_
_space_group_symop_operation_xyz
x,y,z
-x,y,-z
-x,-y,-z
x,-y,z
1/2+x,1/2+y,z
1/2-x,1/2+y,-z
1/2-x,1/2-y,-z
1/2+x,1/2-y,z
loop_
_atom_site_type_symbol
_atom_site_label
_atom_site_fract_x
_atom_site_fract_y
_atom_site_fract_z
Si Si1 0.578426 0.229157 0.424402
Si Si2 0.690899 0.778277 0.635012
Si Si3 0.377878 0.102709 0.186806
Si Si4 0.285378 0.106274 0.963961
Si Si5 0.156130 0.106283 0.774043
Si Si6 0.056561 0.341866 0.173445
Si Si7 0.979178 0.135048 0.872494
Si Si8 0.644054 0.397395 0.321038
O O1 0.500000 0.210840 0.500000
O O2 0.661263 0.212164 0.504091
O O3 0.575791 0.172147 0.308430
O O4 0.580375 0.335470 0.389883
O O5 0.622700 0.829912 0.708160
O O6 0.686114 0.674599 0.677437
O O7 0.773480 0.835287 0.669887
O O8 0.472543 0.101926 0.148363
O O9 0.353438 0.000000 0.216680
O O10 0.315181 0.141527 0.087617
O O11 0.204216 0.138199 0.891774
O O12 0.363036 0.120159 0.884319
O O13 0.273079 0.000000 0.982634
O O14 0.058394 0.114330 0.797025
O O15 0.175859 0.000000 0.753330
O O16 0.035973 0.242289 0.125469
O O17 0.896000 0.098545 0.806884
O O18 0.000000 0.102460 0.000000
O O19 0.657126 0.500000 0.362367
#
# Coordination Sequence:
#
# PCOD9216822 Si02
#       8
#     8   8   8   8   8   8   8   8
#     4  11  23  45  68  92 128 176 226 279 329 380
#     4  12  24  45  67  99 137 173 221 276 329 388
#     4  11  22  39  67  99 138 178 215 266 329 401
#     4  10  23  40  65 100 135 173 221 273 323 393
#     4  11  24  42  65  98 131 173 224 268 328 390
#     4  11  21  42  66  98 132 174 227 266 330 393
#     4  11  23  40  65  95 135 179 219 269 328 387
#     4  11  26  44  67 100 134 175 221 269 333 397
#
# _framework density 23.010321000000001
#
# number of rings (size 3 to 8) (size 9 to 14) (size 15 to 20)
#    0.000    1.000    2.500    4.875    1.750    3.250 
#    0.000    4.375    0.000    0.000    0.000    0.000 
#    0.000    0.000    0.000    0.000    0.000    0.000 
#
# Total GULP energy -178946.420961 kJ/mol
# GULP energy per Si atom -5592.075655 kJ/mol
# Density = 2.295795 g / cm^3
# Si number density = 23.010321 Si / 1000 Ang^3
#
#
#
# Elastic Constant Matrix: (Units=GPa)
#
#
# Indices 1 2 3 4 5 6 
#
# 1 86.6154 -1.5732 21.5991 0.0000 31.4257 0.0000
# 2 -1.5732 74.7356 5.3674 0.0000 21.3389 0.0000
# 3 21.5991 5.3674 117.8426 0.0000 38.5004 0.0000
# 4 0.0000 0.0000 0.0000 10.5255 0.0000 3.6878
# 5 31.4257 21.3389 38.5004 0.0000 38.4577 0.0000
# 6 0.0000 0.0000 0.0000 3.6878 0.0000 17.1318
#
#
#
# Elastic Compliance Matrix: (Units=1/GPa)
#
#
# Indices 1 2 3 4 5 6 
#
# 1 0.019113 0.006727 0.003734 0.000000 -0.023089 0.000000
# 2 0.006727 0.019126 0.004694 0.000000 -0.020809 0.000000
# 3 0.003734 0.004694 0.014022 0.000000 -0.019693 0.000000
# 4 0.000000 0.000000 0.000000 0.102757 0.000000 -0.022120
# 5 -0.023089 -0.020809 -0.019693 0.000000 0.076131 0.000000
# 6 0.000000 0.000000 0.000000 -0.022120 0.000000 0.063132
#
#
# Mechanical properties :
#
#
# Convention : Reuss Voigt Hill
#
# Bulk Modulus (GPa) = 12.11078 36.66448 24.38763
# Shear Modulus (GPa) = 17.15290 30.14303 23.64796
#
# Velocity S-wave (km/s) = 2.73324 3.62329 3.20927
# Velocity P-wave (km/s) = 3.90326 5.78557 4.93499
#
# Compressibility (1/GPa) = 0.08257104
#
# Stress axis : x y z
#
# Youngs Moduli (GPa) = 52.31921 52.28364 71.31836
#
# Poissons Ratio (x) = -0.35169 -0.26628
# Poissons Ratio (y) = -0.35193 -0.33480
# Poissons Ratio (z) = -0.19534 -0.24544
#
# Static dielectric constant tensor:
#      x y z
#    x 1.910310 0.000000 -0.005100 
#    y 0.000000 1.846870 0.000000 
#    z -0.005100 0.000000 1.887050 
# 
# From -- ./inp_files/156633.got.cif
#   From: 2010.05.17/outbox.cif.g08.bks.cpg/sg12_79_cif.got.tgz:156633.got - 2010.06.03 13:09:07.
