data_PCOD9216498
_publ_section_title
;
Structure prediction by ZEFSAII (Michael W. Deem and Ramdas Pophale) SiO2 
 PCOD9216498
Probable space group: C 2/M
;
_chemical_formula_sum "Si O2"
_cell_formula_units_Z 48
_cell_length_a 20.450007
_cell_length_b 19.033120
_cell_length_c 8.529017
_cell_angle_alpha 90.000000
_cell_angle_beta 40.878627
_cell_angle_gamma 90.000000
_cell_volume 2172.624872
_symmetry_space_group_name_H-M "C 2/M"
_symmetry_group_IT_number 12
_symmetry_cell_setting 'monoclinic'
loop_
_space_group_symop_operation_xyz
x,y,z
-x,y,-z
-x,-y,-z
x,-y,z
1/2+x,1/2+y,z
1/2-x,1/2+y,-z
1/2-x,1/2-y,-z
1/2+x,1/2-y,z
loop_
_atom_site_type_symbol
_atom_site_label
_atom_site_fract_x
_atom_site_fract_y
_atom_site_fract_z
Si Si1 0.349379 0.225709 0.996064
Si Si2 0.394774 0.116573 0.637605
Si Si3 0.052382 0.295392 0.759319
Si Si4 0.483760 0.582140 0.352524
Si Si5 0.798519 0.879957 0.148323
Si Si6 0.189506 0.835814 0.518663
O O1 0.297464 0.301028 0.074938
O O2 0.282173 0.178697 0.234959
O O3 0.374942 0.177473 0.801718
O O4 0.457680 0.247486 0.866126
O O5 0.500000 0.081819 0.500000
O O6 0.415676 0.152780 0.433003
O O7 0.288845 0.080533 0.789696
O O8 0.138126 0.240061 0.644136
O O9 0.000000 0.333612 0.000000
O O10 0.500000 0.610891 0.500000
O O11 0.457037 0.500000 0.413332
O O12 0.395316 0.620511 0.419546
O O13 0.591539 0.589003 0.075019
O O14 0.783568 0.870648 0.363236
#
# Coordination Sequence:
#
# PCOD9216498 Si02
#       6
#     8   8   8   8   8   8
#     4  11  21  33  53  85 118 161 197 244 305 366
#     4  10  23  34  52  83 120 161 196 247 301 363
#     4  11  19  32  49  80 120 153 192 239 297 357
#     4  11  26  43  62  89 122 163 207 252 302 361
#     4  12  21  36  58  83 118 161 203 248 302 364
#     4  12  22  36  59  85 124 160 200 254 301 368
#
# _framework density 22.093093
#
# number of rings (size 3 to 8) (size 9 to 14) (size 15 to 20)
#    0.000    0.833    5.000    3.500    2.333    1.333 
#    0.000    0.000    0.000    0.500    0.000    3.500 
#    0.000   14.667    0.000    0.000    0.000    0.000 
#
# Total GULP energy -133951.895782 kJ/mol
# GULP energy per Si atom -5581.328991 kJ/mol
# Density = 2.204281 g / cm^3
# Si number density = 22.093093 Si / 1000 Ang^3
#
#
#
# Elastic Constant Matrix: (Units=GPa)
#
#
# Indices 1 2 3 4 5 6 
#
# 1 152.3834 23.3192 34.8994 0.0000 -27.8638 0.0000
# 2 23.3192 55.3034 14.4585 0.0000 3.9789 0.0000
# 3 34.8994 14.4585 111.4149 0.0000 11.4704 0.0000
# 4 0.0000 0.0000 0.0000 8.3946 0.0000 1.8986
# 5 -27.8638 3.9789 11.4704 0.0000 56.4653 0.0000
# 6 0.0000 0.0000 0.0000 1.8986 0.0000 4.9043
#
#
#
# Elastic Compliance Matrix: (Units=1/GPa)
#
#
# Indices 1 2 3 4 5 6 
#
# 1 0.008629 -0.003270 -0.002799 0.000000 0.005057 0.000000
# 2 -0.003270 0.019996 -0.001286 0.000000 -0.002762 0.000000
# 3 -0.002799 -0.001286 0.010369 0.000000 -0.003397 0.000000
# 4 0.000000 0.000000 0.000000 0.130555 0.000000 -0.050541
# 5 0.005057 -0.002762 -0.003397 0.000000 0.021090 0.000000
# 6 0.000000 0.000000 0.000000 -0.050541 0.000000 0.223468
#
#
# Mechanical properties :
#
#
# Convention : Reuss Voigt Hill
#
# Bulk Modulus (GPa) = 41.18232 51.60619 46.39426
# Shear Modulus (GPa) = 11.44395 30.38115 20.91255
#
# Velocity S-wave (km/s) = 2.27840 3.71231 3.07997
# Velocity P-wave (km/s) = 5.05987 6.46407 5.80459
#
# Compressibility (1/GPa) = 0.02428227
#
# Stress axis : x y z
#
# Youngs Moduli (GPa) = 115.89379 50.00994 96.44260
#
# Poissons Ratio (x) = 0.16355 0.26995
# Poissons Ratio (y) = 0.37902 0.12404
# Poissons Ratio (z) = 0.32439 0.06432
#
# Static dielectric constant tensor:
#      x y z
#    x 1.925950 0.000000 -0.022780 
#    y 0.000000 1.756710 0.000000 
#    z -0.022780 0.000000 1.856490 
# 
# From -- ./inp_files/89445.got.cif
#   From: 2010.05.17/outbox.cif.g08.bks.cpg/sg12_45_cif.got.tgz:89445.got - 2010.06.03 13:09:07.
