data_PCOD9216872
_publ_section_title
;
Structure prediction by ZEFSAII (Michael W. Deem and Ramdas Pophale) SiO2 
 PCOD9216872
Probable space group: C 2/M
;
_chemical_formula_sum "Si O2"
_cell_formula_units_Z 44
_cell_length_a 10.630085
_cell_length_b 14.918752
_cell_length_c 13.109864
_cell_angle_alpha 90.000000
_cell_angle_beta 113.400629
_cell_angle_gamma 90.000000
_cell_volume 1908.059604
_symmetry_space_group_name_H-M "C 2/M"
_symmetry_group_IT_number 12
_symmetry_cell_setting 'monoclinic'
loop_
_space_group_symop_operation_xyz
x,y,z
-x,y,-z
-x,-y,-z
x,-y,z
1/2+x,1/2+y,z
1/2-x,1/2+y,-z
1/2-x,1/2-y,-z
1/2+x,1/2-y,z
loop_
_atom_site_type_symbol
_atom_site_label
_atom_site_fract_x
_atom_site_fract_y
_atom_site_fract_z
Si Si1 0.701813 0.000000 0.982638
Si Si2 0.785127 0.500000 0.250042
Si Si3 0.035678 0.863197 0.658403
Si Si4 0.231293 0.145415 0.530921
Si Si5 0.471347 0.844140 0.302666
Si Si6 0.463745 0.500000 0.170807
Si Si7 0.389439 0.191520 0.041601
O O1 0.865519 0.000000 0.043310
O O2 0.647584 0.907796 0.011438
O O3 0.666681 0.000000 0.852535
O O4 0.623460 0.500000 0.200978
O O5 0.853647 0.408239 0.309815
O O6 0.143539 0.879805 0.603636
O O7 0.073844 0.913399 0.773406
O O8 0.878039 0.892026 0.585999
O O9 0.039381 0.756366 0.661360
O O10 0.250000 0.250000 0.500000
O O11 0.384576 0.117061 0.610265
O O12 0.453530 0.826463 0.174735
O O13 0.500000 0.233467 0.000000
O O14 0.250000 0.250000 0.000000
#
# Coordination Sequence:
#
# PCOD9216872 Si02
#       7
#     4   4   8   8   8   4   8
#     4  10  24  46  63  95 136 184 217 272 329 398
#     4  10  25  43  63  99 133 178 222 268 334 397
#     4  10  23  41  66  98 128 173 219 272 337 386
#     4   9  21  42  67  91 132 168 217 268 334 392
#     4  10  23  40  68  91 131 176 219 269 333 397
#     4  12  25  40  70  99 136 170 221 280 331 399
#     4  11  25  42  67 101 134 175 227 278 331 403
#
# _framework density 23.060077
#
# number of rings (size 3 to 8) (size 9 to 14) (size 15 to 20)
#    0.000    1.818    0.000    1.636   10.182    7.273 
#    0.000    0.909    0.000    0.000    0.000    0.000 
#    0.000    0.000    0.000    0.000    0.000    0.000 
#
# Total GULP energy -122657.184213 kJ/mol
# GULP energy per Si atom -5575.326555 kJ/mol
# Density = 2.300759 g / cm^3
# Si number density = 23.060077 Si / 1000 Ang^3
#
#
#
# Elastic Constant Matrix: (Units=GPa)
#
#
# Indices 1 2 3 4 5 6 
#
# 1 116.3630 20.2610 7.2119 0.0000 17.7783 0.0000
# 2 20.2610 97.3723 -6.0138 0.0000 13.0765 0.0000
# 3 7.2119 -6.0138 51.7618 0.0000 24.0070 0.0000
# 4 0.0000 0.0000 0.0000 9.4667 0.0000 7.9633
# 5 17.7783 13.0765 24.0070 0.0000 37.1041 0.0000
# 6 0.0000 0.0000 0.0000 7.9633 0.0000 32.1690
#
#
#
# Elastic Compliance Matrix: (Units=1/GPa)
#
#
# Indices 1 2 3 4 5 6 
#
# 1 0.009469 -0.001337 0.000587 0.000000 -0.004446 0.000000
# 2 -0.001337 0.011686 0.004510 0.000000 -0.006396 0.000000
# 3 0.000587 0.004510 0.029474 0.000000 -0.020941 0.000000
# 4 0.000000 0.000000 0.000000 0.133415 0.000000 -0.033026
# 5 -0.004446 -0.006396 -0.020941 0.000000 0.044885 0.000000
# 6 0.000000 0.000000 0.000000 -0.033026 0.000000 0.039261
#
#
# Mechanical properties :
#
#
# Convention : Reuss Voigt Hill
#
# Bulk Modulus (GPa) = 17.19679 34.26838 25.73258
# Shear Modulus (GPa) = 17.85382 32.01716 24.93549
#
# Velocity S-wave (km/s) = 2.78552 3.73020 3.29192
# Velocity P-wave (km/s) = 4.22126 5.78319 5.06282
#
# Compressibility (1/GPa) = 0.05815040
#
# Stress axis : x y z
#
# Youngs Moduli (GPa) = 105.60243 85.57564 33.92831
#
# Poissons Ratio (x) = 0.11442 -0.01993
# Poissons Ratio (y) = 0.14119 -0.15303
# Poissons Ratio (z) = -0.06203 -0.38598
#
# Static dielectric constant tensor:
#      x y z
#    x 1.841030 0.000000 0.013570 
#    y 0.000000 1.922020 0.000000 
#    z 0.013570 0.000000 1.874660 
# 
# From -- ./inp_files/204668.got.cif
#   From: 2010.05.17/outbox.cif.g08.bks.cpg/sg12_103_cif.got.tgz:204668.got - 2010.06.03 13:09:07.
