data_PCOD9216927
_publ_section_title
;
Structure prediction by ZEFSAII (Michael W. Deem and Ramdas Pophale) SiO2 
 PCOD9216927
Probable space group: C 2/M
;
_chemical_formula_sum "Si O2"
_cell_formula_units_Z 40
_cell_length_a 19.646155
_cell_length_b 7.743968
_cell_length_c 11.852276
_cell_angle_alpha 90.000000
_cell_angle_beta 106.314851
_cell_angle_gamma 90.000000
_cell_volume 1730.585573
_symmetry_space_group_name_H-M "C 2/M"
_symmetry_group_IT_number 12
_symmetry_cell_setting 'monoclinic'
loop_
_space_group_symop_operation_xyz
x,y,z
-x,y,-z
-x,-y,-z
x,-y,z
1/2+x,1/2+y,z
1/2-x,1/2+y,-z
1/2-x,1/2-y,-z
1/2+x,1/2-y,z
loop_
_atom_site_type_symbol
_atom_site_label
_atom_site_fract_x
_atom_site_fract_y
_atom_site_fract_z
Si Si1 0.713742 0.199036 0.643038
Si Si2 0.186926 0.792307 0.884897
Si Si3 0.129666 0.299794 0.262132
Si Si4 0.431126 0.788285 0.538399
Si Si5 0.924976 0.200782 0.996963
O O1 0.700129 0.211009 0.770328
O O2 0.789592 0.285424 0.656287
O O3 0.642470 0.270168 0.552993
O O4 0.721250 0.000000 0.612304
O O5 0.184107 0.000000 0.869265
O O6 0.250000 0.750000 0.000000
O O7 0.116634 0.726250 0.915785
O O8 0.114729 0.500000 0.233958
O O9 0.075991 0.235415 0.333935
O O10 0.121740 0.208305 0.138422
O O11 0.500000 0.731708 0.500000
O O12 0.431393 0.000000 0.537072
O O13 0.937288 0.000000 0.030818
O O14 0.000000 0.281886 0.000000
#
# Coordination Sequence:
#
# PCOD9216927 Si02
#       5
#     8   8   8   8   8
#     4  11  22  38  63  87 119 159 196 245 296 349
#     4  11  22  38  61  89 122 156 196 241 291 352
#     4  11  22  38  63  89 117 155 202 247 290 354
#     4   9  21  40  60  87 119 153 195 247 300 348
#     4  10  23  41  60  85 122 160 192 240 300 352
#
# _framework density 23.113562999999999
#
# number of rings (size 3 to 8) (size 9 to 14) (size 15 to 20)
#    0.000    1.600    2.000    2.400    2.800    1.200 
#    0.000    3.000    0.000    4.800    0.000    0.000 
#    0.000    0.000    0.000    0.000    0.000    0.000 
#
# Total GULP energy -111809.201959 kJ/mol
# GULP energy per Si atom -5590.460098 kJ/mol
# Density = 2.306096 g / cm^3
# Si number density = 23.113563 Si / 1000 Ang^3
#
#
#
# Elastic Constant Matrix: (Units=GPa)
#
#
# Indices 1 2 3 4 5 6 
#
# 1 137.9881 -0.1414 19.9743 0.0000 -31.1606 0.0000
# 2 -0.1414 47.5858 -10.4066 0.0000 -2.4670 0.0000
# 3 19.9743 -10.4066 61.4724 0.0000 -23.6426 0.0000
# 4 0.0000 0.0000 0.0000 7.3608 0.0000 0.5984
# 5 -31.1606 -2.4670 -23.6426 0.0000 47.4378 0.0000
# 6 0.0000 0.0000 0.0000 0.5984 0.0000 18.4203
#
#
#
# Elastic Compliance Matrix: (Units=1/GPa)
#
#
# Indices 1 2 3 4 5 6 
#
# 1 0.008539 0.000138 -0.000731 0.000000 0.005252 0.000000
# 2 0.000138 0.022357 0.005223 0.000000 0.003856 0.000000
# 3 -0.000731 0.005223 0.021414 0.000000 0.010464 0.000000
# 4 0.000000 0.000000 0.000000 0.136214 0.000000 -0.004425
# 5 0.005252 0.003856 0.010464 0.000000 0.029945 0.000000
# 6 0.000000 0.000000 0.000000 -0.004425 0.000000 0.054432
#
#
# Mechanical properties :
#
#
# Convention : Reuss Voigt Hill
#
# Bulk Modulus (GPa) = 16.24197 29.54434 22.89316
# Shear Modulus (GPa) = 17.59541 30.48511 24.04026
#
# Velocity S-wave (km/s) = 2.76209 3.63564 3.22855
# Velocity P-wave (km/s) = 4.14903 5.51669 4.88100
#
# Compressibility (1/GPa) = 0.06156888
#
# Stress axis : x y z
#
# Youngs Moduli (GPa) = 117.11045 44.72818 46.69903
#
# Poissons Ratio (x) = -0.00616 0.03416
# Poissons Ratio (y) = -0.01612 -0.24392
# Poissons Ratio (z) = 0.08566 -0.23363
#
# Static dielectric constant tensor:
#      x y z
#    x 1.914670 0.000000 0.011470 
#    y 0.000000 1.848660 0.000000 
#    z 0.011470 0.000000 1.853840 
# 
# From -- ./inp_files/151656.got.cif
#   From: 2010.05.17/outbox.cif.g08.bks.cpg/sg12_76_cif.got.tgz:151656.got - 2010.06.03 13:09:07.
