data_PCOD9216357
_publ_section_title
;
Structure prediction by ZEFSAII (Michael W. Deem and Ramdas Pophale) SiO2 
 PCOD9216357
Probable space group: C 2/M
;
_chemical_formula_sum "Si O2"
_cell_formula_units_Z 64
_cell_length_a 18.369281
_cell_length_b 29.643119
_cell_length_c 12.700264
_cell_angle_alpha 90.000000
_cell_angle_beta 29.196115
_cell_angle_gamma 90.000000
_cell_volume 3373.424674
_symmetry_space_group_name_H-M "C 2/M"
_symmetry_group_IT_number 12
_symmetry_cell_setting 'monoclinic'
loop_
_space_group_symop_operation_xyz
x,y,z
-x,y,-z
-x,-y,-z
x,-y,z
1/2+x,1/2+y,z
1/2-x,1/2+y,-z
1/2-x,1/2-y,-z
1/2+x,1/2-y,z
loop_
_atom_site_type_symbol
_atom_site_label
_atom_site_fract_x
_atom_site_fract_y
_atom_site_fract_z
Si Si1 0.175441 0.917786 0.306258
Si Si2 0.607923 0.774929 0.132205
Si Si3 0.860268 0.128637 0.254154
Si Si4 0.561073 0.050500 0.161017
Si Si5 0.345074 0.289517 0.431896
Si Si6 0.753393 0.052280 0.546341
Si Si7 0.653711 0.828312 0.863085
Si Si8 0.474232 0.864374 0.408812
O O1 0.201633 0.934618 0.392349
O O2 0.253368 0.868726 0.202391
O O3 0.000000 0.917483 0.500000
O O4 0.278918 0.946541 0.097186
O O5 0.487082 0.736004 0.294641
O O6 0.553024 0.819908 0.261634
O O7 0.750000 0.750000 0.000000
O O8 0.623491 0.791113 0.991003
O O9 0.883260 0.171792 0.300206
O O10 0.834184 0.085402 0.362147
O O11 0.702498 0.136512 0.394193
O O12 0.000000 0.123229 0.000000
O O13 0.425172 0.057227 0.248785
O O14 0.540429 0.090865 0.269693
O O15 0.540999 0.000000 0.231179
O O16 0.250000 0.250000 0.500000
O O17 0.252666 0.310132 0.643493
O O18 0.790532 0.000000 0.480470
O O19 0.500000 0.843290 0.000000
O O20 0.500000 0.865907 0.500000
#
# Coordination Sequence:
#
# PCOD9216357 Si02
#       8
#     8   8   8   8   8   8   8   8
#     4  12  25  39  66 103 139 168 210 271 335 384
#     4  12  29  42  67  98 134 173 215 271 328 383
#     4  11  25  43  67  96 128 170 222 273 320 385
#     4  10  22  44  72  96 127 175 223 262 321 398
#     4  12  25  42  67  97 126 171 224 263 319 384
#     4  10  22  44  70  97 129 174 220 264 323 397
#     4  12  24  45  69  94 132 177 220 270 318 387
#     4  11  25  45  64  95 134 169 217 273 327 384
#
# _framework density 18.971817999999999
#
# number of rings (size 3 to 8) (size 9 to 14) (size 15 to 20)
#    0.000    0.750    5.000    1.500    7.000    3.500 
#    0.000    0.000    0.000    0.000    0.000    0.000 
#    0.000    0.000    0.000    0.000    0.000    0.000 
#
# Total GULP energy -178813.519774 kJ/mol
# GULP energy per Si atom -5587.922493 kJ/mol
# Density = 1.892864 g / cm^3
# Si number density = 18.971818 Si / 1000 Ang^3
#
#
#
# Elastic Constant Matrix: (Units=GPa)
#
#
# Indices 1 2 3 4 5 6 
#
# 1 97.4190 37.4439 57.4568 -0.0068 -8.1096 -0.0014
# 2 37.4439 116.9871 61.6310 -0.0003 -8.9306 -0.0013
# 3 57.4568 61.6310 143.0538 -0.0083 -10.6562 -0.0008
# 4 -0.0068 -0.0003 -0.0083 222.1888 0.0110 82.4635
# 5 -8.1096 -8.9306 -10.6562 0.0110 37.0074 0.0014
# 6 -0.0014 -0.0013 -0.0008 82.4635 0.0014 54.1159
#
#
#
# Elastic Compliance Matrix: (Units=1/GPa)
#
#
# Indices 1 2 3 4 5 6 
#
# 1 0.013836 -0.001882 -0.004654 0.000000 0.001238 0.000000
# 2 -0.001882 0.011378 -0.004059 -0.000001 0.001164 0.000001
# 3 -0.004654 -0.004059 0.010689 0.000001 0.001078 -0.000001
# 4 0.000000 -0.000001 0.000001 0.010360 -0.000002 -0.015786
# 5 0.001238 0.001164 0.001078 -0.000002 0.027884 0.000003
# 6 0.000000 0.000001 -0.000001 -0.015786 0.000003 0.042535
#
#
# Mechanical properties :
#
#
# Convention : Reuss Voigt Hill
#
# Bulk Modulus (GPa) = 67.97216 74.50260 71.23738
# Shear Modulus (GPa) = 35.01978 76.05762 55.53870
#
# Velocity S-wave (km/s) = 4.30104 6.33852 5.41644
# Velocity P-wave (km/s) = 7.78273 9.63973 8.76058
#
# Compressibility (1/GPa) = 0.01471190
#
# Stress axis : x y z
#
# Youngs Moduli (GPa) = 72.27298 87.89156 93.55585
#
# Poissons Ratio (x) = 0.16543 0.43543
# Poissons Ratio (y) = 0.13603 0.37975
# Poissons Ratio (z) = 0.33638 0.35676
#
# Static dielectric constant tensor:
#      x y z
#    x 1.652910 0.000000 -0.013120 
#    y 0.000000 1.591040 0.000000 
#    z -0.013120 0.000000 1.621060 
# 
# From -- ./inp_files/80772.got.cif
#   From: 2010.05.17/outbox.cif.g08.bks.cpg/sg12_41_cif.got.tgz:80772.got - 2010.06.03 13:09:07.
