data_PCOD9216143
_publ_section_title
;
Structure prediction by ZEFSAII (Michael W. Deem and Ramdas Pophale) SiO2 
 PCOD9216143
Probable space group: C 2/M
;
_chemical_formula_sum "Si O2"
_cell_formula_units_Z 32
_cell_length_a 9.025558
_cell_length_b 23.656571
_cell_length_c 9.127275
_cell_angle_alpha 90.000000
_cell_angle_beta 43.399834
_cell_angle_gamma 90.000000
_cell_volume 1338.991177
_symmetry_space_group_name_H-M "C 2/M"
_symmetry_group_IT_number 12
_symmetry_cell_setting 'monoclinic'
loop_
_space_group_symop_operation_xyz
x,y,z
-x,y,-z
-x,-y,-z
x,-y,z
1/2+x,1/2+y,z
1/2-x,1/2+y,-z
1/2-x,1/2-y,-z
1/2+x,1/2-y,z
loop_
_atom_site_type_symbol
_atom_site_label
_atom_site_fract_x
_atom_site_fract_y
_atom_site_fract_z
Si Si1 0.953867 0.828211 0.326559
Si Si2 0.185283 0.281435 0.263292
Si Si3 0.852731 0.064644 0.959805
Si Si4 0.011758 0.640589 0.815104
O O1 0.109387 0.782265 0.290297
O O2 0.257949 0.843551 0.422355
O O3 0.884277 0.795197 0.225534
O O4 0.053931 0.888910 0.218491
O O5 0.000000 0.307558 0.500000
O O6 0.154244 0.313944 0.134965
O O7 0.601785 0.082609 0.159034
O O8 0.867996 0.000000 0.899568
O O9 0.000000 0.070425 0.000000
O O10 0.000000 0.641085 0.000000
#
# Coordination Sequence:
#
# PCOD9216143 Si02
#       4
#     8   8   8   8
#     4  11  25  47  70 107 144 186 227 291 350 419
#     4  10  22  43  67 104 144 181 226 278 351 428
#     4  11  26  48  74 102 135 188 247 285 342 417
#     4  11  25  44  69 106 145 183 229 289 352 417
#
# _framework density 23.898589999999999
#
# number of rings (size 3 to 8) (size 9 to 14) (size 15 to 20)
#    0.000    1.250    2.500    3.000    7.000    3.500 
#    4.500    3.750    0.000    0.000    0.000    0.000 
#    0.000    0.000    0.000    0.000    0.000    0.000 
#
# Total GULP energy -89320.813876 kJ/mol
# GULP energy per Si atom -5582.550867 kJ/mol
# Density = 2.384420 g / cm^3
# Si number density = 23.898590 Si / 1000 Ang^3
#
#
#
# Elastic Constant Matrix: (Units=GPa)
#
#
# Indices 1 2 3 4 5 6 
#
# 1 121.0482 91.9063 42.6560 0.0000 6.7702 0.0000
# 2 91.9063 202.6403 55.6169 0.0000 2.4370 0.0000
# 3 42.6560 55.6169 112.6716 0.0000 7.0421 0.0000
# 4 0.0000 0.0000 0.0000 30.8567 0.0000 -3.8052
# 5 6.7702 2.4370 7.0421 0.0000 41.2476 0.0000
# 6 0.0000 0.0000 0.0000 -3.8052 0.0000 41.6509
#
#
#
# Elastic Compliance Matrix: (Units=1/GPa)
#
#
# Indices 1 2 3 4 5 6 
#
# 1 0.013202 -0.005348 -0.002267 0.000000 -0.001464 0.000000
# 2 -0.005348 0.007876 -0.001909 0.000000 0.000738 0.000000
# 3 -0.002267 -0.001909 0.010760 0.000000 -0.001352 0.000000
# 4 0.000000 0.000000 0.000000 0.032777 0.000000 0.002995
# 5 -0.001464 0.000738 -0.001352 0.000000 0.024671 0.000000
# 6 0.000000 0.000000 0.000000 0.002995 0.000000 0.024283
#
#
# Mechanical properties :
#
#
# Convention : Reuss Voigt Hill
#
# Bulk Modulus (GPa) = 78.18285 90.74649 84.46467
# Shear Modulus (GPa) = 36.52814 39.16310 37.84562
#
# Velocity S-wave (km/s) = 3.91380 4.05250 3.98375
# Velocity P-wave (km/s) = 7.29446 7.74280 7.52197
#
# Compressibility (1/GPa) = 0.01279053
#
# Stress axis : x y z
#
# Youngs Moduli (GPa) = 75.74354 126.97594 92.93381
#
# Poissons Ratio (x) = 0.67908 0.21067
# Poissons Ratio (y) = 0.40509 0.17740
# Poissons Ratio (z) = 0.17170 0.24239
#
# Static dielectric constant tensor:
#      x y z
#    x 2.032610 0.000000 -0.043840 
#    y 0.000000 1.876100 0.000000 
#    z -0.043840 0.000000 2.051020 
# 
# From -- ./inp_files/119551.got.cif
#   From: 2010.05.17/outbox.cif.g08.bks.cpg/sg12_60_cif.got.tgz:119551.got - 2010.06.03 13:09:07.
