data_PCOD9216079
_publ_section_title
;
Structure prediction by ZEFSAII (Michael W. Deem and Ramdas Pophale) SiO2 
 PCOD9216079
Probable space group: C 2/M
;
_chemical_formula_sum "Si O2"
_cell_formula_units_Z 58
_cell_length_a 19.456173
_cell_length_b 24.966621
_cell_length_c 14.185038
_cell_angle_alpha 90.000000
_cell_angle_beta 159.334814
_cell_angle_gamma 90.000000
_cell_volume 2431.684393
_symmetry_space_group_name_H-M "C 2/M"
_symmetry_group_IT_number 12
_symmetry_cell_setting 'monoclinic'
loop_
_space_group_symop_operation_xyz
x,y,z
-x,y,-z
-x,-y,-z
x,-y,z
1/2+x,1/2+y,z
1/2-x,1/2+y,-z
1/2-x,1/2-y,-z
1/2+x,1/2-y,z
loop_
_atom_site_type_symbol
_atom_site_label
_atom_site_fract_x
_atom_site_fract_y
_atom_site_fract_z
Si Si1 0.791587 0.901761 0.055763
Si Si2 0.407084 0.716858 0.978021
Si Si3 0.307306 0.816689 0.943456
Si Si4 0.275612 0.105501 0.240630
Si Si5 0.853727 0.558364 0.529082
Si Si6 0.797487 0.097382 0.348085
Si Si7 0.000000 0.500000 0.000000
Si Si8 0.749935 0.157494 0.482362
O O1 0.765259 0.838462 0.049021
O O2 0.981420 0.922124 0.352903
O O3 0.824612 0.908264 0.986738
O O4 0.585164 0.928496 0.818157
O O5 0.579539 0.697025 0.268151
O O6 0.500000 0.739101 0.000000
O O7 0.264134 0.758656 0.845916
O O8 0.297599 0.661778 0.812844
O O9 0.233508 0.863721 0.780084
O O10 0.541053 0.817491 0.238153
O O11 0.500000 0.111944 0.500000
O O12 0.269172 0.062387 0.315132
O O13 0.829665 0.500000 0.541579
O O14 0.748773 0.603487 0.454074
O O15 0.652716 0.047690 0.162205
O O16 0.757365 0.136777 0.385515
#
# Coordination Sequence:
#
# PCOD9216079 Si02
#       8
#     8   8   8   8   8   8   2   8
#     4  10  24  43  68  96 138 179 230 277 331 416
#     4  12  23  42  72 100 133 182 218 281 353 412
#     4  11  25  44  65  98 136 176 228 278 337 403
#     4  10  22  43  63  98 140 172 224 281 335 412
#     4  10  23  43  69  98 138 180 225 286 346 402
#     4  12  24  46  67 102 135 176 228 282 330 402
#     4  12  28  44  74  96 140 178 230 286 340 380
#     4  11  22  43  67  99 136 172 228 280 341 411
#
# _framework density 23.851779000000001
#
# number of rings (size 3 to 8) (size 9 to 14) (size 15 to 20)
#    0.000    1.103    4.138    1.655    1.931    4.138 
#    0.000    2.069    0.000    0.000    0.000    0.000 
#    0.000    0.000    0.000    0.000    0.000    0.000 
#
# Total GULP energy -162023.174740 kJ/mol
# GULP energy per Si atom -5587.006026 kJ/mol
# Density = 2.379749 g / cm^3
# Si number density = 23.851779 Si / 1000 Ang^3
#
#
#
# Elastic Constant Matrix: (Units=GPa)
#
#
# Indices 1 2 3 4 5 6 
#
# 1 58.8706 3.4169 13.2499 0.0000 -0.6571 0.0000
# 2 3.4169 121.5807 29.7458 0.0000 -2.2853 0.0000
# 3 13.2499 29.7458 81.5097 0.0002 -0.2059 0.0002
# 4 0.0000 0.0000 0.0002 4.8548 0.0001 -13.8607
# 5 -0.6571 -2.2853 -0.2059 0.0001 24.5631 0.0001
# 6 0.0000 0.0000 0.0002 -13.8607 0.0001 0.1351
#
#
#
# Elastic Compliance Matrix: (Units=1/GPa)
#
#
# Indices 1 2 3 4 5 6 
#
# 1 0.017643 0.000235 -0.002953 0.000000 0.000469 0.000000
# 2 0.000235 0.009051 -0.003339 0.000000 0.000820 0.000000
# 3 -0.002953 -0.003339 0.013966 0.000000 -0.000273 0.000000
# 4 0.000000 0.000000 0.000000 -0.000706 0.000000 -0.072393
# 5 0.000469 0.000820 -0.000273 0.000000 0.040798 0.000000
# 6 0.000000 0.000000 0.000000 -0.072393 0.000000 -0.025356
#
#
# Mechanical properties :
#
#
# Convention : Reuss Voigt Hill
#
# Bulk Modulus (GPa) = 35.03012 39.42068 37.22540
# Shear Modulus (GPa) = 64.91448 20.28049 42.59748
#
# Velocity S-wave (km/s) = 5.22253 2.91910 4.23060
# Velocity P-wave (km/s) = 7.14737 5.28439 6.28529
#
# Compressibility (1/GPa) = 0.02854686
#
# Stress axis : x y z
#
# Youngs Moduli (GPa) = 56.68126 110.48814 71.60076
#
# Poissons Ratio (x) = -0.02601 0.21141
# Poissons Ratio (y) = -0.01334 0.23908
# Poissons Ratio (z) = 0.16736 0.36893
#
# Static dielectric constant tensor:
#      x y z
#    x 1.986890 0.000000 -0.097630 
#    y 0.000000 1.856100 0.000000 
#    z -0.097630 0.000000 2.008180 
# 
# From -- ./inp_files/235834.got.cif
#   From: 2010.05.17/outbox.cif.g08.bks.cpg/sg12_118_cif.got.tgz:235834.got - 2010.06.03 13:09:07.
