data_PCOD9216478
_publ_section_title
;
Structure prediction by ZEFSAII (Michael W. Deem and Ramdas Pophale) SiO2 
 PCOD9216478
Probable space group: C 2/M
;
_chemical_formula_sum "Si O2"
_cell_formula_units_Z 56
_cell_length_a 11.138936
_cell_length_b 22.561138
_cell_length_c 10.373341
_cell_angle_alpha 90.000000
_cell_angle_beta 75.437479
_cell_angle_gamma 90.000000
_cell_volume 2523.144490
_symmetry_space_group_name_H-M "C 2/M"
_symmetry_group_IT_number 12
_symmetry_cell_setting 'monoclinic'
loop_
_space_group_symop_operation_xyz
x,y,z
-x,y,-z
-x,-y,-z
x,-y,z
1/2+x,1/2+y,z
1/2-x,1/2+y,-z
1/2-x,1/2-y,-z
1/2+x,1/2-y,z
loop_
_atom_site_type_symbol
_atom_site_label
_atom_site_fract_x
_atom_site_fract_y
_atom_site_fract_z
Si Si1 0.468409 0.666594 0.367998
Si Si2 0.135608 0.932820 0.950563
Si Si3 0.795708 0.315616 0.529223
Si Si4 0.400306 0.859329 0.246765
Si Si5 0.889911 0.238631 0.130447
Si Si6 0.822388 0.655221 0.807170
Si Si7 0.826875 0.067228 0.758568
O O1 0.500000 0.695416 0.500000
O O2 0.328814 0.644156 0.432464
O O3 0.445775 0.708029 0.247558
O O4 0.569585 0.615897 0.310898
O O5 0.233697 0.901703 0.832882
O O6 0.115808 0.000000 0.910475
O O7 0.182653 0.932178 0.083725
O O8 0.000000 0.903122 0.000000
O O9 0.750000 0.250000 0.500000
O O10 0.886646 0.340981 0.399131
O O11 0.844393 0.317257 0.660493
O O12 0.346017 0.803860 0.181912
O O13 0.545014 0.861380 0.170960
O O14 0.309612 0.914123 0.251505
O O15 0.772685 0.202663 0.106912
O O16 0.000000 0.241683 0.000000
O O17 0.860511 0.000000 0.710311
#
# Coordination Sequence:
#
# PCOD9216478 Si02
#       7
#     8   8   8   8   8   8   8
#     4  11  22  40  74  97 136 178 229 290 344 409
#     4  10  22  46  75  99 130 178 233 287 340 403
#     4  11  22  42  63  98 139 182 223 276 346 419
#     4  12  26  40  65  98 140 184 222 275 353 412
#     4  11  26  42  66 103 139 176 229 288 343 419
#     4  11  24  41  67  98 137 179 229 275 345 418
#     4  11  26  46  69 102 141 179 233 291 344 407
#
# _framework density 22.194527000000001
#
# number of rings (size 3 to 8) (size 9 to 14) (size 15 to 20)
#    0.000    1.000    4.286    3.429    6.000    1.429 
#    0.000    2.143    0.000    1.714    0.000    0.000 
#    0.000    0.000    0.000    0.000    0.000    0.000 
#
# Total GULP energy -156327.909992 kJ/mol
# GULP energy per Si atom -5583.139643 kJ/mol
# Density = 2.214401 g / cm^3
# Si number density = 22.194527 Si / 1000 Ang^3
#
#
#
# Elastic Constant Matrix: (Units=GPa)
#
#
# Indices 1 2 3 4 5 6 
#
# 1 117.2664 23.9532 11.6816 0.0000 -20.2525 0.0000
# 2 23.9532 82.2179 22.0518 0.0000 -4.0738 0.0000
# 3 11.6816 22.0518 89.1138 0.0000 -11.0347 0.0000
# 4 0.0000 0.0000 0.0000 27.8744 0.0000 -3.4249
# 5 -20.2525 -4.0738 -11.0347 0.0000 35.5666 0.0000
# 6 0.0000 0.0000 0.0000 -3.4249 0.0000 24.9152
#
#
#
# Elastic Compliance Matrix: (Units=1/GPa)
#
#
# Indices 1 2 3 4 5 6 
#
# 1 0.009999 -0.002649 0.000013 0.000000 0.005394 0.000000
# 2 -0.002649 0.013738 -0.003166 0.000000 -0.000917 0.000000
# 3 0.000013 -0.003166 0.012437 0.000000 0.003503 0.000000
# 4 0.000000 0.000000 0.000000 0.036491 0.000000 0.005016
# 5 0.005394 -0.000917 0.003503 0.000000 0.032170 0.000000
# 6 0.000000 0.000000 0.000000 0.005016 0.000000 0.040826
#
#
# Mechanical properties :
#
#
# Convention : Reuss Voigt Hill
#
# Bulk Modulus (GPa) = 40.70048 44.88572 42.79310
# Shear Modulus (GPa) = 30.21947 33.06535 31.64241
#
# Velocity S-wave (km/s) = 3.69395 3.86398 3.77992
# Velocity P-wave (km/s) = 6.04745 6.33836 6.19461
#
# Compressibility (1/GPa) = 0.02456974
#
# Stress axis : x y z
#
# Youngs Moduli (GPa) = 100.00922 72.78900 80.40415
#
# Poissons Ratio (x) = 0.19284 -0.00103
# Poissons Ratio (y) = 0.26495 0.25455
# Poissons Ratio (z) = -0.00128 0.23045
#
# Static dielectric constant tensor:
#      x y z
#    x 1.874830 0.000000 0.037380 
#    y 0.000000 1.827850 0.000000 
#    z 0.037380 0.000000 1.846880 
# 
# From -- ./inp_files/133839.got.cif
#   From: 2010.05.17/outbox.cif.g08.bks.cpg/sg12_67_cif.got.tgz:133839.got - 2010.06.03 13:09:07.
