data_PCOD9216151
_publ_section_title
;
Structure prediction by ZEFSAII (Michael W. Deem and Ramdas Pophale) SiO2 
 PCOD9216151
Probable space group: C 2/M
;
_chemical_formula_sum "Si O2"
_cell_formula_units_Z 44
_cell_length_a 13.975696
_cell_length_b 17.914189
_cell_length_c 9.251269
_cell_angle_alpha 90.000000
_cell_angle_beta 90.543380
_cell_angle_gamma 90.000000
_cell_volume 2316.073702
_symmetry_space_group_name_H-M "C 2/M"
_symmetry_group_IT_number 12
_symmetry_cell_setting 'monoclinic'
loop_
_space_group_symop_operation_xyz
x,y,z
-x,y,-z
-x,-y,-z
x,-y,z
1/2+x,1/2+y,z
1/2-x,1/2+y,-z
1/2-x,1/2-y,-z
1/2+x,1/2-y,z
loop_
_atom_site_type_symbol
_atom_site_label
_atom_site_fract_x
_atom_site_fract_y
_atom_site_fract_z
Si Si1 0.222968 0.000000 0.166946
Si Si2 0.142249 0.126099 0.670721
Si Si3 0.518745 0.774951 0.659774
Si Si4 0.090582 0.000000 0.896174
Si Si5 0.611617 0.500000 0.454571
Si Si6 0.321192 0.155568 0.135741
Si Si7 0.820106 0.707674 0.816026
O O1 0.139482 0.000000 0.287387
O O2 0.285095 0.074428 0.178671
O O3 0.178911 0.000000 0.006670
O O4 0.069621 0.194177 0.643820
O O5 0.098619 0.072437 0.794368
O O6 0.153372 0.074015 0.530979
O O7 0.243673 0.158443 0.725345
O O8 0.500000 0.806540 0.500000
O O9 0.591254 0.820581 0.761773
O O10 0.416556 0.772789 0.734781
O O11 0.000000 0.000000 0.000000
O O12 0.500000 0.500000 0.500000
O O13 0.235347 0.215036 0.155199
O O14 0.344498 0.165612 0.966240
#
# Coordination Sequence:
#
# PCOD9216151 Si02
#       7
#     4   8   8   4   4   8   8
#     4  12  24  42  66  92 133 164 214 263 317 378
#     4  10  23  42  61  98 128 170 209 256 326 378
#     4  11  25  40  67  93 128 169 216 258 320 376
#     4  11  23  37  66  96 127 165 209 263 322 380
#     4  11  25  39  62  98 137 168 203 258 329 390
#     4  10  24  42  64  97 122 171 215 265 317 371
#     4  10  22  43  67  89 131 166 217 269 309 371
#
# _framework density 18.997668000000001
#
# number of rings (size 3 to 8) (size 9 to 14) (size 15 to 20)
#    0.000    1.455    1.818    2.182   10.182    1.455 
#    0.000    4.091    0.000    0.000    0.000    0.000 
#    0.000    0.000    0.000    0.000    0.000    0.000 
#
# Total GULP energy -122925.750310 kJ/mol
# GULP energy per Si atom -5587.534105 kJ/mol
# Density = 1.895443 g / cm^3
# Si number density = 18.997668 Si / 1000 Ang^3
#
#
#
# Elastic Constant Matrix: (Units=GPa)
#
#
# Indices 1 2 3 4 5 6 
#
# 1 98.4579 19.6702 36.0624 0.0000 8.5339 0.0000
# 2 19.6702 80.5006 5.3637 0.0000 15.5594 0.0000
# 3 36.0624 5.3637 96.4926 0.0000 13.6471 0.0000
# 4 0.0000 0.0000 0.0000 17.2031 0.0000 3.6724
# 5 8.5339 15.5594 13.6471 0.0000 31.2010 0.0000
# 6 0.0000 0.0000 0.0000 3.6724 0.0000 7.6108
#
#
#
# Elastic Compliance Matrix: (Units=1/GPa)
#
#
# Indices 1 2 3 4 5 6 
#
# 1 0.012332 -0.002701 -0.004447 0.000000 -0.000081 0.000000
# 2 -0.002701 0.014343 0.001193 0.000000 -0.006936 0.000000
# 3 -0.004447 0.001193 0.012654 0.000000 -0.004913 0.000000
# 4 0.000000 0.000000 0.000000 0.064804 0.000000 -0.031270
# 5 -0.000081 -0.006936 -0.004913 0.000000 0.037680 0.000000
# 6 0.000000 0.000000 0.000000 -0.031270 0.000000 0.146481
#
#
# Mechanical properties :
#
#
# Convention : Reuss Voigt Hill
#
# Bulk Modulus (GPa) = 36.47140 44.18265 40.32703
# Shear Modulus (GPa) = 16.16310 25.49330 20.82820
#
# Velocity S-wave (km/s) = 2.92000 3.66719 3.31472
# Velocity P-wave (km/s) = 5.53245 6.42172 5.99360
#
# Compressibility (1/GPa) = 0.02741874
#
# Stress axis : x y z
#
# Youngs Moduli (GPa) = 81.08800 69.71825 79.02505
#
# Poissons Ratio (x) = 0.18834 0.35146
# Poissons Ratio (y) = 0.21906 -0.09430
# Poissons Ratio (z) = 0.36063 -0.08319
#
# Static dielectric constant tensor:
#      x y z
#    x 1.638790 0.000000 0.006570 
#    y 0.000000 1.730750 0.000000 
#    z 0.006570 0.000000 1.682630 
# 
# From -- ./inp_files/61169.got.cif
#   From: 2010.05.17/outbox.cif.g08.bks.cpg/sg12_31_cif.got.tgz:61169.got - 2010.06.03 13:09:07.
