data_PCOD9216760
_publ_section_title
;
Structure prediction by ZEFSAII (Michael W. Deem and Ramdas Pophale) SiO2 
 PCOD9216760
Probable space group: C 2/M
;
_chemical_formula_sum "Si O2"
_cell_formula_units_Z 40
_cell_length_a 13.867827
_cell_length_b 15.102053
_cell_length_c 15.285079
_cell_angle_alpha 90.000000
_cell_angle_beta 139.798605
_cell_angle_gamma 90.000000
_cell_volume 2066.295277
_symmetry_space_group_name_H-M "C 2/M"
_symmetry_group_IT_number 12
_symmetry_cell_setting 'monoclinic'
loop_
_space_group_symop_operation_xyz
x,y,z
-x,y,-z
-x,-y,-z
x,-y,z
1/2+x,1/2+y,z
1/2-x,1/2+y,-z
1/2-x,1/2-y,-z
1/2+x,1/2-y,z
loop_
_atom_site_type_symbol
_atom_site_label
_atom_site_fract_x
_atom_site_fract_y
_atom_site_fract_z
Si Si1 0.828137 0.500000 0.910246
Si Si2 0.651501 0.839418 0.546563
Si Si3 0.843738 0.000000 0.760381
Si Si4 0.345370 0.163153 0.656807
Si Si5 0.174297 0.346500 0.952292
Si Si6 0.324376 0.500000 0.380171
Si Si7 0.322893 0.500000 0.955148
O O1 0.730169 0.500000 0.756711
O O2 0.800022 0.409876 0.945779
O O3 0.000000 0.500000 0.000000
O O4 0.500000 0.833745 0.500000
O O5 0.758481 0.916292 0.659191
O O6 0.615498 0.851892 0.418466
O O7 0.750774 0.750806 0.611675
O O8 0.833786 0.000000 0.858558
O O9 0.024786 0.000000 0.880364
O O10 0.498292 0.165047 0.816700
O O11 0.243015 0.083615 0.617408
O O12 0.236507 0.410575 0.919890
O O13 0.250000 0.250000 0.000000
O O14 0.500000 0.500000 0.500000
#
# Coordination Sequence:
#
# PCOD9216760 Si02
#       7
#     4   8   4   8   8   4   4
#     4  11  23  45  66  94 133 169 226 269 316 409
#     4  11  24  41  64  92 128 168 212 262 327 390
#     4  11  22  40  62  88 127 163 203 259 318 378
#     4  11  24  42  63  96 131 164 221 272 314 400
#     4  11  23  42  68  93 128 172 213 269 332 378
#     4  12  25  43  69  96 131 179 215 271 336 385
#     4  10  23  40  61  95 124 159 219 260 310 397
#
# _framework density 19.358318000000001
#
# number of rings (size 3 to 8) (size 9 to 14) (size 15 to 20)
#    0.000    1.000    2.000    4.500    0.000    9.600 
#    3.600    0.000    0.000    0.000    0.000    0.000 
#    0.000    0.000    0.000    0.000    0.000    0.000 
#
# Total GULP energy -111661.384567 kJ/mol
# GULP energy per Si atom -5583.069228 kJ/mol
# Density = 1.931426 g / cm^3
# Si number density = 19.358318 Si / 1000 Ang^3
#
#
#
# Elastic Constant Matrix: (Units=GPa)
#
#
# Indices 1 2 3 4 5 6 
#
# 1 123.7833 72.1155 68.0616 0.0000 3.7117 0.0000
# 2 72.1155 169.3168 51.8687 0.0000 -0.5609 0.0000
# 3 68.0616 51.8687 97.2524 -0.0001 9.3297 -0.0001
# 4 0.0000 0.0000 -0.0001 6.1408 0.0000 20.0854
# 5 3.7117 -0.5609 9.3297 0.0000 42.1817 0.0000
# 6 0.0000 0.0000 -0.0001 20.0854 0.0000 0.9623
#
#
#
# Elastic Compliance Matrix: (Units=1/GPa)
#
#
# Indices 1 2 3 4 5 6 
#
# 1 0.014915 -0.003751 -0.008487 0.000000 0.000515 0.000000
# 2 -0.003751 0.008040 -0.001742 0.000000 0.000822 0.000000
# 3 -0.008487 -0.001742 0.017452 0.000000 -0.003136 0.000000
# 4 0.000000 0.000000 0.000000 -0.002421 0.000000 0.050527
# 5 0.000515 0.000822 -0.003136 0.000000 0.024366 0.000000
# 6 0.000000 0.000000 0.000000 0.050527 0.000000 -0.015448
#
#
# Mechanical properties :
#
#
# Convention : Reuss Voigt Hill
#
# Bulk Modulus (GPa) = 80.33858 86.04937 83.19397
# Shear Modulus (GPa) = 63.28034 23.07742 43.17888
#
# Velocity S-wave (km/s) = 5.72363 3.45645 4.72795
# Velocity P-wave (km/s) = 9.23422 7.77668 8.53661
#
# Compressibility (1/GPa) = 0.01244732
#
# Stress axis : x y z
#
# Youngs Moduli (GPa) = 67.04626 124.37748 57.29994
#
# Poissons Ratio (x) = 0.46654 0.48631
# Poissons Ratio (y) = 0.25149 0.09981
# Poissons Ratio (z) = 0.56903 0.21665
#
# Static dielectric constant tensor:
#      x y z
#    x 1.690600 0.000000 -0.009860 
#    y 0.000000 1.682270 0.000000 
#    z -0.009860 0.000000 1.671770 
# 
# From -- ./inp_files/215119.got.cif
#   From: 2010.05.17/outbox.cif.g08.bks.cpg/sg12_108_cif.got.tgz:215119.got - 2010.06.03 13:09:07.
