data_PCOD9216646
_publ_section_title
;
Structure prediction by ZEFSAII (Michael W. Deem and Ramdas Pophale) SiO2 
 PCOD9216646
Probable space group: C 2/M
;
_chemical_formula_sum "Si O2"
_cell_formula_units_Z 48
_cell_length_a 11.349566
_cell_length_b 22.643608
_cell_length_c 12.558266
_cell_angle_alpha 90.000000
_cell_angle_beta 132.450455
_cell_angle_gamma 90.000000
_cell_volume 2381.383111
_symmetry_space_group_name_H-M "C 2/M"
_symmetry_group_IT_number 12
_symmetry_cell_setting 'monoclinic'
loop_
_space_group_symop_operation_xyz
x,y,z
-x,y,-z
-x,-y,-z
x,-y,z
1/2+x,1/2+y,z
1/2-x,1/2+y,-z
1/2-x,1/2-y,-z
1/2+x,1/2-y,z
loop_
_atom_site_type_symbol
_atom_site_label
_atom_site_fract_x
_atom_site_fract_y
_atom_site_fract_z
Si Si1 0.309885 0.242556 0.413069
Si Si2 0.744496 0.567534 0.860714
Si Si3 0.187495 0.393563 0.637406
Si Si4 0.369243 0.930857 0.169396
Si Si5 0.384372 0.434308 0.561802
Si Si6 0.169161 0.361066 0.278978
O O1 0.500000 0.252166 0.500000
O O2 0.250000 0.250000 0.500000
O O3 0.275314 0.175751 0.355915
O O4 0.203631 0.292140 0.290934
O O5 0.793392 0.500000 0.868883
O O6 0.563128 0.574865 0.711395
O O7 0.841580 0.609785 0.842769
O O8 0.767512 0.577410 0.999877
O O9 0.220340 0.416291 0.775995
O O10 0.279260 0.428894 0.603243
O O11 0.000000 0.401341 0.500000
O O12 0.516071 0.884847 0.249958
O O13 0.422860 0.000000 0.204566
O O14 0.367807 0.500000 0.505193
O O15 0.318151 0.387946 0.436508
#
# Coordination Sequence:
#
# PCOD9216646 Si02
#       6
#     8   8   8   8   8   8
#     4  11  22  40  64  95 132 171 216 267 328 381
#     4  10  23  39  58  90 129 165 201 252 327 389
#     4  11  22  39  62  92 120 163 215 261 314 376
#     4  11  23  41  64  91 128 168 207 261 323 383
#     4  11  21  35  61  93 121 153 205 267 315 364
#     4  12  21  37  65  92 121 163 211 262 309 377
#
# _framework density 20.156352999999999
#
# number of rings (size 3 to 8) (size 9 to 14) (size 15 to 20)
#    0.000    1.000    3.333    5.000    0.000    4.000 
#    0.000    3.333    3.667    0.000    0.000    0.000 
#    0.000    0.000    0.000    0.000    0.000    0.000 
#
# Total GULP energy -134089.851760 kJ/mol
# GULP energy per Si atom -5587.077157 kJ/mol
# Density = 2.011048 g / cm^3
# Si number density = 20.156353 Si / 1000 Ang^3
#
#
#
# Elastic Constant Matrix: (Units=GPa)
#
#
# Indices 1 2 3 4 5 6 
#
# 1 101.8754 24.8161 18.0087 0.0000 -25.4971 0.0000
# 2 24.8161 64.7022 18.5067 0.0000 -1.6668 0.0000
# 3 18.0087 18.5067 81.0719 0.0000 -21.9662 0.0000
# 4 0.0000 0.0000 0.0000 -115.0876 0.0000 -37.2510
# 5 -25.4971 -1.6668 -21.9662 0.0000 40.9401 0.0000
# 6 0.0000 0.0000 0.0000 -37.2510 0.0000 24.5382
#
#
#
# Elastic Compliance Matrix: (Units=1/GPa)
#
#
# Indices 1 2 3 4 5 6 
#
# 1 0.012957 -0.004885 0.000432 0.000000 0.008103 0.000000
# 2 -0.004885 0.018464 -0.004388 0.000000 -0.004645 0.000000
# 3 0.000432 -0.004388 0.015521 0.000000 0.008418 0.000000
# 4 0.000000 0.000000 0.000000 -0.005826 0.000000 -0.008845
# 5 0.008103 -0.004645 0.008418 0.000000 0.033800 0.000000
# 6 0.000000 0.000000 0.000000 -0.008845 0.000000 0.027326
#
#
# Mechanical properties :
#
#
# Convention : Reuss Voigt Hill
#
# Bulk Modulus (GPa) = 34.17464 41.14584 37.66024
# Shear Modulus (GPa) = 38.55694 2.49934 20.52814
#
# Velocity S-wave (km/s) = 4.37841 1.11475 3.19477
# Velocity P-wave (km/s) = 6.52320 4.70261 5.68624
#
# Compressibility (1/GPa) = 0.02926147
#
# Stress axis : x y z
#
# Youngs Moduli (GPa) = 77.17668 54.15813 64.42686
#
# Poissons Ratio (x) = 0.26454 -0.02784
# Poissons Ratio (y) = 0.37697 0.28274
# Poissons Ratio (z) = -0.03336 0.23767
#
# Static dielectric constant tensor:
#      x y z
#    x 1.762070 0.000000 0.009070 
#    y 0.000000 1.703280 0.000000 
#    z 0.009070 0.000000 1.707190 
# 
# From -- ./inp_files/50817.got.cif
#   From: 2010.05.17/outbox.cif.g08.bks.cpg/sg12_26_cif.got.tgz:50817.got - 2010.06.03 13:09:07.
