data_PCOD9216156
_publ_section_title
;
Structure prediction by ZEFSAII (Michael W. Deem and Ramdas Pophale) SiO2 
 PCOD9216156
Probable space group: C 2/M
;
_chemical_formula_sum "Si O2"
_cell_formula_units_Z 64
_cell_length_a 18.813966
_cell_length_b 29.614646
_cell_length_c 9.840666
_cell_angle_alpha 90.000000
_cell_angle_beta 141.038315
_cell_angle_gamma 90.000000
_cell_volume 3447.659035
_symmetry_space_group_name_H-M "C 2/M"
_symmetry_group_IT_number 12
_symmetry_cell_setting 'monoclinic'
loop_
_space_group_symop_operation_xyz
x,y,z
-x,y,-z
-x,-y,-z
x,-y,z
1/2+x,1/2+y,z
1/2-x,1/2+y,-z
1/2-x,1/2-y,-z
1/2+x,1/2-y,z
loop_
_atom_site_type_symbol
_atom_site_label
_atom_site_fract_x
_atom_site_fract_y
_atom_site_fract_z
Si Si1 0.508118 0.178769 0.855080
Si Si2 0.219498 0.448517 0.662430
Si Si3 0.389993 0.629146 0.245269
Si Si4 0.790524 0.550293 0.038035
Si Si5 0.278893 0.219819 0.411978
Si Si6 0.751546 0.284502 0.879420
Si Si7 0.500769 0.070495 0.158869
Si Si8 0.384817 0.636671 0.914170
O O1 0.397506 0.195450 0.613669
O O2 0.509078 0.124734 0.855042
O O3 0.500000 0.194041 0.000000
O O4 0.622339 0.197697 0.960904
O O5 0.265042 0.500000 0.718299
O O6 0.175253 0.443427 0.752453
O O7 0.116496 0.443089 0.405055
O O8 0.310038 0.408486 0.775488
O O9 0.500000 0.621004 0.500000
O O10 0.328337 0.673611 0.208412
O O11 0.302632 0.587871 0.130494
O O12 0.410873 0.636329 0.114810
O O13 0.741498 0.500000 0.953895
O O14 0.895903 0.553653 0.093094
O O15 0.250000 0.250000 0.500000
O O16 0.288913 0.255963 0.308273
O O17 0.187420 0.181160 0.236171
O O18 0.750000 0.250000 0.000000
O O19 0.500000 0.055732 0.000000
O O20 0.500000 0.635798 0.000000
#
# Coordination Sequence:
#
# PCOD9216156 Si02
#       8
#     8   8   8   8   8   8   8   8
#     4  11  24  43  64  95 131 168 208 261 315 370
#     4  10  22  43  67  93 127 168 210 256 317 379
#     4  11  26  45  65  94 129 165 210 267 316 376
#     4  10  22  43  67  93 127 168 209 256 316 381
#     4  12  26  41  69  92 127 174 213 259 313 374
#     4  12  26  43  63  96 128 166 215 261 314 370
#     4  11  22  38  65  98 133 164 206 258 318 372
#     4  11  26  45  65  95 127 165 215 263 316 376
#
# _framework density 18.563320999999998
#
# number of rings (size 3 to 8) (size 9 to 14) (size 15 to 20)
#    0.000    1.000    5.000    0.750    5.250    3.500 
#    2.250    0.000    0.000    0.000    0.000    0.000 
#    0.000    0.000    0.000    0.000    0.000    0.000 
#
# Total GULP energy -178808.313059 kJ/mol
# GULP energy per Si atom -5587.759783 kJ/mol
# Density = 1.852107 g / cm^3
# Si number density = 18.563321 Si / 1000 Ang^3
#
#
#
# Elastic Constant Matrix: (Units=GPa)
#
#
# Indices 1 2 3 4 5 6 
#
# 1 127.0205 60.3224 70.4320 0.0000 -6.6759 0.0000
# 2 60.3224 138.1700 65.2100 0.0000 -9.5317 0.0000
# 3 70.4320 65.2100 150.4307 0.0000 -10.5935 0.0000
# 4 0.0000 0.0000 0.0000 29.9210 0.0000 -0.3667
# 5 -6.6759 -9.5317 -10.5935 0.0000 28.0371 0.0000
# 6 0.0000 0.0000 0.0000 -0.3667 0.0000 31.3571
#
#
#
# Elastic Compliance Matrix: (Units=1/GPa)
#
#
# Indices 1 2 3 4 5 6 
#
# 1 0.011633 -0.003146 -0.004071 0.000000 0.000162 0.000000
# 2 -0.003146 0.010024 -0.002759 0.000000 0.001617 0.000000
# 3 -0.004071 -0.002759 0.009878 0.000000 0.001825 0.000000
# 4 0.000000 0.000000 0.000000 0.033426 0.000000 0.000391
# 5 0.000162 0.001617 0.001825 0.000000 0.036945 0.000000
# 6 0.000000 0.000000 0.000000 0.000391 0.000000 0.031895
#
#
# Mechanical properties :
#
#
# Convention : Reuss Voigt Hill
#
# Bulk Modulus (GPa) = 86.33056 89.72778 88.02917
# Shear Modulus (GPa) = 31.72291 32.50683 32.11487
#
# Velocity S-wave (km/s) = 4.13837 4.18919 4.16386
# Velocity P-wave (km/s) = 8.33317 8.47585 8.40482
#
# Compressibility (1/GPa) = 0.01158338
#
# Stress axis : x y z
#
# Youngs Moduli (GPa) = 85.96349 99.75627 101.23329
#
# Poissons Ratio (x) = 0.31383 0.41216
# Poissons Ratio (y) = 0.27044 0.27927
# Poissons Ratio (z) = 0.34999 0.27519
#
# Static dielectric constant tensor:
#      x y z
#    x 1.567600 0.000000 0.004710 
#    y 0.000000 1.643970 0.000000 
#    z 0.004710 0.000000 1.604840 
# 
# From -- ./inp_files/80771.got.cif
#   From: 2010.05.17/outbox.cif.g08.bks.cpg/sg12_41_cif.got.tgz:80771.got - 2010.06.03 13:09:07.
