data_PCOD9216543
_publ_section_title
;
Structure prediction by ZEFSAII (Michael W. Deem and Ramdas Pophale) SiO2 
 PCOD9216543
Probable space group: C 2/M
;
_chemical_formula_sum "Si O2"
_cell_formula_units_Z 50
_cell_length_a 16.459290
_cell_length_b 14.774699
_cell_length_c 15.197685
_cell_angle_alpha 90.000000
_cell_angle_beta 134.914194
_cell_angle_gamma 90.000000
_cell_volume 2617.228285
_symmetry_space_group_name_H-M "C 2/M"
_symmetry_group_IT_number 12
_symmetry_cell_setting 'monoclinic'
loop_
_space_group_symop_operation_xyz
x,y,z
-x,y,-z
-x,-y,-z
x,-y,z
1/2+x,1/2+y,z
1/2-x,1/2+y,-z
1/2-x,1/2-y,-z
1/2+x,1/2-y,z
loop_
_atom_site_type_symbol
_atom_site_label
_atom_site_fract_x
_atom_site_fract_y
_atom_site_fract_z
Si Si1 0.354699 0.401676 0.766671
Si Si2 0.893673 0.647124 0.362991
Si Si3 0.235856 0.858508 0.491838
Si Si4 0.569907 0.199726 0.140320
Si Si5 0.330751 0.349880 0.364976
Si Si6 0.500000 0.500000 0.500000
Si Si7 0.494581 0.896294 0.730990
O O1 0.408533 0.500000 0.826169
O O2 0.227796 0.399324 0.712431
O O3 0.331310 0.391377 0.644376
O O4 0.416139 0.308836 0.842261
O O5 0.875354 0.748689 0.384926
O O6 0.000000 0.607594 0.500000
O O7 0.927328 0.644101 0.286575
O O8 0.250000 0.750000 0.500000
O O9 0.174600 0.879833 0.536579
O O10 0.364467 0.895986 0.593991
O O11 0.697484 0.155754 0.234562
O O12 0.511558 0.161792 0.184527
O O13 0.500000 0.176475 0.000000
O O14 0.417797 0.420947 0.391924
O O15 0.527827 0.000000 0.774377
#
# Coordination Sequence:
#
# PCOD9216543 Si02
#       7
#     8   8   8   8   8   2   8
#     4  11  22  35  60  92 124 161 208 265 313 369
#     4  11  19  35  56  89 130 159 187 253 326 374
#     4  11  18  36  55  86 127 158 196 246 319 375
#     4  10  24  45  63  87 120 173 219 253 298 363
#     4  10  23  37  59  89 129 160 197 255 311 374
#     4  12  24  36  58  96 126 158 194 254 322 376
#     4  11  22  35  60  90 120 158 204 258 309 372
#
# _framework density 19.104181000000001
#
# number of rings (size 3 to 8) (size 9 to 14) (size 15 to 20)
#    0.000    1.280    7.200    0.960    5.600    1.280 
#    0.000    3.200    0.000    0.000    4.160    0.000 
#    0.000    0.000    0.000    0.000    0.000    0.000 
#
# Total GULP energy -139275.226811 kJ/mol
# GULP energy per Si atom -5571.009072 kJ/mol
# Density = 1.906070 g / cm^3
# Si number density = 19.104181 Si / 1000 Ang^3
#
#
#
# Elastic Constant Matrix: (Units=GPa)
#
#
# Indices 1 2 3 4 5 6 
#
# 1 91.7224 18.4723 40.8945 0.0000 -8.1177 0.0000
# 2 18.4723 85.7421 2.4995 0.0000 1.8503 0.0000
# 3 40.8945 2.4995 91.6329 0.0000 -12.2380 0.0000
# 4 0.0000 0.0000 0.0000 5.9587 0.0000 -3.0703
# 5 -8.1177 1.8503 -12.2380 0.0000 11.9184 0.0000
# 6 0.0000 0.0000 0.0000 -3.0703 0.0000 13.2377
#
#
#
# Elastic Compliance Matrix: (Units=1/GPa)
#
#
# Indices 1 2 3 4 5 6 
#
# 1 0.014489 -0.003047 -0.005797 0.000000 0.004389 0.000000
# 2 -0.003047 0.012377 0.000566 0.000000 -0.003416 0.000000
# 3 -0.005797 0.000566 0.015003 0.000000 0.011369 0.000000
# 4 0.000000 0.000000 0.000000 0.190600 0.000000 0.044207
# 5 0.004389 -0.003416 0.011369 0.000000 0.099098 0.000000
# 6 0.000000 0.000000 0.000000 0.044207 0.000000 0.085795
#
#
# Mechanical properties :
#
#
# Convention : Reuss Voigt Hill
#
# Bulk Modulus (GPa) = 39.50566 43.64777 41.57672
# Shear Modulus (GPa) = 11.30313 20.03838 15.67076
#
# Velocity S-wave (km/s) = 2.43504 3.24219 2.86716
# Velocity P-wave (km/s) = 5.35069 6.07557 5.72461
#
# Compressibility (1/GPa) = 0.02531283
#
# Stress axis : x y z
#
# Youngs Moduli (GPa) = 69.01681 80.79765 66.65249
#
# Poissons Ratio (x) = 0.24621 0.38638
# Poissons Ratio (y) = 0.21031 -0.03774
# Poissons Ratio (z) = 0.40009 -0.04575
#
# Static dielectric constant tensor:
#      x y z
#    x 1.734910 0.000000 -0.007720 
#    y 0.000000 1.705290 0.000000 
#    z -0.007720 0.000000 1.644340 
# 
# From -- ./inp_files/224933.got.cif
#   From: 2010.05.17/outbox.cif.g08.bks.cpg/sg12_113_cif.got.tgz:224933.got - 2010.06.03 13:09:07.
