data_PCOD9216965
_publ_section_title
;
Structure prediction by ZEFSAII (Michael W. Deem and Ramdas Pophale) SiO2 
 PCOD9216965
Probable space group: C 2/M
;
_chemical_formula_sum "Si O2"
_cell_formula_units_Z 56
_cell_length_a 26.133591
_cell_length_b 26.048577
_cell_length_c 12.255552
_cell_angle_alpha 90.000000
_cell_angle_beta 21.826803
_cell_angle_gamma 90.000000
_cell_volume 3101.900457
_symmetry_space_group_name_H-M "C 2/M"
_symmetry_group_IT_number 12
_symmetry_cell_setting 'monoclinic'
loop_
_space_group_symop_operation_xyz
x,y,z
-x,y,-z
-x,-y,-z
x,-y,z
1/2+x,1/2+y,z
1/2-x,1/2+y,-z
1/2-x,1/2-y,-z
1/2+x,1/2-y,z
loop_
_atom_site_type_symbol
_atom_site_label
_atom_site_fract_x
_atom_site_fract_y
_atom_site_fract_z
Si Si1 0.220129 0.123071 0.859985
Si Si2 0.478986 0.559853 0.412458
Si Si3 0.665886 0.302614 0.168349
Si Si4 0.974441 0.441794 0.421390
Si Si5 0.833438 0.300613 0.203936
Si Si6 0.771255 0.378089 0.149696
Si Si7 0.342859 0.800812 0.446226
O O1 0.323217 0.078724 0.695565
O O2 0.277745 0.151364 0.639563
O O3 0.073302 0.095406 0.149894
O O4 0.206605 0.166033 0.979913
O O5 0.500000 0.573444 0.500000
O O6 0.511155 0.500000 0.338272
O O7 0.325528 0.573119 0.680046
O O8 0.500000 0.295387 0.500000
O O9 0.718552 0.336496 0.165904
O O10 0.750000 0.250000 0.000000
O O11 0.994910 0.500000 0.339875
O O12 0.000000 0.442558 0.500000
O O13 0.076869 0.399415 0.170977
O O14 0.770600 0.349300 0.266055
O O15 0.744264 0.250163 0.352391
O O16 0.830476 0.307441 0.340235
O O17 0.994184 0.294403 0.851629
#
# Coordination Sequence:
#
# PCOD9216965 Si02
#       7
#     8   8   8   8   8   8   8
#     4  12  21  39  60  87 121 154 193 243 299 348
#     4  11  22  40  63  88 121 159 200 244 292 352
#     4  12  26  38  55  86 124 158 189 236 299 358
#     4  11  22  36  59  90 119 153 200 242 286 354
#     4  10  23  41  62  88 118 157 201 243 292 353
#     4  12  21  39  60  87 121 154 193 243 299 348
#     4  10  23  41  62  88 118 157 201 243 292 353
#
# _framework density 18.053447999999999
#
# number of rings (size 3 to 8) (size 9 to 14) (size 15 to 20)
#    0.000    0.857    5.714    1.714    4.000    4.571 
#    0.000    0.000    0.000    5.143    0.000    0.000 
#    0.000    0.000    0.000    0.000    0.000    0.000 
#
# Total GULP energy -156347.037648 kJ/mol
# GULP energy per Si atom -5583.822773 kJ/mol
# Density = 1.801236 g / cm^3
# Si number density = 18.053448 Si / 1000 Ang^3
#
#
#
# Elastic Constant Matrix: (Units=GPa)
#
#
# Indices 1 2 3 4 5 6 
#
# 1 38.8767 20.8783 11.5676 -0.0046 -0.8534 0.0032
# 2 20.8783 96.0718 20.4178 -0.0176 9.4226 0.0051
# 3 11.5676 20.4178 66.2307 -0.0550 2.6302 0.0164
# 4 -0.0046 -0.0176 -0.0550 -201.4027 0.0162 53.6348
# 5 -0.8534 9.4226 2.6302 0.0162 19.7851 -0.0059
# 6 0.0032 0.0051 0.0164 53.6348 -0.0059 8.8540
#
#
#
# Elastic Compliance Matrix: (Units=1/GPa)
#
#
# Indices 1 2 3 4 5 6 
#
# 1 0.030258 -0.006293 -0.003534 0.000001 0.004772 -0.000002
# 2 -0.006293 0.012935 -0.002647 -0.000001 -0.006080 0.000000
# 3 -0.003534 -0.002647 0.016576 -0.000005 -0.001095 -0.000001
# 4 0.000001 -0.000001 -0.000005 -0.001900 0.000006 0.011510
# 5 0.004772 -0.006080 -0.001095 0.000006 0.053790 0.000003
# 6 -0.000002 0.000000 -0.000001 0.011510 0.000003 0.043220
#
#
# Mechanical properties :
#
#
# Convention : Reuss Voigt Hill
#
# Bulk Modulus (GPa) = 28.71857 34.10072 31.40964
# Shear Modulus (GPa) = 26.11861 -24.66501 0.72680
#
# Velocity S-wave (km/s) = 3.80773 -3.70025 0.63518
# Velocity P-wave (km/s) = 5.93917 0.82093 4.23956
#
# Compressibility (1/GPa) = 0.03482068
#
# Stress axis : x y z
#
# Youngs Moduli (GPa) = 33.04901 77.30791 60.32951
#
# Poissons Ratio (x) = 0.48646 0.21323
# Poissons Ratio (y) = 0.20796 0.15971
# Poissons Ratio (z) = 0.11681 0.20465
#
# Static dielectric constant tensor:
#      x y z
#    x 1.590560 0.000000 -0.003940 
#    y 0.000000 1.607380 0.000000 
#    z -0.003940 0.000000 1.610460 
# 
# From -- ./inp_files/185119.got.cif
#   From: 2010.05.17/outbox.cif.g08.bks.cpg/sg12_93_cif.got.tgz:185119.got - 2010.06.03 13:09:07.
