data_PCOD9216033
_publ_section_title
;
Structure prediction by ZEFSAII (Michael W. Deem and Ramdas Pophale) SiO2 
 PCOD9216033
Probable space group: C 2/M
;
_chemical_formula_sum "Si O2"
_cell_formula_units_Z 64
_cell_length_a 16.852618
_cell_length_b 14.788301
_cell_length_c 12.398771
_cell_angle_alpha 90.000000
_cell_angle_beta 76.803261
_cell_angle_gamma 90.000000
_cell_volume 3008.439265
_symmetry_space_group_name_H-M "C 2/M"
_symmetry_group_IT_number 12
_symmetry_cell_setting 'monoclinic'
loop_
_space_group_symop_operation_xyz
x,y,z
-x,y,-z
-x,-y,-z
x,-y,z
1/2+x,1/2+y,z
1/2-x,1/2+y,-z
1/2-x,1/2-y,-z
1/2+x,1/2-y,z
loop_
_atom_site_type_symbol
_atom_site_label
_atom_site_fract_x
_atom_site_fract_y
_atom_site_fract_z
Si Si1 0.907309 0.897417 0.071061
Si Si2 0.121627 0.596917 0.969053
Si Si3 0.831116 0.394320 0.385781
Si Si4 0.809058 0.143165 0.884542
Si Si5 0.907392 0.698550 0.563039
Si Si6 0.143551 0.899894 0.368101
Si Si7 0.390901 0.182030 0.810749
Si Si8 0.569334 0.229558 0.811785
O O1 0.894173 0.827017 0.171725
O O2 0.897137 0.000000 0.110913
O O3 0.851233 0.881244 0.983971
O O4 0.000000 0.884904 0.000000
O O5 0.094417 0.500000 0.935406
O O6 0.216938 0.609652 0.914609
O O7 0.076458 0.676533 0.922044
O O8 0.109193 0.604565 0.100493
O O9 0.857640 0.500000 0.377456
O O10 0.847968 0.346605 0.494630
O O11 0.736828 0.393582 0.380525
O O12 0.881252 0.332649 0.286342
O O13 0.852569 0.104960 0.763757
O O14 0.817620 0.250892 0.865684
O O15 0.898095 0.807852 0.576625
O O16 0.887870 0.658781 0.687003
O O17 0.000000 0.678172 0.500000
O O18 0.111494 0.000000 0.409126
O O19 0.476409 0.234983 0.801661
#
# Coordination Sequence:
#
# PCOD9216033 Si02
#       8
#     8   8   8   8   8   8   8   8
#     4  11  22  36  59  90 130 174 208 253 318 386
#     4  12  24  38  64  98 131 169 216 267 321 388
#     4  11  24  44  69  94 126 175 222 265 326 388
#     4  11  21  41  62  94 133 172 211 259 318 393
#     4  11  24  44  67  95 129 169 223 269 329 379
#     4  10  22  42  70  99 127 169 220 269 324 387
#     4  11  24  41  63  93 132 174 209 271 326 381
#     4  12  22  42  63  93 133 166 219 264 321 388
#
# _framework density 21.273489000000001
#
# number of rings (size 3 to 8) (size 9 to 14) (size 15 to 20)
#    0.000    0.875    5.000    2.625    0.000    2.500 
#    0.000    0.625    0.000    2.250    0.000    0.000 
#    0.000    0.000    0.000    0.000    0.000    0.000 
#
# Total GULP energy -178897.981066 kJ/mol
# GULP energy per Si atom -5590.561908 kJ/mol
# Density = 2.122507 g / cm^3
# Si number density = 21.273489 Si / 1000 Ang^3
#
#
#
# Elastic Constant Matrix: (Units=GPa)
#
#
# Indices 1 2 3 4 5 6 
#
# 1 56.6428 -0.7679 12.8715 0.0000 8.3288 0.0000
# 2 -0.7679 104.2412 50.1365 0.0000 5.0708 0.0000
# 3 12.8715 50.1365 108.4071 0.0000 12.4192 0.0000
# 4 0.0000 0.0000 0.0000 -10.0647 0.0000 -39.3034
# 5 8.3288 5.0708 12.4192 0.0000 25.7548 0.0000
# 6 0.0000 0.0000 0.0000 -39.3034 0.0000 -51.0350
#
#
#
# Elastic Compliance Matrix: (Units=1/GPa)
#
#
# Indices 1 2 3 4 5 6 
#
# 1 0.018991 0.001531 -0.002355 0.000000 -0.005307 0.000000
# 2 0.001531 0.012464 -0.005936 0.000000 -0.000087 0.000000
# 3 -0.002355 -0.005936 0.012732 0.000000 -0.004209 0.000000
# 4 0.000000 0.000000 0.000000 0.049495 0.000000 -0.038118
# 5 -0.005307 -0.000087 -0.004209 0.000000 0.042591 0.000000
# 6 0.000000 0.000000 0.000000 -0.038118 0.000000 0.009761
#
#
# Mechanical properties :
#
#
# Convention : Reuss Voigt Hill
#
# Bulk Modulus (GPa) = 32.60977 43.75237 38.18107
# Shear Modulus (GPa) = 29.45070 6.73444 18.09257
#
# Velocity S-wave (km/s) = 3.72477 1.78116 2.91945
# Velocity P-wave (km/s) = 5.81899 4.98410 5.41765
#
# Compressibility (1/GPa) = 0.03066565
#
# Stress axis : x y z
#
# Youngs Moduli (GPa) = 52.65733 80.23321 78.54479
#
# Poissons Ratio (x) = -0.12281 0.18495
# Poissons Ratio (y) = -0.08060 0.46625
# Poissons Ratio (z) = 0.12399 0.47627
#
# Static dielectric constant tensor:
#      x y z
#    x 1.761560 0.000000 0.001300 
#    y 0.000000 1.783270 0.000000 
#    z 0.001300 0.000000 1.766840 
# 
# From -- ./inp_files/156652.got.cif
#   From: 2010.05.17/outbox.cif.g08.bks.cpg/sg12_79_cif.got.tgz:156652.got - 2010.06.03 13:09:07.
