data_PCOD9216046
_publ_section_title
;
Structure prediction by ZEFSAII (Michael W. Deem and Ramdas Pophale) SiO2 
 PCOD9216046
Probable space group: C 2/M
;
_chemical_formula_sum "Si O2"
_cell_formula_units_Z 28
_cell_length_a 14.897158
_cell_length_b 15.541948
_cell_length_c 8.210331
_cell_angle_alpha 90.000000
_cell_angle_beta 135.774006
_cell_angle_gamma 90.000000
_cell_volume 1325.890629
_symmetry_space_group_name_H-M "C 2/M"
_symmetry_group_IT_number 12
_symmetry_cell_setting 'monoclinic'
loop_
_space_group_symop_operation_xyz
x,y,z
-x,y,-z
-x,-y,-z
x,-y,z
1/2+x,1/2+y,z
1/2-x,1/2+y,-z
1/2-x,1/2-y,-z
1/2+x,1/2-y,z
loop_
_atom_site_type_symbol
_atom_site_label
_atom_site_fract_x
_atom_site_fract_y
_atom_site_fract_z
Si Si1 0.645907 0.000000 0.767818
Si Si2 0.224976 0.333115 0.080681
Si Si3 0.654383 0.324822 0.445124
Si Si4 0.500000 0.768072 0.000000
Si Si5 0.649457 0.500000 0.254203
O O1 0.500000 0.000000 0.500000
O O2 0.751935 0.000000 0.765215
O O3 0.680013 0.914658 0.917083
O O4 0.346003 0.335699 0.361904
O O5 0.114539 0.324172 0.076288
O O6 0.250000 0.250000 0.000000
O O7 0.750000 0.250000 0.500000
O O8 0.680801 0.416152 0.399925
O O9 0.525873 0.292637 0.189129
O O10 0.500000 0.500000 0.000000
#
# Coordination Sequence:
#
# PCOD9216046 Si02
#       5
#     4   8   8   4   4
#     4  12  29  45  71 111 145 189 245 296 355 434
#     4  11  26  44  70 105 145 184 244 294 364 421
#     4  10  22  43  72 100 140 186 239 288 364 417
#     4  10  22  42  72 100 136 196 226 302 356 432
#     4  12  25  48  74 105 145 189 239 297 360 429
#
# _framework density 21.11788
#
# number of rings (size 3 to 8) (size 9 to 14) (size 15 to 20)
#    0.000    1.143    1.429    4.286   12.000    0.571 
#    0.000    1.429    0.000    0.000    0.000    0.000 
#    0.000    0.000    0.000    0.000    0.000    0.000 
#
# Total GULP energy -77960.087547 kJ/mol
# GULP energy per Si atom -5568.577682 kJ/mol
# Density = 2.106981 g / cm^3
# Si number density = 21.117880 Si / 1000 Ang^3
#
#
#
# Elastic Constant Matrix: (Units=GPa)
#
#
# Indices 1 2 3 4 5 6 
#
# 1 115.0267 41.9451 52.7064 0.0000 -9.6904 0.0000
# 2 41.9451 183.3520 80.3454 0.0000 -21.8717 0.0000
# 3 52.7064 80.3454 179.4588 0.0000 -41.3888 0.0000
# 4 0.0000 0.0000 0.0000 47.1832 0.0000 -22.7714
# 5 -9.6904 -21.8717 -41.3888 0.0000 37.9759 0.0000
# 6 0.0000 0.0000 0.0000 -22.7714 0.0000 34.9197
#
#
#
# Elastic Compliance Matrix: (Units=1/GPa)
#
#
# Indices 1 2 3 4 5 6 
#
# 1 0.010312 -0.001308 -0.002685 0.000000 -0.001048 0.000000
# 2 -0.001308 0.006969 -0.002521 0.000000 0.000932 0.000000
# 3 -0.002685 -0.002521 0.009346 0.000000 0.008049 0.000000
# 4 0.000000 0.000000 0.000000 0.030927 0.000000 0.020168
# 5 -0.001048 0.000932 0.008049 0.000000 0.035374 0.000000
# 6 0.000000 0.000000 0.000000 0.020168 0.000000 0.041789
#
#
# Mechanical properties :
#
#
# Convention : Reuss Voigt Hill
#
# Bulk Modulus (GPa) = 73.52861 91.98127 82.75494
# Shear Modulus (GPa) = 32.83458 44.20512 38.51985
#
# Velocity S-wave (km/s) = 3.94740 4.58017 4.27551
# Velocity P-wave (km/s) = 7.46122 8.46294 7.97782
#
# Compressibility (1/GPa) = 0.01360015
#
# Stress axis : x y z
#
# Youngs Moduli (GPa) = 96.97005 143.49083 106.99946
#
# Poissons Ratio (x) = 0.18763 0.28729
# Poissons Ratio (y) = 0.12680 0.26975
# Poissons Ratio (z) = 0.26036 0.36174
#
# Static dielectric constant tensor:
#      x y z
#    x 1.857980 0.000000 0.185630 
#    y 0.000000 1.752680 0.000000 
#    z 0.185630 0.000000 2.215530 
# 
# From -- ./inp_files/72744.got.cif
#   From: 2010.05.17/outbox.cif.g08.bks.cpg/sg12_37_cif.got.tgz:72744.got - 2010.06.03 13:09:07.
