data_PCOD9216990
_publ_section_title
;
Structure prediction by ZEFSAII (Michael W. Deem and Ramdas Pophale) SiO2 
 PCOD9216990
Probable space group: C 2/M
;
_chemical_formula_sum "Si O2"
_cell_formula_units_Z 64
_cell_length_a 15.706359
_cell_length_b 29.343585
_cell_length_c 9.466503
_cell_angle_alpha 90.000000
_cell_angle_beta 131.748392
_cell_angle_gamma 90.000000
_cell_volume 3255.077813
_symmetry_space_group_name_H-M "C 2/M"
_symmetry_group_IT_number 12
_symmetry_cell_setting 'monoclinic'
loop_
_space_group_symop_operation_xyz
x,y,z
-x,y,-z
-x,-y,-z
x,-y,z
1/2+x,1/2+y,z
1/2-x,1/2+y,-z
1/2-x,1/2-y,-z
1/2+x,1/2-y,z
loop_
_atom_site_type_symbol
_atom_site_label
_atom_site_fract_x
_atom_site_fract_y
_atom_site_fract_z
Si Si1 0.558362 0.209459 0.431661
Si Si2 0.055280 0.613619 0.713718
Si Si3 0.044100 0.124512 0.184254
Si Si4 0.305328 0.637837 0.075781
Si Si5 0.613257 0.211215 0.200623
Si Si6 0.582508 0.949101 0.223292
Si Si7 0.197856 0.197910 0.175124
Si Si8 0.730382 0.624268 0.632047
O O1 0.500000 0.233987 0.500000
O O2 0.481210 0.166372 0.301695
O O3 0.582524 0.235814 0.314967
O O4 0.677783 0.190427 0.621305
O O5 0.192029 0.611475 0.890520
O O6 0.000000 0.603839 0.500000
O O7 0.988046 0.580417 0.742713
O O8 0.108528 0.165946 0.164615
O O9 0.136985 0.115798 0.408098
O O10 0.000000 0.095069 0.000000
O O11 0.928665 0.125407 0.149970
O O12 0.294435 0.686259 0.982169
O O13 0.306292 0.633346 0.245722
O O14 0.666218 0.249879 0.162297
O O15 0.697250 0.169783 0.323760
O O16 0.500000 0.193237 0.000000
O O17 0.688614 0.919420 0.288528
O O18 0.612864 0.000000 0.307976
O O19 0.500000 0.953592 0.000000
#
# Coordination Sequence:
#
# PCOD9216990 Si02
#       8
#     8   8   8   8   8   8   8   8
#     4  11  21  38  62  87 120 172 220 265 325 380
#     4  11  20  38  68  96 128 169 218 267 329 389
#     4  10  23  41  63  90 126 175 219 266 323 379
#     4  11  22  39  63  92 125 171 219 270 312 387
#     4  12  24  38  60  89 129 171 217 275 322 386
#     4  11  23  41  68 103 137 164 207 275 339 394
#     4  11  22  43  56  88 131 171 218 272 320 363
#     4  12  23  41  66  93 127 172 224 262 334 398
#
# _framework density 19.661588999999999
#
# number of rings (size 3 to 8) (size 9 to 14) (size 15 to 20)
#    0.000    0.875    6.250    3.000    1.750    0.750 
#    2.250    0.000    0.000    2.625    0.000    0.000 
#    0.000    0.000    0.000    0.000    0.000    0.000 
#
# Total GULP energy -178145.189617 kJ/mol
# GULP energy per Si atom -5567.037176 kJ/mol
# Density = 1.961684 g / cm^3
# Si number density = 19.661589 Si / 1000 Ang^3
#
#
#
# Elastic Constant Matrix: (Units=GPa)
#
#
# Indices 1 2 3 4 5 6 
#
# 1 113.6973 23.9838 60.2715 0.0000 2.2537 0.0000
# 2 23.9838 53.4442 19.8100 0.0000 -4.3840 0.0000
# 3 60.2715 19.8100 155.9707 0.0000 -2.8421 0.0000
# 4 0.0000 0.0000 0.0000 -11.0259 0.0000 -17.8407
# 5 2.2537 -4.3840 -2.8421 0.0000 43.3108 0.0000
# 6 0.0000 0.0000 0.0000 -17.8407 0.0000 18.3951
#
#
#
# Elastic Compliance Matrix: (Units=1/GPa)
#
#
# Indices 1 2 3 4 5 6 
#
# 1 0.011811 -0.003888 -0.004093 0.000000 -0.001277 0.000000
# 2 -0.003888 0.021060 -0.001131 0.000000 0.002260 0.000000
# 3 -0.004093 -0.001131 0.008149 0.000000 0.000633 0.000000
# 4 0.000000 0.000000 0.000000 -0.035300 0.000000 -0.034236
# 5 -0.001277 0.002260 0.000633 0.000000 0.023426 0.000000
# 6 0.000000 0.000000 0.000000 -0.034236 0.000000 0.021158
#
#
# Mechanical properties :
#
#
# Convention : Reuss Voigt Hill
#
# Bulk Modulus (GPa) = 43.86999 59.02697 51.44848
# Shear Modulus (GPa) = 65.67954 24.73913 45.20934
#
# Velocity S-wave (km/s) = 5.78598 3.55103 4.80038
# Velocity P-wave (km/s) = 8.18521 6.84833 7.54643
#
# Compressibility (1/GPa) = 0.02279462
#
# Stress axis : x y z
#
# Youngs Moduli (GPa) = 84.66965 47.48233 122.72149
#
# Poissons Ratio (x) = 0.18459 0.50235
# Poissons Ratio (y) = 0.32916 0.13885
# Poissons Ratio (z) = 0.34659 0.05372
#
# Static dielectric constant tensor:
#      x y z
#    x 1.777640 0.000000 -0.010100 
#    y 0.000000 1.681720 0.000000 
#    z -0.010100 0.000000 1.755200 
# 
# From -- ./inp_files/68619.got.cif
#   From: 2010.05.17/outbox.cif.g08.bks.cpg/sg12_35_cif.got.tgz:68619.got - 2010.06.03 13:09:07.
