data_PCOD9216729
_publ_section_title
;
Structure prediction by ZEFSAII (Michael W. Deem and Ramdas Pophale) SiO2 
 PCOD9216729
Probable space group: C 2/M
;
_chemical_formula_sum "Si O2"
_cell_formula_units_Z 64
_cell_length_a 31.754044
_cell_length_b 8.257270
_cell_length_c 15.857381
_cell_angle_alpha 90.000000
_cell_angle_beta 45.885445
_cell_angle_gamma 90.000000
_cell_volume 2985.113717
_symmetry_space_group_name_H-M "C 2/M"
_symmetry_group_IT_number 12
_symmetry_cell_setting 'monoclinic'
loop_
_space_group_symop_operation_xyz
x,y,z
-x,y,-z
-x,-y,-z
x,-y,z
1/2+x,1/2+y,z
1/2-x,1/2+y,-z
1/2-x,1/2-y,-z
1/2+x,1/2-y,z
loop_
_atom_site_type_symbol
_atom_site_label
_atom_site_fract_x
_atom_site_fract_y
_atom_site_fract_z
Si Si1 0.937174 0.304888 0.187134
Si Si2 0.372830 0.691008 0.428909
Si Si3 0.932964 0.694089 0.994305
Si Si4 0.222328 0.307307 0.126081
Si Si5 0.089225 0.805043 0.323381
Si Si6 0.248349 0.812206 0.598091
Si Si7 0.192781 0.194883 0.844008
Si Si8 0.527396 0.303675 0.587620
O O1 0.932784 0.500000 0.202401
O O2 0.887342 0.220946 0.311052
O O3 0.931760 0.267488 0.095977
O O4 0.002538 0.251458 0.125253
O O5 0.314903 0.784404 0.536842
O O6 0.430375 0.753034 0.397280
O O7 0.135642 0.000000 0.543362
O O8 0.931574 0.500000 0.988191
O O9 0.873830 0.764376 0.038114
O O10 0.226387 0.500000 0.123296
O O11 0.154295 0.260058 0.224786
O O12 0.260488 0.243726 0.152283
O O13 0.250000 0.250000 0.000000
O O14 0.061178 0.765906 0.453531
O O15 0.039712 0.746353 0.325920
O O16 0.092445 0.000000 0.313134
O O17 0.250000 0.750000 0.500000
O O18 0.207757 0.739678 0.728907
O O19 0.234161 0.000000 0.611166
O O20 0.198029 0.000000 0.832731
O O21 0.524706 0.500000 0.596972
#
# Coordination Sequence:
#
# PCOD9216729 Si02
#       8
#     8   8   8   8   8   8   8   8
#     4   9  19  36  54  77 109 144 179 224 274 323
#     4  11  21  33  52  82 113 143 180 222 269 327
#     4   9  19  36  58  79 104 141 186 227 271 325
#     4  11  24  41  58  81 112 148 188 234 282 332
#     4   9  17  36  61  81 105 141 181 224 273 329
#     4  11  23  39  58  84 117 153 188 229 278 331
#     4  10  23  40  58  81 113 148 186 232 282 330
#     4   8  17  33  56  83 110 140 176 219 274 333
#
# _framework density 21.439720000000001
#
# number of rings (size 3 to 8) (size 9 to 14) (size 15 to 20)
#    0.000    2.250    0.000    4.125    0.000    6.000 
#    0.000    8.125    0.000    0.000    0.000    0.000 
#    0.000    0.000    0.000    0.000    0.000    0.000 
#
# Total GULP energy -178638.550716 kJ/mol
# GULP energy per Si atom -5582.454710 kJ/mol
# Density = 2.139092 g / cm^3
# Si number density = 21.439720 Si / 1000 Ang^3
#
#
#
# Elastic Constant Matrix: (Units=GPa)
#
#
# Indices 1 2 3 4 5 6 
#
# 1 95.2499 6.3994 25.7040 0.0000 -22.1494 -0.0001
# 2 6.3994 9.9940 2.5045 0.0002 2.6511 -0.0005
# 3 25.7040 2.5045 87.4210 0.0000 -25.4674 0.0001
# 4 0.0000 0.0002 0.0000 21.7656 0.0000 -7.8592
# 5 -22.1494 2.6511 -25.4674 0.0000 35.1159 0.0000
# 6 -0.0001 -0.0005 0.0001 -7.8592 0.0000 24.7216
#
#
#
# Elastic Compliance Matrix: (Units=1/GPa)
#
#
# Indices 1 2 3 4 5 6 
#
# 1 0.013497 -0.010577 -0.001208 0.000000 0.008436 0.000000
# 2 -0.010577 0.113446 -0.005805 0.000000 -0.019447 0.000002
# 3 -0.001208 -0.005805 0.015045 0.000000 0.010587 0.000000
# 4 0.000000 0.000000 0.000000 0.051902 0.000000 0.016500
# 5 0.008436 -0.019447 0.010587 0.000000 0.042945 0.000000
# 6 0.000000 0.000002 0.000000 0.016500 0.000000 0.045696
#
#
# Mechanical properties :
#
#
# Convention : Reuss Voigt Hill
#
# Bulk Modulus (GPa) = 9.36270 29.09786 19.23028
# Shear Modulus (GPa) = 14.15172 26.85775 20.50473
#
# Velocity S-wave (km/s) = 2.57197 3.54320 3.09591
# Velocity P-wave (km/s) = 3.63270 5.50822 4.66567
#
# Compressibility (1/GPa) = 0.10680677
#
# Stress axis : x y z
#
# Youngs Moduli (GPa) = 74.09069 8.81473 66.46867
#
# Poissons Ratio (x) = 0.09324 0.08029
# Poissons Ratio (y) = 0.78369 0.38587
# Poissons Ratio (z) = 0.08950 0.05117
#
# Static dielectric constant tensor:
#      x y z
#    x 1.843290 0.000000 0.001240 
#    y 0.000000 1.747750 0.000000 
#    z 0.001240 0.000000 1.757450 
# 
# From -- ./inp_files/295462.got.cif
#   From: 2010.05.17/outbox.cif.g08.bks.cpg/sg12_148_cif.got.tgz:295462.got - 2010.06.03 13:09:07.
