data_PCOD9216984
_publ_section_title
;
Structure prediction by ZEFSAII (Michael W. Deem and Ramdas Pophale) SiO2 
 PCOD9216984
Probable space group: C 2/M
;
_chemical_formula_sum "Si O2"
_cell_formula_units_Z 40
_cell_length_a 14.138279
_cell_length_b 7.778438
_cell_length_c 24.292596
_cell_angle_alpha 90.000000
_cell_angle_beta 47.068790
_cell_angle_gamma 90.000000
_cell_volume 1956.032111
_symmetry_space_group_name_H-M "C 2/M"
_symmetry_group_IT_number 12
_symmetry_cell_setting 'monoclinic'
loop_
_space_group_symop_operation_xyz
x,y,z
-x,y,-z
-x,-y,-z
x,-y,z
1/2+x,1/2+y,z
1/2-x,1/2+y,-z
1/2-x,1/2-y,-z
1/2+x,1/2-y,z
loop_
_atom_site_type_symbol
_atom_site_label
_atom_site_fract_x
_atom_site_fract_y
_atom_site_fract_z
Si Si1 0.285049 0.500000 0.574230
Si Si2 0.526440 0.790957 0.902007
Si Si3 0.033150 0.000000 0.396436
Si Si4 0.496175 0.801690 0.797445
Si Si5 0.792995 0.708353 0.066953
Si Si6 0.593397 0.685625 0.643645
O O1 0.409258 0.500000 0.485622
O O2 0.341900 0.500000 0.614228
O O3 0.195756 0.336077 0.597532
O O4 0.561551 0.730609 0.827134
O O5 0.628621 0.748751 0.908477
O O6 0.520754 0.000000 0.901770
O O7 0.386229 0.733874 0.980238
O O8 0.012319 0.161984 0.363232
O O9 0.345895 0.791204 0.872953
O O10 0.524689 0.706692 0.729665
O O11 0.533755 0.000000 0.773958
O O12 0.779773 0.500000 0.069506
O O13 0.662063 0.500000 0.615165
#
# Coordination Sequence:
#
# PCOD9216984 Si02
#       6
#     4   8   4   8   8   8
#     4  11  20  48  69  95 132 163 201 265 299 368
#     4   8  17  32  52  74 103 152 200 249 303 351
#     4   9  24  42  71  99 126 165 209 247 315 366
#     4  11  20  34  52  81 119 155 195 247 308 356
#     4   9  17  33  53  74 103 147 206 251 295 359
#     4  10  23  41  62  97 128 165 209 250 311 374
#
# _framework density 20.449562
#
# number of rings (size 3 to 8) (size 9 to 14) (size 15 to 20)
#    0.600    1.800    1.000    3.000    0.000    1.600 
#    1.800    8.000    0.000    0.000    0.000    0.000 
#    0.000    0.000    0.000    0.000    0.000    0.000 
#
# Total GULP energy -111516.594658 kJ/mol
# GULP energy per Si atom -5575.829733 kJ/mol
# Density = 2.040302 g / cm^3
# Si number density = 20.449562 Si / 1000 Ang^3
#
#
#
# Elastic Constant Matrix: (Units=GPa)
#
#
# Indices 1 2 3 4 5 6 
#
# 1 89.1901 20.0355 19.2053 0.0000 26.4030 0.0001
# 2 20.0355 79.7241 5.1438 0.0001 1.6290 0.0003
# 3 19.2053 5.1438 41.7915 0.0000 21.8381 0.0000
# 4 0.0000 0.0001 0.0000 22.9437 0.0000 2.1369
# 5 26.4030 1.6290 21.8381 0.0000 36.6177 0.0000
# 6 0.0001 0.0003 0.0000 2.1369 0.0000 10.9514
#
#
#
# Elastic Compliance Matrix: (Units=1/GPa)
#
#
# Indices 1 2 3 4 5 6 
#
# 1 0.015274 -0.003547 -0.001322 0.000000 -0.010067 0.000000
# 2 -0.003547 0.013475 -0.001528 0.000000 0.002870 0.000000
# 3 -0.001322 -0.001528 0.035142 0.000000 -0.019937 0.000000
# 4 0.000000 0.000000 0.000000 0.044392 0.000000 -0.008662
# 5 -0.010067 0.002870 -0.019937 0.000000 0.046330 0.000000
# 6 0.000000 0.000000 0.000000 -0.008662 0.000000 0.093003
#
#
# Mechanical properties :
#
#
# Convention : Reuss Voigt Hill
#
# Bulk Modulus (GPa) = 19.57110 33.27498 26.42304
# Shear Modulus (GPa) = 18.02184 25.19062 21.60623
#
# Velocity S-wave (km/s) = 2.97186 3.51357 3.25401
# Velocity P-wave (km/s) = 4.62246 5.72427 5.20262
#
# Compressibility (1/GPa) = 0.05109576
#
# Stress axis : x y z
#
# Youngs Moduli (GPa) = 65.47227 74.21310 28.45615
#
# Poissons Ratio (x) = 0.26327 0.03762
# Poissons Ratio (y) = 0.23226 0.04347
# Poissons Ratio (z) = 0.08655 0.11338
#
# Static dielectric constant tensor:
#      x y z
#    x 1.770410 0.000000 0.040090 
#    y 0.000000 1.752300 0.000000 
#    z 0.040090 0.000000 1.718520 
# 
# From -- ./inp_files/359547.got.cif
#   From: 2010.05.17/outbox.cif.g08.bks.cpg/sg12_180_cif.got.tgz:359547.got - 2010.06.03 13:09:07.
