data_PCOD9216683
_publ_section_title
;
Structure prediction by ZEFSAII (Michael W. Deem and Ramdas Pophale) SiO2 
 PCOD9216683
Probable space group: C 2/M
;
_chemical_formula_sum "Si O2"
_cell_formula_units_Z 44
_cell_length_a 5.322300
_cell_length_b 29.601351
_cell_length_c 15.216516
_cell_angle_alpha 90.000000
_cell_angle_beta 122.039980
_cell_angle_gamma 90.000000
_cell_volume 2032.156189
_symmetry_space_group_name_H-M "C 2/M"
_symmetry_group_IT_number 12
_symmetry_cell_setting 'monoclinic'
loop_
_space_group_symop_operation_xyz
x,y,z
-x,y,-z
-x,-y,-z
x,-y,z
1/2+x,1/2+y,z
1/2-x,1/2+y,-z
1/2-x,1/2-y,-z
1/2+x,1/2-y,z
loop_
_atom_site_type_symbol
_atom_site_label
_atom_site_fract_x
_atom_site_fract_y
_atom_site_fract_z
Si Si1 0.362598 0.273606 0.876740
Si Si2 0.590895 0.861381 0.831526
Si Si3 0.097199 0.130849 0.606976
Si Si4 0.081260 0.948628 0.159909
Si Si5 0.500000 0.891879 0.000000
Si Si6 0.105671 0.426487 0.608279
O O1 0.539406 0.246829 0.835877
O O2 0.342293 0.326440 0.849641
O O3 0.500000 0.269644 0.000000
O O4 0.308903 0.849319 0.720620
O O5 0.681822 0.913620 0.835974
O O6 0.554657 0.858989 0.928353
O O7 0.312823 0.091432 0.605020
O O8 0.000000 0.156613 0.500000
O O9 0.807995 0.113340 0.604358
O O10 0.174910 0.948874 0.280184
O O11 0.092572 0.000000 0.129388
O O12 0.771887 0.924557 0.078521
O O13 0.000000 0.451314 0.500000
#
# Coordination Sequence:
#
# PCOD9216683 Si02
#       6
#     8   8   8   8   4   8
#     4  10  23  39  63  92 125 157 202 256 312 369
#     4  11  24  40  63  89 126 163 212 250 316 371
#     4   9  18  36  62  87 117 158 205 255 307 361
#     4  11  24  39  57  87 128 170 211 254 304 370
#     4  12  23  38  60  86 128 168 206 256 303 378
#     4   9  18  36  58  85 116 159 212 262 304 349
#
# _framework density 21.651876999999999
#
# number of rings (size 3 to 8) (size 9 to 14) (size 15 to 20)
#    0.000    1.818    1.818    1.909    6.364    2.545 
#    0.000    0.000    0.000    7.091    0.000    0.000 
#    0.000    0.000    0.000    0.000    0.000    0.000 
#
# Total GULP energy -122585.725712 kJ/mol
# GULP energy per Si atom -5572.078441 kJ/mol
# Density = 2.160260 g / cm^3
# Si number density = 21.651877 Si / 1000 Ang^3
#
#
#
# Elastic Constant Matrix: (Units=GPa)
#
#
# Indices 1 2 3 4 5 6 
#
# 1 81.7797 18.5917 23.4514 0.0000 7.9432 0.0000
# 2 18.5917 61.5116 6.1719 0.0000 -1.8779 0.0000
# 3 23.4514 6.1719 159.9411 0.0000 -0.6841 0.0000
# 4 0.0000 0.0000 0.0000 -8.4575 0.0000 -12.9038
# 5 7.9432 -1.8779 -0.6841 0.0000 32.2150 0.0000
# 6 0.0000 0.0000 0.0000 -12.9038 0.0000 20.1827
#
#
#
# Elastic Compliance Matrix: (Units=1/GPa)
#
#
# Indices 1 2 3 4 5 6 
#
# 1 0.014095 -0.004182 -0.001921 0.000000 -0.003760 0.000000
# 2 -0.004182 0.017590 -0.000057 0.000000 0.002055 0.000000
# 3 -0.001921 -0.000057 0.006539 0.000000 0.000609 0.000000
# 4 0.000000 0.000000 0.000000 -0.059853 0.000000 -0.038267
# 5 -0.003760 0.002055 0.000609 0.000000 0.032101 0.000000
# 6 0.000000 0.000000 0.000000 -0.038267 0.000000 0.025081
#
#
# Mechanical properties :
#
#
# Convention : Reuss Voigt Hill
#
# Bulk Modulus (GPa) = 38.60590 44.40693 41.50642
# Shear Modulus (GPa) = 88.48379 25.78919 57.13649
#
# Velocity S-wave (km/s) = 6.39963 3.45495 5.14257
# Velocity P-wave (km/s) = 8.51329 6.03901 7.38057
#
# Compressibility (1/GPa) = 0.02590278
#
# Stress axis : x y z
#
# Youngs Moduli (GPa) = 70.94759 56.85181 152.93284
#
# Poissons Ratio (x) = 0.23776 0.29384
# Poissons Ratio (y) = 0.29671 0.00868
# Poissons Ratio (z) = 0.13632 0.00323
#
# Static dielectric constant tensor:
#      x y z
#    x 1.842200 0.000000 0.004130 
#    y 0.000000 1.774050 0.000000 
#    z 0.004130 0.000000 1.870540 
# 
# From -- ./inp_files/253685.got.cif
#   From: 2010.05.17/outbox.cif.g08.bks.cpg/sg12_127_cif.got.tgz:253685.got - 2010.06.03 13:09:07.
