data_PCOD9216551
_publ_section_title
;
Structure prediction by ZEFSAII (Michael W. Deem and Ramdas Pophale) SiO2 
 PCOD9216551
Probable space group: C 2/M
;
_chemical_formula_sum "Si O2"
_cell_formula_units_Z 36
_cell_length_a 28.993798
_cell_length_b 7.311629
_cell_length_c 9.481984
_cell_angle_alpha 90.000000
_cell_angle_beta 69.795509
_cell_angle_gamma 90.000000
_cell_volume 1886.413934
_symmetry_space_group_name_H-M "C 2/M"
_symmetry_group_IT_number 12
_symmetry_cell_setting 'monoclinic'
loop_
_space_group_symop_operation_xyz
x,y,z
-x,y,-z
-x,-y,-z
x,-y,z
1/2+x,1/2+y,z
1/2-x,1/2+y,-z
1/2-x,1/2-y,-z
1/2+x,1/2-y,z
loop_
_atom_site_type_symbol
_atom_site_label
_atom_site_fract_x
_atom_site_fract_y
_atom_site_fract_z
Si Si1 0.800063 0.215968 0.362462
Si Si2 0.201764 0.783508 0.958709
Si Si3 0.553685 0.000000 0.009867
Si Si4 0.404891 0.279044 0.816116
Si Si5 0.619126 0.000000 0.663639
Si Si6 0.441260 0.000000 0.552535
O O1 0.750000 0.250000 0.500000
O O2 0.794365 0.283277 0.206363
O O3 0.844791 0.326297 0.383190
O O4 0.810139 0.000000 0.352095
O O5 0.197166 0.000000 0.950716
O O6 0.250000 0.750000 0.000000
O O7 0.151498 0.725136 0.087524
O O8 0.592710 0.000000 0.842277
O O9 0.500000 0.000000 0.000000
O O10 0.563081 0.821322 0.096780
O O11 0.409749 0.500000 0.808435
O O12 0.420854 0.178541 0.656116
O O13 0.579000 0.000000 0.583763
O O14 0.500000 0.000000 0.500000
#
# Coordination Sequence:
#
# PCOD9216551 Si02
#       6
#     8   8   4   8   4   4
#     4  11  24  40  60  97 136 173 216 261 333 402
#     4  10  23  37  62  94 127 173 216 260 324 391
#     4  11  23  43  73  97 127 175 227 285 339 389
#     4  10  23  45  67  98 135 168 226 277 327 405
#     4  12  24  42  68  94 142 174 212 290 332 392
#     4  11  27  47  69  97 129 179 233 275 341 391
#
# _framework density 19.083826999999999
#
# number of rings (size 3 to 8) (size 9 to 14) (size 15 to 20)
#    0.000    1.333    3.333    1.333    7.778    1.778 
#    0.000    2.222    0.000    0.000    0.000    0.000 
#    0.000    0.000    0.000    0.000    0.000    0.000 
#
# Total GULP energy -100538.117439 kJ/mol
# GULP energy per Si atom -5585.450969 kJ/mol
# Density = 1.904039 g / cm^3
# Si number density = 19.083827 Si / 1000 Ang^3
#
#
#
# Elastic Constant Matrix: (Units=GPa)
#
#
# Indices 1 2 3 4 5 6 
#
# 1 102.6748 20.3706 3.4537 0.0000 12.2275 0.0000
# 2 20.3706 133.4297 19.4695 0.0000 4.2749 0.0000
# 3 3.4537 19.4695 73.3943 0.0000 6.5002 0.0000
# 4 0.0000 0.0000 0.0000 30.0154 0.0000 -2.2401
# 5 12.2275 4.2749 6.5002 0.0000 38.1550 0.0000
# 6 0.0000 0.0000 0.0000 -2.2401 0.0000 22.8027
#
#
#
# Elastic Compliance Matrix: (Units=1/GPa)
#
#
# Indices 1 2 3 4 5 6 
#
# 1 0.010415 -0.001516 0.000196 0.000000 -0.003201 0.000000
# 2 -0.001516 0.008028 -0.002052 0.000000 -0.000064 0.000000
# 3 0.000196 -0.002052 0.014362 0.000000 -0.002279 0.000000
# 4 0.000000 0.000000 0.000000 0.033562 0.000000 0.003297
# 5 -0.003201 -0.000064 -0.002279 0.000000 0.027630 0.000000
# 6 0.000000 0.000000 0.000000 0.003297 0.000000 0.044178
#
#
# Mechanical properties :
#
#
# Convention : Reuss Voigt Hill
#
# Bulk Modulus (GPa) = 38.37476 44.00960 41.19218
# Shear Modulus (GPa) = 32.55042 35.94160 34.24601
#
# Velocity S-wave (km/s) = 4.13444 4.34447 4.24075
# Velocity P-wave (km/s) = 6.55314 6.94818 6.75355
#
# Compressibility (1/GPa) = 0.02605879
#
# Stress axis : x y z
#
# Youngs Moduli (GPa) = 96.01631 124.57070 69.62724
#
# Poissons Ratio (x) = 0.18885 -0.01362
# Poissons Ratio (y) = 0.14556 0.14291
# Poissons Ratio (z) = -0.01878 0.25568
#
# Static dielectric constant tensor:
#      x y z
#    x 1.783610 0.000000 0.042720 
#    y 0.000000 1.655380 0.000000 
#    z 0.042720 0.000000 1.643480 
# 
# From -- ./inp_files/100963.got.cif
#   From: 2010.05.17/outbox.cif.g08.bks.cpg/sg12_51_cif.got.tgz:100963.got - 2010.06.03 13:09:07.
