data_PCOD9216425
_publ_section_title
;
Structure prediction by ZEFSAII (Michael W. Deem and Ramdas Pophale) SiO2 
 PCOD9216425
Probable space group: C 2/M
;
_chemical_formula_sum "Si O2"
_cell_formula_units_Z 58
_cell_length_a 14.858559
_cell_length_b 8.338468
_cell_length_c 23.269780
_cell_angle_alpha 90.000000
_cell_angle_beta 105.147369
_cell_angle_gamma 90.000000
_cell_volume 2782.903617
_symmetry_space_group_name_H-M "C 2/M"
_symmetry_group_IT_number 12
_symmetry_cell_setting 'monoclinic'
loop_
_space_group_symop_operation_xyz
x,y,z
-x,y,-z
-x,-y,-z
x,-y,z
1/2+x,1/2+y,z
1/2-x,1/2+y,-z
1/2-x,1/2-y,-z
1/2+x,1/2-y,z
loop_
_atom_site_type_symbol
_atom_site_label
_atom_site_fract_x
_atom_site_fract_y
_atom_site_fract_z
Si Si1 0.951288 0.303809 0.394728
Si Si2 0.052736 0.311148 0.833208
Si Si3 0.343013 0.676205 0.042023
Si Si4 0.362920 0.811313 0.632180
Si Si5 0.373990 0.689678 0.756402
Si Si6 0.805441 0.684099 0.454962
Si Si7 0.661337 0.195159 0.737573
Si Si8 0.000000 0.000000 0.000000
O O1 0.948887 0.500000 0.395478
O O2 0.899973 0.245315 0.443762
O O3 0.892099 0.251448 0.328983
O O4 0.058143 0.261564 0.400440
O O5 0.036554 0.500000 0.823899
O O6 0.112630 0.278459 0.899529
O O7 0.108797 0.251770 0.786283
O O8 0.952558 0.225170 0.816485
O O9 0.319110 0.500000 0.062868
O O10 0.423841 0.637250 0.009184
O O11 0.250000 0.750000 0.000000
O O12 0.400680 0.781741 0.702290
O O13 0.270718 0.706808 0.608256
O O14 0.341802 0.000000 0.621156
O O15 0.372234 0.500000 0.744325
O O16 0.269710 0.742424 0.755375
O O17 0.824626 0.500000 0.470949
O O18 0.750000 0.750000 0.500000
O O19 0.659238 0.000000 0.736773
#
# Coordination Sequence:
#
# PCOD9216425 Si02
#       8
#     8   8   8   8   8   8   8   2
#     4   9  18  36  60  81 113 159 200 233 301 386
#     4  11  22  39  63  97 132 163 213 268 311 380
#     4  10  22  45  70  97 131 178 227 273 330 389
#     4  11  21  37  61  85 115 156 200 252 306 367
#     4  11  21  36  58  89 128 168 204 250 317 381
#     4  11  23  41  61  83 112 150 201 251 306 374
#     4   9  18  35  58  86 121 166 199 239 314 380
#     4   8  24  44  74  94 140 180 226 276 346 388
#
# _framework density 20.841542
#
# number of rings (size 3 to 8) (size 9 to 14) (size 15 to 20)
#    0.414    1.379    2.759    2.069    0.000    1.655 
#    2.483   12.414    0.000    0.000    0.000    0.000 
#    0.000    0.000    0.000    0.000    0.000    0.000 
#
# Total GULP energy -161569.924488 kJ/mol
# GULP energy per Si atom -5571.376706 kJ/mol
# Density = 2.079411 g / cm^3
# Si number density = 20.841542 Si / 1000 Ang^3
#
#
#
# Elastic Constant Matrix: (Units=GPa)
#
#
# Indices 1 2 3 4 5 6 
#
# 1 119.5936 10.3653 21.5291 0.0000 -12.3068 0.0000
# 2 10.3653 29.4538 -1.4455 0.0000 -6.2166 0.0000
# 3 21.5291 -1.4455 50.0766 0.0000 7.3026 0.0000
# 4 0.0000 0.0000 0.0000 28.9656 0.0000 0.3729
# 5 -12.3068 -6.2166 7.3026 0.0000 28.6558 0.0000
# 6 0.0000 0.0000 0.0000 0.3729 0.0000 25.9511
#
#
#
# Elastic Compliance Matrix: (Units=1/GPa)
#
#
# Indices 1 2 3 4 5 6 
#
# 1 0.010038 -0.002723 -0.005127 0.000000 0.005027 0.000000
# 2 -0.002723 0.036320 0.001289 0.000000 0.006381 0.000000
# 3 -0.005127 0.001289 0.023359 0.000000 -0.007875 0.000000
# 4 0.000000 0.000000 0.000000 0.034530 0.000000 -0.000496
# 5 0.005027 0.006381 -0.007875 0.000000 0.040447 0.000000
# 6 0.000000 0.000000 0.000000 -0.000496 0.000000 0.038541
#
#
# Mechanical properties :
#
#
# Convention : Reuss Voigt Hill
#
# Bulk Modulus (GPa) = 17.66985 28.89130 23.28057
# Shear Modulus (GPa) = 23.23165 27.95952 25.59559
#
# Velocity S-wave (km/s) = 3.34230 3.66666 3.50823
# Velocity P-wave (km/s) = 4.83645 5.64077 5.25403
#
# Compressibility (1/GPa) = 0.05659358
#
# Stress axis : x y z
#
# Youngs Moduli (GPa) = 99.62195 27.53312 42.80943
#
# Poissons Ratio (x) = 0.07498 0.21949
# Poissons Ratio (y) = 0.27129 -0.05516
# Poissons Ratio (z) = 0.51078 -0.03548
#
# Static dielectric constant tensor:
#      x y z
#    x 1.765550 0.000000 0.002970 
#    y 0.000000 1.738130 0.000000 
#    z 0.002970 0.000000 1.781710 
# 
# From -- ./inp_files/338082.got.cif
#   From: 2010.05.17/outbox.cif.g08.bks.cpg/sg12_170_cif.got.tgz:338082.got - 2010.06.03 13:09:07.
