data_PCOD9216235
_publ_section_title
;
Structure prediction by ZEFSAII (Michael W. Deem and Ramdas Pophale) SiO2 
 PCOD9216235
Probable space group: C 2/M
;
_chemical_formula_sum "Si O2"
_cell_formula_units_Z 36
_cell_length_a 8.643312
_cell_length_b 17.628735
_cell_length_c 15.524723
_cell_angle_alpha 90.000000
_cell_angle_beta 36.400623
_cell_angle_gamma 90.000000
_cell_volume 1403.760342
_symmetry_space_group_name_H-M "C 2/M"
_symmetry_group_IT_number 12
_symmetry_cell_setting 'monoclinic'
loop_
_space_group_symop_operation_xyz
x,y,z
-x,y,-z
-x,-y,-z
x,-y,z
1/2+x,1/2+y,z
1/2-x,1/2+y,-z
1/2-x,1/2-y,-z
1/2+x,1/2-y,z
loop_
_atom_site_type_symbol
_atom_site_label
_atom_site_fract_x
_atom_site_fract_y
_atom_site_fract_z
Si Si1 0.758108 0.589484 0.937997
Si Si2 0.217995 0.283580 0.337569
Si Si3 0.093403 0.414106 0.620919
Si Si4 0.898974 0.138943 0.700089
Si Si5 0.000000 0.391873 0.000000
O O1 0.715202 0.500000 0.979976
O O2 0.001558 0.590551 0.761501
O O3 0.805426 0.632653 0.006960
O O4 0.500000 0.614447 0.000000
O O5 0.272060 0.210575 0.256496
O O6 0.430592 0.317274 0.304590
O O7 0.000000 0.251899 0.500000
O O8 0.083310 0.351739 0.346597
O O9 0.031977 0.500000 0.620242
O O10 0.390960 0.397293 0.459031
O O11 0.721453 0.081244 0.833842
#
# Coordination Sequence:
#
# PCOD9216235 Si02
#       5
#     8   8   8   8   4
#     4  10  23  45  70 101 146 186 223 287 354 413
#     4  10  22  43  69  99 137 179 229 291 346 411
#     4  10  22  43  74 102 134 183 232 281 350 422
#     4  11  26  43  69 102 137 186 230 288 347 410
#     4  12  27  42  68 106 139 184 238 290 338 414
#
# _framework density 25.645403999999999
#
# number of rings (size 3 to 8) (size 9 to 14) (size 15 to 20)
#    0.000    1.556    0.000    4.333    6.222    6.667 
#    2.000    2.222    0.000    0.000    0.000    0.000 
#    0.000    0.000    0.000    0.000    0.000    0.000 
#
# Total GULP energy -100225.299987 kJ/mol
# GULP energy per Si atom -5568.072222 kJ/mol
# Density = 2.558703 g / cm^3
# Si number density = 25.645404 Si / 1000 Ang^3
#
#
#
# Elastic Constant Matrix: (Units=GPa)
#
#
# Indices 1 2 3 4 5 6 
#
# 1 125.5475 25.0606 38.0323 -0.0006 27.1878 0.0016
# 2 25.0606 149.9439 28.0881 0.0006 7.9948 0.0007
# 3 38.0323 28.0881 176.6988 0.0070 18.6004 0.0052
# 4 -0.0006 0.0006 0.0070 5.9402 -0.0012 2.3455
# 5 27.1878 7.9948 18.6004 -0.0012 37.7210 -0.0021
# 6 0.0016 0.0007 0.0052 2.3455 -0.0021 8.0366
#
#
#
# Elastic Compliance Matrix: (Units=1/GPa)
#
#
# Indices 1 2 3 4 5 6 
#
# 1 0.009939 -0.001081 -0.001305 0.000003 -0.006291 -0.000004
# 2 -0.001081 0.007025 -0.000854 0.000000 -0.000289 0.000000
# 3 -0.001305 -0.000854 0.006284 -0.000007 -0.001977 -0.000002
# 4 0.000003 0.000000 -0.000007 0.190273 0.000004 -0.055531
# 5 -0.006291 -0.000289 -0.001977 0.000004 0.032081 0.000010
# 6 -0.000004 0.000000 -0.000002 -0.055531 0.000010 0.140637
#
#
# Mechanical properties :
#
#
# Convention : Reuss Voigt Hill
#
# Bulk Modulus (GPa) = 59.63744 70.50580 65.07162
# Shear Modulus (GPa) = 12.55311 34.40682 23.47997
#
# Velocity S-wave (km/s) = 2.21484 3.66681 3.02911
# Velocity P-wave (km/s) = 5.46313 6.74385 6.13699
#
# Compressibility (1/GPa) = 0.01676799
#
# Stress axis : x y z
#
# Youngs Moduli (GPa) = 100.61834 142.34549 159.13255
#
# Poissons Ratio (x) = 0.15390 0.20768
# Poissons Ratio (y) = 0.10879 0.13584
# Poissons Ratio (z) = 0.13132 0.12151
#
# Static dielectric constant tensor:
#      x y z
#    x 2.347630 0.000000 -0.067770 
#    y 0.000000 1.976440 0.000000 
#    z -0.067770 0.000000 2.009010 
# 
# From -- ./inp_files/197460.got.cif
#   From: 2010.05.17/outbox.cif.g08.bks.cpg/sg12_99_cif.got.tgz:197460.got - 2010.06.03 13:09:07.
