data_PCOD9216053
_publ_section_title
;
Structure prediction by ZEFSAII (Michael W. Deem and Ramdas Pophale) SiO2 
 PCOD9216053
Probable space group: C 2/M
;
_chemical_formula_sum "Si O2"
_cell_formula_units_Z 52
_cell_length_a 7.190290
_cell_length_b 19.554413
_cell_length_c 14.274861
_cell_angle_alpha 90.000000
_cell_angle_beta 99.341672
_cell_angle_gamma 90.000000
_cell_volume 1980.454623
_symmetry_space_group_name_H-M "C 2/M"
_symmetry_group_IT_number 12
_symmetry_cell_setting 'monoclinic'
loop_
_space_group_symop_operation_xyz
x,y,z
-x,y,-z
-x,-y,-z
x,-y,z
1/2+x,1/2+y,z
1/2-x,1/2+y,-z
1/2-x,1/2-y,-z
1/2+x,1/2-y,z
loop_
_atom_site_type_symbol
_atom_site_label
_atom_site_fract_x
_atom_site_fract_y
_atom_site_fract_z
Si Si1 0.393596 0.500000 0.285699
Si Si2 0.048010 0.152622 0.774179
Si Si3 0.781888 0.155648 0.515334
Si Si4 0.710236 0.669979 0.981086
Si Si5 0.152078 0.637218 0.821718
Si Si6 0.029623 0.500000 0.728390
Si Si7 0.528761 0.783379 0.652068
Si Si8 0.726449 0.000000 0.465329
O O1 0.466256 0.574169 0.261461
O O2 0.173898 0.500000 0.238381
O O3 0.387111 0.500000 0.397618
O O4 0.073324 0.206990 0.692860
O O5 0.851415 0.170977 0.809491
O O6 0.202194 0.155438 0.870128
O O7 0.641622 0.193289 0.430207
O O8 0.705354 0.183960 0.608646
O O9 0.743573 0.074371 0.512315
O O10 0.850725 0.634682 0.066792
O O11 0.500000 0.651329 0.000000
O O12 0.750000 0.750000 0.000000
O O13 0.140883 0.564432 0.772689
O O14 0.001934 0.679057 0.749309
O O15 0.966794 0.500000 0.614212
O O16 0.500000 0.667473 0.500000
#
# Coordination Sequence:
#
# PCOD9216053 Si02
#       8
#     4   8   8   8   8   4   8   4
#     4  10  25  47  79 106 147 209 267 324 404 489
#     4  11  25  48  76 114 157 211 264 335 411 478
#     4  11  26  51  81 125 161 208 273 342 402 487
#     4  10  22  42  72 113 157 205 258 321 403 478
#     4  11  23  45  76 111 158 207 256 327 394 486
#     4  10  23  44  77 111 148 212 263 312 407 480
#     4  11  25  48  82 114 160 212 267 330 414 473
#     4  10  23  48  81 108 162 212 268 324 416 477
#
# _framework density 26.256599000000001
#
# number of rings (size 3 to 8) (size 9 to 14) (size 15 to 20)
#    0.462    0.923    3.077    0.692    2.154    6.154 
#    2.769   10.000    0.000    0.000    0.000    0.538 
#    0.000    0.000    0.000    0.000    0.000    0.000 
#
# Total GULP energy -145411.783770 kJ/mol
# GULP energy per Si atom -5592.760914 kJ/mol
# Density = 2.619684 g / cm^3
# Si number density = 26.256599 Si / 1000 Ang^3
#
#
#
# Elastic Constant Matrix: (Units=GPa)
#
#
# Indices 1 2 3 4 5 6 
#
# 1 146.9773 42.7403 69.6420 0.0000 -9.2027 0.0000
# 2 42.7403 211.6725 74.3911 0.0000 -11.2100 0.0000
# 3 69.6420 74.3911 236.7889 0.0000 0.0205 0.0000
# 4 0.0000 0.0000 0.0000 9.8085 0.0000 23.9841
# 5 -9.2027 -11.2100 0.0205 0.0000 42.0076 0.0000
# 6 0.0000 0.0000 0.0000 23.9841 0.0000 20.0819
#
#
#
# Elastic Compliance Matrix: (Units=1/GPa)
#
#
# Indices 1 2 3 4 5 6 
#
# 1 0.008153 -0.000810 -0.002144 0.000000 0.001571 0.000000
# 2 -0.000810 0.005477 -0.001483 0.000000 0.001285 0.000000
# 3 -0.002144 -0.001483 0.005320 0.000000 -0.000868 0.000000
# 4 0.000000 0.000000 0.000000 -0.053090 0.000000 0.063406
# 5 0.001571 0.001285 -0.000868 0.000000 0.024493 0.000000
# 6 0.000000 0.000000 0.000000 0.063406 0.000000 -0.025930
#
#
# Mechanical properties :
#
#
# Convention : Reuss Voigt Hill
#
# Bulk Modulus (GPa) = 99.22938 107.66504 103.44721
# Shear Modulus (GPa) = -214.16709 41.62396 -86.27157
#
# Velocity S-wave (km/s) = -9.04124 3.98587 -5.73833
# Velocity P-wave (km/s) = 8.43314 7.89157 2.10250
#
# Compressibility (1/GPa) = 0.01007766
#
# Stress axis : x y z
#
# Youngs Moduli (GPa) = 122.64870 182.58591 187.98645
#
# Poissons Ratio (x) = 0.14784 0.40300
# Poissons Ratio (y) = 0.09931 0.27871
# Poissons Ratio (z) = 0.26293 0.27071
#
# Static dielectric constant tensor:
#      x y z
#    x 1.878190 0.000000 0.045970 
#    y 0.000000 2.062710 0.000000 
#    z 0.045970 0.000000 2.098010 
# 
# From -- ./inp_files/258578.got.cif
#   From: 2010.05.17/outbox.cif.g08.bks.cpg/sg12_130_cif.got.tgz:258578.got - 2010.06.03 13:09:07.
