data_PCOD9216190
_publ_section_title
;
Structure prediction by ZEFSAII (Michael W. Deem and Ramdas Pophale) SiO2 
 PCOD9216190
Probable space group: C 2/M
;
_chemical_formula_sum "Si O2"
_cell_formula_units_Z 30
_cell_length_a 5.564066
_cell_length_b 33.819414
_cell_length_c 7.887017
_cell_angle_alpha 90.000000
_cell_angle_beta 60.328935
_cell_angle_gamma 90.000000
_cell_volume 1289.530850
_symmetry_space_group_name_H-M "C 2/M"
_symmetry_group_IT_number 12
_symmetry_cell_setting 'monoclinic'
loop_
_space_group_symop_operation_xyz
x,y,z
-x,y,-z
-x,-y,-z
x,-y,z
1/2+x,1/2+y,z
1/2-x,1/2+y,-z
1/2-x,1/2-y,-z
1/2+x,1/2-y,z
loop_
_atom_site_type_symbol
_atom_site_label
_atom_site_fract_x
_atom_site_fract_y
_atom_site_fract_z
Si Si1 0.229255 0.925852 0.710113
Si Si2 0.000000 0.124823 0.500000
Si Si3 0.812011 0.729420 0.735404
Si Si4 0.939228 0.351032 0.823706
Si Si5 0.000000 0.000000 0.000000
O O1 0.500000 0.933861 0.500000
O O2 0.022761 0.903243 0.655583
O O3 0.314867 0.893795 0.822257
O O4 0.111234 0.965152 0.831643
O O5 0.728520 0.150530 0.619651
O O6 0.520358 0.750137 0.797312
O O7 0.000000 0.729828 0.500000
O O8 0.763360 0.684495 0.809481
O O9 0.000000 0.346491 0.000000
#
# Coordination Sequence:
#
# PCOD9216190 Si02
#       5
#     8   4   8   8   2
#     4  10  23  42  65  97 132 177 220 277 342 421
#     4  10  22  43  68  92 132 188 216 276 344 419
#     4  10  23  41  68 102 142 190 239 294 351 415
#     4  11  24  42  67  98 135 178 230 280 345 414
#     4  12  22  42  70 100 132 168 220 288 344 412
#
# _framework density 23.264274
#
# number of rings (size 3 to 8) (size 9 to 14) (size 15 to 20)
#    0.000    1.600    0.000    4.400    9.333    1.600 
#    0.000   12.667    0.000    0.000    0.000    0.000 
#    0.000    0.000    0.000    0.000    0.000    0.000 
#
# Total GULP energy -83801.936440 kJ/mol
# GULP energy per Si atom -5586.795763 kJ/mol
# Density = 2.321132 g / cm^3
# Si number density = 23.264274 Si / 1000 Ang^3
#
#
#
# Elastic Constant Matrix: (Units=GPa)
#
#
# Indices 1 2 3 4 5 6 
#
# 1 100.9477 35.8141 36.5520 0.0000 6.2534 0.0000
# 2 35.8141 125.9118 49.9436 0.0000 5.0369 0.0000
# 3 36.5520 49.9436 109.2723 0.0000 2.8317 0.0000
# 4 0.0000 0.0000 0.0000 -276.7864 0.0000 -35.9492
# 5 6.2534 5.0369 2.8317 0.0000 45.3726 0.0000
# 6 0.0000 0.0000 0.0000 -35.9492 0.0000 -11.6678
#
#
#
# Elastic Compliance Matrix: (Units=1/GPa)
#
#
# Indices 1 2 3 4 5 6 
#
# 1 0.011805 -0.002144 -0.002938 0.000000 -0.001206 0.000000
# 2 -0.002144 0.010119 -0.003893 0.000000 -0.000585 0.000000
# 3 -0.002938 -0.003893 0.011911 0.000000 0.000094 0.000000
# 4 0.000000 0.000000 0.000000 -0.006023 0.000000 0.018558
# 5 -0.001206 -0.000585 0.000094 0.000000 0.022265 0.000000
# 6 0.000000 0.000000 0.000000 0.018558 0.000000 -0.142884
#
#
# Mechanical properties :
#
#
# Convention : Reuss Voigt Hill
#
# Bulk Modulus (GPa) = 62.94761 64.52791 63.73776
# Shear Modulus (GPa) = -71.87821 -34.36152 -53.11986
#
# Velocity S-wave (km/s) = -5.56448 -3.84736 -4.78360
# Velocity P-wave (km/s) = 3.76407 2.83918 1.74747
#
# Compressibility (1/GPa) = 0.01588623
#
# Stress axis : x y z
#
# Youngs Moduli (GPa) = 84.70805 98.81930 83.95734
#
# Poissons Ratio (x) = 0.21191 0.24663
# Poissons Ratio (y) = 0.18165 0.32682
# Poissons Ratio (z) = 0.24883 0.38467
#
# Static dielectric constant tensor:
#      x y z
#    x 1.911310 0.000000 -0.010760 
#    y 0.000000 1.776290 0.000000 
#    z -0.010760 0.000000 1.888000 
# 
# From -- ./inp_files/34476.got.cif
#   From: 2010.05.17/outbox.cif.g08.bks.cpg/sg12_18_cif.got.tgz:34476.got - 2010.06.03 13:09:07.
