data_PCOD9216466
_publ_section_title
;
Structure prediction by ZEFSAII (Michael W. Deem and Ramdas Pophale) SiO2 
 PCOD9216466
Probable space group: C 2/M
;
_chemical_formula_sum "Si O2"
_cell_formula_units_Z 44
_cell_length_a 26.291584
_cell_length_b 12.196128
_cell_length_c 16.659179
_cell_angle_alpha 90.000000
_cell_angle_beta 157.014121
_cell_angle_gamma 90.000000
_cell_volume 2086.018166
_symmetry_space_group_name_H-M "C 2/M"
_symmetry_group_IT_number 12
_symmetry_cell_setting 'monoclinic'
loop_
_space_group_symop_operation_xyz
x,y,z
-x,y,-z
-x,-y,-z
x,-y,z
1/2+x,1/2+y,z
1/2-x,1/2+y,-z
1/2-x,1/2-y,-z
1/2+x,1/2-y,z
loop_
_atom_site_type_symbol
_atom_site_label
_atom_site_fract_x
_atom_site_fract_y
_atom_site_fract_z
Si Si1 0.084964 0.500000 0.425120
Si Si2 0.387935 0.500000 0.909301
Si Si3 0.017168 0.767181 0.929937
Si Si4 0.226144 0.221703 0.057381
Si Si5 0.621300 0.000000 0.733821
Si Si6 0.080633 0.748322 0.368340
Si Si7 0.261602 0.368773 0.258435
O O1 0.233111 0.500000 0.672773
O O2 0.953069 0.500000 0.288114
O O3 0.084743 0.617495 0.382485
O O4 0.413012 0.383216 0.985760
O O5 0.500000 0.500000 0.000000
O O6 0.109864 0.663387 0.048220
O O7 0.896752 0.770867 0.693543
O O8 0.000000 0.764705 0.000000
O O9 0.289194 0.306638 0.213666
O O10 0.293595 0.104991 0.162736
O O11 0.250000 0.250000 0.000000
O O12 0.070347 0.219606 0.838969
O O13 0.500000 0.000000 0.500000
O O14 0.164678 0.810386 0.558798
O O15 0.283278 0.500000 0.287795
#
# Coordination Sequence:
#
# PCOD9216466 Si02
#       7
#     4   4   8   8   4   8   8
#     4  12  22  46  71 100 136 190 237 289 344 425
#     4  10  22  46  70  99 138 176 238 299 338 407
#     4  10  24  44  69 101 137 181 235 294 354 420
#     4  11  26  43  66 100 137 183 233 285 342 410
#     4  12  26  42  74  98 137 189 249 280 337 417
#     4  11  25  43  69  96 143 181 233 287 356 409
#     4  11  26  45  66  99 142 183 230 293 357 416
#
# _framework density 21.092818000000001
#
# number of rings (size 3 to 8) (size 9 to 14) (size 15 to 20)
#    0.000    1.091    3.636    1.091   11.455    1.091 
#    0.000    0.909    0.000    0.000    0.000    0.000 
#    0.000    0.000    0.000    0.000    0.000    0.000 
#
# Total GULP energy -122507.875704 kJ/mol
# GULP energy per Si atom -5568.539805 kJ/mol
# Density = 2.104481 g / cm^3
# Si number density = 21.092818 Si / 1000 Ang^3
#
#
#
# Elastic Constant Matrix: (Units=GPa)
#
#
# Indices 1 2 3 4 5 6 
#
# 1 102.5087 38.3885 43.8809 0.0000 -37.7395 0.0000
# 2 38.3885 191.6643 62.6792 0.0000 -22.0599 0.0000
# 3 43.8809 62.6792 131.3460 0.0000 -24.3504 0.0000
# 4 0.0000 0.0000 0.0000 54.8231 0.0000 9.1781
# 5 -37.7395 -22.0599 -24.3504 0.0000 48.5267 0.0000
# 6 0.0000 0.0000 0.0000 9.1781 0.0000 32.3114
#
#
#
# Elastic Compliance Matrix: (Units=1/GPa)
#
#
# Indices 1 2 3 4 5 6 
#
# 1 0.014869 -0.000973 -0.002692 0.000000 0.009771 0.000000
# 2 -0.000973 0.006342 -0.002544 0.000000 0.000850 0.000000
# 3 -0.002692 -0.002544 0.010060 0.000000 0.001798 0.000000
# 4 0.000000 0.000000 0.000000 0.019151 0.000000 -0.005440
# 5 0.009771 0.000850 0.001798 0.000000 0.029495 0.000000
# 6 0.000000 0.000000 0.000000 -0.005440 0.000000 0.032494
#
#
# Mechanical properties :
#
#
# Convention : Reuss Voigt Hill
#
# Bulk Modulus (GPa) = 53.04011 79.49070 66.26540
# Shear Modulus (GPa) = 38.13495 45.83694 41.98595
#
# Velocity S-wave (km/s) = 4.25662 4.66672 4.46638
# Velocity P-wave (km/s) = 7.02560 8.17347 7.62118
#
# Compressibility (1/GPa) = 0.01885366
#
# Stress axis : x y z
#
# Youngs Moduli (GPa) = 67.25325 157.67691 99.40308
#
# Poissons Ratio (x) = 0.15347 0.26756
# Poissons Ratio (y) = 0.06546 0.25286
# Poissons Ratio (z) = 0.18103 0.40110
#
# Static dielectric constant tensor:
#      x y z
#    x 1.955690 0.000000 -0.071140 
#    y 0.000000 1.741400 0.000000 
#    z -0.071140 0.000000 1.776300 
# 
# From -- ./inp_files/296564.got.cif
#   From: 2010.05.17/outbox.cif.g08.bks.cpg/sg12_149_cif.got.tgz:296564.got - 2010.06.03 13:09:07.
