data_PCOD9216946
_publ_section_title
;
Structure prediction by ZEFSAII (Michael W. Deem and Ramdas Pophale) SiO2 
 PCOD9216946
Probable space group: C 2/M
;
_chemical_formula_sum "Si O2"
_cell_formula_units_Z 64
_cell_length_a 29.614670
_cell_length_b 8.661800
_cell_length_c 14.526979
_cell_angle_alpha 90.000000
_cell_angle_beta 54.143394
_cell_angle_gamma 90.000000
_cell_volume 3020.199364
_symmetry_space_group_name_H-M "C 2/M"
_symmetry_group_IT_number 12
_symmetry_cell_setting 'monoclinic'
loop_
_space_group_symop_operation_xyz
x,y,z
-x,y,-z
-x,-y,-z
x,-y,z
1/2+x,1/2+y,z
1/2-x,1/2+y,-z
1/2-x,1/2-y,-z
1/2+x,1/2-y,z
loop_
_atom_site_type_symbol
_atom_site_label
_atom_site_fract_x
_atom_site_fract_y
_atom_site_fract_z
Si Si1 0.590783 0.317968 0.444190
Si Si2 0.423640 0.184338 0.729457
Si Si3 0.794887 0.327091 0.669100
Si Si4 0.689973 0.814560 0.043298
Si Si5 0.325591 0.815280 0.149516
Si Si6 0.097393 0.819102 0.790545
Si Si7 0.027337 0.186220 0.706862
Si Si8 0.690623 0.826505 0.561246
O O1 0.581204 0.500000 0.450350
O O2 0.562696 0.237607 0.390151
O O3 0.656424 0.281486 0.351835
O O4 0.566997 0.266097 0.572591
O O5 0.361088 0.233868 0.831135
O O6 0.467033 0.255698 0.749386
O O7 0.426555 0.000000 0.731238
O O8 0.795472 0.500000 0.710806
O O9 0.732618 0.259371 0.745736
O O10 0.814661 0.342020 0.540745
O O11 0.693953 0.000000 0.041708
O O12 0.750000 0.750000 0.000000
O O13 0.673203 0.770820 0.959166
O O14 0.378779 0.760115 0.145680
O O15 0.321642 0.000000 0.160424
O O16 0.046840 0.759871 0.785692
O O17 0.147733 0.788723 0.659111
O O18 0.089438 0.000000 0.819028
O O19 0.029223 0.000000 0.707881
O O20 0.750000 0.750000 0.500000
O O21 0.686409 0.000000 0.607070
#
# Coordination Sequence:
#
# PCOD9216946 Si02
#       8
#     8   8   8   8   8   8   8   8
#     4  11  22  38  60  88 124 163 202 246 299 361
#     4  11  24  42  64  90 120 153 200 255 303 358
#     4  11  22  34  53  86 124 159 200 246 296 354
#     4  10  24  45  67  93 121 154 196 247 304 359
#     4  11  23  39  61  88 121 161 205 251 306 362
#     4  11  22  38  58  85 122 162 204 249 296 355
#     4  10  23  41  61  87 122 162 201 242 296 361
#     4  11  21  32  51  79 119 163 202 244 294 355
#
# _framework density 21.190655
#
# number of rings (size 3 to 8) (size 9 to 14) (size 15 to 20)
#    0.000    1.250    2.500    3.375    0.000    8.500 
#    0.000    0.625    0.000    3.750    0.000    0.000 
#    0.000    0.000    0.000    0.000    0.000    0.000 
#
# Total GULP energy -178593.441171 kJ/mol
# GULP energy per Si atom -5581.045037 kJ/mol
# Density = 2.114242 g / cm^3
# Si number density = 21.190655 Si / 1000 Ang^3
#
#
#
# Elastic Constant Matrix: (Units=GPa)
#
#
# Indices 1 2 3 4 5 6 
#
# 1 154.6947 23.3370 46.5670 0.0000 9.7687 0.0000
# 2 23.3370 29.5649 18.8359 0.0000 1.4545 0.0000
# 3 46.5670 18.8359 68.4365 0.0000 15.5626 0.0000
# 4 0.0000 0.0000 0.0000 18.0503 0.0000 1.9102
# 5 9.7687 1.4545 15.5626 0.0000 39.6198 0.0000
# 6 0.0000 0.0000 0.0000 1.9102 0.0000 36.4368
#
#
#
# Elastic Compliance Matrix: (Units=1/GPa)
#
#
# Indices 1 2 3 4 5 6 
#
# 1 0.008441 -0.003653 -0.004717 0.000000 -0.000094 0.000000
# 2 -0.003653 0.042974 -0.010089 0.000000 0.003286 0.000000
# 3 -0.004717 -0.010089 0.022236 0.000000 -0.007201 0.000000
# 4 0.000000 0.000000 0.000000 0.055710 0.000000 -0.002921
# 5 -0.000094 0.003286 -0.007201 0.000000 0.027971 0.000000
# 6 0.000000 0.000000 0.000000 -0.002921 0.000000 0.027598
#
#
# Mechanical properties :
#
#
# Convention : Reuss Voigt Hill
#
# Bulk Modulus (GPa) = 27.22391 47.79732 37.51062
# Shear Modulus (GPa) = 21.35905 29.75179 25.55542
#
# Velocity S-wave (km/s) = 3.17826 3.75107 3.47648
# Velocity P-wave (km/s) = 5.13259 6.43160 5.81846
#
# Compressibility (1/GPa) = 0.03673242
#
# Stress axis : x y z
#
# Youngs Moduli (GPa) = 118.46464 23.26998 44.97219
#
# Poissons Ratio (x) = 0.08501 0.21213
# Poissons Ratio (y) = 0.43280 0.45373
# Poissons Ratio (z) = 0.55878 0.23477
#
# Static dielectric constant tensor:
#      x y z
#    x 1.803500 0.000000 0.025130 
#    y 0.000000 1.744150 0.000000 
#    z 0.025130 0.000000 1.763980 
# 
# From -- ./inp_files/249778.got.cif
#   From: 2010.05.17/outbox.cif.g08.bks.cpg/sg12_125_cif.got.tgz:249778.got - 2010.06.03 13:09:07.
