data_PCOD9216398
_publ_section_title
;
Structure prediction by ZEFSAII (Michael W. Deem and Ramdas Pophale) SiO2 
 PCOD9216398
Probable space group: C 2/M
;
_chemical_formula_sum "Si O2"
_cell_formula_units_Z 24
_cell_length_a 18.620849
_cell_length_b 13.820516
_cell_length_c 9.123331
_cell_angle_alpha 90.000000
_cell_angle_beta 25.484725
_cell_angle_gamma 90.000000
_cell_volume 1010.226350
_symmetry_space_group_name_H-M "C 2/M"
_symmetry_group_IT_number 12
_symmetry_cell_setting 'monoclinic'
loop_
_space_group_symop_operation_xyz
x,y,z
-x,y,-z
-x,-y,-z
x,-y,z
1/2+x,1/2+y,z
1/2-x,1/2+y,-z
1/2-x,1/2-y,-z
1/2+x,1/2-y,z
loop_
_atom_site_type_symbol
_atom_site_label
_atom_site_fract_x
_atom_site_fract_y
_atom_site_fract_z
Si Si1 0.714672 0.732276 0.395407
Si Si2 0.138227 0.385502 0.125691
Si Si3 0.115402 0.885913 0.078556
O O1 0.750000 0.750000 0.500000
O O2 0.548941 0.669955 0.670982
O O3 0.847784 0.670603 0.052496
O O4 0.735134 0.839863 0.292138
O O5 0.115957 0.500000 0.143480
O O6 0.000000 0.353756 0.500000
O O7 0.315587 0.370658 0.883655
O O8 0.095275 0.000000 0.094337
#
# Coordination Sequence:
#
# PCOD9216398 Si02
#       3
#     8   8   8
#     4  12  25  42  69 105 146 189 236 298 367 433
#     4  10  22  44  75 107 142 190 246 301 359 432
#     4  11  25  46  72 103 143 192 244 298 359 433
#
# _framework density 23.757054
#
# number of rings (size 3 to 8) (size 9 to 14) (size 15 to 20)
#    0.000    1.000    0.000    6.000    0.000    6.667 
#    0.000    1.667    0.000   16.000    0.000    0.000 
#    0.000    0.000    0.000    0.000    0.000    0.000 
#
# Total GULP energy -67048.422933 kJ/mol
# GULP energy per Si atom -5587.368578 kJ/mol
# Density = 2.370298 g / cm^3
# Si number density = 23.757054 Si / 1000 Ang^3
#
#
#
# Elastic Constant Matrix: (Units=GPa)
#
#
# Indices 1 2 3 4 5 6 
#
# 1 164.2485 90.1702 84.7106 0.0002 38.1997 0.0006
# 2 90.1702 165.8194 76.7991 -0.0001 1.3586 0.0003
# 3 84.7106 76.7991 145.6052 -0.0005 -3.5175 0.0001
# 4 0.0002 -0.0001 -0.0005 29.3785 0.0001 -35.3790
# 5 38.1997 1.3586 -3.5175 0.0001 43.6883 -0.0005
# 6 0.0006 0.0003 0.0001 -35.3790 -0.0005 -8.3934
#
#
#
# Elastic Compliance Matrix: (Units=1/GPa)
#
#
# Indices 1 2 3 4 5 6 
#
# 1 0.015783 -0.005366 -0.006694 0.000000 -0.014172 0.000000
# 2 -0.005366 0.009819 -0.001955 0.000000 0.004229 0.000000
# 3 -0.006694 -0.001955 0.011960 0.000000 0.006877 0.000000
# 4 0.000000 0.000000 0.000000 0.005602 -0.000001 -0.023613
# 5 -0.014172 0.004229 0.006877 -0.000001 0.035703 -0.000001
# 6 0.000000 0.000000 0.000000 -0.023613 -0.000001 -0.019608
#
#
# Mechanical properties :
#
#
# Convention : Reuss Voigt Hill
#
# Bulk Modulus (GPa) = 104.91814 108.78145 106.84979
# Shear Modulus (GPa) = 55.26900 27.86757 41.56828
#
# Velocity S-wave (km/s) = 4.82854 3.42866 4.18751
# Velocity P-wave (km/s) = 8.68016 7.84620 8.27369
#
# Compressibility (1/GPa) = 0.00953124
#
# Stress axis : x y z
#
# Youngs Moduli (GPa) = 63.36084 101.83830 83.61235
#
# Poissons Ratio (x) = 0.54645 0.55972
# Poissons Ratio (y) = 0.33998 0.16349
# Poissons Ratio (z) = 0.42415 0.19913
#
# Static dielectric constant tensor:
#      x y z
#    x 1.935610 0.000000 -0.088910 
#    y 0.000000 1.889040 0.000000 
#    z -0.088910 0.000000 2.057810 
# 
# From -- ./inp_files/35699.got.cif
#   From: 2010.05.17/outbox.cif.g08.bks.cpg/sg12_18_cif.got.tgz:35699.got - 2010.06.03 13:09:07.
