data_PCOD9216000
_publ_section_title
;
Structure prediction by ZEFSAII (Michael W. Deem and Ramdas Pophale) SiO2 
 PCOD9216000
Probable space group: C 2/M
;
_chemical_formula_sum "Si O2"
_cell_formula_units_Z 52
_cell_length_a 7.839204
_cell_length_b 18.634193
_cell_length_c 20.210749
_cell_angle_alpha 90.000000
_cell_angle_beta 129.320642
_cell_angle_gamma 90.000000
_cell_volume 2283.958169
_symmetry_space_group_name_H-M "C 2/M"
_symmetry_group_IT_number 12
_symmetry_cell_setting 'monoclinic'
loop_
_space_group_symop_operation_xyz
x,y,z
-x,y,-z
-x,-y,-z
x,-y,z
1/2+x,1/2+y,z
1/2-x,1/2+y,-z
1/2-x,1/2-y,-z
1/2+x,1/2-y,z
loop_
_atom_site_type_symbol
_atom_site_label
_atom_site_fract_x
_atom_site_fract_y
_atom_site_fract_z
Si Si1 0.365983 0.834754 0.222313
Si Si2 0.354074 0.670278 0.529109
Si Si3 0.904489 0.185041 0.180029
Si Si4 0.000000 0.341579 0.000000
Si Si5 0.992972 0.419419 0.379355
Si Si6 0.994437 0.917363 0.312001
Si Si7 0.736564 0.085016 0.935441
O O1 0.457867 0.754960 0.236020
O O2 0.492815 0.875929 0.311111
O O3 0.367921 0.875031 0.153122
O O4 0.112124 0.830604 0.184539
O O5 0.500000 0.662567 0.500000
O O6 0.250000 0.750000 0.500000
O O7 0.492892 0.640311 0.625423
O O8 0.149274 0.617009 0.470679
O O9 0.687202 0.202339 0.084409
O O10 0.862625 0.117813 0.218279
O O11 0.129071 0.387923 0.977084
O O12 0.066853 0.500000 0.385133
O O13 0.744209 0.420039 0.345182
O O14 0.930347 0.000000 0.312654
O O15 0.704918 0.000000 0.920767
O O16 0.000000 0.099073 0.000000
#
# Coordination Sequence:
#
# PCOD9216000 Si02
#       7
#     8   8   8   4   8   8   8
#     4  11  23  43  65  96 134 172 222 274 334 396
#     4  12  25  41  66  97 133 171 218 270 323 392
#     4  11  25  41  67  96 131 175 224 276 336 399
#     4  12  25  44  68  98 131 178 228 284 339 402
#     4  10  22  42  69  97 131 175 216 263 329 394
#     4  10  23  44  67  96 134 173 215 270 329 395
#     4  11  24  42  66  95 131 171 219 276 334 399
#
# _framework density 22.767492000000001
#
# number of rings (size 3 to 8) (size 9 to 14) (size 15 to 20)
#    0.000    1.077    1.538    4.385    1.077   10.462 
#    0.000    0.000    0.000    0.000    0.000    0.000 
#    0.000    0.000    0.000    0.000    0.000    0.000 
#
# Total GULP energy -145552.798751 kJ/mol
# GULP energy per Si atom -5598.184567 kJ/mol
# Density = 2.271567 g / cm^3
# Si number density = 22.767492 Si / 1000 Ang^3
#
#
#
# Elastic Constant Matrix: (Units=GPa)
#
#
# Indices 1 2 3 4 5 6 
#
# 1 107.5442 27.8857 19.2282 0.0000 -24.6052 0.0000
# 2 27.8857 103.9766 12.8363 0.0000 -24.3053 0.0000
# 3 19.2282 12.8363 66.6431 0.0000 -22.9427 0.0000
# 4 0.0000 0.0000 0.0000 26.8170 0.0000 10.6708
# 5 -24.6052 -24.3053 -22.9427 0.0000 39.2231 0.0000
# 6 0.0000 0.0000 0.0000 10.6708 0.0000 -2.6937
#
#
#
# Elastic Compliance Matrix: (Units=1/GPa)
#
#
# Indices 1 2 3 4 5 6 
#
# 1 0.011131 -0.001599 -0.001053 0.000000 0.005376 0.000000
# 2 -0.001599 0.011481 0.000443 0.000000 0.006371 0.000000
# 3 -0.001053 0.000443 0.018896 0.000000 0.010667 0.000000
# 4 0.000000 0.000000 0.000000 0.014474 0.000000 0.057338
# 5 0.005376 0.006371 0.010667 0.000000 0.039055 0.000000
# 6 0.000000 0.000000 0.000000 0.057338 0.000000 -0.144098
#
#
# Mechanical properties :
#
#
# Convention : Reuss Voigt Hill
#
# Bulk Modulus (GPa) = 26.96055 44.22937 35.59496
# Shear Modulus (GPa) = -154.89466 27.21686 -63.83890
#
# Velocity S-wave (km/s) = -8.25718 3.46124 -5.30098
# Velocity P-wave (km/s) = 8.89047 5.95335 4.66895
#
# Compressibility (1/GPa) = 0.03709123
#
# Stress axis : x y z
#
# Youngs Moduli (GPa) = 89.83651 87.10230 52.92143
#
# Poissons Ratio (x) = 0.13924 0.05572
# Poissons Ratio (y) = 0.14361 -0.02345
# Poissons Ratio (z) = 0.09459 -0.03859
#
# Static dielectric constant tensor:
#      x y z
#    x 1.819680 0.000000 -0.028260 
#    y 0.000000 1.820700 0.000000 
#    z -0.028260 0.000000 1.773880 
# 
# From -- ./inp_files/301181.got.cif
#   From: 2010.05.17/outbox.cif.g08.bks.cpg/sg12_151_cif.got.tgz:301181.got - 2010.06.03 13:09:07.
