data_PCOD9216611
_publ_section_title
;
Structure prediction by ZEFSAII (Michael W. Deem and Ramdas Pophale) SiO2 
 PCOD9216611
Probable space group: C 2/M
;
_chemical_formula_sum "Si O2"
_cell_formula_units_Z 48
_cell_length_a 9.321615
_cell_length_b 26.715753
_cell_length_c 14.912592
_cell_angle_alpha 90.000000
_cell_angle_beta 38.029361
_cell_angle_gamma 90.000000
_cell_volume 2287.907173
_symmetry_space_group_name_H-M "C 2/M"
_symmetry_group_IT_number 12
_symmetry_cell_setting 'monoclinic'
loop_
_space_group_symop_operation_xyz
x,y,z
-x,y,-z
-x,-y,-z
x,-y,z
1/2+x,1/2+y,z
1/2-x,1/2+y,-z
1/2-x,1/2-y,-z
1/2+x,1/2-y,z
loop_
_atom_site_type_symbol
_atom_site_label
_atom_site_fract_x
_atom_site_fract_y
_atom_site_fract_z
Si Si1 0.078366 0.125799 0.064801
Si Si2 0.549752 0.614012 0.577584
Si Si3 0.087717 0.229482 0.856102
Si Si4 0.590516 0.797965 0.558707
Si Si5 0.729468 0.558283 0.650013
Si Si6 0.945678 0.340718 0.131804
O O1 0.042818 0.182154 0.122077
O O2 0.916516 0.090043 0.204744
O O3 0.358049 0.121886 0.926620
O O4 0.000000 0.123674 0.000000
O O5 0.500000 0.599971 0.500000
O O6 0.761785 0.653798 0.484045
O O7 0.606301 0.568744 0.615871
O O8 0.314331 0.640417 0.726343
O O9 0.353115 0.212122 0.727756
O O10 0.050422 0.283827 0.831915
O O11 0.000000 0.233426 0.000000
O O12 0.500000 0.801143 0.500000
O O13 0.750000 0.750000 0.500000
O O14 0.726553 0.500000 0.676269
O O15 0.000000 0.573236 0.500000
O O16 0.000000 0.339114 0.000000
#
# Coordination Sequence:
#
# PCOD9216611 Si02
#       6
#     8   8   8   8   8   8
#     4  11  24  42  69 101 139 181 226 283 349 412
#     4  12  26  44  70  99 142 178 234 291 351 412
#     4  10  23  38  63  93 141 181 232 262 332 401
#     4  12  25  41  62  95 140 187 234 284 338 408
#     4  11  26  51  76  99 131 179 236 296 355 413
#     4  11  23  42  63 100 142 186 224 281 339 417
#
# _framework density 20.979870999999999
#
# number of rings (size 3 to 8) (size 9 to 14) (size 15 to 20)
#    0.000    0.833    3.333    3.500    7.000    0.667 
#    0.000    1.667    0.000    0.000    0.000    0.000 
#    0.000    0.000    0.000    0.000    0.000    0.000 
#
# Total GULP energy -134148.808799 kJ/mol
# GULP energy per Si atom -5589.533700 kJ/mol
# Density = 2.093212 g / cm^3
# Si number density = 20.979871 Si / 1000 Ang^3
#
#
#
# Elastic Constant Matrix: (Units=GPa)
#
#
# Indices 1 2 3 4 5 6 
#
# 1 141.3766 21.5851 48.7824 0.0000 0.7156 0.0000
# 2 21.5851 69.3757 26.6020 0.0000 -8.4116 0.0000
# 3 48.7824 26.6020 147.3090 0.0000 -21.9999 0.0000
# 4 0.0000 0.0000 0.0000 34.3264 0.0000 -8.9850
# 5 0.7156 -8.4116 -21.9999 0.0000 39.7591 0.0000
# 6 0.0000 0.0000 0.0000 -8.9850 0.0000 38.6442
#
#
#
# Elastic Compliance Matrix: (Units=1/GPa)
#
#
# Indices 1 2 3 4 5 6 
#
# 1 0.008298 -0.001782 -0.002730 0.000000 -0.002037 0.000000
# 2 -0.001782 0.016000 -0.001950 0.000000 0.002338 0.000000
# 3 -0.002730 -0.001950 0.008710 0.000000 0.004456 0.000000
# 4 0.000000 0.000000 0.000000 0.031020 0.000000 0.007212
# 5 -0.002037 0.002338 0.004456 0.000000 0.028149 0.000000
# 6 0.000000 0.000000 0.000000 0.007212 0.000000 0.027554
#
#
# Mechanical properties :
#
#
# Convention : Reuss Voigt Hill
#
# Bulk Modulus (GPa) = 49.79216 61.33337 55.56277
# Shear Modulus (GPa) = 35.88103 39.95206 37.91654
#
# Velocity S-wave (km/s) = 4.14002 4.36857 4.25583
# Velocity P-wave (km/s) = 6.82919 7.39890 7.11974
#
# Compressibility (1/GPa) = 0.02008348
#
# Stress axis : x y z
#
# Youngs Moduli (GPa) = 120.51453 62.50039 114.80654
#
# Poissons Ratio (x) = 0.11136 0.31346
# Poissons Ratio (y) = 0.21473 0.22389
# Poissons Ratio (z) = 0.32904 0.12189
#
# Static dielectric constant tensor:
#      x y z
#    x 1.902250 0.000000 -0.065310 
#    y 0.000000 1.755930 0.000000 
#    z -0.065310 0.000000 1.868930 
# 
# From -- ./inp_files/200121.got.cif
#   From: 2010.05.17/outbox.cif.g08.bks.cpg/sg12_101_cif.got.tgz:200121.got - 2010.06.03 13:09:07.
