data_PCOD9216818
_publ_section_title
;
Structure prediction by ZEFSAII (Michael W. Deem and Ramdas Pophale) SiO2 
 PCOD9216818
Probable space group: C 2/M
;
_chemical_formula_sum "Si O2"
_cell_formula_units_Z 40
_cell_length_a 12.785132
_cell_length_b 27.110379
_cell_length_c 5.197773
_cell_angle_alpha 90.000000
_cell_angle_beta 75.920577
_cell_angle_gamma 90.000000
_cell_volume 1747.477891
_symmetry_space_group_name_H-M "C 2/M"
_symmetry_group_IT_number 12
_symmetry_cell_setting 'monoclinic'
loop_
_space_group_symop_operation_xyz
x,y,z
-x,y,-z
-x,-y,-z
x,-y,z
1/2+x,1/2+y,z
1/2-x,1/2+y,-z
1/2-x,1/2-y,-z
1/2+x,1/2-y,z
loop_
_atom_site_type_symbol
_atom_site_label
_atom_site_fract_x
_atom_site_fract_y
_atom_site_fract_z
Si Si1 0.876310 0.286934 0.507723
Si Si2 0.715619 0.057750 0.787209
Si Si3 0.770312 0.798028 0.819108
Si Si4 0.574377 0.388726 0.205387
Si Si5 0.125165 0.609467 0.337691
O O1 0.836862 0.230464 0.549269
O O2 0.842924 0.308999 0.251792
O O3 0.837516 0.333128 0.708640
O O4 0.000000 0.283572 0.500000
O O5 0.839208 0.067968 0.796048
O O6 0.692066 0.083626 0.527405
O O7 0.693127 0.000000 0.779527
O O8 0.644809 0.081768 0.058341
O O9 0.848489 0.840714 0.864058
O O10 0.750000 0.750000 0.000000
O O11 0.500000 0.383444 0.500000
O O12 0.500000 0.394970 0.000000
O O13 0.000000 0.608432 0.500000
#
# Coordination Sequence:
#
# PCOD9216818 Si02
#       5
#     8   8   8   8   8
#     4  10  23  40  64  96 137 180 225 274 345 417
#     4  12  26  47  73 103 138 181 241 300 355 418
#     4  11  24  40  67  98 139 181 231 282 344 414
#     4  12  28  47  72 100 142 189 241 294 353 413
#     4  11  24  45  71 106 146 182 225 285 361 431
#
# _framework density 22.890132999999999
#
# number of rings (size 3 to 8) (size 9 to 14) (size 15 to 20)
#    0.000    0.800    2.000    4.200    8.400    3.200 
#    0.000    0.000    0.000    0.000    0.000    0.000 
#    0.000    0.000    0.000    0.000    0.000    0.000 
#
# Total GULP energy -111674.732920 kJ/mol
# GULP energy per Si atom -5583.736646 kJ/mol
# Density = 2.283803 g / cm^3
# Si number density = 22.890133 Si / 1000 Ang^3
#
#
#
# Elastic Constant Matrix: (Units=GPa)
#
#
# Indices 1 2 3 4 5 6 
#
# 1 104.0430 -24.4165 3.3634 0.0000 16.7897 0.0000
# 2 -24.4165 81.1538 -31.4816 0.0000 10.6346 0.0000
# 3 3.3634 -31.4816 65.4986 0.0000 9.4450 0.0000
# 4 0.0000 0.0000 0.0000 18.6379 0.0000 3.6183
# 5 16.7897 10.6346 9.4450 0.0000 51.5598 0.0000
# 6 0.0000 0.0000 0.0000 3.6183 0.0000 19.3650
#
#
#
# Elastic Compliance Matrix: (Units=1/GPa)
#
#
# Indices 1 2 3 4 5 6 
#
# 1 0.011620 0.005245 0.002697 0.000000 -0.005360 0.000000
# 2 0.005245 0.018644 0.009750 0.000000 -0.007339 0.000000
# 3 0.002697 0.009750 0.020781 0.000000 -0.006696 0.000000
# 4 0.000000 0.000000 0.000000 0.055674 0.000000 -0.010403
# 5 -0.005360 -0.007339 -0.006696 0.000000 0.023881 0.000000
# 6 0.000000 0.000000 0.000000 -0.010403 0.000000 0.053583
#
#
# Mechanical properties :
#
#
# Convention : Reuss Voigt Hill
#
# Bulk Modulus (GPa) = 11.57017 16.18069 13.87543
# Shear Modulus (GPa) = 28.15176 38.12788 33.13982
#
# Velocity S-wave (km/s) = 3.51075 4.08571 3.80909
# Velocity P-wave (km/s) = 4.63675 5.41679 5.04188
#
# Compressibility (1/GPa) = 0.08642916
#
# Stress axis : x y z
#
# Youngs Moduli (GPa) = 86.05926 53.63540 48.12079
#
# Poissons Ratio (x) = -0.28130 -0.12978
# Poissons Ratio (y) = -0.45135 -0.46920
# Poissons Ratio (z) = -0.23210 -0.52297
#
# Static dielectric constant tensor:
#      x y z
#    x 1.902260 0.000000 -0.133780 
#    y 0.000000 1.867910 0.000000 
#    z -0.133780 0.000000 2.065300 
# 
# From -- ./inp_files/7575.got.cif
#   From: 2010.05.17/outbox.cif.g08.bks.cpg/sg12_4_cif.got.tgz:7575.got - 2010.06.03 13:09:07.
