data_PCOD9216412
_publ_section_title
;
Structure prediction by ZEFSAII (Michael W. Deem and Ramdas Pophale) SiO2 
 PCOD9216412
Probable space group: C 2/M
;
_chemical_formula_sum "Si O2"
_cell_formula_units_Z 60
_cell_length_a 23.265650
_cell_length_b 20.529581
_cell_length_c 5.019175
_cell_angle_alpha 90.000000
_cell_angle_beta 90.179110
_cell_angle_gamma 90.000000
_cell_volume 2397.317150
_symmetry_space_group_name_H-M "C 2/M"
_symmetry_group_IT_number 12
_symmetry_cell_setting 'monoclinic'
loop_
_space_group_symop_operation_xyz
x,y,z
-x,y,-z
-x,-y,-z
x,-y,z
1/2+x,1/2+y,z
1/2-x,1/2+y,-z
1/2-x,1/2-y,-z
1/2+x,1/2-y,z
loop_
_atom_site_type_symbol
_atom_site_label
_atom_site_fract_x
_atom_site_fract_y
_atom_site_fract_z
Si Si1 0.643412 0.500000 0.301872
Si Si2 0.882929 0.362528 0.628615
Si Si3 0.063024 0.575821 0.892122
Si Si4 0.461574 0.402204 0.762684
Si Si5 0.438620 0.269376 0.633752
Si Si6 0.826847 0.186937 0.348420
Si Si7 0.772907 0.073426 0.034944
Si Si8 0.720946 0.180516 0.725604
O O1 0.593564 0.444118 0.305697
O O2 0.692439 0.554873 0.230163
O O3 0.918151 0.384067 0.365755
O O4 0.911026 0.296315 0.740378
O O5 0.820291 0.346378 0.510256
O O6 0.893175 0.414051 0.861659
O O7 0.061225 0.500000 0.815739
O O8 0.000000 0.405619 0.000000
O O9 0.500000 0.398628 0.500000
O O10 0.444815 0.328517 0.838654
O O11 0.500000 0.429654 0.000000
O O12 0.500000 0.255776 0.500000
O O13 0.391791 0.298342 0.426997
O O14 0.815598 0.117197 0.213400
O O15 0.784011 0.190827 0.601963
O O16 0.804802 0.250328 0.182477
O O17 0.724406 0.123836 0.945074
O O18 0.760242 0.000000 0.149814
#
# Coordination Sequence:
#
# PCOD9216412 Si02
#       8
#     4   8   8   8   8   8   8   8
#     4  10  24  44  64 102 140 188 239 291 354 426
#     4  11  25  44  73 109 141 185 239 299 353 426
#     4  11  24  45  72 104 148 190 230 289 368 441
#     4  11  25  44  68  99 143 190 242 291 358 424
#     4  10  23  42  71 105 139 185 240 304 350 426
#     4  10  22  45  69  96 137 188 235 294 363 432
#     4  10  24  40  67  98 135 178 237 295 353 421
#     4  10  23  45  68  99 135 187 239 291 364 426
#
# _framework density 25.027978000000001
#
# number of rings (size 3 to 8) (size 9 to 14) (size 15 to 20)
#    0.400    1.200    0.000    3.200    5.600    5.333 
#   13.200    0.000    0.000    0.000    0.000    0.000 
#    0.000    0.000    0.000    0.000    0.000    0.000 
#
# Total GULP energy -167301.520807 kJ/mol
# GULP energy per Si atom -5576.717360 kJ/mol
# Density = 2.497101 g / cm^3
# Si number density = 25.027978 Si / 1000 Ang^3
#
#
#
# Elastic Constant Matrix: (Units=GPa)
#
#
# Indices 1 2 3 4 5 6 
#
# 1 110.5348 16.8539 24.8983 0.0000 0.2971 0.0000
# 2 16.8539 147.5037 30.7156 0.0000 11.5337 0.0000
# 3 24.8983 30.7156 72.4223 0.0000 -3.8006 0.0000
# 4 0.0000 0.0000 0.0000 -50.6931 0.0000 12.1535
# 5 0.2971 11.5337 -3.8006 0.0000 29.6968 0.0000
# 6 0.0000 0.0000 0.0000 12.1535 0.0000 32.6795
#
#
#
# Elastic Compliance Matrix: (Units=1/GPa)
#
#
# Indices 1 2 3 4 5 6 
#
# 1 0.009838 -0.000427 -0.003219 0.000000 -0.000345 0.000000
# 2 -0.000427 0.007793 -0.003340 0.000000 -0.003450 0.000000
# 3 -0.003219 -0.003340 0.016512 0.000000 0.003442 0.000000
# 4 0.000000 0.000000 0.000000 -0.018112 0.000000 0.006736
# 5 -0.000345 -0.003450 0.003442 0.000000 0.035458 0.000000
# 6 0.000000 0.000000 0.000000 0.006736 0.000000 0.028095
#
#
# Mechanical properties :
#
#
# Convention : Reuss Voigt Hill
#
# Bulk Modulus (GPa) = 49.57438 52.82182 51.19810
# Shear Modulus (GPa) = 49.86042 19.53616 34.69829
#
# Velocity S-wave (km/s) = 4.46823 2.79690 3.72745
# Velocity P-wave (km/s) = 6.81695 5.61971 6.24708
#
# Compressibility (1/GPa) = 0.02017171
#
# Stress axis : x y z
#
# Youngs Moduli (GPa) = 101.64568 128.31277 60.56287
#
# Poissons Ratio (x) = 0.05476 0.19497
# Poissons Ratio (y) = 0.04338 0.20226
# Poissons Ratio (z) = 0.32723 0.42852
#
# Static dielectric constant tensor:
#      x y z
#    x 1.966400 0.000000 0.029680 
#    y 0.000000 2.022800 0.000000 
#    z 0.029680 0.000000 1.981320 
# 
# From -- ./inp_files/29175.got.cif
#   From: 2010.05.17/outbox.cif.g08.bks.cpg/sg12_15_cif.got.tgz:29175.got - 2010.06.03 13:09:07.
