data_PCOD9216473
_publ_section_title
;
Structure prediction by ZEFSAII (Michael W. Deem and Ramdas Pophale) SiO2 
 PCOD9216473
Probable space group: C 2/M
;
_chemical_formula_sum "Si O2"
_cell_formula_units_Z 58
_cell_length_a 8.878703
_cell_length_b 20.209386
_cell_length_c 16.648081
_cell_angle_alpha 90.000000
_cell_angle_beta 59.808197
_cell_angle_gamma 90.000000
_cell_volume 2581.991660
_symmetry_space_group_name_H-M "C 2/M"
_symmetry_group_IT_number 12
_symmetry_cell_setting 'monoclinic'
loop_
_space_group_symop_operation_xyz
x,y,z
-x,y,-z
-x,-y,-z
x,-y,z
1/2+x,1/2+y,z
1/2-x,1/2+y,-z
1/2-x,1/2-y,-z
1/2+x,1/2-y,z
loop_
_atom_site_type_symbol
_atom_site_label
_atom_site_fract_x
_atom_site_fract_y
_atom_site_fract_z
Si Si1 0.706908 0.425278 0.704854
Si Si2 0.600940 0.925077 0.177585
Si Si3 0.060002 0.835324 0.173680
Si Si4 0.830692 0.324920 0.986173
Si Si5 0.500000 0.500000 0.500000
Si Si6 0.998139 0.669619 0.415448
Si Si7 0.248749 0.388710 0.634681
Si Si8 0.729634 0.738054 0.260486
O O1 0.710184 0.500000 0.678213
O O2 0.763186 0.419893 0.784172
O O3 0.518299 0.393184 0.751149
O O4 0.849238 0.384553 0.617952
O O5 0.414319 0.919128 0.271981
O O6 0.616894 0.000000 0.138927
O O7 0.623308 0.865238 0.107881
O O8 0.160535 0.861315 0.069527
O O9 0.205535 0.795678 0.182316
O O10 0.899614 0.783974 0.209592
O O11 0.750000 0.250000 0.000000
O O12 0.000000 0.326422 0.000000
O O13 0.397818 0.441544 0.579773
O O14 0.065391 0.715965 0.326020
O O15 0.000000 0.705809 0.500000
O O16 0.825976 0.633480 0.432558
O O17 0.282344 0.320164 0.671557
#
# Coordination Sequence:
#
# PCOD9216473 Si02
#       8
#     8   8   8   8   2   8   8   8
#     4   9  22  43  68  96 132 182 222 279 348 411
#     4  10  22  46  73  93 138 191 223 283 359 408
#     4  11  23  43  66 101 132 176 233 277 344 410
#     4  12  27  41  69 106 138 178 235 289 342 413
#     4  12  28  40  70 100 126 186 234 276 326 436
#     4  10  23  41  69  96 133 177 232 285 347 411
#     4  11  23  47  65  98 141 174 234 281 344 415
#     4  11  23  44  72  95 141 185 217 294 351 399
#
# _framework density 22.463277999999999
#
# number of rings (size 3 to 8) (size 9 to 14) (size 15 to 20)
#    0.000    1.379    2.069    2.483    7.724    3.862 
#    3.724    1.379    0.000    0.000    0.000    0.000 
#    0.000    0.000    0.000    0.000    0.000    0.000 
#
# Total GULP energy -161609.381903 kJ/mol
# GULP energy per Si atom -5572.737307 kJ/mol
# Density = 2.241215 g / cm^3
# Si number density = 22.463278 Si / 1000 Ang^3
#
#
#
# Elastic Constant Matrix: (Units=GPa)
#
#
# Indices 1 2 3 4 5 6 
#
# 1 26.8749 11.8227 24.4380 0.0000 -6.8056 0.0000
# 2 11.8227 89.9186 17.7361 0.0000 -12.5582 0.0000
# 3 24.4380 17.7361 76.1696 0.0000 -1.3524 0.0000
# 4 0.0000 0.0000 0.0000 33.5228 0.0000 5.1448
# 5 -6.8056 -12.5582 -1.3524 0.0000 25.9189 0.0000
# 6 0.0000 0.0000 0.0000 5.1448 0.0000 7.9802
#
#
#
# Elastic Compliance Matrix: (Units=1/GPa)
#
#
# Indices 1 2 3 4 5 6 
#
# 1 0.057654 -0.002248 -0.017741 0.000000 0.013123 0.000000
# 2 -0.002248 0.012588 -0.002114 0.000000 0.005398 0.000000
# 3 -0.017741 -0.002114 0.019230 0.000000 -0.004679 0.000000
# 4 0.000000 0.000000 0.000000 0.033106 0.000000 -0.021343
# 5 0.013123 0.005398 -0.004679 0.000000 0.044399 0.000000
# 6 0.000000 0.000000 0.000000 -0.021343 0.000000 0.139070
#
#
# Mechanical properties :
#
#
# Convention : Reuss Voigt Hill
#
# Bulk Modulus (GPa) = 22.09203 33.43963 27.76583
# Shear Modulus (GPa) = 13.68580 22.74879 18.21729
#
# Velocity S-wave (km/s) = 2.47098 3.18576 2.85086
# Velocity P-wave (km/s) = 4.24230 5.33393 4.81912
#
# Compressibility (1/GPa) = 0.04526519
#
# Stress axis : x y z
#
# Youngs Moduli (GPa) = 17.34477 79.44276 52.00277
#
# Poissons Ratio (x) = 0.17861 0.92259
# Poissons Ratio (y) = 0.03900 0.10993
# Poissons Ratio (z) = 0.30772 0.16793
#
# Static dielectric constant tensor:
#      x y z
#    x 1.875770 0.000000 0.020290 
#    y 0.000000 1.829720 0.000000 
#    z 0.020290 0.000000 1.846670 
# 
# From -- ./inp_files/258485.got.cif
#   From: 2010.05.17/outbox.cif.g08.bks.cpg/sg12_130_cif.got.tgz:258485.got - 2010.06.03 13:09:07.
