data_PCOD9216798
_publ_section_title
;
Structure prediction by ZEFSAII (Michael W. Deem and Ramdas Pophale) SiO2 
 PCOD9216798
Probable space group: C 2/M
;
_chemical_formula_sum "Si O2"
_cell_formula_units_Z 56
_cell_length_a 11.559616
_cell_length_b 24.456836
_cell_length_c 11.559949
_cell_angle_alpha 90.000000
_cell_angle_beta 58.841540
_cell_angle_gamma 90.000000
_cell_volume 2796.670051
_symmetry_space_group_name_H-M "C 2/M"
_symmetry_group_IT_number 12
_symmetry_cell_setting 'monoclinic'
loop_
_space_group_symop_operation_xyz
x,y,z
-x,y,-z
-x,-y,-z
x,-y,z
1/2+x,1/2+y,z
1/2-x,1/2+y,-z
1/2-x,1/2-y,-z
1/2+x,1/2-y,z
loop_
_atom_site_type_symbol
_atom_site_label
_atom_site_fract_x
_atom_site_fract_y
_atom_site_fract_z
Si Si1 0.571051 0.658844 0.658106
Si Si2 0.845694 0.500000 0.531869
Si Si3 0.620403 0.781370 0.673122
Si Si4 0.287723 0.893122 0.414455
Si Si5 0.150781 0.876717 0.871173
Si Si6 0.745465 0.343350 0.211871
Si Si7 0.654368 0.500000 0.859739
Si Si8 0.335354 0.196054 0.931758
O O1 0.616082 0.722105 0.618515
O O2 0.633961 0.621806 0.525911
O O3 0.634162 0.636502 0.744626
O O4 0.410128 0.653894 0.743884
O O5 0.831271 0.446280 0.459382
O O6 0.722841 0.500000 0.691984
O O7 0.000000 0.500000 0.500000
O O8 0.632982 0.836948 0.591337
O O9 0.733771 0.790755 0.713959
O O10 0.481778 0.786861 0.815079
O O11 0.293543 0.891950 0.272103
O O12 0.196521 0.938896 0.873169
O O13 0.257352 0.837345 0.874735
O O14 0.000000 0.868103 0.000000
O O15 0.832729 0.337503 0.052138
O O16 0.500000 0.500000 0.000000
O O17 0.250000 0.250000 0.000000
#
# Coordination Sequence:
#
# PCOD9216798 Si02
#       8
#     8   4   8   8   8   8   4   8
#     4  12  20  43  64  98 138 175 222 282 335 420
#     4  12  26  52  75  99 143 183 242 288 356 435
#     4  10  24  38  63  99 137 177 224 270 351 414
#     4  10  26  44  67  95 133 179 225 285 342 419
#     4  11  22  38  68  99 134 175 233 288 345 403
#     4  10  23  40  63  96 138 176 226 274 340 411
#     4  10  24  44  68 103 133 172 239 297 339 405
#     4  12  21  40  66 100 139 184 223 286 347 414
#
# _framework density 20.023812
#
# number of rings (size 3 to 8) (size 9 to 14) (size 15 to 20)
#    0.857    0.286    4.286    2.143    2.000    0.000 
#    0.000    2.857    0.000    0.857    0.000    0.000 
#    0.000    0.000    0.000    0.000    0.000    0.000 
#
# Total GULP energy -155937.478230 kJ/mol
# GULP energy per Si atom -5569.195651 kJ/mol
# Density = 1.997824 g / cm^3
# Si number density = 20.023812 Si / 1000 Ang^3
#
#
#
# Elastic Constant Matrix: (Units=GPa)
#
#
# Indices 1 2 3 4 5 6 
#
# 1 74.8553 43.1586 22.4763 0.0000 9.8709 0.0000
# 2 43.1586 114.8745 21.0395 0.0000 -0.8904 0.0000
# 3 22.4763 21.0395 88.9881 0.0000 -0.9504 0.0000
# 4 0.0000 0.0000 0.0000 32.5900 0.0000 10.4032
# 5 9.8709 -0.8904 -0.9504 0.0000 25.1855 0.0000
# 6 0.0000 0.0000 0.0000 10.4032 0.0000 15.4258
#
#
#
# Elastic Compliance Matrix: (Units=1/GPa)
#
#
# Indices 1 2 3 4 5 6 
#
# 1 0.019268 -0.006683 -0.003371 0.000000 -0.007915 0.000000
# 2 -0.006683 0.011419 -0.000980 0.000000 0.002986 0.000000
# 3 -0.003371 -0.000980 0.012339 0.000000 0.001752 0.000000
# 4 0.000000 0.000000 0.000000 0.039102 0.000000 -0.026371
# 5 -0.007915 0.002986 0.001752 0.000000 0.042979 0.000000
# 6 0.000000 0.000000 0.000000 -0.026371 0.000000 0.082611
#
#
# Mechanical properties :
#
#
# Convention : Reuss Voigt Hill
#
# Bulk Modulus (GPa) = 47.71431 50.22963 48.97197
# Shear Modulus (GPa) = 21.11729 27.44316 24.28023
#
# Velocity S-wave (km/s) = 3.25100 3.70608 3.48597
# Velocity P-wave (km/s) = 6.16218 6.59187 6.38064
#
# Compressibility (1/GPa) = 0.02095808
#
# Stress axis : x y z
#
# Youngs Moduli (GPa) = 51.89878 87.57648 81.04178
#
# Poissons Ratio (x) = 0.58528 0.27321
# Poissons Ratio (y) = 0.34684 0.07941
# Poissons Ratio (z) = 0.17496 0.08581
#
# Static dielectric constant tensor:
#      x y z
#    x 1.712490 0.000000 -0.005560 
#    y 0.000000 1.725360 0.000000 
#    z -0.005560 0.000000 1.797980 
# 
# From -- ./inp_files/133892.got.cif
#   From: 2010.05.17/outbox.cif.g08.bks.cpg/sg12_67_cif.got.tgz:133892.got - 2010.06.03 13:09:07.
