data_PCOD9216006
_publ_section_title
;
Structure prediction by ZEFSAII (Michael W. Deem and Ramdas Pophale) SiO2 
 PCOD9216006
Probable space group: C 2/M
;
_chemical_formula_sum "Si O2"
_cell_formula_units_Z 46
_cell_length_a 9.424795
_cell_length_b 15.252412
_cell_length_c 17.390024
_cell_angle_alpha 90.000000
_cell_angle_beta 58.932199
_cell_angle_gamma 90.000000
_cell_volume 2141.248182
_symmetry_space_group_name_H-M "C 2/M"
_symmetry_group_IT_number 12
_symmetry_cell_setting 'monoclinic'
loop_
_space_group_symop_operation_xyz
x,y,z
-x,y,-z
-x,-y,-z
x,-y,z
1/2+x,1/2+y,z
1/2-x,1/2+y,-z
1/2-x,1/2-y,-z
1/2+x,1/2-y,z
loop_
_atom_site_type_symbol
_atom_site_label
_atom_site_fract_x
_atom_site_fract_y
_atom_site_fract_z
Si Si1 0.047163 0.812972 0.404756
Si Si2 0.609468 0.000000 0.293368
Si Si3 0.440617 0.181554 0.297618
Si Si4 0.890047 0.000000 0.410393
Si Si5 0.720883 0.647868 0.068081
Si Si6 0.500000 0.000000 0.500000
Si Si7 0.995582 0.697943 0.898011
Si Si8 0.011300 0.000000 0.797604
O O1 0.243054 0.825145 0.353217
O O2 0.000000 0.769371 0.500000
O O3 0.996121 0.751464 0.347205
O O4 0.960343 0.907952 0.423239
O O5 0.524764 0.911542 0.288729
O O6 0.804227 0.000000 0.219349
O O7 0.581920 0.000000 0.392198
O O8 0.486604 0.204599 0.197709
O O9 0.954250 0.000000 0.303485
O O10 0.693377 0.000000 0.480891
O O11 0.599204 0.712470 0.056266
O O12 0.599804 0.579944 0.142241
O O13 0.831694 0.687409 0.106867
O O14 0.867051 0.624272 0.966062
#
# Coordination Sequence:
#
# PCOD9216006 Si02
#       8
#     8   4   8   4   8   2   8   4
#     4  12  27  45  73 104 140 181 234 284 351 408
#     4  11  28  43  68  97 143 181 232 286 349 395
#     4  12  26  44  69 102 139 181 232 285 339 417
#     4  11  23  45  74 100 141 181 229 289 345 414
#     4  10  23  42  69  97 137 175 226 277 342 414
#     4  10  24  44  72  94 140 176 228 280 350 392
#     4  10  22  42  69  98 133 179 224 280 344 401
#     4  11  24  42  67 105 132 180 228 284 348 402
#
# _framework density 21.482797999999999
#
# number of rings (size 3 to 8) (size 9 to 14) (size 15 to 20)
#    0.000    1.043    0.000    5.478   10.957    2.783 
#    0.000    0.870    0.000    0.000    0.000    0.000 
#    0.000    0.000    0.000    0.000    0.000    0.000 
#
# Total GULP energy -128151.981258 kJ/mol
# GULP energy per Si atom -5571.825272 kJ/mol
# Density = 2.143390 g / cm^3
# Si number density = 21.482798 Si / 1000 Ang^3
#
#
#
# Elastic Constant Matrix: (Units=GPa)
#
#
# Indices 1 2 3 4 5 6 
#
# 1 197.4167 85.7232 69.3528 0.0000 -31.2842 -0.0001
# 2 85.7232 100.4853 26.8750 0.0000 -6.5104 0.0000
# 3 69.3528 26.8750 148.2745 0.0000 -5.6063 0.0000
# 4 0.0000 0.0000 0.0000 46.6998 0.0000 31.6729
# 5 -31.2842 -6.5104 -5.6063 0.0000 54.1794 0.0000
# 6 -0.0001 0.0000 0.0000 31.6729 0.0000 67.4915
#
#
#
# Elastic Compliance Matrix: (Units=1/GPa)
#
#
# Indices 1 2 3 4 5 6 
#
# 1 0.010219 -0.007550 -0.003235 0.000000 0.004658 0.000000
# 2 -0.007550 0.016099 0.000524 0.000000 -0.002371 0.000000
# 3 -0.003235 0.000524 0.008126 0.000000 -0.000964 0.000000
# 4 0.000000 0.000000 0.000000 0.031411 0.000000 -0.014741
# 5 0.004658 -0.002371 -0.000964 0.000000 0.020762 0.000000
# 6 0.000000 0.000000 0.000000 -0.014741 0.000000 0.021734
#
#
# Mechanical properties :
#
#
# Convention : Reuss Voigt Hill
#
# Bulk Modulus (GPa) = 71.83457 90.00871 80.92164
# Shear Modulus (GPa) = 37.44912 51.28917 44.36915
#
# Velocity S-wave (km/s) = 4.17971 4.89146 4.54952
# Velocity P-wave (km/s) = 7.53685 8.59598 8.08378
#
# Compressibility (1/GPa) = 0.01392087
#
# Stress axis : x y z
#
# Youngs Moduli (GPa) = 97.86014 62.11490 123.06305
#
# Poissons Ratio (x) = 0.46900 0.39810
# Poissons Ratio (y) = 0.73889 -0.06448
# Poissons Ratio (z) = 0.31657 -0.03254
#
# Static dielectric constant tensor:
#      x y z
#    x 1.758880 0.000000 0.012710 
#    y 0.000000 1.834230 0.000000 
#    z 0.012710 0.000000 1.834300 
# 
# From -- ./inp_files/256491.got.cif
#   From: 2010.05.17/outbox.cif.g08.bks.cpg/sg12_129_cif.got.tgz:256491.got - 2010.06.03 13:09:07.
