data_PCOD9216845
_publ_section_title
;
Structure prediction by ZEFSAII (Michael W. Deem and Ramdas Pophale) SiO2 
 PCOD9216845
Probable space group: C 2/M
;
_chemical_formula_sum "Si O2"
_cell_formula_units_Z 32
_cell_length_a 8.787993
_cell_length_b 17.159177
_cell_length_c 11.837713
_cell_angle_alpha 90.000000
_cell_angle_beta 132.338876
_cell_angle_gamma 90.000000
_cell_volume 1319.473911
_symmetry_space_group_name_H-M "C 2/M"
_symmetry_group_IT_number 12
_symmetry_cell_setting 'monoclinic'
loop_
_space_group_symop_operation_xyz
x,y,z
-x,y,-z
-x,-y,-z
x,-y,z
1/2+x,1/2+y,z
1/2-x,1/2+y,-z
1/2-x,1/2-y,-z
1/2+x,1/2-y,z
loop_
_atom_site_type_symbol
_atom_site_label
_atom_site_fract_x
_atom_site_fract_y
_atom_site_fract_z
Si Si1 0.081809 0.586684 0.421291
Si Si2 0.199678 0.288504 0.351602
Si Si3 0.922018 0.088006 0.301765
Si Si4 0.082418 0.820761 0.919241
O O1 0.004263 0.500000 0.361285
O O2 0.027122 0.647718 0.298482
O O3 0.330742 0.584407 0.556469
O O4 0.000000 0.613415 0.500000
O O5 0.250000 0.250000 0.500000
O O6 0.342767 0.341961 0.342259
O O7 0.116415 0.219852 0.235710
O O8 0.864201 0.111962 0.144893
O O9 0.845791 0.000000 0.292158
O O10 0.250000 0.750000 0.000000
O O11 0.000000 0.846606 0.000000
#
# Coordination Sequence:
#
# PCOD9216845 Si02
#       4
#     8   8   8   8
#     4  10  23  40  66 106 143 178 232 296 354 419
#     4  12  25  42  74 107 135 189 239 292 354 424
#     4  11  25  48  74 103 145 193 238 295 366 431
#     4  12  27  47  69 105 144 187 239 301 358 427
#
# _framework density 24.252089999999999
#
# number of rings (size 3 to 8) (size 9 to 14) (size 15 to 20)
#    0.000    0.750    5.000    1.500    7.000    2.500 
#    0.000    3.750    0.000    0.000    0.000    0.000 
#    0.000    0.000    0.000    0.000    0.000    0.000 
#
# Total GULP energy -89327.413614 kJ/mol
# GULP energy per Si atom -5582.963351 kJ/mol
# Density = 2.419689 g / cm^3
# Si number density = 24.252090 Si / 1000 Ang^3
#
#
#
# Elastic Constant Matrix: (Units=GPa)
#
#
# Indices 1 2 3 4 5 6 
#
# 1 115.9386 30.3792 25.8242 0.0000 -31.2409 0.0000
# 2 30.3792 98.5180 32.2202 0.0000 -9.7265 0.0000
# 3 25.8242 32.2202 89.2328 0.0000 -40.0452 0.0000
# 4 0.0000 0.0000 0.0000 24.1404 0.0000 -9.1125
# 5 -31.2409 -9.7265 -40.0452 0.0000 44.0362 0.0000
# 6 0.0000 0.0000 0.0000 -9.1125 0.0000 44.8534
#
#
#
# Elastic Compliance Matrix: (Units=1/GPa)
#
#
# Indices 1 2 3 4 5 6 
#
# 1 0.011547 -0.003305 0.002028 0.000000 0.009306 0.000000
# 2 -0.003305 0.012571 -0.005725 0.000000 -0.004775 0.000000
# 3 0.002028 -0.005725 0.021566 0.000000 0.019786 0.000000
# 4 0.000000 0.000000 0.000000 0.044865 0.000000 0.009115
# 5 0.009306 -0.004775 0.019786 0.000000 0.046249 0.000000
# 6 0.000000 0.000000 0.000000 0.009115 0.000000 0.024147
#
#
# Mechanical properties :
#
#
# Convention : Reuss Voigt Hill
#
# Bulk Modulus (GPa) = 31.56620 53.39296 42.47958
# Shear Modulus (GPa) = 26.95285 36.95707 31.95496
#
# Velocity S-wave (km/s) = 3.33733 3.90791 3.63384
# Velocity P-wave (km/s) = 5.28152 6.51353 5.92961
#
# Compressibility (1/GPa) = 0.03167946
#
# Stress axis : x y z
#
# Youngs Moduli (GPa) = 86.60082 79.55045 46.36857
#
# Poissons Ratio (x) = 0.26293 -0.09403
# Poissons Ratio (y) = 0.28623 0.26547
# Poissons Ratio (z) = -0.17562 0.45544
#
# Static dielectric constant tensor:
#      x y z
#    x 2.015000 0.000000 0.041010 
#    y 0.000000 1.989450 0.000000 
#    z 0.041010 0.000000 1.975700 
# 
# From -- ./inp_files/118687.got.cif
#   From: 2010.05.17/outbox.cif.g08.bks.cpg/sg12_60_cif.got.tgz:118687.got - 2010.06.03 13:09:07.
