data_PCOD9216657
_publ_section_title
;
Structure prediction by ZEFSAII (Michael W. Deem and Ramdas Pophale) SiO2 
 PCOD9216657
Probable space group: C 2/M
;
_chemical_formula_sum "Si O2"
_cell_formula_units_Z 36
_cell_length_a 12.263558
_cell_length_b 28.112784
_cell_length_c 7.942326
_cell_angle_alpha 90.000000
_cell_angle_beta 43.541674
_cell_angle_gamma 90.000000
_cell_volume 1886.309219
_symmetry_space_group_name_H-M "C 2/M"
_symmetry_group_IT_number 12
_symmetry_cell_setting 'monoclinic'
loop_
_space_group_symop_operation_xyz
x,y,z
-x,y,-z
-x,-y,-z
x,-y,z
1/2+x,1/2+y,z
1/2-x,1/2+y,-z
1/2-x,1/2-y,-z
1/2+x,1/2-y,z
loop_
_atom_site_type_symbol
_atom_site_label
_atom_site_fract_x
_atom_site_fract_y
_atom_site_fract_z
Si Si1 0.341362 0.947658 0.564433
Si Si2 0.065357 0.834443 0.618672
Si Si3 0.567631 0.236199 0.233564
Si Si4 0.500000 0.406354 0.000000
Si Si5 0.080366 0.642659 0.747314
O O1 0.500000 0.950851 0.500000
O O2 0.163989 0.936326 0.834005
O O3 0.380319 0.900686 0.416521
O O4 0.328830 0.000000 0.494468
O O5 0.014100 0.873573 0.815213
O O6 0.252994 0.834523 0.392697
O O7 0.000000 0.841510 0.500000
O O8 0.019598 0.782641 0.740412
O O9 0.500000 0.233447 0.500000
O O10 0.528291 0.185084 0.200389
O O11 0.750000 0.250000 0.000000
O O12 0.000000 0.621353 0.000000
#
# Coordination Sequence:
#
# PCOD9216657 Si02
#       5
#     8   8   8   4   8
#     4  10  23  42  67  93 122 164 216 269 326 382
#     4  10  23  39  59  94 129 169 210 257 317 384
#     4  11  24  38  61  92 129 170 212 262 314 393
#     4  10  23  40  72  90 130 170 213 264 324 392
#     4  11  23  38  63  90 126 164 209 265 319 386
#
# _framework density 19.084886999999998
#
# number of rings (size 3 to 8) (size 9 to 14) (size 15 to 20)
#    0.000    1.556    0.000    4.333   14.000    0.444 
#    0.000    0.000    0.000    3.333    0.000    0.000 
#    0.000    0.000    0.000    0.000    0.000    0.000 
#
# Total GULP energy -100213.206348 kJ/mol
# GULP energy per Si atom -5567.400353 kJ/mol
# Density = 1.904145 g / cm^3
# Si number density = 19.084887 Si / 1000 Ang^3
#
#
#
# Elastic Constant Matrix: (Units=GPa)
#
#
# Indices 1 2 3 4 5 6 
#
# 1 55.0771 41.1408 40.5147 0.0000 -3.7729 0.0000
# 2 41.1408 120.4454 38.5617 0.0000 -17.8110 0.0000
# 3 40.5147 38.5617 125.2384 0.0000 -24.2982 0.0000
# 4 0.0000 0.0000 0.0000 37.2746 0.0000 69.7119
# 5 -3.7729 -17.8110 -24.2982 0.0000 24.9531 0.0000
# 6 0.0000 0.0000 0.0000 69.7119 0.0000 950.9115
#
#
#
# Elastic Compliance Matrix: (Units=1/GPa)
#
#
# Indices 1 2 3 4 5 6 
#
# 1 0.031260 -0.009306 -0.009394 0.000000 -0.011063 0.000000
# 2 -0.009306 0.012451 0.000774 0.000000 0.008234 0.000000
# 3 -0.009394 0.000774 0.013090 0.000000 0.011879 0.000000
# 4 0.000000 0.000000 0.000000 0.031091 0.000000 -0.002279
# 5 -0.011063 0.008234 0.011879 0.000000 0.055847 0.000000
# 6 0.000000 0.000000 0.000000 -0.002279 0.000000 0.001219
#
#
# Mechanical properties :
#
#
# Convention : Reuss Voigt Hill
#
# Bulk Modulus (GPa) = 47.73262 60.13282 53.93272
# Shear Modulus (GPa) = 26.62545 214.66409 120.64477
#
# Velocity S-wave (km/s) = 3.73916 10.61710 7.95940
# Velocity P-wave (km/s) = 6.61111 13.48605 10.62027
#
# Compressibility (1/GPa) = 0.02095003
#
# Stress axis : x y z
#
# Youngs Moduli (GPa) = 31.99010 80.31548 76.39527
#
# Poissons Ratio (x) = 0.74741 0.71762
# Poissons Ratio (y) = 0.29770 -0.05915
# Poissons Ratio (z) = 0.30050 -0.06219
#
# Static dielectric constant tensor:
#      x y z
#    x 1.712650 0.000000 0.006430 
#    y 0.000000 1.686490 0.000000 
#    z 0.006430 0.000000 1.707310 
# 
# From -- ./inp_files/52135.got.cif
#   From: 2010.05.17/outbox.cif.g08.bks.cpg/sg12_27_cif.got.tgz:52135.got - 2010.06.03 13:09:07.
