data_PCOD9216111
_publ_section_title
;
Structure prediction by ZEFSAII (Michael W. Deem and Ramdas Pophale) SiO2 
 PCOD9216111
Probable space group: C 2/M
;
_chemical_formula_sum "Si O2"
_cell_formula_units_Z 56
_cell_length_a 21.266120
_cell_length_b 11.832105
_cell_length_c 11.634381
_cell_angle_alpha 90.000000
_cell_angle_beta 104.007735
_cell_angle_gamma 90.000000
_cell_volume 2840.423213
_symmetry_space_group_name_H-M "C 2/M"
_symmetry_group_IT_number 12
_symmetry_cell_setting 'monoclinic'
loop_
_space_group_symop_operation_xyz
x,y,z
-x,y,-z
-x,-y,-z
x,-y,z
1/2+x,1/2+y,z
1/2-x,1/2+y,-z
1/2-x,1/2-y,-z
1/2+x,1/2-y,z
loop_
_atom_site_type_symbol
_atom_site_label
_atom_site_fract_x
_atom_site_fract_y
_atom_site_fract_z
Si Si1 0.427164 0.134320 0.426878
Si Si2 0.658088 0.278848 0.222241
Si Si3 0.922610 0.369587 0.973662
Si Si4 0.525686 0.500000 0.830415
Si Si5 0.674797 0.718125 0.488141
Si Si6 0.404177 0.720157 0.191470
Si Si7 0.608864 0.500000 0.099742
Si Si8 0.715410 0.626869 0.738415
O O1 0.500000 0.162206 0.500000
O O2 0.371948 0.182145 0.487748
O O3 0.416160 0.191938 0.299165
O O4 0.421466 0.000000 0.416358
O O5 0.649737 0.315589 0.351226
O O6 0.650395 0.389024 0.141060
O O7 0.726817 0.216817 0.238910
O O8 0.606112 0.188084 0.153351
O O9 0.900813 0.500000 0.977898
O O10 0.905028 0.289016 0.073106
O O11 0.000000 0.369735 0.000000
O O12 0.543554 0.618416 0.779011
O O13 0.452076 0.500000 0.839685
O O14 0.573942 0.500000 0.961803
O O15 0.750000 0.750000 0.500000
O O16 0.678537 0.634306 0.598596
O O17 0.335558 0.661076 0.186862
O O18 0.739867 0.500000 0.765655
#
# Coordination Sequence:
#
# PCOD9216111 Si02
#       8
#     8   8   8   4   8   8   4   8
#     4  10  23  41  66  97 130 169 214 269 327 378
#     4  11  23  42  64  97 126 166 216 263 314 385
#     4  11  24  40  64  95 127 165 211 267 324 375
#     4  11  22  42  68  87 134 173 206 260 316 378
#     4   9  22  41  63  93 128 169 213 259 313 387
#     4  11  22  43  63  92 128 171 213 259 317 383
#     4  11  24  40  63  98 125 170 213 261 315 375
#     4  10  22  43  65  92 129 167 211 262 322 376
#
# _framework density 19.715371000000001
#
# number of rings (size 3 to 8) (size 9 to 14) (size 15 to 20)
#    0.000    1.571    2.143    1.714    5.000    3.429 
#   11.571    0.357    0.000    0.000    0.000    0.000 
#    0.000    0.000    0.000    0.000    0.000    0.000 
#
# Total GULP energy -156273.096319 kJ/mol
# GULP energy per Si atom -5581.182011 kJ/mol
# Density = 1.967050 g / cm^3
# Si number density = 19.715371 Si / 1000 Ang^3
#
#
#
# Elastic Constant Matrix: (Units=GPa)
#
#
# Indices 1 2 3 4 5 6 
#
# 1 81.7095 33.4655 17.7441 0.0000 -4.8614 0.0000
# 2 33.4655 110.2518 14.5309 0.0000 3.4044 0.0000
# 3 17.7441 14.5309 63.7587 0.0000 1.0555 0.0000
# 4 0.0000 0.0000 0.0000 56.7874 0.0000 -20.4877
# 5 -4.8614 3.4044 1.0555 0.0000 25.8869 0.0000
# 6 0.0000 0.0000 0.0000 -20.4877 0.0000 53.4180
#
#
#
# Elastic Compliance Matrix: (Units=1/GPa)
#
#
# Indices 1 2 3 4 5 6 
#
# 1 0.014866 -0.004193 -0.003239 0.000000 0.003475 0.000000
# 2 -0.004193 0.010567 -0.001206 0.000000 -0.002128 0.000000
# 3 -0.003239 -0.001206 0.016879 0.000000 -0.001138 0.000000
# 4 0.000000 0.000000 0.000000 0.020438 0.000000 0.007839
# 5 0.003475 -0.002128 -0.001138 0.000000 0.039608 0.000000
# 6 0.000000 0.000000 0.000000 0.007839 0.000000 0.021727
#
#
# Mechanical properties :
#
#
# Convention : Reuss Voigt Hill
#
# Bulk Modulus (GPa) = 39.94202 43.02234 41.48218
# Shear Modulus (GPa) = 33.39854 39.88376 36.64115
#
# Velocity S-wave (km/s) = 4.12033 4.50263 4.31572
# Velocity P-wave (km/s) = 6.55282 6.99290 6.77644
#
# Compressibility (1/GPa) = 0.02503629
#
# Stress axis : x y z
#
# Youngs Moduli (GPa) = 67.26822 94.62984 59.24391
#
# Poissons Ratio (x) = 0.39676 0.19190
# Poissons Ratio (y) = 0.28204 0.07147
# Poissons Ratio (z) = 0.21789 0.11415
#
# Static dielectric constant tensor:
#      x y z
#    x 1.651150 0.000000 0.004870 
#    y 0.000000 1.679380 0.000000 
#    z 0.004870 0.000000 1.702700 
# 
# From -- ./inp_files/165742.got.cif
#   From: 2010.05.17/outbox.cif.g08.bks.cpg/sg12_83_cif.got.tgz:165742.got - 2010.06.03 13:09:07.
