data_PCOD9216741
_publ_section_title
;
Structure prediction by ZEFSAII (Michael W. Deem and Ramdas Pophale) SiO2 
 PCOD9216741
Probable space group: C 2/M
;
_chemical_formula_sum "Si O2"
_cell_formula_units_Z 40
_cell_length_a 14.017444
_cell_length_b 17.479579
_cell_length_c 7.080850
_cell_angle_alpha 90.000000
_cell_angle_beta 62.542308
_cell_angle_gamma 90.000000
_cell_volume 1539.504300
_symmetry_space_group_name_H-M "C 2/M"
_symmetry_group_IT_number 12
_symmetry_cell_setting 'monoclinic'
loop_
_space_group_symop_operation_xyz
x,y,z
-x,y,-z
-x,-y,-z
x,-y,z
1/2+x,1/2+y,z
1/2-x,1/2+y,-z
1/2-x,1/2-y,-z
1/2+x,1/2-y,z
loop_
_atom_site_type_symbol
_atom_site_label
_atom_site_fract_x
_atom_site_fract_y
_atom_site_fract_z
Si Si1 0.659269 0.865778 0.396668
Si Si2 0.340817 0.727069 0.146016
Si Si3 0.606014 0.415110 0.166036
Si Si4 0.045071 0.374083 0.144564
Si Si5 0.135662 0.121692 0.564885
O O1 0.712220 0.783939 0.283614
O O2 0.625857 0.905509 0.230656
O O3 0.558498 0.858597 0.627759
O O4 0.755618 0.903797 0.428438
O O5 0.381492 0.704542 0.318618
O O6 0.370005 0.652572 0.998406
O O7 0.392958 0.801323 0.007767
O O8 0.645342 0.500000 0.082415
O O9 0.476554 0.419243 0.294045
O O10 0.650081 0.388812 0.329519
O O11 0.000000 0.415992 0.000000
#
# Coordination Sequence:
#
# PCOD9216741 Si02
#       5
#     8   8   8   8   8
#     4   9  24  39  57  92 127 166 209 253 294 366
#     4  10  23  40  59  92 131 163 201 257 305 361
#     4  11  22  40  67  93 124 161 202 255 325 380
#     4  11  22  40  61  89 127 175 208 243 302 366
#     4   9  21  38  57  87 130 160 194 256 303 359
#
# _framework density 25.982389999999999
#
# number of rings (size 3 to 8) (size 9 to 14) (size 15 to 20)
#    1.200    0.800    0.000    3.600    2.800    9.600 
#    0.000    0.000    0.000    0.000    0.000   30.800 
#    0.000    0.000    0.000    0.000    0.000    0.000 
#
# Total GULP energy -111550.932223 kJ/mol
# GULP energy per Si atom -5577.546611 kJ/mol
# Density = 2.592325 g / cm^3
# Si number density = 25.982390 Si / 1000 Ang^3
#
#
#
# Elastic Constant Matrix: (Units=GPa)
#
#
# Indices 1 2 3 4 5 6 
#
# 1 197.3359 25.7204 54.5790 0.0000 35.4961 0.0000
# 2 25.7204 108.2723 43.6353 0.0000 15.6509 0.0000
# 3 54.5790 43.6353 134.0455 0.0000 13.8775 0.0000
# 4 0.0000 0.0000 0.0000 107.0767 0.0000 30.7539
# 5 35.4961 15.6509 13.8775 0.0000 60.1364 0.0000
# 6 0.0000 0.0000 0.0000 30.7539 0.0000 6.3742
#
#
#
# Elastic Compliance Matrix: (Units=1/GPa)
#
#
# Indices 1 2 3 4 5 6 
#
# 1 0.006255 -0.000156 -0.002170 0.000000 -0.003151 0.000000
# 2 -0.000156 0.010879 -0.003272 0.000000 -0.001984 0.000000
# 3 -0.002170 -0.003272 0.009413 0.000000 -0.000040 0.000000
# 4 0.000000 0.000000 0.000000 -0.024211 0.000000 0.116814
# 5 -0.003151 -0.001984 -0.000040 0.000000 0.019014 0.000000
# 6 0.000000 0.000000 0.000000 0.116814 0.000000 -0.406714
#
#
# Mechanical properties :
#
#
# Convention : Reuss Voigt Hill
#
# Bulk Modulus (GPa) = 65.14617 76.39143 70.76880
# Shear Modulus (GPa) = -13.54823 55.76540 21.10859
#
# Velocity S-wave (km/s) = -2.28598 4.63782 2.85339
# Velocity P-wave (km/s) = 4.26146 7.62524 6.17674
#
# Compressibility (1/GPa) = 0.01535010
#
# Stress axis : x y z
#
# Youngs Moduli (GPa) = 159.88104 91.92339 106.23632
#
# Poissons Ratio (x) = 0.01434 0.23051
# Poissons Ratio (y) = 0.02493 0.34765
# Poissons Ratio (z) = 0.34690 0.30081
#
# Static dielectric constant tensor:
#      x y z
#    x 2.122420 0.000000 -0.023060 
#    y 0.000000 2.011950 0.000000 
#    z -0.023060 0.000000 2.086150 
# 
# From -- ./inp_files/62125.got.cif
#   From: 2010.05.17/outbox.cif.g08.bks.cpg/sg12_32_cif.got.tgz:62125.got - 2010.06.03 13:09:07.
