data_PCOD9216817
_publ_section_title
;
Structure prediction by ZEFSAII (Michael W. Deem and Ramdas Pophale) SiO2 
 PCOD9216817
Probable space group: C 2/M
;
_chemical_formula_sum "Si O2"
_cell_formula_units_Z 56
_cell_length_a 5.241090
_cell_length_b 33.045937
_cell_length_c 17.244213
_cell_angle_alpha 90.000000
_cell_angle_beta 113.531279
_cell_angle_gamma 90.000000
_cell_volume 2738.278938
_symmetry_space_group_name_H-M "C 2/M"
_symmetry_group_IT_number 12
_symmetry_cell_setting 'monoclinic'
loop_
_space_group_symop_operation_xyz
x,y,z
-x,y,-z
-x,-y,-z
x,-y,z
1/2+x,1/2+y,z
1/2-x,1/2+y,-z
1/2-x,1/2-y,-z
1/2+x,1/2-y,z
loop_
_atom_site_type_symbol
_atom_site_label
_atom_site_fract_x
_atom_site_fract_y
_atom_site_fract_z
Si Si1 0.560280 0.434300 0.732063
Si Si2 0.339477 0.097761 0.908492
Si Si3 0.761292 0.570235 0.587953
Si Si4 0.858381 0.725521 0.398104
Si Si5 0.864120 0.500000 0.348327
Si Si6 0.284932 0.350792 0.873375
Si Si7 0.500000 0.722007 0.000000
Si Si8 0.829611 0.360060 0.317611
O O1 0.775225 0.431236 0.828110
O O2 0.675567 0.447427 0.662429
O O3 0.311752 0.464586 0.719874
O O4 0.435253 0.389503 0.705390
O O5 0.549553 0.132034 0.901973
O O6 0.049231 0.118571 0.899657
O O7 0.500000 0.078269 0.000000
O O8 0.500000 0.574482 0.500000
O O9 0.971570 0.536143 0.584921
O O10 0.913397 0.612796 0.621255
O O11 0.579402 0.751479 0.371329
O O12 0.801913 0.680737 0.361634
O O13 0.000000 0.723121 0.500000
O O14 0.393068 0.308226 0.919293
O O15 0.155621 0.349727 0.771629
O O16 0.750000 0.750000 0.000000
#
# Coordination Sequence:
#
# PCOD9216817 Si02
#       8
#     8   8   8   8   4   8   4   8
#     4  10  23  40  64  96 129 174 220 272 330 405
#     4  11  20  40  68  92 124 168 224 264 321 384
#     4  11  23  38  66  97 130 177 223 275 333 400
#     4  10  24  41  62  89 126 172 215 272 334 382
#     4  10  23  43  60  96 142 173 210 276 342 399
#     4  11  22  40  62  91 127 169 211 273 324 390
#     4  12  24  38  60  96 132 165 210 269 340 412
#     4  10  24  39  63  93 129 168 232 273 330 395
#
# _framework density 20.450800999999998
#
# number of rings (size 3 to 8) (size 9 to 14) (size 15 to 20)
#    0.000    1.429    2.857    1.500    4.000    4.000 
#    0.000    0.357    0.000    0.857    0.000    0.000 
#    0.000    0.000    0.000    0.000    0.000    0.000 
#
# Total GULP energy -155924.214889 kJ/mol
# GULP energy per Si atom -5568.721960 kJ/mol
# Density = 2.040425 g / cm^3
# Si number density = 20.450801 Si / 1000 Ang^3
#
#
#
# Elastic Constant Matrix: (Units=GPa)
#
#
# Indices 1 2 3 4 5 6 
#
# 1 66.3465 15.9884 28.4550 0.0000 11.8702 0.0000
# 2 15.9884 113.0753 45.1756 0.0000 14.6163 0.0000
# 3 28.4550 45.1756 137.5485 0.0000 24.8603 0.0000
# 4 0.0000 0.0000 0.0000 -13.3822 0.0000 4.3915
# 5 11.8702 14.6163 24.8603 0.0000 27.2587 0.0000
# 6 0.0000 0.0000 0.0000 4.3915 0.0000 42.6950
#
#
#
# Elastic Compliance Matrix: (Units=1/GPa)
#
#
# Indices 1 2 3 4 5 6 
#
# 1 0.017171 -0.000844 -0.002401 0.000000 -0.004835 0.000000
# 2 -0.000844 0.010414 -0.002757 0.000000 -0.002702 0.000000
# 3 -0.002401 -0.002757 0.009838 0.000000 -0.006448 0.000000
# 4 0.000000 0.000000 0.000000 -0.072286 0.000000 0.007435
# 5 -0.004835 -0.002702 -0.006448 0.000000 0.046120 0.000000
# 6 0.000000 0.000000 0.000000 0.007435 0.000000 0.022657
#
#
# Mechanical properties :
#
#
# Convention : Reuss Voigt Hill
#
# Bulk Modulus (GPa) = 39.34227 55.13427 47.23827
# Shear Modulus (GPa) = 91.92717 26.47105 59.19911
#
# Velocity S-wave (km/s) = 6.71178 3.60165 5.38609
# Velocity P-wave (km/s) = 8.90748 6.65686 7.86311
#
# Compressibility (1/GPa) = 0.02541796
#
# Stress axis : x y z
#
# Youngs Moduli (GPa) = 58.23926 96.02616 101.64709
#
# Poissons Ratio (x) = 0.08100 0.24408
# Poissons Ratio (y) = 0.04913 0.28028
# Poissons Ratio (z) = 0.13984 0.26478
#
# Static dielectric constant tensor:
#      x y z
#    x 1.822310 0.000000 -0.025520 
#    y 0.000000 1.791290 0.000000 
#    z -0.025520 0.000000 1.766830 
# 
# From -- ./inp_files/254057.got.cif
#   From: 2010.05.17/outbox.cif.g08.bks.cpg/sg12_128_cif.got.tgz:254057.got - 2010.06.03 13:09:07.
