data_PCOD9216005
_publ_section_title
;
Structure prediction by ZEFSAII (Michael W. Deem and Ramdas Pophale) SiO2 
 PCOD9216005
Probable space group: C 2/M
;
_chemical_formula_sum "Si O2"
_cell_formula_units_Z 64
_cell_length_a 9.490148
_cell_length_b 31.597086
_cell_length_c 15.014607
_cell_angle_alpha 90.000000
_cell_angle_beta 45.319463
_cell_angle_gamma 90.000000
_cell_volume 3201.304794
_symmetry_space_group_name_H-M "C 2/M"
_symmetry_group_IT_number 12
_symmetry_cell_setting 'monoclinic'
loop_
_space_group_symop_operation_xyz
x,y,z
-x,y,-z
-x,-y,-z
x,-y,z
1/2+x,1/2+y,z
1/2-x,1/2+y,-z
1/2-x,1/2-y,-z
1/2+x,1/2-y,z
loop_
_atom_site_type_symbol
_atom_site_label
_atom_site_fract_x
_atom_site_fract_y
_atom_site_fract_z
Si Si1 0.719972 0.450965 0.869042
Si Si2 0.463825 0.241760 0.727907
Si Si3 0.553915 0.630315 0.167524
Si Si4 0.872178 0.831231 0.687333
Si Si5 0.115165 0.395167 0.364308
Si Si6 0.810735 0.548647 0.021549
Si Si7 0.800379 0.333595 0.416069
Si Si8 0.048461 0.213355 0.880447
O O1 0.695547 0.500000 0.854544
O O2 0.816466 0.425831 0.745574
O O3 0.500000 0.436327 0.000000
O O4 0.856699 0.448612 0.896017
O O5 0.398804 0.282032 0.699333
O O6 0.651140 0.216428 0.607160
O O7 0.283969 0.209299 0.789535
O O8 0.494600 0.258222 0.816725
O O9 0.671792 0.647372 0.199902
O O10 0.323836 0.626120 0.297831
O O11 0.646347 0.584609 0.108636
O O12 0.551003 0.667368 0.093820
O O13 0.713235 0.842514 0.683397
O O14 0.087107 0.843051 0.552702
O O15 0.000000 0.414931 0.500000
O O16 0.962990 0.360729 0.393972
O O17 0.740394 0.500000 0.068562
O O18 0.000000 0.555640 0.000000
O O19 0.000000 0.232031 0.000000
#
# Coordination Sequence:
#
# PCOD9216005 Si02
#       8
#     8   8   8   8   8   8   8   8
#     4  10  22  42  69  98 130 169 214 264 321 391
#     4  11  21  41  60  84 117 164 219 271 324 380
#     4  11  23  40  63  95 132 166 215 268 334 389
#     4  10  23  40  58  88 120 166 220 268 320 383
#     4  12  24  40  65  98 136 172 216 271 332 393
#     4  10  23  44  71 100 130 170 220 267 319 395
#     4  11  22  39  62  85 122 166 217 270 322 381
#     4  11  24  39  59  87 126 166 214 270 332 390
#
# _framework density 19.991848000000001
#
# number of rings (size 3 to 8) (size 9 to 14) (size 15 to 20)
#    0.000    1.250    5.000    0.750    3.500    0.250 
#    2.250    1.250    0.000    0.000    0.000    4.375 
#    0.000    0.000    0.000    0.000    0.000    0.000 
#
# Total GULP energy -178298.078831 kJ/mol
# GULP energy per Si atom -5571.814963 kJ/mol
# Density = 1.994635 g / cm^3
# Si number density = 19.991848 Si / 1000 Ang^3
#
#
#
# Elastic Constant Matrix: (Units=GPa)
#
#
# Indices 1 2 3 4 5 6 
#
# 1 115.4950 31.6473 27.1338 0.0000 18.4795 0.0000
# 2 31.6473 86.1938 33.5914 0.0000 6.4826 0.0000
# 3 27.1338 33.5914 70.0028 0.0000 16.0214 0.0000
# 4 0.0000 0.0000 0.0000 -79.5148 0.0000 -35.9209
# 5 18.4795 6.4826 16.0214 0.0000 25.7087 0.0000
# 6 0.0000 0.0000 0.0000 -35.9209 0.0000 14.8650
#
#
#
# Elastic Compliance Matrix: (Units=1/GPa)
#
#
# Indices 1 2 3 4 5 6 
#
# 1 0.010773 -0.002969 -0.001341 0.000000 -0.006159 0.000000
# 2 -0.002969 0.015102 -0.006663 0.000000 0.002479 0.000000
# 3 -0.001341 -0.006663 0.020291 0.000000 -0.010001 0.000000
# 4 0.000000 0.000000 0.000000 -0.006013 0.000000 -0.014529
# 5 -0.006159 0.002479 -0.010001 0.000000 0.048932 0.000000
# 6 0.000000 0.000000 0.000000 -0.014529 0.000000 0.032162
#
#
# Mechanical properties :
#
#
# Convention : Reuss Voigt Hill
#
# Bulk Modulus (GPa) = 41.29056 50.71516 46.00286
# Shear Modulus (GPa) = 33.05378 4.16639 18.61008
#
# Velocity S-wave (km/s) = 4.07057 1.44519 3.05435
# Velocity P-wave (km/s) = 6.54150 5.31110 5.95814
#
# Compressibility (1/GPa) = 0.02421861
#
# Stress axis : x y z
#
# Youngs Moduli (GPa) = 92.82858 66.21445 49.28197
#
# Poissons Ratio (x) = 0.19662 0.06609
# Poissons Ratio (y) = 0.27565 0.32838
# Poissons Ratio (z) = 0.12449 0.44121
#
# Static dielectric constant tensor:
#      x y z
#    x 1.744160 0.000000 -0.006150 
#    y 0.000000 1.725500 0.000000 
#    z -0.006150 0.000000 1.742550 
# 
# From -- ./inp_files/201254.got.cif
#   From: 2010.05.17/outbox.cif.g08.bks.cpg/sg12_101_cif.got.tgz:201254.got - 2010.06.03 13:09:07.
