data_PCOD9216844
_publ_section_title
;
Structure prediction by ZEFSAII (Michael W. Deem and Ramdas Pophale) SiO2 
 PCOD9216844
Probable space group: C 2/M
;
_chemical_formula_sum "Si O2"
_cell_formula_units_Z 48
_cell_length_a 14.276141
_cell_length_b 22.727089
_cell_length_c 9.882373
_cell_angle_alpha 90.000000
_cell_angle_beta 140.132313
_cell_angle_gamma 90.000000
_cell_volume 2055.347903
_symmetry_space_group_name_H-M "C 2/M"
_symmetry_group_IT_number 12
_symmetry_cell_setting 'monoclinic'
loop_
_space_group_symop_operation_xyz
x,y,z
-x,y,-z
-x,-y,-z
x,-y,z
1/2+x,1/2+y,z
1/2-x,1/2+y,-z
1/2-x,1/2-y,-z
1/2+x,1/2-y,z
loop_
_atom_site_type_symbol
_atom_site_label
_atom_site_fract_x
_atom_site_fract_y
_atom_site_fract_z
Si Si1 0.813895 0.753030 0.923680
Si Si2 0.414199 0.568451 0.666077
Si Si3 0.257064 0.364221 0.266065
Si Si4 0.237610 0.432273 0.965526
Si Si5 0.279915 0.131068 0.316904
Si Si6 0.381095 0.798842 0.660521
O O1 0.716591 0.704170 0.739004
O O2 0.807651 0.816392 0.852086
O O3 0.980043 0.734192 0.128787
O O4 0.750000 0.750000 0.000000
O O5 0.370967 0.500000 0.609060
O O6 0.378687 0.600697 0.484591
O O7 0.588514 0.571020 0.875195
O O8 0.325289 0.597907 0.691557
O O9 0.214735 0.395449 0.078689
O O10 0.141558 0.352273 0.257785
O O11 0.198355 0.500000 0.947575
O O12 0.167222 0.409092 0.748290
O O13 0.396438 0.167360 0.535858
O O14 0.250000 0.750000 0.500000
#
# Coordination Sequence:
#
# PCOD9216844 Si02
#       6
#     8   8   8   8   8   8
#     4  12  26  44  69 106 138 181 230 279 347 417
#     4  10  23  40  66 102 138 180 235 290 343 401
#     4  11  23  40  64  95 138 178 218 280 343 407
#     4  11  23  40  66 101 137 181 238 290 338 402
#     4  11  24  40  68  99 140 181 219 294 350 409
#     4  11  26  42  67 102 143 179 224 275 346 421
#
# _framework density 23.35371
#
# number of rings (size 3 to 8) (size 9 to 14) (size 15 to 20)
#    0.000    1.000    3.333    2.500    7.000    4.667 
#    0.000    0.000    0.000   22.000    0.000    0.000 
#    0.000    0.000    0.000    0.000    0.000    0.000 
#
# Total GULP energy -134058.966134 kJ/mol
# GULP energy per Si atom -5585.790256 kJ/mol
# Density = 2.330056 g / cm^3
# Si number density = 23.353710 Si / 1000 Ang^3
#
#
#
# Elastic Constant Matrix: (Units=GPa)
#
#
# Indices 1 2 3 4 5 6 
#
# 1 52.0866 25.4841 32.4856 0.0000 -9.2315 0.0000
# 2 25.4841 153.1485 51.9318 0.0000 -15.4249 0.0000
# 3 32.4856 51.9318 140.5033 0.0000 -39.1000 0.0000
# 4 0.0000 0.0000 0.0000 42.7211 0.0000 -10.6465
# 5 -9.2315 -15.4249 -39.1000 0.0000 37.1869 0.0000
# 6 0.0000 0.0000 0.0000 -10.6465 0.0000 30.4232
#
#
#
# Elastic Compliance Matrix: (Units=1/GPa)
#
#
# Indices 1 2 3 4 5 6 
#
# 1 0.023138 -0.002327 -0.004467 0.000000 0.000082 0.000000
# 2 -0.002327 0.007701 -0.002234 0.000000 0.000268 0.000000
# 3 -0.004467 -0.002234 0.011888 0.000000 0.010464 0.000000
# 4 0.000000 0.000000 0.000000 0.025644 0.000000 0.008974
# 5 0.000082 0.000268 0.010464 0.000000 0.038025 0.000000
# 6 0.000000 0.000000 0.000000 0.008974 0.000000 0.036010
#
#
# Mechanical properties :
#
#
# Convention : Reuss Voigt Hill
#
# Bulk Modulus (GPa) = 40.53317 62.83792 51.68555
# Shear Modulus (GPa) = 29.64112 37.78871 33.71492
#
# Velocity S-wave (km/s) = 3.56648 4.02693 3.80368
# Velocity P-wave (km/s) = 5.86120 6.97044 6.43974
#
# Compressibility (1/GPa) = 0.02467115
#
# Stress axis : x y z
#
# Youngs Moduli (GPa) = 43.21941 129.84740 84.12176
#
# Poissons Ratio (x) = 0.30219 0.37574
# Poissons Ratio (y) = 0.10058 0.18792
# Poissons Ratio (z) = 0.19304 0.29006
#
# Static dielectric constant tensor:
#      x y z
#    x 1.534230 0.000000 0.498370 
#    y 0.000000 1.834330 0.000000 
#    z 0.498370 0.000000 1.255120 
# 
# From -- ./inp_files/98457.got.cif
#   From: 2010.05.17/outbox.cif.g08.bks.cpg/sg12_50_cif.got.tgz:98457.got - 2010.06.03 13:09:07.
