data_PCOD9216326
_publ_section_title
;
Structure prediction by ZEFSAII (Michael W. Deem and Ramdas Pophale) SiO2 
 PCOD9216326
Probable space group: C 2/M
;
_chemical_formula_sum "Si O2"
_cell_formula_units_Z 46
_cell_length_a 21.377112
_cell_length_b 17.680490
_cell_length_c 18.920767
_cell_angle_alpha 90.000000
_cell_angle_beta 18.816182
_cell_angle_gamma 90.000000
_cell_volume 2306.514994
_symmetry_space_group_name_H-M "C 2/M"
_symmetry_group_IT_number 12
_symmetry_cell_setting 'monoclinic'
loop_
_space_group_symop_operation_xyz
x,y,z
-x,y,-z
-x,-y,-z
x,-y,z
1/2+x,1/2+y,z
1/2-x,1/2+y,-z
1/2-x,1/2-y,-z
1/2+x,1/2-y,z
loop_
_atom_site_type_symbol
_atom_site_label
_atom_site_fract_x
_atom_site_fract_y
_atom_site_fract_z
Si Si1 0.814165 0.412337 0.931427
Si Si2 0.000000 0.812534 0.500000
Si Si3 0.344581 0.418692 0.055738
Si Si4 0.500000 0.000000 0.500000
Si Si5 0.063020 0.910177 0.571216
Si Si6 0.865140 0.681033 0.342051
Si Si7 0.097992 0.755759 0.966942
O O1 0.874907 0.500000 0.870793
O O2 0.716279 0.402288 0.959746
O O3 0.999370 0.360510 0.746069
O O4 0.649158 0.399235 0.166731
O O5 0.929496 0.865488 0.510665
O O6 0.824889 0.761657 0.716537
O O7 0.455546 0.500000 0.939288
O O8 0.445599 0.344769 0.977069
O O9 0.149819 0.435894 0.307757
O O10 0.217667 0.875820 0.460815
O O11 0.093798 0.000000 0.528736
O O12 0.750000 0.750000 0.500000
O O13 0.007153 0.713356 0.130282
O O14 0.000000 0.728024 0.000000
#
# Coordination Sequence:
#
# PCOD9216326 Si02
#       7
#     8   4   8   2   8   8   8
#     4  10  22  44  68  93 132 177 218 270 330 388
#     4  12  24  44  69  97 132 174 228 274 332 394
#     4   9  21  40  66  92 126 174 219 263 325 395
#     4   8  18  40  62  98 120 164 228 256 312 382
#     4  11  24  44  69  97 131 177 225 272 328 398
#     4  12  26  41  65 105 134 172 222 271 333 397
#     4  12  25  43  67  99 135 175 217 281 336 389
#
# _framework density 19.943508999999999
#
# number of rings (size 3 to 8) (size 9 to 14) (size 15 to 20)
#    0.522    0.696    3.478    2.348    2.435    3.130 
#    0.000    1.739    0.000    0.000    0.000    0.000 
#    0.000    0.000    0.000    0.000    0.000    0.000 
#
# Total GULP energy -128192.102018 kJ/mol
# GULP energy per Si atom -5573.569653 kJ/mol
# Density = 1.989812 g / cm^3
# Si number density = 19.943509 Si / 1000 Ang^3
#
#
#
# Elastic Constant Matrix: (Units=GPa)
#
#
# Indices 1 2 3 4 5 6 
#
# 1 23.4791 12.9175 5.3701 -0.0439 4.2695 0.0358
# 2 12.9175 78.5160 23.1986 0.0251 -12.3358 -0.0222
# 3 5.3701 23.1986 65.4773 -0.0084 -0.7173 -0.0098
# 4 -0.0439 0.0251 -0.0084 -28.6521 0.0114 46.8252
# 5 4.2695 -12.3358 -0.7173 0.0114 21.6061 -0.0084
# 6 0.0358 -0.0222 -0.0098 46.8252 -0.0084 -14.7520
#
#
#
# Elastic Compliance Matrix: (Units=1/GPa)
#
#
# Indices 1 2 3 4 5 6 
#
# 1 0.051733 -0.010939 -0.000548 -0.000036 -0.016487 0.000036
# 2 -0.010939 0.018052 -0.005364 0.000013 0.012290 -0.000016
# 3 -0.000548 -0.005364 0.017192 0.000004 -0.002384 0.000008
# 4 -0.000036 0.000013 0.000004 0.008335 0.000021 0.026456
# 5 -0.016487 0.012290 -0.002384 0.000021 0.056479 -0.000024
# 6 0.000036 -0.000016 0.000008 0.026456 -0.000024 0.016188
#
#
# Mechanical properties :
#
#
# Convention : Reuss Voigt Hill
#
# Bulk Modulus (GPa) = 18.77079 27.82717 23.29898
# Shear Modulus (GPa) = 22.78545 4.03949 13.41247
#
# Velocity S-wave (km/s) = 3.38376 1.42473 2.59612
# Velocity P-wave (km/s) = 4.96979 4.08531 4.54910
#
# Compressibility (1/GPa) = 0.05327427
#
# Stress axis : x y z
#
# Youngs Moduli (GPa) = 19.33011 55.39626 58.16758
#
# Poissons Ratio (x) = 0.60601 0.03185
# Poissons Ratio (y) = 0.21146 0.31201
# Poissons Ratio (z) = 0.01058 0.29714
#
# Static dielectric constant tensor:
#      x y z
#    x 1.734450 -0.000010 -0.016150 
#    y -0.000010 1.714870 0.000010 
#    z -0.016150 0.000010 1.675470 
# 
# From -- ./inp_files/285377.got.cif
#   From: 2010.05.17/outbox.cif.g08.bks.cpg/sg12_143_cif.got.tgz:285377.got - 2010.06.03 13:09:07.
