data_PCOD9216710
_publ_section_title
;
Structure prediction by ZEFSAII (Michael W. Deem and Ramdas Pophale) SiO2 
 PCOD9216710
Probable space group: C 2/M
;
_chemical_formula_sum "Si O2"
_cell_formula_units_Z 44
_cell_length_a 17.180489
_cell_length_b 12.016990
_cell_length_c 12.297914
_cell_angle_alpha 90.000000
_cell_angle_beta 124.072518
_cell_angle_gamma 90.000000
_cell_volume 2103.127575
_symmetry_space_group_name_H-M "C 2/M"
_symmetry_group_IT_number 12
_symmetry_cell_setting 'monoclinic'
loop_
_space_group_symop_operation_xyz
x,y,z
-x,y,-z
-x,-y,-z
x,-y,z
1/2+x,1/2+y,z
1/2-x,1/2+y,-z
1/2-x,1/2-y,-z
1/2+x,1/2-y,z
loop_
_atom_site_type_symbol
_atom_site_label
_atom_site_fract_x
_atom_site_fract_y
_atom_site_fract_z
Si Si1 0.215819 0.000000 0.161205
Si Si2 0.336179 0.633389 0.296267
Si Si3 0.523213 0.720339 0.781183
Si Si4 0.613140 0.000000 0.580877
Si Si5 0.653423 0.775027 0.486466
Si Si6 0.953330 0.000000 0.843148
Si Si7 0.817124 0.245125 0.949038
O O1 0.158815 0.000000 0.229580
O O2 0.183028 0.885154 0.082004
O O3 0.328273 0.000000 0.260573
O O4 0.338652 0.500000 0.290428
O O5 0.408174 0.687719 0.265446
O O6 0.361340 0.677748 0.435591
O O7 0.233245 0.682192 0.182791
O O8 0.433528 0.782000 0.663964
O O9 0.485622 0.607213 0.804077
O O10 0.582237 0.778789 0.923683
O O11 0.500000 0.000000 0.500000
O O12 0.649369 0.110404 0.549674
O O13 0.750000 0.750000 0.500000
O O14 0.000000 0.000000 0.000000
O O15 0.750000 0.250000 0.000000
#
# Coordination Sequence:
#
# PCOD9216710 Si02
#       7
#     4   8   8   4   8   4   8
#     4  12  22  44  68  98 137 173 234 292 344 411
#     4  11  24  45  68 100 138 180 228 282 350 421
#     4  11  23  43  67 104 131 178 232 281 349 412
#     4  12  26  48  71 100 137 189 237 276 348 435
#     4  12  28  46  71 100 141 182 230 291 354 412
#     4  12  22  38  70 104 135 170 227 295 345 404
#     4  10  23  39  67  97 134 178 226 284 344 410
#
# _framework density 20.921223000000001
#
# number of rings (size 3 to 8) (size 9 to 14) (size 15 to 20)
#    0.000    0.727    4.545    2.727    8.909    0.727 
#    1.636    0.000    0.000    1.091    0.000    0.000 
#    0.000    0.000    0.000    0.000    0.000    0.000 
#
# Total GULP energy -122907.081064 kJ/mol
# GULP energy per Si atom -5586.685503 kJ/mol
# Density = 2.087361 g / cm^3
# Si number density = 20.921223 Si / 1000 Ang^3
#
#
#
# Elastic Constant Matrix: (Units=GPa)
#
#
# Indices 1 2 3 4 5 6 
#
# 1 103.9697 13.1985 22.2504 0.0000 10.3572 0.0000
# 2 13.1985 58.1631 -2.6473 0.0000 7.3522 0.0000
# 3 22.2504 -2.6473 98.6581 0.0000 36.9289 0.0000
# 4 0.0000 0.0000 0.0000 29.0415 0.0000 -9.5689
# 5 10.3572 7.3522 36.9289 0.0000 43.4134 0.0000
# 6 0.0000 0.0000 0.0000 -9.5689 0.0000 26.7047
#
#
#
# Elastic Compliance Matrix: (Units=1/GPa)
#
#
# Indices 1 2 3 4 5 6 
#
# 1 0.010452 -0.002480 -0.002417 0.000000 -0.000017 0.000000
# 2 -0.002480 0.018529 0.002948 0.000000 -0.005054 0.000000
# 3 -0.002417 0.002948 0.015744 0.000000 -0.013315 0.000000
# 4 0.000000 0.000000 0.000000 0.039043 0.000000 0.013990
# 5 -0.000017 -0.005054 -0.013315 0.000000 0.035221 0.000000
# 6 0.000000 0.000000 0.000000 0.013990 0.000000 0.042460
#
#
# Mechanical properties :
#
#
# Convention : Reuss Voigt Hill
#
# Bulk Modulus (GPa) = 24.49301 36.26600 30.37951
# Shear Modulus (GPa) = 27.93995 35.03119 31.48557
#
# Velocity S-wave (km/s) = 3.65839 4.09642 3.88359
# Velocity P-wave (km/s) = 5.43855 6.30448 5.88745
#
# Compressibility (1/GPa) = 0.04082797
#
# Stress axis : x y z
#
# Youngs Moduli (GPa) = 95.67532 53.97003 63.51485
#
# Poissons Ratio (x) = 0.13382 0.15353
# Poissons Ratio (y) = 0.23724 -0.18726
# Poissons Ratio (z) = 0.23127 -0.15912
#
# Static dielectric constant tensor:
#      x y z
#    x -0.060210 0.000000 0.952070 
#    y 0.000000 2.600260 0.000000 
#    z 0.952070 0.000000 1.399890 
# 
# From -- ./inp_files/154143.got.cif
#   From: 2010.05.17/outbox.cif.g08.bks.cpg/sg12_78_cif.got.tgz:154143.got - 2010.06.03 13:09:07.
