data_PCOD9216380
_publ_section_title
;
Structure prediction by ZEFSAII (Michael W. Deem and Ramdas Pophale) SiO2 
 PCOD9216380
Probable space group: C 2/M
;
_chemical_formula_sum "Si O2"
_cell_formula_units_Z 48
_cell_length_a 18.358332
_cell_length_b 14.673269
_cell_length_c 24.977490
_cell_angle_alpha 90.000000
_cell_angle_beta 161.225679
_cell_angle_gamma 90.000000
_cell_volume 2165.463106
_symmetry_space_group_name_H-M "C 2/M"
_symmetry_group_IT_number 12
_symmetry_cell_setting 'monoclinic'
loop_
_space_group_symop_operation_xyz
x,y,z
-x,y,-z
-x,-y,-z
x,-y,z
1/2+x,1/2+y,z
1/2-x,1/2+y,-z
1/2-x,1/2-y,-z
1/2+x,1/2-y,z
loop_
_atom_site_type_symbol
_atom_site_label
_atom_site_fract_x
_atom_site_fract_y
_atom_site_fract_z
Si Si1 0.599906 0.892344 0.838415
Si Si2 0.431879 0.890431 0.514448
Si Si3 0.896440 0.643539 0.981030
Si Si4 0.935162 0.896257 0.154009
Si Si5 0.253583 0.889626 0.691295
Si Si6 0.488089 0.215988 0.326499
O O1 0.395434 0.874448 0.736326
O O2 0.547389 0.859022 0.743745
O O3 0.632266 0.000000 0.859934
O O4 0.817933 0.851180 0.020928
O O5 0.500000 0.877867 0.500000
O O6 0.548591 0.830345 0.641267
O O7 0.171157 0.857109 0.336390
O O8 0.453116 0.000000 0.541177
O O9 0.120371 0.662470 0.172978
O O10 0.739993 0.599727 0.918737
O O11 0.715516 0.714334 0.829714
O O12 0.000000 0.597350 0.000000
O O13 0.993372 0.000000 0.179341
O O14 0.000000 0.863293 0.500000
O O15 0.257855 0.000000 0.706537
O O16 0.750000 0.250000 0.500000
#
# Coordination Sequence:
#
# PCOD9216380 Si02
#       6
#     8   8   8   8   8   8
#     4   9  20  40  66  88 118 169 221 268 327 391
#     4  10  22  44  72  96 125 175 233 278 325 393
#     4  11  24  40  58  95 137 175 217 266 338 407
#     4   9  19  40  66  93 125 170 221 270 326 395
#     4   9  20  39  65  96 128 170 223 269 321 396
#     4  12  25  42  59  97 136 173 215 271 343 405
#
# _framework density 22.166160000000001
#
# number of rings (size 3 to 8) (size 9 to 14) (size 15 to 20)
#    0.000    2.000    1.667    2.000    2.333    5.333 
#    6.000    0.000    0.000    5.000    0.000    0.000 
#    0.000    2.000    0.000    0.000    0.000    0.000 
#
# Total GULP energy -133738.247077 kJ/mol
# GULP energy per Si atom -5572.426962 kJ/mol
# Density = 2.211571 g / cm^3
# Si number density = 22.166160 Si / 1000 Ang^3
#
#
#
# Elastic Constant Matrix: (Units=GPa)
#
#
# Indices 1 2 3 4 5 6 
#
# 1 112.4132 25.0019 44.1482 -0.0088 -27.0101 0.0008
# 2 25.0019 56.2657 50.7345 0.0041 -11.0187 0.0080
# 3 44.1482 50.7345 165.3179 0.0142 -22.6754 0.0049
# 4 -0.0088 0.0041 0.0142 25.3860 0.0021 -7.1144
# 5 -27.0101 -11.0187 -22.6754 0.0021 33.0918 0.0020
# 6 0.0008 0.0080 0.0049 -7.1144 0.0020 28.7374
#
#
#
# Elastic Compliance Matrix: (Units=1/GPa)
#
#
# Indices 1 2 3 4 5 6 
#
# 1 0.011887 -0.002551 -0.001299 0.000005 0.007962 0.000001
# 2 -0.002551 0.025457 -0.006903 -0.000003 0.001664 -0.000007
# 3 -0.001299 -0.006903 0.008889 -0.000005 0.002732 -0.000001
# 4 0.000005 -0.000003 -0.000005 0.042329 -0.000004 0.010479
# 5 0.007962 0.001664 0.002732 -0.000004 0.039144 -0.000005
# 6 0.000001 -0.000007 -0.000001 0.010479 -0.000005 0.037392
#
#
# Mechanical properties :
#
#
# Convention : Reuss Voigt Hill
#
# Bulk Modulus (GPa) = 40.44348 63.75177 52.09762
# Shear Modulus (GPa) = 25.66139 31.71718 28.68929
#
# Velocity S-wave (km/s) = 3.40617 3.78680 3.60152
# Velocity P-wave (km/s) = 5.80986 6.92410 6.39131
#
# Compressibility (1/GPa) = 0.02472587
#
# Stress axis : x y z
#
# Youngs Moduli (GPa) = 84.12883 39.28266 112.49749
#
# Poissons Ratio (x) = 0.10021 0.14617
# Poissons Ratio (y) = 0.21461 0.77655
# Poissons Ratio (z) = 0.10931 0.27116
#
# Static dielectric constant tensor:
#      x y z
#    x 1.778080 0.000000 0.034670 
#    y 0.000000 1.867650 -0.000040 
#    z 0.034670 -0.000040 1.914880 
# 
# From -- ./inp_files/344495.got.cif
#   From: 2010.05.17/outbox.cif.g08.bks.cpg/sg12_173_cif.got.tgz:344495.got - 2010.06.03 13:09:07.
