data_PCOD9216912
_publ_section_title
;
Structure prediction by ZEFSAII (Michael W. Deem and Ramdas Pophale) SiO2 
 PCOD9216912
Probable space group: C 2/M
;
_chemical_formula_sum "Si O2"
_cell_formula_units_Z 48
_cell_length_a 24.349996
_cell_length_b 17.255425
_cell_length_c 5.615483
_cell_angle_alpha 90.000000
_cell_angle_beta 60.453921
_cell_angle_gamma 90.000000
_cell_volume 2052.629909
_symmetry_space_group_name_H-M "C 2/M"
_symmetry_group_IT_number 12
_symmetry_cell_setting 'monoclinic'
loop_
_space_group_symop_operation_xyz
x,y,z
-x,y,-z
-x,-y,-z
x,-y,z
1/2+x,1/2+y,z
1/2-x,1/2+y,-z
1/2-x,1/2-y,-z
1/2+x,1/2-y,z
loop_
_atom_site_type_symbol
_atom_site_label
_atom_site_fract_x
_atom_site_fract_y
_atom_site_fract_z
Si Si1 0.074284 0.411479 0.355199
Si Si2 0.347566 0.792000 0.502826
Si Si3 0.589698 0.356338 0.716554
Si Si4 0.798358 0.138621 0.805437
Si Si5 0.416125 0.589920 0.773365
Si Si6 0.315087 0.087286 0.216580
O O1 0.083290 0.500000 0.425425
O O2 0.108480 0.349199 0.444869
O O3 0.112316 0.408057 0.024805
O O4 0.000000 0.397102 0.500000
O O5 0.393822 0.732906 0.264305
O O6 0.308044 0.730750 0.745955
O O7 0.304534 0.844469 0.426852
O O8 0.658209 0.394292 0.507015
O O9 0.560495 0.364032 0.512583
O O10 0.560509 0.392351 0.012270
O O11 0.840959 0.111606 0.934110
O O12 0.729484 0.105944 0.914790
O O13 0.425130 0.500000 0.701980
O O14 0.302741 0.000000 0.326882
#
# Coordination Sequence:
#
# PCOD9216912 Si02
#       6
#     8   8   8   8   8   8
#     4  10  23  41  59  82 114 160 216 264 303 351
#     4   9  21  36  57  81 118 157 198 256 310 369
#     4   8  20  30  53  82 116 161 198 244 298 366
#     4   8  21  32  53  85 119 158 195 247 303 379
#     4   9  16  31  50  80 124 162 197 235 285 361
#     4  11  21  35  58  84 119 162 204 247 306 370
#
# _framework density 23.384633000000001
#
# number of rings (size 3 to 8) (size 9 to 14) (size 15 to 20)
#    2.000    0.500    0.000    2.000    4.667    2.667 
#    0.000    2.500    0.000    0.000    0.000    0.000 
#    0.000   29.333    0.000    2.333    0.000    0.000 
#
# Total GULP energy -133643.580560 kJ/mol
# GULP energy per Si atom -5568.482523 kJ/mol
# Density = 2.333141 g / cm^3
# Si number density = 23.384633 Si / 1000 Ang^3
#
#
#
# Elastic Constant Matrix: (Units=GPa)
#
#
# Indices 1 2 3 4 5 6 
#
# 1 88.6320 28.6029 37.9189 0.0000 1.0321 0.0000
# 2 28.6029 93.9483 4.7608 0.0000 10.7765 0.0000
# 3 37.9189 4.7608 62.3581 0.0000 1.9543 0.0000
# 4 0.0000 0.0000 0.0000 28.8609 0.0000 4.3915
# 5 1.0321 10.7765 1.9543 0.0000 44.0327 0.0000
# 6 0.0000 0.0000 0.0000 4.3915 0.0000 64.7765
#
#
#
# Elastic Compliance Matrix: (Units=1/GPa)
#
#
# Indices 1 2 3 4 5 6 
#
# 1 0.017155 -0.004853 -0.010100 0.000000 0.001234 0.000000
# 2 -0.004853 0.012360 0.002101 0.000000 -0.003004 0.000000
# 3 -0.010100 0.002101 0.022057 0.000000 -0.001256 0.000000
# 4 0.000000 0.000000 0.000000 0.035010 0.000000 -0.002374
# 5 0.001234 -0.003004 -0.001256 0.000000 0.023473 0.000000
# 6 0.000000 0.000000 0.000000 -0.002374 0.000000 0.015599
#
#
# Mechanical properties :
#
#
# Convention : Reuss Voigt Hill
#
# Bulk Modulus (GPa) = 38.65581 43.05596 40.85588
# Shear Modulus (GPa) = 31.25408 39.11109 35.18258
#
# Velocity S-wave (km/s) = 3.65981 4.09407 3.88302
# Velocity P-wave (km/s) = 5.86731 6.38754 6.13294
#
# Compressibility (1/GPa) = 0.02586933
#
# Stress axis : x y z
#
# Youngs Moduli (GPa) = 58.29094 80.90805 45.33703
#
# Poissons Ratio (x) = 0.39262 0.45791
# Poissons Ratio (y) = 0.28287 -0.09527
# Poissons Ratio (z) = 0.58874 -0.17002
#
# Static dielectric constant tensor:
#      x y z
#    x 1.949610 0.000000 -0.016950 
#    y 0.000000 1.855470 0.000000 
#    z -0.016950 0.000000 1.958770 
# 
# From -- ./inp_files/24971.got.cif
#   From: 2010.05.17/outbox.cif.g08.bks.cpg/sg12_13_cif.got.tgz:24971.got - 2010.06.03 13:09:07.
