data_PCOD9216519
_publ_section_title
;
Structure prediction by ZEFSAII (Michael W. Deem and Ramdas Pophale) SiO2 
 PCOD9216519
Probable space group: C 2/M
;
_chemical_formula_sum "Si O2"
_cell_formula_units_Z 40
_cell_length_a 11.948055
_cell_length_b 30.642053
_cell_length_c 8.627885
_cell_angle_alpha 90.000000
_cell_angle_beta 137.833748
_cell_angle_gamma 90.000000
_cell_volume 2120.439079
_symmetry_space_group_name_H-M "C 2/M"
_symmetry_group_IT_number 12
_symmetry_cell_setting 'monoclinic'
loop_
_space_group_symop_operation_xyz
x,y,z
-x,y,-z
-x,-y,-z
x,-y,z
1/2+x,1/2+y,z
1/2-x,1/2+y,-z
1/2-x,1/2-y,-z
1/2+x,1/2-y,z
loop_
_atom_site_type_symbol
_atom_site_label
_atom_site_fract_x
_atom_site_fract_y
_atom_site_fract_z
Si Si1 0.631106 0.690451 0.952695
Si Si2 0.967083 0.707156 0.140696
Si Si3 0.557231 0.000000 0.877640
Si Si4 0.283858 0.336991 0.608610
Si Si5 0.122613 0.575010 0.499416
Si Si6 0.686186 0.500000 0.121596
O O1 0.578442 0.741491 0.904510
O O2 0.464038 0.668686 0.714459
O O3 0.800757 0.684521 0.033002
O O4 0.675395 0.673431 0.169854
O O5 0.135219 0.695313 0.405426
O O6 0.000000 0.693412 0.000000
O O7 0.473186 0.956782 0.716561
O O8 0.745025 0.000000 0.988267
O O9 0.500000 0.000000 0.000000
O O10 0.221704 0.386087 0.523352
O O11 0.233246 0.542586 0.716545
O O12 0.000000 0.596494 0.500000
O O13 0.500000 0.500000 0.000000
#
# Coordination Sequence:
#
# PCOD9216519 Si02
#       6
#     8   8   4   8   8   4
#     4  10  23  36  58  83 110 156 200 250 289 347
#     4  11  22  38  56  81 115 155 196 242 310 344
#     4   9  19  39  64  88 122 155 185 233 308 364
#     4  11  21  39  59  86 116 153 203 247 281 350
#     4   9  19  36  59  86 115 152 195 234 287 347
#     4   9  19  35  62  92 112 151 193 239 278 356
#
# _framework density 18.864017
#
# number of rings (size 3 to 8) (size 9 to 14) (size 15 to 20)
#    0.000    2.000    2.000    3.600    2.800    1.600 
#    0.000    2.000    4.400    0.000    0.000    0.000 
#    0.000    0.000    0.000    0.000    0.000    0.000 
#
# Total GULP energy -111356.827621 kJ/mol
# GULP energy per Si atom -5567.841381 kJ/mol
# Density = 1.882108 g / cm^3
# Si number density = 18.864017 Si / 1000 Ang^3
#
#
#
# Elastic Constant Matrix: (Units=GPa)
#
#
# Indices 1 2 3 4 5 6 
#
# 1 136.2403 0.8681 64.7142 0.0000 14.4483 0.0000
# 2 0.8681 52.1806 21.7251 0.0000 1.4681 0.0000
# 3 64.7142 21.7251 85.8710 0.0000 25.6106 0.0000
# 4 0.0000 0.0000 0.0000 -148.7720 0.0000 -70.7589
# 5 14.4483 1.4681 25.6106 0.0000 30.6515 0.0000
# 6 0.0000 0.0000 0.0000 -70.7589 0.0000 -11.1287
#
#
#
# Elastic Compliance Matrix: (Units=1/GPa)
#
#
# Indices 1 2 3 4 5 6 
#
# 1 0.012433 0.004516 -0.011587 0.000000 0.003605 0.000000
# 2 0.004516 0.023574 -0.011183 0.000000 0.006086 0.000000
# 3 -0.011587 -0.011183 0.028527 0.000000 -0.017838 0.000000
# 4 0.000000 0.000000 0.000000 0.003321 0.000000 -0.021115
# 5 0.003605 0.006086 -0.017838 0.000000 0.045538 0.000000
# 6 0.000000 0.000000 0.000000 -0.021115 0.000000 0.044394
#
#
# Mechanical properties :
#
#
# Convention : Reuss Voigt Hill
#
# Bulk Modulus (GPa) = 35.68106 49.87853 42.77979
# Shear Modulus (GPa) = 24.55351 -13.38421 5.58465
#
# Velocity S-wave (km/s) = 3.61169 -2.66655 1.72247
# Velocity P-wave (km/s) = 6.02896 4.12527 5.16557
#
# Compressibility (1/GPa) = 0.02802607
#
# Stress axis : x y z
#
# Youngs Moduli (GPa) = 80.43151 42.42021 35.05426
#
# Poissons Ratio (x) = -0.19158 0.40619
# Poissons Ratio (y) = -0.36324 0.39200
# Poissons Ratio (z) = 0.93200 0.47437
#
# Static dielectric constant tensor:
#      x y z
#    x 1.746670 0.000000 0.031080 
#    y 0.000000 1.651260 0.000000 
#    z 0.031080 0.000000 1.666950 
# 
# From -- ./inp_files/54482.got.cif
#   From: 2010.05.17/outbox.cif.g08.bks.cpg/sg12_28_cif.got.tgz:54482.got - 2010.06.03 13:09:07.
