data_PCOD9216072
_publ_section_title
;
Structure prediction by ZEFSAII (Michael W. Deem and Ramdas Pophale) SiO2 
 PCOD9216072
Probable space group: C 2/M
;
_chemical_formula_sum "Si O2"
_cell_formula_units_Z 50
_cell_length_a 31.391351
_cell_length_b 9.081145
_cell_length_c 12.069573
_cell_angle_alpha 90.000000
_cell_angle_beta 56.216481
_cell_angle_gamma 90.000000
_cell_volume 2859.690504
_symmetry_space_group_name_H-M "C 2/M"
_symmetry_group_IT_number 12
_symmetry_cell_setting 'monoclinic'
loop_
_space_group_symop_operation_xyz
x,y,z
-x,y,-z
-x,-y,-z
x,-y,z
1/2+x,1/2+y,z
1/2-x,1/2+y,-z
1/2-x,1/2-y,-z
1/2+x,1/2-y,z
loop_
_atom_site_type_symbol
_atom_site_label
_atom_site_fract_x
_atom_site_fract_y
_atom_site_fract_z
Si Si1 0.712072 0.175362 0.291731
Si Si2 0.878989 0.175430 0.448753
Si Si3 0.604337 0.162694 0.805789
Si Si4 0.557453 0.824810 0.451900
Si Si5 0.652663 0.173827 0.155603
Si Si6 0.668912 0.675164 0.898394
Si Si7 0.000000 0.500000 0.000000
O O1 0.675123 0.264630 0.426176
O O2 0.693883 0.208277 0.192149
O O3 0.771872 0.206249 0.218302
O O4 0.702912 0.000000 0.320958
O O5 0.889376 0.242369 0.313530
O O6 0.921225 0.236852 0.474055
O O7 0.879317 0.000000 0.446441
O O8 0.631529 0.241616 0.868802
O O9 0.628540 0.000000 0.752584
O O10 0.545161 0.125818 0.916958
O O11 0.500000 0.785322 0.500000
O O12 0.597570 0.802017 0.293731
O O13 0.558499 0.000000 0.476874
O O14 0.656803 0.000000 0.122376
O O15 0.659848 0.268258 0.035964
O O16 0.661301 0.500000 0.903518
#
# Coordination Sequence:
#
# PCOD9216072 Si02
#       7
#     8   8   8   8   8   8   2
#     4   9  20  38  59  85 121 165 200 233 294 366
#     4  11  22  37  60  90 122 149 190 254 308 346
#     4  10  22  43  63  82 109 155 204 239 288 361
#     4   9  19  37  59  85 114 157 205 243 287 359
#     4   9  18  34  55  83 120 163 202 237 287 355
#     4  11  22  36  58  90 123 153 197 254 300 351
#     4   8  24  44  66  80 102 160 206 240 278 364
#
# _framework density 17.484408999999999
#
# number of rings (size 3 to 8) (size 9 to 14) (size 15 to 20)
#    0.480    1.760    0.000    3.840    0.000    6.080 
#    2.880    3.200    0.000    0.000    0.000    0.000 
#    0.000    0.000    0.000    0.000    0.000    0.000 
#
# Total GULP energy -139204.707682 kJ/mol
# GULP energy per Si atom -5568.188307 kJ/mol
# Density = 1.744461 g / cm^3
# Si number density = 17.484409 Si / 1000 Ang^3
#
#
#
# Elastic Constant Matrix: (Units=GPa)
#
#
# Indices 1 2 3 4 5 6 
#
# 1 107.9805 74.3120 83.7306 0.0000 -7.8326 0.0000
# 2 74.3120 100.9469 72.5054 0.0000 0.3403 0.0000
# 3 83.7306 72.5054 96.3143 0.0000 3.5884 0.0000
# 4 0.0000 0.0000 0.0000 25.9984 0.0000 -10.0491
# 5 -7.8326 0.3403 3.5884 0.0000 13.8916 0.0000
# 6 0.0000 0.0000 0.0000 -10.0491 0.0000 -0.6147
#
#
#
# Elastic Compliance Matrix: (Units=1/GPa)
#
#
# Indices 1 2 3 4 5 6 
#
# 1 0.040736 -0.008332 -0.030296 0.000000 0.030998 0.000000
# 2 -0.008332 0.023462 -0.010322 0.000000 -0.002606 0.000000
# 3 -0.030296 -0.010322 0.045557 0.000000 -0.028597 0.000000
# 4 0.000000 0.000000 0.000000 0.005255 0.000000 -0.085915
# 5 0.030998 -0.002606 -0.028597 0.000000 0.096915 0.000000
# 6 0.000000 0.000000 0.000000 -0.085915 0.000000 -0.222273
#
#
# Mechanical properties :
#
#
# Convention : Reuss Voigt Hill
#
# Bulk Modulus (GPa) = 84.35734 85.14863 84.75299
# Shear Modulus (GPa) = 54.64255 12.83464 33.73860
#
# Velocity S-wave (km/s) = 5.59643 2.71230 4.39753
# Velocity P-wave (km/s) = 9.49273 7.65599 8.62340
#
# Compressibility (1/GPa) = 0.01185433
#
# Stress axis : x y z
#
# Youngs Moduli (GPa) = 24.54843 42.62158 21.95061
#
# Poissons Ratio (x) = 0.35511 0.66502
# Poissons Ratio (y) = 0.20453 0.22658
# Poissons Ratio (z) = 0.74373 0.43995
#
# Static dielectric constant tensor:
#      x y z
#    x 1.583280 0.000000 -0.003060 
#    y 0.000000 1.583760 0.000000 
#    z -0.003060 0.000000 1.571490 
# 
# From -- ./inp_files/179813.got.cif
#   From: 2010.05.17/outbox.cif.g08.bks.cpg/sg12_90_cif.got.tgz:179813.got - 2010.06.03 13:09:07.
