data_PCOD9216221
_publ_section_title
;
Structure prediction by ZEFSAII (Michael W. Deem and Ramdas Pophale) SiO2 
 PCOD9216221
Probable space group: C 2/M
;
_chemical_formula_sum "Si O2"
_cell_formula_units_Z 56
_cell_length_a 29.280354
_cell_length_b 8.349648
_cell_length_c 21.633212
_cell_angle_alpha 90.000000
_cell_angle_beta 150.725908
_cell_angle_gamma 90.000000
_cell_volume 2586.209839
_symmetry_space_group_name_H-M "C 2/M"
_symmetry_group_IT_number 12
_symmetry_cell_setting 'monoclinic'
loop_
_space_group_symop_operation_xyz
x,y,z
-x,y,-z
-x,-y,-z
x,-y,z
1/2+x,1/2+y,z
1/2-x,1/2+y,-z
1/2-x,1/2-y,-z
1/2+x,1/2-y,z
loop_
_atom_site_type_symbol
_atom_site_label
_atom_site_fract_x
_atom_site_fract_y
_atom_site_fract_z
Si Si1 0.856298 0.808365 0.626008
Si Si2 0.858147 0.810427 0.945950
Si Si3 0.556362 0.181725 0.148399
Si Si4 0.765884 0.694057 0.089206
Si Si5 0.403201 0.683680 0.543331
Si Si6 0.453828 0.813246 0.381789
Si Si7 0.775841 0.182302 0.723265
O O1 0.750000 0.750000 0.500000
O O2 0.905778 0.713618 0.738529
O O3 0.903990 0.776979 0.616504
O O4 0.859546 0.000000 0.641182
O O5 0.820037 0.758781 0.967393
O O6 0.778349 0.792547 0.799656
O O7 0.881071 0.000000 0.975968
O O8 0.947955 0.720751 0.026328
O O9 0.620278 0.291896 0.180478
O O10 0.571010 0.000000 0.145749
O O11 0.769594 0.500000 0.092337
O O12 0.859840 0.750866 0.236679
O O13 0.750000 0.750000 0.000000
O O14 0.433536 0.500000 0.570825
O O15 0.466351 0.794554 0.575520
O O16 0.296246 0.702550 0.395348
O O17 0.500000 0.744785 0.500000
O O18 0.433456 0.000000 0.371314
O O19 0.747291 0.000000 0.676554
#
# Coordination Sequence:
#
# PCOD9216221 Si02
#       7
#     8   8   8   8   8   8   8
#     4  11  23  40  61  88 125 166 207 253 309 372
#     4  10  23  43  65  89 121 165 211 254 308 375
#     4  12  25  39  60  92 128 164 207 256 309 370
#     4  10  23  43  66  93 126 163 211 266 319 377
#     4  11  24  39  62  95 128 161 204 260 317 370
#     4  10  22  43  69  95 125 166 217 265 316 384
#     4  11  22  40  66  92 124 166 209 253 308 375
#
# _framework density 21.653307999999999
#
# number of rings (size 3 to 8) (size 9 to 14) (size 15 to 20)
#    0.000    1.286    1.429    3.857    2.000    8.286 
#    0.000    1.429    0.000    0.000    0.000    0.000 
#    0.000    0.000    0.000    0.000    0.000    0.000 
#
# Total GULP energy -156463.413511 kJ/mol
# GULP energy per Si atom -5587.979054 kJ/mol
# Density = 2.160402 g / cm^3
# Si number density = 21.653308 Si / 1000 Ang^3
#
#
#
# Elastic Constant Matrix: (Units=GPa)
#
#
# Indices 1 2 3 4 5 6 
#
# 1 70.7019 -1.9670 9.6290 0.0000 -10.4725 0.0000
# 2 -1.9670 19.0719 3.0722 0.0000 -10.1169 0.0000
# 3 9.6290 3.0722 83.3116 0.0000 -9.3578 0.0000
# 4 0.0000 0.0000 0.0000 26.5281 0.0000 0.4476
# 5 -10.4725 -10.1169 -9.3578 0.0000 34.1864 0.0000
# 6 0.0000 0.0000 0.0000 0.4476 0.0000 25.8945
#
#
#
# Elastic Compliance Matrix: (Units=1/GPa)
#
#
# Indices 1 2 3 4 5 6 
#
# 1 0.015310 0.004849 -0.001300 0.000000 0.005769 0.000000
# 2 0.004849 0.063737 -0.000645 0.000000 0.020171 0.000000
# 3 -0.001300 -0.000645 0.012495 0.000000 0.002831 0.000000
# 4 0.000000 0.000000 0.000000 0.037707 0.000000 -0.000652
# 5 0.005769 0.020171 0.002831 0.000000 0.037763 0.000000
# 6 0.000000 0.000000 0.000000 -0.000652 0.000000 0.038630
#
#
# Mechanical properties :
#
#
# Convention : Reuss Voigt Hill
#
# Bulk Modulus (GPa) = 10.27231 21.61710 15.94471
# Shear Modulus (GPa) = 21.52528 28.14520 24.83524
#
# Velocity S-wave (km/s) = 3.15634 3.60920 3.39034
# Velocity P-wave (km/s) = 4.24707 5.23196 4.76503
#
# Compressibility (1/GPa) = 0.09734911
#
# Stress axis : x y z
#
# Youngs Moduli (GPa) = 65.31504 15.68948 80.03077
#
# Poissons Ratio (x) = -0.07608 0.10407
# Poissons Ratio (y) = -0.31670 0.05163
# Poissons Ratio (z) = 0.08493 0.01012
#
# Static dielectric constant tensor:
#      x y z
#    x 1.765940 0.000000 0.000020 
#    y 0.000000 1.755790 0.000000 
#    z 0.000020 0.000000 1.772230 
# 
# From -- ./inp_files/329664.got.cif
#   From: 2010.05.17/outbox.cif.g08.bks.cpg/sg12_165_cif.got.tgz:329664.got - 2010.06.03 13:09:07.
