data_PCOD9216852
_publ_section_title
;
Structure prediction by ZEFSAII (Michael W. Deem and Ramdas Pophale) SiO2 
 PCOD9216852
Probable space group: C 2/M
;
_chemical_formula_sum "Si O2"
_cell_formula_units_Z 56
_cell_length_a 15.416099
_cell_length_b 15.962453
_cell_length_c 14.522776
_cell_angle_alpha 90.000000
_cell_angle_beta 45.816422
_cell_angle_gamma 90.000000
_cell_volume 2562.770882
_symmetry_space_group_name_H-M "C 2/M"
_symmetry_group_IT_number 12
_symmetry_cell_setting 'monoclinic'
loop_
_space_group_symop_operation_xyz
x,y,z
-x,y,-z
-x,-y,-z
x,-y,z
1/2+x,1/2+y,z
1/2-x,1/2+y,-z
1/2-x,1/2-y,-z
1/2+x,1/2-y,z
loop_
_atom_site_type_symbol
_atom_site_label
_atom_site_fract_x
_atom_site_fract_y
_atom_site_fract_z
Si Si1 0.640526 0.798752 0.371018
Si Si2 0.210075 0.593954 0.143145
Si Si3 0.273213 0.151354 0.503945
Si Si4 0.692330 0.155200 0.818813
Si Si5 0.158889 0.000000 0.282555
Si Si6 0.874856 0.000000 0.471172
Si Si7 0.630940 0.725788 0.030237
Si Si8 0.483100 0.856939 0.209394
O O1 0.500000 0.785292 0.500000
O O2 0.658159 0.845265 0.260939
O O3 0.701955 0.852777 0.406005
O O4 0.713671 0.711742 0.309343
O O5 0.218609 0.500000 0.169870
O O6 0.340288 0.631012 0.017410
O O7 0.110620 0.599596 0.135141
O O8 0.250000 0.250000 0.500000
O O9 0.396168 0.128936 0.359121
O O10 0.177048 0.084184 0.538006
O O11 0.635313 0.216907 0.935980
O O12 0.590797 0.118264 0.826452
O O13 0.770845 0.081586 0.803879
O O14 0.162304 0.000000 0.392753
O O15 0.019369 0.000000 0.359414
O O16 0.750000 0.750000 0.000000
O O17 0.515514 0.757855 0.171545
#
# Coordination Sequence:
#
# PCOD9216852 Si02
#       8
#     8   8   8   8   4   4   8   8
#     4  11  23  38  64  94 132 173 220 261 325 396
#     4  10  23  40  66  95 132 172 213 272 332 387
#     4  12  24  41  65  97 134 177 221 272 331 394
#     4  11  23  41  66  95 124 172 218 266 328 389
#     4  11  24  42  64  93 137 168 209 269 332 391
#     4  11  26  40  62  98 140 169 216 267 326 401
#     4   9  22  44  64  89 125 168 218 268 323 390
#     4  11  21  39  67  92 129 167 221 265 326 380
#
# _framework density 21.851348999999999
#
# number of rings (size 3 to 8) (size 9 to 14) (size 15 to 20)
#    0.000    1.286    4.286    0.429    7.000    0.286 
#    5.143    0.714    1.571    6.857    0.000    0.000 
#    0.000    0.000    0.000    0.000    0.000    0.000 
#
# Total GULP energy -156435.680327 kJ/mol
# GULP energy per Si atom -5586.988583 kJ/mol
# Density = 2.180161 g / cm^3
# Si number density = 21.851349 Si / 1000 Ang^3
#
#
#
# Elastic Constant Matrix: (Units=GPa)
#
#
# Indices 1 2 3 4 5 6 
#
# 1 107.1292 29.9160 21.7103 0.0000 -3.7728 0.0000
# 2 29.9160 98.0709 19.7461 0.0000 -14.2400 0.0000
# 3 21.7103 19.7461 46.6304 0.0000 -10.7588 0.0000
# 4 0.0000 0.0000 0.0000 17.6354 0.0000 -4.5681
# 5 -3.7728 -14.2400 -10.7588 0.0000 29.9567 0.0000
# 6 0.0000 0.0000 0.0000 -4.5681 0.0000 22.7976
#
#
#
# Elastic Compliance Matrix: (Units=1/GPa)
#
#
# Indices 1 2 3 4 5 6 
#
# 1 0.010896 -0.002671 -0.004272 0.000000 -0.001432 0.000000
# 2 -0.002671 0.012243 -0.002917 0.000000 0.004436 0.000000
# 3 -0.004272 -0.002917 0.026414 0.000000 0.007562 0.000000
# 4 0.000000 0.000000 0.000000 0.059808 0.000000 0.011984
# 5 -0.001432 0.004436 0.007562 0.000000 0.038025 0.000000
# 6 0.000000 0.000000 0.000000 0.011984 0.000000 0.046266
#
#
# Mechanical properties :
#
#
# Convention : Reuss Voigt Hill
#
# Bulk Modulus (GPa) = 33.52146 43.84171 38.68158
# Shear Modulus (GPa) = 22.38960 26.10848 24.24904
#
# Velocity S-wave (km/s) = 3.20446 3.46037 3.33487
# Velocity P-wave (km/s) = 5.39123 6.00606 5.70693
#
# Compressibility (1/GPa) = 0.02983164
#
# Stress axis : x y z
#
# Youngs Moduli (GPa) = 91.77789 81.67890 37.85834
#
# Poissons Ratio (x) = 0.21820 0.16173
# Poissons Ratio (y) = 0.24518 0.11044
# Poissons Ratio (z) = 0.39208 0.23828
#
# Static dielectric constant tensor:
#      x y z
#    x 1.805680 0.000000 0.017930 
#    y 0.000000 1.808060 0.000000 
#    z 0.017930 0.000000 1.810130 
# 
# From -- ./inp_files/277849.got.cif
#   From: 2010.05.17/outbox.cif.g08.bks.cpg/sg12_139_cif.got.tgz:277849.got - 2010.06.03 13:09:07.
