data_PCOD9216703
_publ_section_title
;
Structure prediction by ZEFSAII (Michael W. Deem and Ramdas Pophale) SiO2 
 PCOD9216703
Probable space group: C 2/M
;
_chemical_formula_sum "Si O2"
_cell_formula_units_Z 36
_cell_length_a 5.492298
_cell_length_b 21.804502
_cell_length_c 10.531360
_cell_angle_alpha 90.000000
_cell_angle_beta 85.969369
_cell_angle_gamma 90.000000
_cell_volume 1258.082774
_symmetry_space_group_name_H-M "C 2/M"
_symmetry_group_IT_number 12
_symmetry_cell_setting 'monoclinic'
loop_
_space_group_symop_operation_xyz
x,y,z
-x,y,-z
-x,-y,-z
x,-y,z
1/2+x,1/2+y,z
1/2-x,1/2+y,-z
1/2-x,1/2-y,-z
1/2+x,1/2-y,z
loop_
_atom_site_type_symbol
_atom_site_label
_atom_site_fract_x
_atom_site_fract_y
_atom_site_fract_z
Si Si1 0.000000 0.882604 0.000000
Si Si2 0.270673 0.000000 0.236900
Si Si3 0.244480 0.000000 0.606699
Si Si4 0.289485 0.138356 0.594194
Si Si5 0.465355 0.288488 0.764829
Si Si6 0.961335 0.609074 0.868376
O O1 0.954267 0.833645 0.885641
O O2 0.206839 0.921800 0.919838
O O3 0.323634 0.061049 0.156840
O O4 0.502408 0.000000 0.324635
O O5 0.009546 0.000000 0.309248
O O6 0.247807 0.931429 0.547524
O O7 0.500000 0.168043 0.500000
O O8 0.035741 0.171998 0.636754
O O9 0.410947 0.134963 0.731475
O O10 0.204886 0.254908 0.768771
O O11 0.000000 0.646390 0.000000
#
# Coordination Sequence:
#
# PCOD9216703 Si02
#       6
#     4   4   4   8   8   8
#     4  10  24  39  70  96 142 179 240 288 360 412
#     4  10  23  39  66 103 147 185 234 287 352 420
#     4  10  23  46  71 105 143 189 233 286 356 428
#     4  10  24  47  74 104 143 186 235 292 353 423
#     4  11  26  45  71 103 140 188 237 293 352 420
#     4  10  23  39  67 100 140 185 230 287 350 416
#
# _framework density 28.61497
#
# number of rings (size 3 to 8) (size 9 to 14) (size 15 to 20)
#    0.000    1.778    0.000    1.333   15.556    3.111 
#    0.000   13.333    0.000    0.000    0.000    0.000 
#    0.000    0.000    0.000    0.000    0.000    0.000 
#
# Total GULP energy -100514.589455 kJ/mol
# GULP energy per Si atom -5584.143859 kJ/mol
# Density = 2.854984 g / cm^3
# Si number density = 28.614970 Si / 1000 Ang^3
#
#
#
# Elastic Constant Matrix: (Units=GPa)
#
#
# Indices 1 2 3 4 5 6 
#
# 1 173.9527 43.9084 67.4807 0.0000 -61.2192 0.0000
# 2 43.9084 114.0768 14.8995 0.0000 -25.9362 0.0000
# 3 67.4807 14.8995 188.3256 0.0000 -40.2082 0.0000
# 4 0.0000 0.0000 0.0000 30.4822 0.0000 -18.6773
# 5 -61.2192 -25.9362 -40.2082 0.0000 94.5135 0.0000
# 6 0.0000 0.0000 0.0000 -18.6773 0.0000 41.2149
#
#
#
# Elastic Compliance Matrix: (Units=1/GPa)
#
#
# Indices 1 2 3 4 5 6 
#
# 1 0.008485 -0.002078 -0.002006 0.000000 0.004072 0.000000
# 2 -0.002078 0.009866 0.000280 0.000000 0.001481 0.000000
# 3 -0.002006 0.000280 0.006320 0.000000 0.001466 0.000000
# 4 0.000000 0.000000 0.000000 0.045417 0.000000 0.020581
# 5 0.004072 0.001481 0.001466 0.000000 0.014248 0.000000
# 6 0.000000 0.000000 0.000000 0.020581 0.000000 0.033590
#
#
# Mechanical properties :
#
#
# Convention : Reuss Voigt Hill
#
# Bulk Modulus (GPa) = 58.61073 80.99248 69.80160
# Shear Modulus (GPa) = 38.10387 56.57990 47.34189
#
# Velocity S-wave (km/s) = 3.65308 4.45149 4.07190
# Velocity P-wave (km/s) = 6.19034 7.40180 6.82301
#
# Compressibility (1/GPa) = 0.01706172
#
# Stress axis : x y z
#
# Youngs Moduli (GPa) = 117.86128 101.35973 158.23587
#
# Poissons Ratio (x) = 0.21061 0.31749
# Poissons Ratio (y) = 0.24490 -0.04433
# Poissons Ratio (z) = 0.23648 -0.02839
#
# Static dielectric constant tensor:
#      x y z
#    x 2.605280 0.000000 0.147170 
#    y 0.000000 2.294220 0.000000 
#    z 0.147170 0.000000 2.166380 
# 
# From -- ./inp_files/115422.got.cif
#   From: 2010.05.17/outbox.cif.g08.bks.cpg/sg12_58_cif.got.tgz:115422.got - 2010.06.03 13:09:07.
