data_PCOD9216559
_publ_section_title
;
Structure prediction by ZEFSAII (Michael W. Deem and Ramdas Pophale) SiO2 
 PCOD9216559
Probable space group: C 2/M
;
_chemical_formula_sum "Si O2"
_cell_formula_units_Z 32
_cell_length_a 17.004642
_cell_length_b 11.555780
_cell_length_c 15.949573
_cell_angle_alpha 90.000000
_cell_angle_beta 147.350169
_cell_angle_gamma 90.000000
_cell_volume 1690.868774
_symmetry_space_group_name_H-M "C 2/M"
_symmetry_group_IT_number 12
_symmetry_cell_setting 'monoclinic'
loop_
_space_group_symop_operation_xyz
x,y,z
-x,y,-z
-x,-y,-z
x,-y,z
1/2+x,1/2+y,z
1/2-x,1/2+y,-z
1/2-x,1/2-y,-z
1/2+x,1/2-y,z
loop_
_atom_site_type_symbol
_atom_site_label
_atom_site_fract_x
_atom_site_fract_y
_atom_site_fract_z
Si Si1 0.764072 0.500000 0.853024
Si Si2 0.604765 0.000000 0.209687
Si Si3 0.617972 0.708108 0.822908
Si Si4 0.931738 0.631217 0.530359
Si Si5 0.343473 0.747793 0.667989
O O1 0.784274 0.500000 0.770432
O O2 0.679965 0.608890 0.817753
O O3 0.933673 0.500000 0.032567
O O4 0.627673 0.879200 0.278259
O O5 0.537779 0.800927 0.690077
O O6 0.490021 0.679754 0.775309
O O7 0.750000 0.750000 0.000000
O O8 0.916131 0.500000 0.547671
O O9 0.770973 0.685806 0.374523
O O10 0.000000 0.631528 0.500000
O O11 0.250000 0.750000 0.500000
#
# Coordination Sequence:
#
# PCOD9216559 Si02
#       5
#     4   4   8   8   8
#     4  11  24  39  67  91 128 166 201 264 315 367
#     4  11  22  43  61  95 128 162 210 255 314 372
#     4  11  23  39  64  94 125 161 208 255 312 373
#     4  10  23  42  62  87 125 164 203 254 310 371
#     4  10  23  37  65  88 125 161 205 255 306 366
#
# _framework density 18.925182
#
# number of rings (size 3 to 8) (size 9 to 14) (size 15 to 20)
#    0.000    1.500    2.500    1.500   10.500    3.000 
#    0.000    6.250    0.000    3.000    0.000    0.000 
#    0.000    0.000    0.000    0.000    0.000    0.000 
#
# Total GULP energy -89131.352835 kJ/mol
# GULP energy per Si atom -5570.709552 kJ/mol
# Density = 1.888211 g / cm^3
# Si number density = 18.925182 Si / 1000 Ang^3
#
#
#
# Elastic Constant Matrix: (Units=GPa)
#
#
# Indices 1 2 3 4 5 6 
#
# 1 120.0832 45.3518 31.2267 0.0000 30.6781 0.0000
# 2 45.3518 107.3183 28.0688 0.0000 10.5462 0.0000
# 3 31.2267 28.0688 93.9733 0.0000 20.9074 0.0000
# 4 0.0000 0.0000 0.0000 25.7976 0.0000 1.8461
# 5 30.6781 10.5462 20.9074 0.0000 42.3573 0.0000
# 6 0.0000 0.0000 0.0000 1.8461 0.0000 37.9549
#
#
#
# Elastic Compliance Matrix: (Units=1/GPa)
#
#
# Indices 1 2 3 4 5 6 
#
# 1 0.011977 -0.004053 -0.001195 0.000000 -0.007075 0.000000
# 2 -0.004053 0.011530 -0.002372 0.000000 0.001236 0.000000
# 3 -0.001195 -0.002372 0.012832 0.000000 -0.004878 0.000000
# 4 0.000000 0.000000 0.000000 0.038899 0.000000 -0.001892
# 5 -0.007075 0.001236 -0.004878 0.000000 0.030833 0.000000
# 6 0.000000 0.000000 0.000000 -0.001892 0.000000 0.026439
#
#
# Mechanical properties :
#
#
# Convention : Reuss Voigt Hill
#
# Bulk Modulus (GPa) = 47.39730 58.96328 53.18029
# Shear Modulus (GPa) = 32.30330 35.67045 33.98688
#
# Velocity S-wave (km/s) = 4.13594 4.34615 4.24235
# Velocity P-wave (km/s) = 6.92148 7.51060 7.22205
#
# Compressibility (1/GPa) = 0.02109825
#
# Stress axis : x y z
#
# Youngs Moduli (GPa) = 83.49541 86.73071 77.92972
#
# Poissons Ratio (x) = 0.35156 0.09312
# Poissons Ratio (y) = 0.33844 0.18484
# Poissons Ratio (z) = 0.09977 0.20572
#
# Static dielectric constant tensor:
#      x y z
#    x 1.732620 0.000000 0.047690 
#    y 0.000000 1.689620 0.000000 
#    z 0.047690 0.000000 1.636980 
# 
# From -- ./inp_files/46427.got.cif
#   From: 2010.05.17/outbox.cif.g08.bks.cpg/sg12_24_cif.got.tgz:46427.got - 2010.06.03 13:09:07.
