data_PCOD9216804
_publ_section_title
;
Structure prediction by ZEFSAII (Michael W. Deem and Ramdas Pophale) SiO2 
 PCOD9216804
Probable space group: C 2/M
;
_chemical_formula_sum "Si O2"
_cell_formula_units_Z 48
_cell_length_a 13.877445
_cell_length_b 13.731018
_cell_length_c 19.048550
_cell_angle_alpha 90.000000
_cell_angle_beta 47.241826
_cell_angle_gamma 90.000000
_cell_volume 2665.040007
_symmetry_space_group_name_H-M "C 2/M"
_symmetry_group_IT_number 12
_symmetry_cell_setting 'monoclinic'
loop_
_space_group_symop_operation_xyz
x,y,z
-x,y,-z
-x,-y,-z
x,-y,z
1/2+x,1/2+y,z
1/2-x,1/2+y,-z
1/2-x,1/2-y,-z
1/2+x,1/2-y,z
loop_
_atom_site_type_symbol
_atom_site_label
_atom_site_fract_x
_atom_site_fract_y
_atom_site_fract_z
Si Si1 0.757782 0.611293 0.050187
Si Si2 0.354374 0.000000 0.669021
Si Si3 0.778650 0.209871 0.266475
Si Si4 0.817502 0.819184 0.411445
Si Si5 0.359831 0.000000 0.497182
Si Si6 0.551485 0.706577 0.050955
Si Si7 0.880136 0.116017 0.729231
O O1 0.803610 0.500000 0.021044
O O2 0.657836 0.637664 0.036465
O O3 0.679366 0.620956 0.162461
O O4 0.875061 0.689394 0.992356
O O5 0.284358 0.102947 0.722120
O O6 0.370527 0.000000 0.576738
O O7 0.507366 0.000000 0.613395
O O8 0.790543 0.212299 0.344632
O O9 0.698631 0.303528 0.277579
O O10 0.923520 0.213709 0.162414
O O11 0.750000 0.750000 0.500000
O O12 0.969892 0.846794 0.343986
O O13 0.731389 0.911269 0.471489
O O14 0.500000 0.674518 0.000000
O O15 0.872891 0.000000 0.712062
#
# Coordination Sequence:
#
# PCOD9216804 Si02
#       7
#     8   4   8   8   4   8   8
#     4  10  23  40  64  89 125 170 211 253 308 382
#     4   9  20  36  63  88 124 159 207 261 313 370
#     4  11  23  40  64  96 125 164 214 261 312 376
#     4  11  22  39  65  87 125 169 205 259 315 371
#     4   9  18  38  58  87 114 162 215 245 301 379
#     4  11  22  40  63  92 125 159 207 263 307 369
#     4  11  22  41  66  93 125 170 213 253 316 385
#
# _framework density 18.010985999999999
#
# number of rings (size 3 to 8) (size 9 to 14) (size 15 to 20)
#    0.000    1.500    4.167    1.000    1.167    3.333 
#    1.500    0.833    0.000    0.000    0.000    0.000 
#    0.000    0.000    0.000    0.000    0.000    0.000 
#
# Total GULP energy -133679.968417 kJ/mol
# GULP energy per Si atom -5569.998684 kJ/mol
# Density = 1.796999 g / cm^3
# Si number density = 18.010986 Si / 1000 Ang^3
#
#
#
# Elastic Constant Matrix: (Units=GPa)
#
#
# Indices 1 2 3 4 5 6 
#
# 1 69.1550 37.4937 30.4433 0.0000 -0.0782 0.0000
# 2 37.4937 125.8348 56.0897 0.0000 6.2197 0.0000
# 3 30.4433 56.0897 121.6495 0.0000 -11.2475 0.0000
# 4 0.0000 0.0000 0.0000 52.9863 0.0000 22.3411
# 5 -0.0782 6.2197 -11.2475 0.0000 30.4455 0.0000
# 6 0.0000 0.0000 0.0000 22.3411 0.0000 46.6556
#
#
#
# Elastic Compliance Matrix: (Units=1/GPa)
#
#
# Indices 1 2 3 4 5 6 
#
# 1 0.017847 -0.004183 -0.002541 0.000000 -0.000038 0.000000
# 2 -0.004183 0.011446 -0.004605 0.000000 -0.004050 0.000000
# 3 -0.002541 -0.004605 0.011457 0.000000 0.005167 0.000000
# 4 0.000000 0.000000 0.000000 0.023647 0.000000 -0.011323
# 5 -0.000038 -0.004050 0.005167 0.000000 0.035582 0.000000
# 6 0.000000 0.000000 0.000000 -0.011323 0.000000 0.026856
#
#
# Mechanical properties :
#
#
# Convention : Reuss Voigt Hill
#
# Bulk Modulus (GPa) = 55.27426 62.74363 59.00895
# Shear Modulus (GPa) = 32.14922 38.85831 35.50376
#
# Velocity S-wave (km/s) = 4.22948 4.64990 4.44467
# Velocity P-wave (km/s) = 7.38967 7.98378 7.69246
#
# Compressibility (1/GPa) = 0.01809160
#
# Stress axis : x y z
#
# Youngs Moduli (GPa) = 56.03252 87.36470 87.28012
#
# Poissons Ratio (x) = 0.36545 0.22178
# Poissons Ratio (y) = 0.23439 0.40195
# Poissons Ratio (z) = 0.14238 0.40234
#
# Static dielectric constant tensor:
#      x y z
#    x 1.795660 0.000000 0.031290 
#    y 0.000000 1.585910 0.000000 
#    z 0.031290 0.000000 1.520930 
# 
# From -- ./inp_files/310215.got.cif
#   From: 2010.05.17/outbox.cif.g08.bks.cpg/sg12_156_cif.got.tgz:310215.got - 2010.06.03 13:09:07.
