data_PCOD9216103
_publ_section_title
;
Structure prediction by ZEFSAII (Michael W. Deem and Ramdas Pophale) SiO2 
 PCOD9216103
Probable space group: C 2/M
;
_chemical_formula_sum "Si O2"
_cell_formula_units_Z 56
_cell_length_a 25.529699
_cell_length_b 9.102773
_cell_length_c 14.596946
_cell_angle_alpha 90.000000
_cell_angle_beta 56.465017
_cell_angle_gamma 90.000000
_cell_volume 2827.563534
_symmetry_space_group_name_H-M "C 2/M"
_symmetry_group_IT_number 12
_symmetry_cell_setting 'monoclinic'
loop_
_space_group_symop_operation_xyz
x,y,z
-x,y,-z
-x,-y,-z
x,-y,z
1/2+x,1/2+y,z
1/2-x,1/2+y,-z
1/2-x,1/2-y,-z
1/2+x,1/2-y,z
loop_
_atom_site_type_symbol
_atom_site_label
_atom_site_fract_x
_atom_site_fract_y
_atom_site_fract_z
Si Si1 0.608869 0.825175 0.788421
Si Si2 0.720810 0.828078 0.940072
Si Si3 0.514196 0.673137 0.753212
Si Si4 0.904904 0.173593 0.009510
Si Si5 0.667752 0.327903 0.315227
Si Si6 0.249316 0.824192 0.402256
Si Si7 0.043096 0.671368 0.368321
O O1 0.574754 0.757156 0.733313
O O2 0.582554 0.749880 0.905395
O O3 0.683395 0.795633 0.710318
O O4 0.599408 0.000000 0.801172
O O5 0.657516 0.747191 0.971203
O O6 0.772567 0.820348 0.809916
O O7 0.707920 0.000000 0.970442
O O8 0.750000 0.750000 0.000000
O O9 0.526995 0.500000 0.730313
O O10 0.488045 0.740303 0.684833
O O11 0.460761 0.691716 0.882787
O O12 0.895379 0.000000 0.033163
O O13 0.649272 0.500000 0.339772
O O14 0.692977 0.275922 0.389741
O O15 0.610750 0.236725 0.329073
O O16 0.250000 0.750000 0.500000
O O17 0.244014 0.000000 0.417495
O O18 0.048451 0.500000 0.337950
O O19 0.000000 0.683695 0.500000
#
# Coordination Sequence:
#
# PCOD9216103 Si02
#       7
#     8   8   8   8   8   8   8
#     4  11  23  42  66  95 130 167 207 258 314 372
#     4  11  22  38  61  91 127 164 206 256 309 369
#     4  11  25  43  64  93 128 168 212 259 309 372
#     4  11  23  40  62  93 129 165 210 257 308 373
#     4  10  22  43  65  90 126 164 205 254 310 372
#     4  10  23  42  64  94 127 163 207 256 311 371
#     4  11  26  45  65  93 125 162 211 264 313 370
#
# _framework density 19.805036000000001
#
# number of rings (size 3 to 8) (size 9 to 14) (size 15 to 20)
#    0.000    1.286    1.429    3.429    2.000   11.429 
#    0.000    0.000    0.000    0.000    0.000    0.000 
#    0.000    0.000    0.000    0.000    0.000    0.000 
#
# Total GULP energy -156641.681566 kJ/mol
# GULP energy per Si atom -5594.345770 kJ/mol
# Density = 1.975996 g / cm^3
# Si number density = 19.805036 Si / 1000 Ang^3
#
#
#
# Elastic Constant Matrix: (Units=GPa)
#
#
# Indices 1 2 3 4 5 6 
#
# 1 137.6343 50.4360 13.7605 0.0000 23.3419 0.0000
# 2 50.4360 96.4981 37.1473 0.0000 5.8545 0.0001
# 3 13.7605 37.1473 39.0305 0.0000 24.3785 0.0000
# 4 0.0000 0.0000 0.0000 35.2118 0.0000 4.4001
# 5 23.3419 5.8545 24.3785 0.0000 38.6600 0.0000
# 6 0.0000 0.0001 0.0000 4.4001 0.0000 39.9416
#
#
#
# Elastic Compliance Matrix: (Units=1/GPa)
#
#
# Indices 1 2 3 4 5 6 
#
# 1 0.013282 -0.013270 0.019304 0.000000 -0.018183 0.000000
# 2 -0.013270 0.033962 -0.048565 0.000000 0.033494 0.000000
# 3 0.019304 -0.048565 0.111730 0.000000 -0.074756 0.000000
# 4 0.000000 0.000000 0.000000 0.028796 0.000000 -0.003172
# 5 -0.018183 0.033494 -0.074756 0.000000 0.078913 0.000000
# 6 0.000000 0.000000 0.000000 -0.003172 0.000000 0.025386
#
#
# Mechanical properties :
#
#
# Convention : Reuss Voigt Hill
#
# Bulk Modulus (GPa) = 13.52960 52.87229 33.20094
# Shear Modulus (GPa) = 12.44499 34.21729 23.33114
#
# Velocity S-wave (km/s) = 2.50946 4.16108 3.43598
# Velocity P-wave (km/s) = 3.90420 7.05978 5.70452
#
# Compressibility (1/GPa) = 0.07391201
#
# Stress axis : x y z
#
# Youngs Moduli (GPa) = 75.28913 29.44474 8.95016
#
# Poissons Ratio (x) = 0.39074 -0.17278
# Poissons Ratio (y) = 0.99910 0.43466
# Poissons Ratio (z) = -1.45339 1.42998
#
# Static dielectric constant tensor:
#      x y z
#    x 1.682270 0.000000 -0.001700 
#    y 0.000000 1.663550 0.000000 
#    z -0.001700 0.000000 1.688170 
# 
# From -- ./inp_files/238245.got.cif
#   From: 2010.05.17/outbox.cif.g08.bks.cpg/sg12_120_cif.got.tgz:238245.got - 2010.06.03 13:09:07.
