data_PCOD9216028
_publ_section_title
;
Structure prediction by ZEFSAII (Michael W. Deem and Ramdas Pophale) SiO2 
 PCOD9216028
Probable space group: C 2/M
;
_chemical_formula_sum "Si O2"
_cell_formula_units_Z 44
_cell_length_a 23.125555
_cell_length_b 13.144582
_cell_length_c 18.010515
_cell_angle_alpha 90.000000
_cell_angle_beta 22.300106
_cell_angle_gamma 90.000000
_cell_volume 2077.440728
_symmetry_space_group_name_H-M "C 2/M"
_symmetry_group_IT_number 12
_symmetry_cell_setting 'monoclinic'
loop_
_space_group_symop_operation_xyz
x,y,z
-x,y,-z
-x,-y,-z
x,-y,z
1/2+x,1/2+y,z
1/2-x,1/2+y,-z
1/2-x,1/2-y,-z
1/2+x,1/2-y,z
loop_
_atom_site_type_symbol
_atom_site_label
_atom_site_fract_x
_atom_site_fract_y
_atom_site_fract_z
Si Si1 0.404032 0.181778 0.956753
Si Si2 0.069879 0.613632 0.612667
Si Si3 0.600455 0.381945 0.711822
Si Si4 0.949986 0.781961 0.642131
Si Si5 0.000000 0.653717 0.000000
Si Si6 0.796127 0.884336 0.580831
O O1 0.491355 0.129099 0.785733
O O2 0.476552 0.295950 0.878022
O O3 0.432174 0.121588 0.999914
O O4 0.227392 0.192853 0.147424
O O5 0.041783 0.500000 0.618703
O O6 0.250007 0.624780 0.414473
O O7 0.997264 0.693509 0.642858
O O8 0.545504 0.500000 0.779851
O O9 0.658804 0.362719 0.557818
O O10 0.000000 0.754463 0.500000
O O11 0.053743 0.874270 0.548120
O O12 0.164905 0.687573 0.770299
O O13 0.735761 0.000000 0.656644
#
# Coordination Sequence:
#
# PCOD9216028 Si02
#       6
#     8   8   8   8   4   8
#     4  12  24  42  68  95 130 168 212 262 320 383
#     4  11  24  43  67  94 127 169 216 262 313 378
#     4  10  22  42  70  96 121 166 220 266 311 374
#     4  12  26  44  62  94 133 171 211 260 323 376
#     4  12  23  40  69  98 130 168 207 264 317 378
#     4  11  23  42  67  97 131 165 209 264 319 381
#
# _framework density 21.179905000000002
#
# number of rings (size 3 to 8) (size 9 to 14) (size 15 to 20)
#    0.000    0.727    5.455    2.455    0.000    2.909 
#    0.000    0.455    0.000    0.000    0.000    0.000 
#    0.000    0.000    0.000    0.000    0.000    0.000 
#
# Total GULP energy -122671.257255 kJ/mol
# GULP energy per Si atom -5575.966239 kJ/mol
# Density = 2.113170 g / cm^3
# Si number density = 21.179905 Si / 1000 Ang^3
#
#
#
# Elastic Constant Matrix: (Units=GPa)
#
#
# Indices 1 2 3 4 5 6 
#
# 1 125.3741 24.6746 13.9422 0.0000 -11.3338 0.0001
# 2 24.6746 86.4269 31.8944 -0.0002 -0.3150 0.0003
# 3 13.9422 31.8944 88.9264 -0.0001 -37.1894 0.0004
# 4 0.0000 -0.0002 -0.0001 5.1449 0.0001 -15.0518
# 5 -11.3338 -0.3150 -37.1894 0.0001 50.1750 -0.0002
# 6 0.0001 0.0003 0.0004 -15.0518 -0.0002 -13.0608
#
#
#
# Elastic Compliance Matrix: (Units=1/GPa)
#
#
# Indices 1 2 3 4 5 6 
#
# 1 0.008653 -0.002684 0.000604 0.000000 0.002385 0.000000
# 2 -0.002684 0.015100 -0.007549 0.000000 -0.006107 0.000000
# 3 0.000604 -0.007549 0.020137 0.000000 0.015015 0.000000
# 4 0.000000 0.000000 0.000000 0.044462 0.000000 -0.051240
# 5 0.002385 -0.006107 0.015015 0.000000 0.031559 0.000000
# 6 0.000000 0.000000 0.000000 -0.051240 0.000000 -0.017514
#
#
# Mechanical properties :
#
#
# Convention : Reuss Voigt Hill
#
# Bulk Modulus (GPa) = 40.59896 49.08331 44.84113
# Shear Modulus (GPa) = 38.50075 23.79956 31.15015
#
# Velocity S-wave (km/s) = 4.26819 3.35578 3.83918
# Velocity P-wave (km/s) = 6.59546 6.18383 6.39296
#
# Compressibility (1/GPa) = 0.02463117
#
# Stress axis : x y z
#
# Youngs Moduli (GPa) = 115.56763 66.22326 49.65903
#
# Poissons Ratio (x) = 0.17777 -0.02998
# Poissons Ratio (y) = 0.31024 0.37487
# Poissons Ratio (z) = -0.06976 0.49992
#
# Static dielectric constant tensor:
#      x y z
#    x 1.732410 0.000000 -0.004440 
#    y 0.000000 1.835140 0.000000 
#    z -0.004440 0.000000 1.742990 
# 
# From -- ./inp_files/73205.got.cif
#   From: 2010.05.17/outbox.cif.g08.bks.cpg/sg12_37_cif.got.tgz:73205.got - 2010.06.03 13:09:07.
