data_PCOD9216404
_publ_section_title
;
Structure prediction by ZEFSAII (Michael W. Deem and Ramdas Pophale) SiO2 
 PCOD9216404
Probable space group: C 2/M
;
_chemical_formula_sum "Si O2"
_cell_formula_units_Z 58
_cell_length_a 17.505081
_cell_length_b 21.143649
_cell_length_c 8.841397
_cell_angle_alpha 90.000000
_cell_angle_beta 63.521461
_cell_angle_gamma 90.000000
_cell_volume 2929.120293
_symmetry_space_group_name_H-M "C 2/M"
_symmetry_group_IT_number 12
_symmetry_cell_setting 'monoclinic'
loop_
_space_group_symop_operation_xyz
x,y,z
-x,y,-z
-x,-y,-z
x,-y,z
1/2+x,1/2+y,z
1/2-x,1/2+y,-z
1/2-x,1/2-y,-z
1/2+x,1/2-y,z
loop_
_atom_site_type_symbol
_atom_site_label
_atom_site_fract_x
_atom_site_fract_y
_atom_site_fract_z
Si Si1 0.849617 0.704462 0.504816
Si Si2 0.073632 0.285275 0.058013
Si Si3 0.388251 0.111707 0.745445
Si Si4 0.280536 0.574205 0.916506
Si Si5 0.763777 0.318830 0.278748
Si Si6 0.491374 0.697039 0.329386
Si Si7 0.523239 0.570924 0.155698
Si Si8 0.000000 0.500000 0.500000
O O1 0.878072 0.657112 0.609501
O O2 0.801653 0.667369 0.412669
O O3 0.795299 0.758894 0.635289
O O4 0.922775 0.747536 0.364075
O O5 0.063964 0.347952 0.167572
O O6 0.072833 0.225095 0.169832
O O7 0.161510 0.293394 0.893813
O O8 0.000000 0.277585 0.000000
O O9 0.444855 0.054294 0.639931
O O10 0.296005 0.092564 0.899153
O O11 0.268583 0.500000 0.885465
O O12 0.275041 0.621357 0.776545
O O13 0.375169 0.579473 0.905331
O O14 0.500000 0.692620 0.500000
O O15 0.473926 0.627877 0.280732
O O16 0.500970 0.500000 0.229842
O O17 0.500000 0.574392 0.000000
#
# Coordination Sequence:
#
# PCOD9216404 Si02
#       8
#     8   8   8   8   8   8   8   2
#     4  11  23  41  61 100 133 167 220 272 330 391
#     4  11  22  39  63  95 128 174 221 272 322 392
#     4  11  24  41  66  90 136 175 220 264 326 387
#     4  10  22  45  65  96 130 173 221 267 320 397
#     4  10  24  40  65  95 132 172 216 272 331 385
#     4  12  22  38  64  94 131 170 211 280 323 383
#     4  10  24  43  69  95 127 169 221 267 326 397
#     4  12  24  44  62 100 130 184 208 276 318 394
#
# _framework density 19.801169000000002
#
# number of rings (size 3 to 8) (size 9 to 14) (size 15 to 20)
#    0.000    1.241    3.448    2.069    1.931    2.483 
#    1.241    1.034    0.000    0.000    0.000    0.000 
#    0.000    0.000    0.000    0.000    0.000    0.000 
#
# Total GULP energy -161630.528330 kJ/mol
# GULP energy per Si atom -5573.466494 kJ/mol
# Density = 1.975610 g / cm^3
# Si number density = 19.801169 Si / 1000 Ang^3
#
#
#
# Elastic Constant Matrix: (Units=GPa)
#
#
# Indices 1 2 3 4 5 6 
#
# 1 53.2961 28.2961 40.1869 0.0000 17.3379 0.0000
# 2 28.2961 122.9142 71.5561 0.0000 14.0778 0.0000
# 3 40.1869 71.5561 114.4078 0.0000 17.1190 0.0000
# 4 0.0000 0.0000 0.0000 56.4536 0.0000 -15.0298
# 5 17.3379 14.0778 17.1190 0.0000 28.7408 0.0000
# 6 0.0000 0.0000 0.0000 -15.0298 0.0000 29.9960
#
#
#
# Elastic Compliance Matrix: (Units=1/GPa)
#
#
# Indices 1 2 3 4 5 6 
#
# 1 0.029202 -0.000640 -0.007980 0.000000 -0.012550 0.000000
# 2 -0.000640 0.012880 -0.007624 0.000000 -0.001382 0.000000
# 3 -0.007980 -0.007624 0.016504 0.000000 -0.001282 0.000000
# 4 0.000000 0.000000 0.000000 0.020440 0.000000 0.010242
# 5 -0.012550 -0.001382 -0.001282 0.000000 0.043805 0.000000
# 6 0.000000 0.000000 0.000000 0.010242 0.000000 0.038470
#
#
# Mechanical properties :
#
#
# Convention : Reuss Voigt Hill
#
# Bulk Modulus (GPa) = 38.31584 63.41070 50.86327
# Shear Modulus (GPa) = 24.69287 33.07668 28.88477
#
# Velocity S-wave (km/s) = 3.53518 4.09154 3.82349
# Velocity P-wave (km/s) = 6.00463 7.37659 6.72569
#
# Compressibility (1/GPa) = 0.02609886
#
# Stress axis : x y z
#
# Youngs Moduli (GPa) = 34.24390 77.64095 60.59164
#
# Poissons Ratio (x) = 0.04968 0.48349
# Poissons Ratio (y) = 0.02191 0.46196
# Poissons Ratio (z) = 0.27325 0.59195
#
# Static dielectric constant tensor:
#      x y z
#    x 1.756180 0.000000 -0.056570 
#    y 0.000000 1.681230 0.000000 
#    z -0.056570 0.000000 1.764050 
# 
# From -- ./inp_files/88427.got.cif
#   From: 2010.05.17/outbox.cif.g08.bks.cpg/sg12_45_cif.got.tgz:88427.got - 2010.06.03 13:09:07.
