data_PCOD9216305
_publ_section_title
;
Structure prediction by ZEFSAII (Michael W. Deem and Ramdas Pophale) SiO2 
 PCOD9216305
Probable space group: C 2/M
;
_chemical_formula_sum "Si O2"
_cell_formula_units_Z 60
_cell_length_a 10.332016
_cell_length_b 22.036450
_cell_length_c 21.731460
_cell_angle_alpha 90.000000
_cell_angle_beta 147.541372
_cell_angle_gamma 90.000000
_cell_volume 2655.458351
_symmetry_space_group_name_H-M "C 2/M"
_symmetry_group_IT_number 12
_symmetry_cell_setting 'monoclinic'
loop_
_space_group_symop_operation_xyz
x,y,z
-x,y,-z
-x,-y,-z
x,-y,z
1/2+x,1/2+y,z
1/2-x,1/2+y,-z
1/2-x,1/2-y,-z
1/2+x,1/2-y,z
loop_
_atom_site_type_symbol
_atom_site_label
_atom_site_fract_x
_atom_site_fract_y
_atom_site_fract_z
Si Si1 0.500000 0.294888 0.500000
Si Si2 0.236157 0.431837 0.552609
Si Si3 0.779244 0.621594 0.041147
Si Si4 0.222510 0.931297 0.148385
Si Si5 0.445764 0.864257 0.636699
Si Si6 0.214770 0.247167 0.707980
Si Si7 0.700110 0.370371 0.789398
Si Si8 0.257414 0.712488 0.079939
O O1 0.733788 0.336606 0.591991
O O2 0.455341 0.257061 0.420340
O O3 0.273253 0.500000 0.543219
O O4 0.179606 0.384725 0.476168
O O5 0.470767 0.411434 0.684221
O O6 0.000000 0.431830 0.500000
O O7 0.541625 0.582688 0.930391
O O8 0.750856 0.685551 0.992950
O O9 0.773196 0.615776 0.112934
O O10 0.043937 0.600329 0.126352
O O11 0.422053 0.920326 0.279448
O O12 0.233829 0.000000 0.129324
O O13 0.641609 0.811004 0.708389
O O14 0.172145 0.190240 0.735603
O O15 0.500306 0.250214 0.809424
O O16 0.715366 0.346634 0.864978
O O17 0.000000 0.739286 0.000000
#
# Coordination Sequence:
#
# PCOD9216305 Si02
#       8
#     4   8   8   8   8   8   8   8
#     4  12  26  42  67 108 135 188 226 280 354 416
#     4  11  26  46  70  99 136 183 232 286 346 409
#     4  10  22  44  66 101 135 178 229 285 343 406
#     4  11  24  45  73 101 137 185 235 289 347 409
#     4  12  25  45  70 102 140 180 230 290 345 420
#     4  12  24  44  70 103 142 184 228 282 349 418
#     4  11  24  45  70 104 140 181 232 282 350 412
#     4  10  23  43  68 100 141 178 228 282 343 415
#
# _framework density 22.594968000000001
#
# number of rings (size 3 to 8) (size 9 to 14) (size 15 to 20)
#    0.000    0.933    2.667    4.000    2.800    3.200 
#    4.800    1.333    0.000    6.000    0.000    0.000 
#    0.000    0.000    0.000    0.000    0.000    0.000 
#
# Total GULP energy -167769.177697 kJ/mol
# GULP energy per Si atom -5592.305923 kJ/mol
# Density = 2.254354 g / cm^3
# Si number density = 22.594968 Si / 1000 Ang^3
#
#
#
# Elastic Constant Matrix: (Units=GPa)
#
#
# Indices 1 2 3 4 5 6 
#
# 1 60.1463 34.5151 21.7977 0.0036 14.4585 0.0012
# 2 34.5151 84.1402 19.6128 0.0024 15.9310 0.0004
# 3 21.7977 19.6128 130.0699 0.0071 21.9525 0.0022
# 4 0.0036 0.0024 0.0071 -24.4928 0.0059 -12.5913
# 5 14.4585 15.9310 21.9525 0.0059 42.8968 0.0013
# 6 0.0012 0.0004 0.0022 -12.5913 0.0013 7.6032
#
#
#
# Elastic Compliance Matrix: (Units=1/GPa)
#
#
# Indices 1 2 3 4 5 6 
#
# 1 0.022968 -0.008267 -0.001986 0.000001 -0.003655 0.000000
# 2 -0.008267 0.015943 -0.000536 -0.000001 -0.002860 0.000000
# 3 -0.001986 -0.000536 0.008707 0.000001 -0.003588 0.000000
# 4 0.000001 -0.000001 0.000001 -0.022053 0.000003 -0.036522
# 5 -0.003655 -0.002860 -0.003588 0.000003 0.027442 0.000003
# 6 0.000000 0.000000 0.000000 -0.036522 0.000003 0.071042
#
#
# Mechanical properties :
#
#
# Convention : Reuss Voigt Hill
#
# Bulk Modulus (GPa) = 38.40045 47.35640 42.87843
# Shear Modulus (GPa) = 32.40309 18.43016 25.41662
#
# Velocity S-wave (km/s) = 3.79104 2.85910 3.35756
# Velocity P-wave (km/s) = 6.01620 5.64833 5.83516
#
# Compressibility (1/GPa) = 0.02604136
#
# Stress axis : x y z
#
# Youngs Moduli (GPa) = 43.53797 62.72534 114.84693
#
# Poissons Ratio (x) = 0.51855 0.22805
# Poissons Ratio (y) = 0.35993 0.06153
# Poissons Ratio (z) = 0.08645 0.03361
#
# Static dielectric constant tensor:
#      x y z
#    x 3.173230 -0.000010 0.087640 
#    y -0.000010 1.803940 0.000000 
#    z 0.087640 0.000000 1.853800 
# 
# From -- ./inp_files/336890.got.cif
#   From: 2010.05.17/outbox.cif.g08.bks.cpg/sg12_169_cif.got.tgz:336890.got - 2010.06.03 13:09:07.
