data_PCOD9216957
_publ_section_title
;
Structure prediction by ZEFSAII (Michael W. Deem and Ramdas Pophale) SiO2 
 PCOD9216957
Probable space group: C 2/M
;
_chemical_formula_sum "Si O2"
_cell_formula_units_Z 56
_cell_length_a 31.425415
_cell_length_b 8.814116
_cell_length_c 12.086563
_cell_angle_alpha 90.000000
_cell_angle_beta 55.481971
_cell_angle_gamma 90.000000
_cell_volume 2758.432525
_symmetry_space_group_name_H-M "C 2/M"
_symmetry_group_IT_number 12
_symmetry_cell_setting 'monoclinic'
loop_
_space_group_symop_operation_xyz
x,y,z
-x,y,-z
-x,-y,-z
x,-y,z
1/2+x,1/2+y,z
1/2-x,1/2+y,-z
1/2-x,1/2-y,-z
1/2+x,1/2-y,z
loop_
_atom_site_type_symbol
_atom_site_label
_atom_site_fract_x
_atom_site_fract_y
_atom_site_fract_z
Si Si1 0.319904 0.179879 0.156614
Si Si2 0.390483 0.178659 0.669261
Si Si3 0.192937 0.819476 0.592019
Si Si4 0.603808 0.180824 0.585307
Si Si5 0.512025 0.679562 0.856603
Si Si6 0.906667 0.177397 0.876537
Si Si7 0.766978 0.679122 0.858161
O O1 0.330402 0.262808 0.256856
O O2 0.265266 0.237362 0.189308
O O3 0.319248 0.000000 0.173630
O O4 0.362598 0.226564 0.003388
O O5 0.410308 0.226114 0.519395
O O6 0.410506 0.271374 0.744102
O O7 0.328320 0.195365 0.756277
O O8 0.401879 0.000000 0.669557
O O9 0.250000 0.750000 0.500000
O O10 0.156144 0.759045 0.549517
O O11 0.195771 0.000000 0.585695
O O12 0.558544 0.228638 0.734436
O O13 0.611669 0.000000 0.573925
O O14 0.525651 0.500000 0.837199
O O15 0.460517 0.699121 0.860239
O O16 0.500000 0.725081 0.000000
O O17 0.892420 0.000000 0.904097
O O18 0.754612 0.500000 0.874004
O O19 0.750000 0.750000 0.000000
#
# Coordination Sequence:
#
# PCOD9216957 Si02
#       7
#     8   8   8   8   8   8   8
#     4  12  24  39  62  93 129 168 213 265 321 379
#     4  10  23  41  61  89 129 169 208 259 316 383
#     4  12  25  43  66  94 129 167 211 261 316 380
#     4  11  24  43  67  95 127 168 213 259 320 383
#     4  10  23  44  67  92 124 163 209 265 327 384
#     4  11  23  39  64  94 124 164 215 267 319 378
#     4  11  21  36  59  89 127 170 214 259 312 375
#
# _framework density 20.301383000000001
#
# number of rings (size 3 to 8) (size 9 to 14) (size 15 to 20)
#    0.000    1.000    1.429    5.571    0.000    6.000 
#    0.000    2.857    0.000    0.000    0.000    0.000 
#    0.000    0.000    0.000    0.000    0.000    0.000 
#
# Total GULP energy -156740.788543 kJ/mol
# GULP energy per Si atom -5597.885305 kJ/mol
# Density = 2.025518 g / cm^3
# Si number density = 20.301383 Si / 1000 Ang^3
#
#
#
# Elastic Constant Matrix: (Units=GPa)
#
#
# Indices 1 2 3 4 5 6 
#
# 1 77.7848 50.2128 33.4973 0.0000 22.6317 0.0000
# 2 50.2128 116.9951 43.9888 0.0000 8.3572 0.0000
# 3 33.4973 43.9888 112.3888 0.0000 20.9383 0.0000
# 4 0.0000 0.0000 0.0000 33.3219 0.0000 5.8413
# 5 22.6317 8.3572 20.9383 0.0000 32.1965 0.0000
# 6 0.0000 0.0000 0.0000 5.8413 0.0000 29.1720
#
#
#
# Elastic Compliance Matrix: (Units=1/GPa)
#
#
# Indices 1 2 3 4 5 6 
#
# 1 0.022432 -0.008320 -0.001017 0.000000 -0.012947 0.000000
# 2 -0.008320 0.013108 -0.003535 0.000000 0.004745 0.000000
# 3 -0.001017 -0.003535 0.011697 0.000000 -0.005975 0.000000
# 4 0.000000 0.000000 0.000000 0.031102 0.000000 -0.006228
# 5 -0.012947 0.004745 -0.005975 0.000000 0.042814 0.000000
# 6 0.000000 0.000000 0.000000 -0.006228 0.000000 0.035526
#
#
# Mechanical properties :
#
#
# Convention : Reuss Voigt Hill
#
# Bulk Modulus (GPa) = 46.52601 62.50738 54.51670
# Shear Modulus (GPa) = 26.37287 30.90274 28.63781
#
# Velocity S-wave (km/s) = 3.60817 3.90577 3.75991
# Velocity P-wave (km/s) = 6.35027 7.15518 6.76471
#
# Compressibility (1/GPa) = 0.02149335
#
# Stress axis : x y z
#
# Youngs Moduli (GPa) = 44.57931 76.28702 85.48872
#
# Poissons Ratio (x) = 0.63472 0.08697
# Poissons Ratio (y) = 0.37091 0.30218
# Poissons Ratio (z) = 0.04535 0.26965
#
# Static dielectric constant tensor:
#      x y z
#    x 1.700260 0.000000 0.009950 
#    y 0.000000 1.684320 0.000000 
#    z 0.009950 0.000000 1.725470 
# 
# From -- ./inp_files/187178.got.cif
#   From: 2010.05.17/outbox.cif.g08.bks.cpg/sg12_94_cif.got.tgz:187178.got - 2010.06.03 13:09:07.
