data_PCOD9216194
_publ_section_title
;
Structure prediction by ZEFSAII (Michael W. Deem and Ramdas Pophale) SiO2 
 PCOD9216194
Probable space group: C 2/M
;
_chemical_formula_sum "Si O2"
_cell_formula_units_Z 52
_cell_length_a 8.202605
_cell_length_b 14.524285
_cell_length_c 29.011336
_cell_angle_alpha 90.000000
_cell_angle_beta 37.757519
_cell_angle_gamma 90.000000
_cell_volume 2116.379132
_symmetry_space_group_name_H-M "C 2/M"
_symmetry_group_IT_number 12
_symmetry_cell_setting 'monoclinic'
loop_
_space_group_symop_operation_xyz
x,y,z
-x,y,-z
-x,-y,-z
x,-y,z
1/2+x,1/2+y,z
1/2-x,1/2+y,-z
1/2-x,1/2-y,-z
1/2+x,1/2-y,z
loop_
_atom_site_type_symbol
_atom_site_label
_atom_site_fract_x
_atom_site_fract_y
_atom_site_fract_z
Si Si1 0.402099 0.169846 0.878191
Si Si2 0.962691 0.000000 0.294009
Si Si3 0.594286 0.311654 0.296884
Si Si4 0.866624 0.197213 0.610474
Si Si5 0.137271 0.638719 0.923295
Si Si6 0.903654 0.500000 0.821091
Si Si7 0.388905 0.105988 0.471840
Si Si8 0.102158 0.000000 0.798195
O O1 0.215374 0.256752 0.916204
O O2 0.457324 0.135746 0.917572
O O3 0.287879 0.090361 0.871012
O O4 0.689596 0.197205 0.791391
O O5 0.909237 0.900339 0.327504
O O6 0.857945 0.000000 0.265487
O O7 0.288841 0.000000 0.229292
O O8 0.713230 0.330373 0.319894
O O9 0.421062 0.221230 0.344856
O O10 0.067658 0.121981 0.546189
O O11 0.017053 0.296254 0.571217
O O12 0.409925 0.586090 0.851535
O O13 0.000000 0.601862 0.000000
O O14 0.843455 0.500000 0.780411
O O15 0.500000 0.108774 0.500000
O O16 0.437236 0.000000 0.443776
#
# Coordination Sequence:
#
# PCOD9216194 Si02
#       8
#     8   4   8   8   8   4   8   4
#     4  11  23  45  66 101 144 182 237 302 356 428
#     4  10  24  47  68  98 143 184 236 288 359 440
#     4  11  23  42  69  95 140 175 228 289 351 414
#     4  11  23  39  68 102 128 181 233 276 342 410
#     4  12  24  43  69  99 139 191 242 293 361 433
#     4  10  22  44  71  98 139 182 227 284 373 419
#     4  10  22  43  68  94 140 185 230 277 336 412
#     4  12  23  45  70 101 139 188 233 302 364 421
#
# _framework density 24.570267999999999
#
# number of rings (size 3 to 8) (size 9 to 14) (size 15 to 20)
#    0.000    1.077    4.615    2.538    2.154    1.231 
#    0.000    2.692    1.692    0.000    0.000    0.000 
#    0.000    0.000    0.000    0.000    0.000    0.000 
#
# Total GULP energy -145181.122898 kJ/mol
# GULP energy per Si atom -5583.889342 kJ/mol
# Density = 2.451434 g / cm^3
# Si number density = 24.570268 Si / 1000 Ang^3
#
#
#
# Elastic Constant Matrix: (Units=GPa)
#
#
# Indices 1 2 3 4 5 6 
#
# 1 118.7786 25.0058 9.7171 0.0048 39.0786 -0.0055
# 2 25.0058 109.1336 8.9488 0.0078 -3.1304 -0.0056
# 3 9.7171 8.9488 42.0256 0.0012 23.2953 -0.0071
# 4 0.0048 0.0078 0.0012 40.6189 -0.0038 -1.1527
# 5 39.0786 -3.1304 23.2953 -0.0038 36.0319 0.0022
# 6 -0.0055 -0.0056 -0.0071 -1.1527 0.0022 20.6437
#
#
#
# Elastic Compliance Matrix: (Units=1/GPa)
#
#
# Indices 1 2 3 4 5 6 
#
# 1 0.017896 -0.005953 0.012741 -0.000004 -0.028164 0.000010
# 2 -0.005953 0.011559 -0.008136 0.000000 0.012721 -0.000003
# 3 0.012741 -0.008136 0.047743 -0.000005 -0.045393 0.000022
# 4 -0.000004 0.000000 -0.000005 0.024658 0.000010 0.001377
# 5 -0.028164 0.012721 -0.045393 0.000010 0.088751 -0.000029
# 6 0.000010 -0.000003 0.000022 0.001377 -0.000029 0.048518
#
#
# Mechanical properties :
#
#
# Convention : Reuss Voigt Hill
#
# Bulk Modulus (GPa) = 13.42240 39.69790 26.56015
# Shear Modulus (GPa) = 18.75075 34.54330 26.64702
#
# Velocity S-wave (km/s) = 2.76551 3.75360 3.29678
# Velocity P-wave (km/s) = 3.95880 5.91422 5.03240
#
# Compressibility (1/GPa) = 0.07450232
#
# Stress axis : x y z
#
# Youngs Moduli (GPa) = 55.87823 86.51122 20.94538
#
# Poissons Ratio (x) = 0.51502 -0.26687
# Poissons Ratio (y) = 0.33265 0.17042
# Poissons Ratio (z) = -0.71197 0.70389
#
# Static dielectric constant tensor:
#      x y z
#    x 1.932710 0.000000 -0.105900 
#    y 0.000000 2.060610 0.000000 
#    z -0.105900 0.000000 2.067470 
# 
# From -- ./inp_files/372527.got.cif
#   From: 2010.05.17/outbox.cif.g08.bks.cpg/sg12_187_cif.got.tgz:372527.got - 2010.06.03 13:09:07.
