data_PCOD9216494
_publ_section_title
;
Structure prediction by ZEFSAII (Michael W. Deem and Ramdas Pophale) SiO2 
 PCOD9216494
Probable space group: C 2/M
;
_chemical_formula_sum "Si O2"
_cell_formula_units_Z 48
_cell_length_a 14.999118
_cell_length_b 16.125286
_cell_length_c 18.071223
_cell_angle_alpha 90.000000
_cell_angle_beta 150.460498
_cell_angle_gamma 90.000000
_cell_volume 2154.905921
_symmetry_space_group_name_H-M "C 2/M"
_symmetry_group_IT_number 12
_symmetry_cell_setting 'monoclinic'
loop_
_space_group_symop_operation_xyz
x,y,z
-x,y,-z
-x,-y,-z
x,-y,z
1/2+x,1/2+y,z
1/2-x,1/2+y,-z
1/2-x,1/2-y,-z
1/2+x,1/2-y,z
loop_
_atom_site_type_symbol
_atom_site_label
_atom_site_fract_x
_atom_site_fract_y
_atom_site_fract_z
Si Si1 0.738389 0.667874 0.244578
Si Si2 0.054880 0.867179 0.845037
Si Si3 0.416777 0.000000 0.332403
Si Si4 0.299336 0.211576 0.916524
Si Si5 0.324485 0.000000 0.099473
Si Si6 0.286504 0.840895 0.755535
Si Si7 0.660893 0.500000 0.402812
Si Si8 0.754250 0.500000 0.635790
O O1 0.564206 0.646754 0.168275
O O2 0.857588 0.585507 0.328490
O O3 0.702542 0.704344 0.135181
O O4 0.807426 0.753369 0.331612
O O5 0.142342 0.790604 0.863806
O O6 0.932831 0.920315 0.701196
O O7 0.224618 0.921769 0.992479
O O8 0.628870 0.000000 0.468970
O O9 0.310139 0.000000 0.177431
O O10 0.251771 0.144643 0.817739
O O11 0.496764 0.182899 0.088457
O O12 0.533530 0.000000 0.230941
O O13 0.228437 0.916988 0.664481
O O14 0.649552 0.500000 0.483050
#
# Coordination Sequence:
#
# PCOD9216494 Si02
#       8
#     8   8   4   8   4   8   4   4
#     4  10  24  41  68 105 133 182 220 286 352 387
#     4  11  22  43  66  97 140 175 232 281 328 416
#     4  11  24  46  65  96 150 172 233 290 321 424
#     4   9  21  41  63 108 138 164 229 286 343 401
#     4  10  23  32  70  99 121 181 223 278 348 366
#     4   9  21  40  65 106 135 174 222 281 357 391
#     4  10  27  44  67 106 133 191 235 267 346 405
#     4  11  20  45  65  97 140 178 227 282 332 412
#
# _framework density 22.274754999999999
#
# number of rings (size 3 to 8) (size 9 to 14) (size 15 to 20)
#    1.000    1.000    1.667    1.000    4.667    8.000 
#    0.000    6.667    0.000    0.000    0.000    0.000 
#    0.000    0.000    0.000    0.000    0.000    0.000 
#
# Total GULP energy -133812.630498 kJ/mol
# GULP energy per Si atom -5575.526271 kJ/mol
# Density = 2.222406 g / cm^3
# Si number density = 22.274755 Si / 1000 Ang^3
#
#
#
# Elastic Constant Matrix: (Units=GPa)
#
#
# Indices 1 2 3 4 5 6 
#
# 1 113.2857 60.8718 51.8570 0.0000 1.0006 0.0040
# 2 60.8718 158.2947 49.0243 -0.0020 -16.7026 0.0098
# 3 51.8570 49.0243 107.7874 -0.0082 -15.0823 0.0168
# 4 0.0000 -0.0020 -0.0082 -13.1697 -0.0038 14.6837
# 5 1.0006 -16.7026 -15.0823 -0.0038 31.8130 0.0085
# 6 0.0040 0.0098 0.0168 14.6837 0.0085 19.8764
#
#
#
# Elastic Compliance Matrix: (Units=1/GPa)
#
#
# Indices 1 2 3 4 5 6 
#
# 1 0.013518 -0.004076 -0.005365 0.000007 -0.005108 0.000001
# 2 -0.004076 0.008763 -0.001460 -0.000003 0.004037 -0.000002
# 3 -0.005365 -0.001460 0.013323 -0.000013 0.005718 -0.000003
# 4 0.000007 -0.000003 -0.000013 -0.041636 -0.000021 0.030759
# 5 -0.005108 0.004037 0.005718 -0.000021 0.036425 -0.000006
# 6 0.000001 -0.000002 -0.000003 0.030759 -0.000006 0.027588
#
#
# Mechanical properties :
#
#
# Convention : Reuss Voigt Hill
#
# Bulk Modulus (GPa) = 72.44849 78.09710 75.27280
# Shear Modulus (GPa) = 59.25514 22.21159 40.73336
#
# Velocity S-wave (km/s) = 5.16330 3.16122 4.28094
# Velocity P-wave (km/s) = 8.25480 6.96142 7.63554
#
# Compressibility (1/GPa) = 0.01380291
#
# Stress axis : x y z
#
# Youngs Moduli (GPa) = 73.97455 114.11948 75.06088
#
# Poissons Ratio (x) = 0.46515 0.40267
# Poissons Ratio (y) = 0.30152 0.10957
# Poissons Ratio (z) = 0.39684 0.16658
#
# Static dielectric constant tensor:
#      x y z
#    x 1.872300 0.000000 -0.012950 
#    y 0.000000 1.857350 0.000000 
#    z -0.012950 0.000000 1.790860 
# 
# From -- ./inp_files/271849.got.cif
#   From: 2010.05.17/outbox.cif.g08.bks.cpg/sg12_136_cif.got.tgz:271849.got - 2010.06.03 13:09:07.
