data_PCOD9216336
_publ_section_title
;
Structure prediction by ZEFSAII (Michael W. Deem and Ramdas Pophale) SiO2 
 PCOD9216336
Probable space group: C 2/M
;
_chemical_formula_sum "Si O2"
_cell_formula_units_Z 40
_cell_length_a 8.942385
_cell_length_b 13.369873
_cell_length_c 20.423514
_cell_angle_alpha 90.000000
_cell_angle_beta 124.794021
_cell_angle_gamma 90.000000
_cell_volume 2005.232278
_symmetry_space_group_name_H-M "C 2/M"
_symmetry_group_IT_number 12
_symmetry_cell_setting 'monoclinic'
loop_
_space_group_symop_operation_xyz
x,y,z
-x,y,-z
-x,-y,-z
x,-y,z
1/2+x,1/2+y,z
1/2-x,1/2+y,-z
1/2-x,1/2-y,-z
1/2+x,1/2-y,z
loop_
_atom_site_type_symbol
_atom_site_label
_atom_site_fract_x
_atom_site_fract_y
_atom_site_fract_z
Si Si1 0.377913 0.798128 0.789875
Si Si2 0.709343 0.880423 0.943286
Si Si3 0.024202 0.881317 0.111951
Si Si4 0.982948 0.747817 0.679755
Si Si5 0.127421 0.382734 0.595764
O O1 0.505776 0.846023 0.876925
O O2 0.413788 0.679816 0.810026
O O3 0.444685 0.821070 0.733768
O O4 0.163907 0.812311 0.740495
O O5 0.835723 0.855139 0.911953
O O6 0.707299 0.000000 0.945739
O O7 0.823018 0.849960 0.036171
O O8 0.028383 0.000000 0.122260
O O9 0.812168 0.820906 0.627665
O O10 0.028583 0.677635 0.629663
O O11 0.160227 0.500000 0.620133
O O12 0.000000 0.379756 0.500000
#
# Coordination Sequence:
#
# PCOD9216336 Si02
#       5
#     8   8   8   8   8
#     4  11  19  35  54  83 119 151 187 244 300 336
#     4   9  18  32  51  76 107 152 203 245 286 339
#     4   9  18  33  53  74 105 156 207 241 285 344
#     4  10  23  36  60  94 121 150 196 240 293 360
#     4  10  22  44  69  90 120 158 190 233 293 357
#
# _framework density 19.947814000000001
#
# number of rings (size 3 to 8) (size 9 to 14) (size 15 to 20)
#    0.000    2.200    2.000    2.400    0.000    4.800 
#    0.000    3.000    0.000   13.200    0.000    0.000 
#    0.000    0.000    0.000    0.000    0.000    0.000 
#
# Total GULP energy -111574.062038 kJ/mol
# GULP energy per Si atom -5578.703102 kJ/mol
# Density = 1.990241 g / cm^3
# Si number density = 19.947814 Si / 1000 Ang^3
#
#
#
# Elastic Constant Matrix: (Units=GPa)
#
#
# Indices 1 2 3 4 5 6 
#
# 1 90.9513 34.7022 42.1781 0.0000 13.6888 0.0000
# 2 34.7022 77.7270 37.7362 0.0000 5.6687 0.0000
# 3 42.1781 37.7362 98.7135 0.0000 21.1732 0.0000
# 4 0.0000 0.0000 0.0000 24.8264 0.0000 0.0727
# 5 13.6888 5.6687 21.1732 0.0000 32.3617 0.0000
# 6 0.0000 0.0000 0.0000 0.0727 0.0000 17.5348
#
#
#
# Elastic Compliance Matrix: (Units=1/GPa)
#
#
# Indices 1 2 3 4 5 6 
#
# 1 0.015050 -0.004529 -0.004076 0.000000 -0.002906 0.000000
# 2 -0.004529 0.017213 -0.005129 0.000000 0.002256 0.000000
# 3 -0.004076 -0.005129 0.015437 0.000000 -0.007477 0.000000
# 4 0.000000 0.000000 0.000000 0.040280 0.000000 -0.000167
# 5 -0.002906 0.002256 -0.007477 0.000000 0.036627 0.000000
# 6 0.000000 0.000000 0.000000 -0.000167 0.000000 0.057030
#
#
# Mechanical properties :
#
#
# Convention : Reuss Voigt Hill
#
# Bulk Modulus (GPa) = 49.42644 55.18053 52.30349
# Shear Modulus (GPa) = 23.16435 25.12960 24.14697
#
# Velocity S-wave (km/s) = 3.41140 3.55317 3.48301
# Velocity P-wave (km/s) = 6.35205 6.67502 6.51554
#
# Compressibility (1/GPa) = 0.02023208
#
# Stress axis : x y z
#
# Youngs Moduli (GPa) = 66.44316 58.09554 64.78124
#
# Poissons Ratio (x) = 0.26309 0.26406
# Poissons Ratio (y) = 0.30089 0.33228
# Poissons Ratio (z) = 0.27084 0.29799
#
# Static dielectric constant tensor:
#      x y z
#    x 1.719620 0.000000 0.012250 
#    y 0.000000 1.718910 0.000000 
#    z 0.012250 0.000000 1.710440 
# 
# From -- ./inp_files/194437.got.cif
#   From: 2010.05.17/outbox.cif.g08.bks.cpg/sg12_98_cif.got.tgz:194437.got - 2010.06.03 13:09:07.
