data_PCOD9216504
_publ_section_title
;
Structure prediction by ZEFSAII (Michael W. Deem and Ramdas Pophale) SiO2 
 PCOD9216504
Probable space group: C 2/M
;
_chemical_formula_sum "Si O2"
_cell_formula_units_Z 32
_cell_length_a 5.375402
_cell_length_b 24.128919
_cell_length_c 12.126595
_cell_angle_alpha 90.000000
_cell_angle_beta 75.448519
_cell_angle_gamma 90.000000
_cell_volume 1522.397893
_symmetry_space_group_name_H-M "C 2/M"
_symmetry_group_IT_number 12
_symmetry_cell_setting 'monoclinic'
loop_
_space_group_symop_operation_xyz
x,y,z
-x,y,-z
-x,-y,-z
x,-y,z
1/2+x,1/2+y,z
1/2-x,1/2+y,-z
1/2-x,1/2-y,-z
1/2+x,1/2-y,z
loop_
_atom_site_type_symbol
_atom_site_label
_atom_site_fract_x
_atom_site_fract_y
_atom_site_fract_z
Si Si1 0.222053 0.314545 0.049545
Si Si2 0.580715 0.876743 0.288181
Si Si3 0.132605 0.729760 0.627067
Si Si4 0.548411 0.566006 0.364418
O O1 0.146391 0.334603 0.179959
O O2 0.500000 0.339358 0.000000
O O3 0.250000 0.250000 0.000000
O O4 0.000000 0.339238 0.000000
O O5 0.455707 0.832027 0.382584
O O6 0.339548 0.917709 0.296048
O O7 0.831936 0.904355 0.313100
O O8 0.250000 0.750000 0.500000
O O9 0.375727 0.734679 0.682790
O O10 0.500000 0.579887 0.500000
O O11 0.515545 0.500000 0.358060
#
# Coordination Sequence:
#
# PCOD9216504 Si02
#       4
#     8   8   8   8
#     4  10  23  41  63  96 135 175 225 272 328 405
#     4  12  24  41  72  94 137 188 217 278 351 397
#     4  10  23  35  54  92 134 171 211 256 321 420
#     4  11  26  46  70 102 135 177 235 285 332 403
#
# _framework density 21.019473000000001
#
# number of rings (size 3 to 8) (size 9 to 14) (size 15 to 20)
#    0.000    1.250    0.000    4.500   17.500    2.000 
#    0.000    0.000    0.000   15.000    0.000    0.000 
#    0.000    0.000    0.000    0.000    0.000    0.000 
#
# Total GULP energy -89073.966898 kJ/mol
# GULP energy per Si atom -5567.122931 kJ/mol
# Density = 2.097163 g / cm^3
# Si number density = 21.019473 Si / 1000 Ang^3
#
#
#
# Elastic Constant Matrix: (Units=GPa)
#
#
# Indices 1 2 3 4 5 6 
#
# 1 225.0367 48.9885 43.0067 0.0000 0.8191 0.0000
# 2 48.9885 93.2117 55.3172 0.0000 5.3768 0.0000
# 3 43.0067 55.3172 103.8429 0.0000 10.6673 0.0000
# 4 0.0000 0.0000 0.0000 31.2597 0.0000 -4.5936
# 5 0.8191 5.3768 10.6673 0.0000 27.2515 0.0000
# 6 0.0000 0.0000 0.0000 -4.5936 0.0000 166.9727
#
#
#
# Elastic Compliance Matrix: (Units=1/GPa)
#
#
# Indices 1 2 3 4 5 6 
#
# 1 0.005100 -0.002083 -0.001072 0.000000 0.000677 0.000000
# 2 -0.002083 0.016539 -0.007938 0.000000 -0.000093 0.000000
# 3 -0.001072 -0.007938 0.014731 0.000000 -0.004168 0.000000
# 4 0.000000 0.000000 0.000000 0.032120 0.000000 0.000884
# 5 0.000677 -0.000093 -0.004168 0.000000 0.038325 0.000000
# 6 0.000000 0.000000 0.000000 0.000884 0.000000 0.006013
#
#
# Mechanical properties :
#
#
# Convention : Reuss Voigt Hill
#
# Bulk Modulus (GPa) = 70.50590 79.63512 75.07051
# Shear Modulus (GPa) = 35.78022 63.41537 49.59780
#
# Velocity S-wave (km/s) = 4.13030 5.49866 4.86285
# Velocity P-wave (km/s) = 7.50745 8.84773 8.20500
#
# Compressibility (1/GPa) = 0.01418321
#
# Stress axis : x y z
#
# Youngs Moduli (GPa) = 196.09479 60.46138 67.88528
#
# Poissons Ratio (x) = 0.12595 0.07277
# Poissons Ratio (y) = 0.40848 0.53889
# Poissons Ratio (z) = 0.21020 0.47996
#
# Static dielectric constant tensor:
#      x y z
#    x 1.876900 0.000000 0.040660 
#    y 0.000000 1.760530 0.000000 
#    z 0.040660 0.000000 2.056250 
# 
# From -- ./inp_files/114929.got.cif
#   From: 2010.05.17/outbox.cif.g08.bks.cpg/sg12_58_cif.got.tgz:114929.got - 2010.06.03 13:09:07.
