data_PCOD9216279
_publ_section_title
;
Structure prediction by ZEFSAII (Michael W. Deem and Ramdas Pophale) SiO2 
 PCOD9216279
Probable space group: C 2/M
;
_chemical_formula_sum "Si O2"
_cell_formula_units_Z 48
_cell_length_a 8.833119
_cell_length_b 28.967525
_cell_length_c 16.423652
_cell_angle_alpha 90.000000
_cell_angle_beta 149.708128
_cell_angle_gamma 90.000000
_cell_volume 2119.701499
_symmetry_space_group_name_H-M "C 2/M"
_symmetry_group_IT_number 12
_symmetry_cell_setting 'monoclinic'
loop_
_space_group_symop_operation_xyz
x,y,z
-x,y,-z
-x,-y,-z
x,-y,z
1/2+x,1/2+y,z
1/2-x,1/2+y,-z
1/2-x,1/2-y,-z
1/2+x,1/2-y,z
loop_
_atom_site_type_symbol
_atom_site_label
_atom_site_fract_x
_atom_site_fract_y
_atom_site_fract_z
Si Si1 0.895631 0.551835 0.763457
Si Si2 0.230946 0.787191 0.181458
Si Si3 0.656588 0.112375 0.745966
Si Si4 0.103690 0.102795 0.378598
Si Si5 0.276355 0.586284 0.079835
Si Si6 0.359153 0.704906 0.674906
O O1 0.797105 0.500000 0.699238
O O2 0.619957 0.586312 0.654184
O O3 0.088595 0.574030 0.781038
O O4 0.100471 0.551675 0.939835
O O5 0.405318 0.835879 0.252239
O O6 0.459081 0.744640 0.285725
O O7 0.078932 0.789950 0.199864
O O8 0.000000 0.782525 0.000000
O O9 0.437140 0.102053 0.568401
O O10 0.001714 0.112532 0.878022
O O11 0.058859 0.154666 0.323310
O O12 0.000136 0.070336 0.255385
O O13 0.000000 0.610618 0.000000
O O14 0.000000 0.709676 0.500000
#
# Coordination Sequence:
#
# PCOD9216279 Si02
#       6
#     8   8   8   8   8   8
#     4  11  27  47  73 107 143 187 244 304 367 431
#     4  12  27  44  72 108 149 192 243 293 362 428
#     4  12  24  45  72 106 146 190 244 295 362 430
#     4  11  24  45  73 101 146 191 239 296 361 430
#     4  10  22  43  72  99 136 185 233 288 358 427
#     4  12  25  47  71 107 150 192 243 295 360 429
#
# _framework density 22.644698999999999
#
# number of rings (size 3 to 8) (size 9 to 14) (size 15 to 20)
#    0.000    0.667    3.333    3.500    2.333    7.667 
#    0.000    0.000    0.000    6.500    0.000    0.000 
#    0.000    0.000    0.000    0.000    0.000    0.000 
#
# Total GULP energy -134014.950606 kJ/mol
# GULP energy per Si atom -5583.956275 kJ/mol
# Density = 2.259316 g / cm^3
# Si number density = 22.644699 Si / 1000 Ang^3
#
#
#
# Elastic Constant Matrix: (Units=GPa)
#
#
# Indices 1 2 3 4 5 6 
#
# 1 130.0145 74.9244 36.0121 0.0000 13.0475 0.0000
# 2 74.9244 122.4706 37.3833 0.0000 15.7263 0.0000
# 3 36.0121 37.3833 125.0832 0.0000 -3.4806 0.0000
# 4 0.0000 0.0000 0.0000 5.1765 0.0000 -3.9537
# 5 13.0475 15.7263 -3.4806 0.0000 43.4766 0.0000
# 6 0.0000 0.0000 0.0000 -3.9537 0.0000 -6.7554
#
#
#
# Elastic Compliance Matrix: (Units=1/GPa)
#
#
# Indices 1 2 3 4 5 6 
#
# 1 0.012167 -0.006818 -0.001502 0.000000 -0.001306 0.000000
# 2 -0.006818 0.013360 -0.002112 0.000000 -0.002956 0.000000
# 3 -0.001502 -0.002112 0.009112 0.000000 0.001944 0.000000
# 4 0.000000 0.000000 0.000000 0.133503 0.000000 -0.078135
# 5 -0.001306 -0.002956 0.001944 0.000000 0.024618 0.000000
# 6 0.000000 0.000000 0.000000 -0.078135 0.000000 -0.102299
#
#
# Mechanical properties :
#
#
# Convention : Reuss Voigt Hill
#
# Bulk Modulus (GPa) = 72.58696 74.91200 73.74948
# Shear Modulus (GPa) = 43.13444 23.66276 33.39860
#
# Velocity S-wave (km/s) = 4.36918 3.23609 3.84461
# Velocity P-wave (km/s) = 7.58797 6.86413 7.23511
#
# Compressibility (1/GPa) = 0.01377658
#
# Stress axis : x y z
#
# Youngs Moduli (GPa) = 82.18783 74.84812 109.73945
#
# Poissons Ratio (x) = 0.51028 0.16481
# Poissons Ratio (y) = 0.56032 0.23182
# Poissons Ratio (z) = 0.12343 0.15811
#
# Static dielectric constant tensor:
#      x y z
#    x 1.894090 0.000000 -0.021700 
#    y 0.000000 1.790870 0.000000 
#    z -0.021700 0.000000 1.870690 
# 
# From -- ./inp_files/260421.got.cif
#   From: 2010.05.17/outbox.cif.g08.bks.cpg/sg12_131_cif.got.tgz:260421.got - 2010.06.03 13:09:07.
