data_PCOD9216432
_publ_section_title
;
Structure prediction by ZEFSAII (Michael W. Deem and Ramdas Pophale) SiO2 
 PCOD9216432
Probable space group: C 2/M
;
_chemical_formula_sum "Si O2"
_cell_formula_units_Z 40
_cell_length_a 5.414180
_cell_length_b 20.802949
_cell_length_c 15.263824
_cell_angle_alpha 90.000000
_cell_angle_beta 110.764104
_cell_angle_gamma 90.000000
_cell_volume 1607.514265
_symmetry_space_group_name_H-M "C 2/M"
_symmetry_group_IT_number 12
_symmetry_cell_setting 'monoclinic'
loop_
_space_group_symop_operation_xyz
x,y,z
-x,y,-z
-x,-y,-z
x,-y,z
1/2+x,1/2+y,z
1/2-x,1/2+y,-z
1/2-x,1/2-y,-z
1/2+x,1/2-y,z
loop_
_atom_site_type_symbol
_atom_site_label
_atom_site_fract_x
_atom_site_fract_y
_atom_site_fract_z
Si Si1 0.662493 0.214060 0.802308
Si Si2 0.792910 0.822586 0.538234
Si Si3 0.000000 0.817364 0.000000
Si Si4 0.690738 0.500000 0.434911
Si Si5 0.771291 0.071529 0.088313
Si Si6 0.426307 0.615647 0.716740
O O1 0.365578 0.238106 0.778027
O O2 0.712399 0.144695 0.760691
O O3 0.770058 0.215926 0.916434
O O4 0.500000 0.851024 0.500000
O O5 0.750000 0.750000 0.500000
O O6 0.928103 0.825745 0.648606
O O7 0.000000 0.854929 0.500000
O O8 0.111573 0.866597 0.942949
O O9 0.500000 0.500000 0.500000
O O10 0.644182 0.559556 0.361226
O O11 0.000000 0.500000 0.500000
O O12 0.820645 0.091172 0.196037
O O13 0.899276 0.000000 0.095647
O O14 0.500000 0.065496 0.000000
#
# Coordination Sequence:
#
# PCOD9216432 Si02
#       6
#     8   8   4   4   8   8
#     4  11  27  43  72 106 152 196 249 306 379 452
#     4  10  23  42  69 103 143 187 245 302 366 445
#     4  10  23  42  68 100 148 195 254 310 380 438
#     4  12  28  54  79 113 154 198 256 326 390 457
#     4  10  22  45  72 108 152 199 260 312 380 460
#     4  11  25  47  76 112 151 201 254 314 390 454
#
# _framework density 24.883137000000001
#
# number of rings (size 3 to 8) (size 9 to 14) (size 15 to 20)
#    0.000    1.400    1.000    2.100   11.200    1.600 
#    7.200    0.000    0.000    0.000    0.000    0.000 
#    0.000    0.000    0.000    0.000    0.000    0.000 
#
# Total GULP energy -111336.352456 kJ/mol
# GULP energy per Si atom -5566.817623 kJ/mol
# Density = 2.482650 g / cm^3
# Si number density = 24.883137 Si / 1000 Ang^3
#
#
#
# Elastic Constant Matrix: (Units=GPa)
#
#
# Indices 1 2 3 4 5 6 
#
# 1 148.3006 26.6318 75.5256 0.0000 14.5203 0.0000
# 2 26.6318 120.7318 61.4034 0.0000 12.3609 0.0000
# 3 75.5256 61.4034 246.0088 0.0000 15.3957 0.0000
# 4 0.0000 0.0000 0.0000 65.4968 0.0000 -0.9410
# 5 14.5203 12.3609 15.3957 0.0000 39.7634 0.0000
# 6 0.0000 0.0000 0.0000 -0.9410 0.0000 13.2372
#
#
#
# Elastic Compliance Matrix: (Units=1/GPa)
#
#
# Indices 1 2 3 4 5 6 
#
# 1 0.008174 -0.000445 -0.002276 0.000000 -0.001966 0.000000
# 2 -0.000445 0.009683 -0.002154 0.000000 -0.002014 0.000000
# 3 -0.002276 -0.002154 0.005337 0.000000 -0.000566 0.000000
# 4 0.000000 0.000000 0.000000 0.015284 0.000000 0.001086
# 5 -0.001966 -0.002014 -0.000566 0.000000 0.026711 0.000000
# 6 0.000000 0.000000 0.000000 0.001086 0.000000 0.075622
#
#
# Mechanical properties :
#
#
# Convention : Reuss Voigt Hill
#
# Bulk Modulus (GPa) = 74.37844 93.57367 83.97605
# Shear Modulus (GPa) = 32.24956 47.13150 39.69053
#
# Velocity S-wave (km/s) = 3.60396 4.35686 3.99817
# Velocity P-wave (km/s) = 6.87561 7.93704 7.42532
#
# Compressibility (1/GPa) = 0.01344476
#
# Stress axis : x y z
#
# Youngs Moduli (GPa) = 122.33565 103.27705 187.38514
#
# Poissons Ratio (x) = 0.04591 0.42640
# Poissons Ratio (y) = 0.05438 0.40368
# Poissons Ratio (z) = 0.27838 0.22249
#
# Static dielectric constant tensor:
#      x y z
#    x 1.976450 0.000000 0.067080 
#    y 0.000000 1.873550 0.000000 
#    z 0.067080 0.000000 1.988780 
# 
# From -- ./inp_files/191643.got.cif
#   From: 2010.05.17/outbox.cif.g08.bks.cpg/sg12_96_cif.got.tgz:191643.got - 2010.06.03 13:09:07.
