data_PCOD9216082
_publ_section_title
;
Structure prediction by ZEFSAII (Michael W. Deem and Ramdas Pophale) SiO2 
 PCOD9216082
Probable space group: C 2/M
;
_chemical_formula_sum "Si O2"
_cell_formula_units_Z 42
_cell_length_a 11.741478
_cell_length_b 15.539217
_cell_length_c 12.136643
_cell_angle_alpha 90.000000
_cell_angle_beta 86.365728
_cell_angle_gamma 90.000000
_cell_volume 2209.918350
_symmetry_space_group_name_H-M "C 2/M"
_symmetry_group_IT_number 12
_symmetry_cell_setting 'monoclinic'
loop_
_space_group_symop_operation_xyz
x,y,z
-x,y,-z
-x,-y,-z
x,-y,z
1/2+x,1/2+y,z
1/2-x,1/2+y,-z
1/2-x,1/2-y,-z
1/2+x,1/2-y,z
loop_
_atom_site_type_symbol
_atom_site_label
_atom_site_fract_x
_atom_site_fract_y
_atom_site_fract_z
Si Si1 0.765952 0.000000 0.145072
Si Si2 0.865715 0.601650 0.489132
Si Si3 0.747818 0.643655 0.268939
Si Si4 0.754561 0.000000 0.903817
Si Si5 0.500000 0.500000 0.000000
Si Si6 0.769556 0.836443 0.293660
Si Si7 0.498233 0.398858 0.372392
O O1 0.737976 0.084472 0.216700
O O2 0.901352 0.000000 0.104827
O O3 0.705344 0.000000 0.030014
O O4 0.836946 0.500000 0.502579
O O5 0.829262 0.629666 0.369334
O O6 0.797091 0.652877 0.586838
O O7 0.000000 0.612492 0.500000
O O8 0.778781 0.583165 0.165010
O O9 0.745780 0.744306 0.242711
O O10 0.622858 0.614266 0.316078
O O11 0.892245 0.000000 0.917194
O O12 0.902923 0.846488 0.313528
O O13 0.500000 0.371828 0.500000
O O14 0.466242 0.500000 0.372177
#
# Coordination Sequence:
#
# PCOD9216082 Si02
#       7
#     4   8   8   4   2   8   8
#     4  10  22  43  64  89 123 163 217 271 318 371
#     4  11  23  41  61  92 134 176 209 247 323 397
#     4  12  24  39  65  97 133 168 211 268 324 387
#     4  10  22  43  64  89 123 163 217 271 318 371
#     4   8  20  44  72  94 118 154 232 284 326 362
#     4  12  24  39  65  97 133 168 211 268 324 387
#     4  11  21  37  64  97 133 166 217 267 327 381
#
# _framework density 19.005226
#
# number of rings (size 3 to 8) (size 9 to 14) (size 15 to 20)
#    0.571    0.381    5.714    1.714    2.667    0.762 
#    0.000    0.000    0.000    2.286    0.000    0.000 
#    0.000    0.000    0.000    0.000    0.000    0.000 
#
# Total GULP energy -117075.086943 kJ/mol
# GULP energy per Si atom -5575.004140 kJ/mol
# Density = 1.896197 g / cm^3
# Si number density = 19.005226 Si / 1000 Ang^3
#
#
#
# Elastic Constant Matrix: (Units=GPa)
#
#
# Indices 1 2 3 4 5 6 
#
# 1 43.4552 8.0278 9.8388 0.0000 11.0117 0.0000
# 2 8.0278 119.3703 47.6167 0.0000 22.3258 0.0000
# 3 9.8388 47.6167 121.0856 0.0000 31.0861 0.0000
# 4 0.0000 0.0000 0.0000 -2.6473 0.0000 8.1142
# 5 11.0117 22.3258 31.0861 0.0000 16.3288 0.0000
# 6 0.0000 0.0000 0.0000 8.1142 0.0000 -3.5703
#
#
#
# Elastic Compliance Matrix: (Units=1/GPa)
#
#
# Indices 1 2 3 4 5 6 
#
# 1 0.029755 0.002056 0.005177 0.000000 -0.032733 0.000000
# 2 0.002056 0.011451 -0.000577 0.000000 -0.015946 0.000000
# 3 0.005177 -0.000577 0.017132 0.000000 -0.035318 0.000000
# 4 0.000000 0.000000 0.000000 0.063316 0.000000 0.143898
# 5 -0.032733 -0.015946 -0.035318 0.000000 0.172354 0.000000
# 6 0.000000 0.000000 0.000000 0.143898 0.000000 0.046948
#
#
# Mechanical properties :
#
#
# Convention : Reuss Voigt Hill
#
# Bulk Modulus (GPa) = 13.95654 46.09751 30.02702
# Shear Modulus (GPa) = 14.22365 16.58409 15.40387
#
# Velocity S-wave (km/s) = 2.73867 2.95720 2.85003
# Velocity P-wave (km/s) = 4.16652 5.99732 5.16371
#
# Compressibility (1/GPa) = 0.07165100
#
# Stress axis : x y z
#
# Youngs Moduli (GPa) = 33.60801 87.32577 58.37124
#
# Poissons Ratio (x) = -0.17952 -0.30220
# Poissons Ratio (y) = -0.06909 0.03365
# Poissons Ratio (z) = -0.17400 0.05034
#
# Static dielectric constant tensor:
#      x y z
#    x 1.645070 0.000000 0.008150 
#    y 0.000000 1.672370 0.000000 
#    z 0.008150 0.000000 1.662230 
# 
# From -- ./inp_files/129732.got.cif
#   From: 2010.05.17/outbox.cif.g08.bks.cpg/sg12_65_cif.got.tgz:129732.got - 2010.06.03 13:09:07.
