data_PCOD9216236
_publ_section_title
;
Structure prediction by ZEFSAII (Michael W. Deem and Ramdas Pophale) SiO2 
 PCOD9216236
Probable space group: C 2/M
;
_chemical_formula_sum "Si O2"
_cell_formula_units_Z 40
_cell_length_a 14.304199
_cell_length_b 7.864768
_cell_length_c 23.094129
_cell_angle_alpha 90.000000
_cell_angle_beta 141.574692
_cell_angle_gamma 90.000000
_cell_volume 1614.685352
_symmetry_space_group_name_H-M "C 2/M"
_symmetry_group_IT_number 12
_symmetry_cell_setting 'monoclinic'
loop_
_space_group_symop_operation_xyz
x,y,z
-x,y,-z
-x,-y,-z
x,-y,z
1/2+x,1/2+y,z
1/2-x,1/2+y,-z
1/2-x,1/2-y,-z
1/2+x,1/2-y,z
loop_
_atom_site_type_symbol
_atom_site_label
_atom_site_fract_x
_atom_site_fract_y
_atom_site_fract_z
Si Si1 0.223812 0.797139 0.892485
Si Si2 0.148707 0.195621 0.609407
Si Si3 0.679413 0.247509 0.746916
Si Si4 0.833121 0.811556 0.598154
Si Si5 0.994658 0.203253 0.106283
O O1 0.200837 0.687926 0.823775
O O2 0.093826 0.767930 0.876740
O O3 0.220580 0.000000 0.875746
O O4 0.379124 0.752800 0.999700
O O5 0.161688 0.313890 0.671724
O O6 0.285668 0.205366 0.631018
O O7 0.000000 0.232310 0.500000
O O8 0.135552 0.000000 0.624777
O O9 0.510383 0.317303 0.673123
O O10 0.852402 0.308874 0.823263
O O11 0.750000 0.750000 0.500000
O O12 0.777757 0.000000 0.584402
O O13 0.030069 0.000000 0.120045
#
# Coordination Sequence:
#
# PCOD9216236 Si02
#       5
#     8   8   8   8   8
#     4  10  22  43  70 100 135 178 224 273 338 411
#     4  11  24  45  68  96 134 177 227 282 337 400
#     4  12  24  41  70  98 135 182 227 277 338 406
#     4  12  26  46  69  98 135 178 230 284 341 404
#     4  10  24  45  68 100 139 175 224 283 337 404
#
# _framework density 24.772627
#
# number of rings (size 3 to 8) (size 9 to 14) (size 15 to 20)
#    0.000    1.000    2.000    4.200    0.000    9.200 
#    0.000    4.000    0.000    0.000    0.000    0.000 
#    0.000    0.000    0.000    0.000    0.000    0.000 
#
# Total GULP energy -111456.839217 kJ/mol
# GULP energy per Si atom -5572.841961 kJ/mol
# Density = 2.471624 g / cm^3
# Si number density = 24.772627 Si / 1000 Ang^3
#
#
#
# Elastic Constant Matrix: (Units=GPa)
#
#
# Indices 1 2 3 4 5 6 
#
# 1 190.6007 38.0674 88.2503 0.0000 -9.8962 0.0000
# 2 38.0674 99.6556 42.7996 0.0000 -4.9804 0.0000
# 3 88.2503 42.7996 195.7110 0.0000 -7.7051 0.0000
# 4 0.0000 0.0000 0.0000 -18.8188 0.0000 0.1587
# 5 -9.8962 -4.9804 -7.7051 0.0000 70.2222 0.0000
# 6 0.0000 0.0000 0.0000 0.1587 0.0000 -11.4580
#
#
#
# Elastic Compliance Matrix: (Units=1/GPa)
#
#
# Indices 1 2 3 4 5 6 
#
# 1 0.006829 -0.001399 -0.002751 0.000000 0.000561 0.000000
# 2 -0.001399 0.011380 -0.001842 0.000000 0.000408 0.000000
# 3 -0.002751 -0.001842 0.006762 0.000000 0.000224 0.000000
# 4 0.000000 0.000000 0.000000 -0.053144 0.000000 -0.000736
# 5 0.000561 0.000408 0.000224 0.000000 0.014373 0.000000
# 6 0.000000 0.000000 0.000000 -0.000736 0.000000 -0.087285
#
#
# Mechanical properties :
#
#
# Convention : Reuss Voigt Hill
#
# Bulk Modulus (GPa) = 77.00063 91.57801 84.28932
# Shear Modulus (GPa) = -58.98172 29.11238 -14.93467
#
# Velocity S-wave (km/s) = -4.88476 3.43181 -2.45800
# Velocity P-wave (km/s) = 0.81494 7.26297 5.10327
#
# Compressibility (1/GPa) = 0.01298691
#
# Stress axis : x y z
#
# Youngs Moduli (GPa) = 146.43424 87.87060 147.88957
#
# Poissons Ratio (x) = 0.12293 0.40689
# Poissons Ratio (y) = 0.20485 0.27240
# Poissons Ratio (z) = 0.40289 0.16185
#
# Static dielectric constant tensor:
#      x y z
#    x 2.028200 0.000000 -0.050630 
#    y 0.000000 2.080520 0.000000 
#    z -0.050630 0.000000 1.917060 
# 
# From -- ./inp_files/338316.got.cif
#   From: 2010.05.17/outbox.cif.g08.bks.cpg/sg12_170_cif.got.tgz:338316.got - 2010.06.03 13:09:07.
