data_PCOD9216815
_publ_section_title
;
Structure prediction by ZEFSAII (Michael W. Deem and Ramdas Pophale) SiO2 
 PCOD9216815
Probable space group: C 2/M
;
_chemical_formula_sum "Si O2"
_cell_formula_units_Z 40
_cell_length_a 10.332117
_cell_length_b 15.509389
_cell_length_c 12.688345
_cell_angle_alpha 90.000000
_cell_angle_beta 90.902879
_cell_angle_gamma 90.000000
_cell_volume 2032.989139
_symmetry_space_group_name_H-M "C 2/M"
_symmetry_group_IT_number 12
_symmetry_cell_setting 'monoclinic'
loop_
_space_group_symop_operation_xyz
x,y,z
-x,y,-z
-x,-y,-z
x,-y,z
1/2+x,1/2+y,z
1/2-x,1/2+y,-z
1/2-x,1/2-y,-z
1/2+x,1/2-y,z
loop_
_atom_site_type_symbol
_atom_site_label
_atom_site_fract_x
_atom_site_fract_y
_atom_site_fract_z
Si Si1 0.103248 0.000000 0.404917
Si Si2 0.101348 0.500000 0.597420
Si Si3 0.375999 0.262233 0.072477
Si Si4 0.279902 0.600980 0.234332
Si Si5 0.987945 0.652763 0.253392
Si Si6 0.482710 0.328684 0.376127
O O1 0.251541 0.000000 0.441366
O O2 0.071549 0.910650 0.345669
O O3 0.000000 0.000000 0.500000
O O4 0.077936 0.583543 0.670603
O O5 0.000000 0.500000 0.500000
O O6 0.352290 0.345999 0.144336
O O7 0.402861 0.182267 0.152279
O O8 0.500000 0.271681 0.000000
O O9 0.250000 0.250000 0.000000
O O10 0.307486 0.500000 0.233061
O O11 0.337853 0.641822 0.342534
O O12 0.127186 0.615996 0.222183
O O13 0.014056 0.741567 0.316051
O O14 0.500000 0.314194 0.500000
#
# Coordination Sequence:
#
# PCOD9216815 Si02
#       6
#     4   4   8   8   8   8
#     4  10  24  42  62  94 134 186 232 271 330 402
#     4  12  28  44  69 104 149 183 232 284 337 413
#     4  11  24  47  72  98 133 176 226 292 354 408
#     4  11  23  42  68 101 138 174 227 285 345 413
#     4  11  25  42  69 102 138 182 231 281 348 414
#     4  10  23  40  64  95 137 186 226 275 337 405
#
# _framework density 19.675463000000001
#
# number of rings (size 3 to 8) (size 9 to 14) (size 15 to 20)
#    0.000    1.200    4.000    0.600   11.200    1.200 
#    1.800    1.500    0.000    0.000    0.000    0.000 
#    0.000    0.000    0.000    0.000    0.000    0.000 
#
# Total GULP energy -111724.202274 kJ/mol
# GULP energy per Si atom -5586.210114 kJ/mol
# Density = 1.963068 g / cm^3
# Si number density = 19.675463 Si / 1000 Ang^3
#
#
#
# Elastic Constant Matrix: (Units=GPa)
#
#
# Indices 1 2 3 4 5 6 
#
# 1 142.2224 34.0580 58.0525 0.0000 8.7579 0.0000
# 2 34.0580 129.1556 47.5833 0.0000 -1.8229 0.0000
# 3 58.0525 47.5833 122.6261 0.0000 18.3433 0.0000
# 4 0.0000 0.0000 0.0000 27.6807 0.0000 2.1669
# 5 8.7579 -1.8229 18.3433 0.0000 39.9327 0.0000
# 6 0.0000 0.0000 0.0000 2.1669 0.0000 43.1748
#
#
#
# Elastic Compliance Matrix: (Units=1/GPa)
#
#
# Indices 1 2 3 4 5 6 
#
# 1 0.008810 -0.000937 -0.003771 0.000000 -0.000243 0.000000
# 2 -0.000937 0.009313 -0.003505 0.000000 0.002241 0.000000
# 3 -0.003771 -0.003505 0.012027 0.000000 -0.004858 0.000000
# 4 0.000000 0.000000 0.000000 0.036269 0.000000 -0.001820
# 5 -0.000243 0.002241 -0.004858 0.000000 0.027429 0.000000
# 6 0.000000 0.000000 0.000000 -0.001820 0.000000 0.023253
#
#
# Mechanical properties :
#
#
# Convention : Reuss Voigt Hill
#
# Bulk Modulus (GPa) = 72.87020 74.82129 73.84575
# Shear Modulus (GPa) = 36.20555 39.11166 37.65860
#
# Velocity S-wave (km/s) = 4.29434 4.46336 4.37966
# Velocity P-wave (km/s) = 7.85525 8.04191 7.94913
#
# Compressibility (1/GPa) = 0.01372303
#
# Stress axis : x y z
#
# Youngs Moduli (GPa) = 113.51067 107.37959 83.14883
#
# Poissons Ratio (x) = 0.10066 0.31352
# Poissons Ratio (y) = 0.10640 0.29145
# Poissons Ratio (z) = 0.42800 0.37638
#
# Static dielectric constant tensor:
#      x y z
#    x 1.693020 0.000000 0.021670 
#    y 0.000000 1.692670 0.000000 
#    z 0.021670 0.000000 1.661850 
# 
# From -- ./inp_files/194611.got.cif
#   From: 2010.05.17/outbox.cif.g08.bks.cpg/sg12_98_cif.got.tgz:194611.got - 2010.06.03 13:09:07.
