data_PCOD9216725
_publ_section_title
;
Structure prediction by ZEFSAII (Michael W. Deem and Ramdas Pophale) SiO2 
 PCOD9216725
Probable space group: C 2/M
;
_chemical_formula_sum "Si O2"
_cell_formula_units_Z 40
_cell_length_a 10.493253
_cell_length_b 14.317613
_cell_length_c 18.636555
_cell_angle_alpha 90.000000
_cell_angle_beta 141.975162
_cell_angle_gamma 90.000000
_cell_volume 1724.762269
_symmetry_space_group_name_H-M "C 2/M"
_symmetry_group_IT_number 12
_symmetry_cell_setting 'monoclinic'
loop_
_space_group_symop_operation_xyz
x,y,z
-x,y,-z
-x,-y,-z
x,-y,z
1/2+x,1/2+y,z
1/2-x,1/2+y,-z
1/2-x,1/2-y,-z
1/2+x,1/2-y,z
loop_
_atom_site_type_symbol
_atom_site_label
_atom_site_fract_x
_atom_site_fract_y
_atom_site_fract_z
Si Si1 0.730628 0.896018 0.073039
Si Si2 0.398176 0.246861 0.257869
Si Si3 0.765993 0.111693 0.922475
Si Si4 0.674726 0.101620 0.679174
Si Si5 0.794183 0.896504 0.565132
O O1 0.829628 0.827215 0.173500
O O2 0.825099 0.000000 0.118271
O O3 0.500000 0.903046 0.000000
O O4 0.739228 0.864467 0.994454
O O5 0.406730 0.160664 0.204366
O O6 0.247189 0.194657 0.247564
O O7 0.564433 0.305195 0.378835
O O8 0.747505 0.000000 0.909446
O O9 0.000000 0.137974 0.000000
O O10 0.424550 0.108484 0.573270
O O11 0.731132 0.102605 0.621113
O O12 0.736813 0.000000 0.736743
O O13 0.886826 0.000000 0.590061
#
# Coordination Sequence:
#
# PCOD9216725 Si02
#       5
#     8   8   8   8   8
#     4  10  23  40  56  82 124 161 192 242 304 360
#     4  12  21  32  62  88 108 151 198 248 287 353
#     4  10  23  40  58  86 123 158 199 249 296 349
#     4   9  20  38  58  84 118 151 191 245 300 356
#     4   9  20  38  58  84 118 152 190 243 303 359
#
# _framework density 23.191602
#
# number of rings (size 3 to 8) (size 9 to 14) (size 15 to 20)
#    0.000    2.000    0.000    4.200    5.600    0.000 
#    0.000    0.000    0.000    0.000    0.000    8.400 
#    0.000    0.000    0.000    0.000    0.000    0.000 
#
# Total GULP energy -111459.133079 kJ/mol
# GULP energy per Si atom -5572.956654 kJ/mol
# Density = 2.313882 g / cm^3
# Si number density = 23.191602 Si / 1000 Ang^3
#
#
#
# Elastic Constant Matrix: (Units=GPa)
#
#
# Indices 1 2 3 4 5 6 
#
# 1 79.1154 27.4924 26.6435 0.0000 -2.7082 0.0000
# 2 27.4924 146.6820 26.5460 0.0000 8.1620 0.0000
# 3 26.6435 26.5460 76.3818 0.0001 3.1348 0.0001
# 4 0.0000 0.0000 0.0001 34.9317 0.0000 -20.7558
# 5 -2.7082 8.1620 3.1348 0.0000 32.6759 0.0000
# 6 0.0000 0.0000 0.0001 -20.7558 0.0000 12.4213
#
#
#
# Elastic Compliance Matrix: (Units=1/GPa)
#
#
# Indices 1 2 3 4 5 6 
#
# 1 0.014991 -0.002102 -0.004589 0.000000 0.002208 -0.000001
# 2 -0.002102 0.007652 -0.001848 0.000002 -0.001908 0.000003
# 3 -0.004589 -0.001848 0.015392 -0.000010 -0.001396 -0.000017
# 4 0.000000 0.000002 -0.000010 4.015147 -0.000011 6.709237
# 5 0.002208 -0.001908 -0.001396 -0.000011 0.031397 -0.000019
# 6 -0.000001 0.000003 -0.000017 6.709237 -0.000019 11.291518
#
#
# Mechanical properties :
#
#
# Convention : Reuss Voigt Hill
#
# Bulk Modulus (GPa) = 47.71603 51.50477 49.61040
# Shear Modulus (GPa) = 0.32467 30.77227 15.54847
#
# Velocity S-wave (km/s) = 0.37457 3.64658 2.59209
# Velocity P-wave (km/s) = 4.56141 6.32350 5.51330
#
# Compressibility (1/GPa) = 0.02095732
#
# Stress axis : x y z
#
# Youngs Moduli (GPa) = 66.70510 130.68363 64.96689
#
# Poissons Ratio (x) = 0.27471 0.29815
# Poissons Ratio (y) = 0.14022 0.12005
# Poissons Ratio (z) = 0.30613 0.24148
#
# Static dielectric constant tensor:
#      x y z
#    x 1.876230 0.000000 0.055360 
#    y 0.000000 1.928380 0.000000 
#    z 0.055360 0.000000 2.023450 
# 
# From -- ./inp_files/129141.got.cif
#   From: 2010.05.17/outbox.cif.g08.bks.cpg/sg12_65_cif.got.tgz:129141.got - 2010.06.03 13:09:07.
