data_PCOD9216439
_publ_section_title
;
Structure prediction by ZEFSAII (Michael W. Deem and Ramdas Pophale) SiO2 
 PCOD9216439
Probable space group: C 2/M
;
_chemical_formula_sum "Si O2"
_cell_formula_units_Z 52
_cell_length_a 7.553932
_cell_length_b 25.735202
_cell_length_c 15.936352
_cell_angle_alpha 90.000000
_cell_angle_beta 44.683048
_cell_angle_gamma 90.000000
_cell_volume 2178.506071
_symmetry_space_group_name_H-M "C 2/M"
_symmetry_group_IT_number 12
_symmetry_cell_setting 'monoclinic'
loop_
_space_group_symop_operation_xyz
x,y,z
-x,y,-z
-x,-y,-z
x,-y,z
1/2+x,1/2+y,z
1/2-x,1/2+y,-z
1/2-x,1/2-y,-z
1/2+x,1/2-y,z
loop_
_atom_site_type_symbol
_atom_site_label
_atom_site_fract_x
_atom_site_fract_y
_atom_site_fract_z
Si Si1 0.156741 0.328954 0.062173
Si Si2 0.506003 0.666061 0.638120
Si Si3 0.937582 0.000000 0.874945
Si Si4 0.327763 0.917376 0.816711
Si Si5 0.420364 0.833939 0.361881
Si Si6 0.956077 0.217679 0.195949
Si Si7 0.222100 0.417376 0.816712
O O1 0.364985 0.317297 0.923344
O O2 0.069999 0.365415 0.892610
O O3 0.050046 0.274370 0.133303
O O4 0.247830 0.365414 0.107391
O O5 0.279614 0.675282 0.646923
O O6 0.761373 0.671706 0.500001
O O7 0.506636 0.702409 0.719405
O O8 0.461390 0.607372 0.687820
O O9 0.794253 0.045289 0.867013
O O10 0.895292 0.045289 0.132988
O O11 0.475149 0.892628 0.687819
O O12 0.531160 0.942039 0.812559
O O13 0.664853 0.797592 0.280597
#
# Coordination Sequence:
#
# PCOD9216439 Si02
#       7
#     8   8   4   8   8   8   8
#     4   9  24  47  66 110 168 190 254 320 361 455
#     4  10  22  45  74 110 151 195 253 316 377 456
#     4  12  20  42  87 102 136 206 257 300 412 454
#     4   9  22  45  66 111 153 184 246 326 372 445
#     4  10  22  45  74 110 151 195 253 316 377 456
#     4  11  22  45  73 109 154 217 247 291 386 469
#     4   9  22  45  66 111 153 184 246 326 372 445
#
# _framework density 23.869568999999998
#
# number of rings (size 3 to 8) (size 9 to 14) (size 15 to 20)
#    0.923    1.231    0.000    1.846    0.000    2.462 
#    5.538   10.769    0.000   18.462    0.000    0.000 
#    0.000    0.000    0.000    0.000    0.000    0.000 
#
# Total GULP energy -144771.315994 kJ/mol
# GULP energy per Si atom -5568.127538 kJ/mol
# Density = 2.381524 g / cm^3
# Si number density = 23.869569 Si / 1000 Ang^3
#
#
#
# Elastic Constant Matrix: (Units=GPa)
#
#
# Indices 1 2 3 4 5 6 
#
# 1 184.8532 106.7467 55.5459 0.0000 7.9762 0.0000
# 2 106.7467 180.7334 65.9424 0.0000 5.4681 0.0000
# 3 55.5459 65.9424 190.3701 0.0000 -8.7177 0.0000
# 4 0.0000 0.0000 0.0000 -30.6730 0.0000 15.9254
# 5 7.9762 5.4681 -8.7177 0.0000 37.1305 0.0000
# 6 0.0000 0.0000 0.0000 15.9254 0.0000 88.1623
#
#
#
# Elastic Compliance Matrix: (Units=1/GPa)
#
#
# Indices 1 2 3 4 5 6 
#
# 1 0.008388 -0.004577 -0.000924 0.000000 -0.001345 0.000000
# 2 -0.004577 0.008910 -0.001785 0.000000 -0.000748 0.000000
# 3 -0.000924 -0.001785 0.006229 0.000000 0.001924 0.000000
# 4 0.000000 0.000000 0.000000 -0.029807 0.000000 0.005384
# 5 -0.001345 -0.000748 0.001924 0.000000 0.027783 0.000000
# 6 0.000000 0.000000 0.000000 0.005384 0.000000 0.010370
#
#
# Mechanical properties :
#
#
# Convention : Reuss Voigt Hill
#
# Bulk Modulus (GPa) = 111.65786 112.49184 112.07485
# Shear Modulus (GPa) = 101.15301 40.77209 70.96255
#
# Velocity S-wave (km/s) = 6.51685 4.13742 5.45837
# Velocity P-wave (km/s) = 10.17378 8.36985 9.31558
#
# Compressibility (1/GPa) = 0.00895593
#
# Stress axis : x y z
#
# Youngs Moduli (GPa) = 119.21632 112.23250 160.54014
#
# Poissons Ratio (x) = 0.51364 0.14830
# Poissons Ratio (y) = 0.54560 0.28661
# Poissons Ratio (z) = 0.11013 0.20037
#
# Static dielectric constant tensor:
#      x y z
#    x 2.006880 0.000000 0.005690 
#    y 0.000000 1.910230 0.000000 
#    z 0.005690 0.000000 1.964420 
# 
# From -- ./inp_files/148159.got.cif
#   From: 2010.05.17/outbox.cif.g08.bks.cpg/sg12_75_cif.got.tgz:148159.got - 2010.06.03 13:09:07.
