data_PCOD9216805
_publ_section_title
;
Structure prediction by ZEFSAII (Michael W. Deem and Ramdas Pophale) SiO2 
 PCOD9216805
Probable space group: C 2/M
;
_chemical_formula_sum "Si O2"
_cell_formula_units_Z 64
_cell_length_a 11.390574
_cell_length_b 28.404434
_cell_length_c 14.060835
_cell_angle_alpha 90.000000
_cell_angle_beta 40.345007
_cell_angle_gamma 90.000000
_cell_volume 2945.153649
_symmetry_space_group_name_H-M "C 2/M"
_symmetry_group_IT_number 12
_symmetry_cell_setting 'monoclinic'
loop_
_space_group_symop_operation_xyz
x,y,z
-x,y,-z
-x,-y,-z
x,-y,z
1/2+x,1/2+y,z
1/2-x,1/2+y,-z
1/2-x,1/2-y,-z
1/2+x,1/2-y,z
loop_
_atom_site_type_symbol
_atom_site_label
_atom_site_fract_x
_atom_site_fract_y
_atom_site_fract_z
Si Si1 0.076737 0.784074 0.706626
Si Si2 0.188899 0.906087 0.867167
Si Si3 0.432982 0.949797 0.399960
Si Si4 0.305060 0.862518 0.599444
Si Si5 0.254249 0.683852 0.045971
Si Si6 0.289334 0.446637 0.655306
Si Si7 0.606760 0.849337 0.838688
Si Si8 0.805791 0.752691 0.742768
O O1 0.171893 0.832305 0.617544
O O2 0.221959 0.765172 0.694866
O O3 0.014006 0.755024 0.652817
O O4 0.893886 0.796180 0.880997
O O5 0.362499 0.938917 0.757297
O O6 0.208440 0.876351 0.757307
O O7 0.194933 0.867500 0.946850
O O8 0.000000 0.931816 0.000000
O O9 0.360845 0.909377 0.511504
O O10 0.315992 0.949933 0.378155
O O11 0.415917 0.000000 0.458011
O O12 0.500000 0.838560 0.500000
O O13 0.271923 0.718958 0.125515
O O14 0.047439 0.674744 0.135837
O O15 0.500000 0.440567 0.500000
O O16 0.269041 0.500000 0.714166
O O17 0.207121 0.398022 0.749014
O O18 0.743218 0.806992 0.779296
O O19 0.500000 0.860934 0.000000
#
# Coordination Sequence:
#
# PCOD9216805 Si02
#       8
#     8   8   8   8   8   8   8   8
#     4  12  23  39  64  96 137 182 224 274 331 407
#     4  11  20  38  66  95 133 173 212 275 342 402
#     4  10  23  43  68  94 126 172 227 281 340 413
#     4  10  23  40  64  91 131 176 224 267 337 404
#     4  12  21  38  64  96 139 174 221 268 339 400
#     4  10  24  47  71  93 129 177 226 279 344 406
#     4  12  24  40  69 105 133 173 224 285 336 401
#     4  12  24  38  64 101 139 178 224 274 335 407
#
# _framework density 21.730613999999999
#
# number of rings (size 3 to 8) (size 9 to 14) (size 15 to 20)
#    0.000    0.875    6.250    1.500    1.750    2.750 
#    0.000    1.250    0.000    0.750    0.000    0.000 
#    0.000    0.000    0.000    0.000    0.000    0.000 
#
# Total GULP energy -178448.850339 kJ/mol
# GULP energy per Si atom -5576.526573 kJ/mol
# Density = 2.168115 g / cm^3
# Si number density = 21.730614 Si / 1000 Ang^3
#
#
#
# Elastic Constant Matrix: (Units=GPa)
#
#
# Indices 1 2 3 4 5 6 
#
# 1 125.9999 50.2990 39.1233 0.0000 -17.2106 0.0000
# 2 50.2990 128.3832 28.2059 0.0000 -5.6963 0.0000
# 3 39.1233 28.2059 70.0479 0.0000 -14.0083 0.0000
# 4 0.0000 0.0000 0.0000 13.7216 0.0000 -11.4187
# 5 -17.2106 -5.6963 -14.0083 0.0000 25.5439 0.0000
# 6 0.0000 0.0000 0.0000 -11.4187 0.0000 28.8063
#
#
#
# Elastic Compliance Matrix: (Units=1/GPa)
#
#
# Indices 1 2 3 4 5 6 
#
# 1 0.011100 -0.003274 -0.003966 0.000000 0.004573 0.000000
# 2 -0.003274 0.009511 -0.002267 0.000000 -0.001328 0.000000
# 3 -0.003966 -0.002267 0.018834 0.000000 0.007151 0.000000
# 4 0.000000 0.000000 0.000000 0.108752 0.000000 0.043109
# 5 0.004573 -0.001328 0.007151 0.000000 0.045855 0.000000
# 6 0.000000 0.000000 0.000000 0.043109 0.000000 0.051803
#
#
# Mechanical properties :
#
#
# Convention : Reuss Voigt Hill
#
# Bulk Modulus (GPa) = 48.94755 62.18751 55.56753
# Shear Modulus (GPa) = 18.40405 27.40122 22.90263
#
# Velocity S-wave (km/s) = 2.91334 3.55484 3.24996
# Velocity P-wave (km/s) = 5.82154 6.74750 6.30155
#
# Compressibility (1/GPa) = 0.02043003
#
# Stress axis : x y z
#
# Youngs Moduli (GPa) = 90.09037 105.14018 53.09556
#
# Poissons Ratio (x) = 0.34428 0.21060
# Poissons Ratio (y) = 0.29500 0.12034
# Poissons Ratio (z) = 0.35734 0.23831
#
# Static dielectric constant tensor:
#      x y z
#    x 1.855350 0.000000 -0.028020 
#    y 0.000000 1.870050 0.000000 
#    z -0.028020 0.000000 1.792180 
# 
# From -- ./inp_files/209380.got.cif
#   From: 2010.05.17/outbox.cif.g08.bks.cpg/sg12_105_cif.got.tgz:209380.got - 2010.06.03 13:09:07.
