data_PCOD9216223
_publ_section_title
;
Structure prediction by ZEFSAII (Michael W. Deem and Ramdas Pophale) SiO2 
 PCOD9216223
Probable space group: C 2/M
;
_chemical_formula_sum "Si O2"
_cell_formula_units_Z 52
_cell_length_a 11.623344
_cell_length_b 14.414590
_cell_length_c 16.783058
_cell_angle_alpha 90.000000
_cell_angle_beta 61.199229
_cell_angle_gamma 90.000000
_cell_volume 2464.094675
_symmetry_space_group_name_H-M "C 2/M"
_symmetry_group_IT_number 12
_symmetry_cell_setting 'monoclinic'
loop_
_space_group_symop_operation_xyz
x,y,z
-x,y,-z
-x,-y,-z
x,-y,z
1/2+x,1/2+y,z
1/2-x,1/2+y,-z
1/2-x,1/2-y,-z
1/2+x,1/2-y,z
loop_
_atom_site_type_symbol
_atom_site_label
_atom_site_fract_x
_atom_site_fract_y
_atom_site_fract_z
Si Si1 0.148610 0.282374 0.927898
Si Si2 0.355106 0.389561 0.957189
Si Si3 0.000000 0.205518 0.500000
Si Si4 0.509632 0.895544 0.282728
Si Si5 0.066578 0.229633 0.793926
Si Si6 0.185277 0.653487 0.365298
Si Si7 0.755152 0.604270 0.476681
O O1 0.239280 0.359509 0.936631
O O2 0.157840 0.277384 0.830336
O O3 0.168612 0.179107 0.959367
O O4 0.000000 0.306377 0.000000
O O5 0.363130 0.500000 0.970346
O O6 0.482087 0.347016 0.869541
O O7 0.917165 0.262717 0.592010
O O8 0.878708 0.159429 0.493125
O O9 0.520715 0.810424 0.217170
O O10 0.626220 0.898371 0.308803
O O11 0.373607 0.875405 0.376052
O O12 0.500329 0.000000 0.250414
O O13 0.165651 0.182132 0.700269
O O14 0.186715 0.610855 0.453470
O O15 0.715811 0.500000 0.473865
#
# Coordination Sequence:
#
# PCOD9216223 Si02
#       7
#     8   8   4   8   8   8   8
#     4   9  21  42  66  96 128 165 202 254 312 379
#     4  10  22  43  69  96 128 165 205 253 312 379
#     4  12  21  38  61  86 118 168 214 270 326 378
#     4  11  23  40  60  87 124 169 216 268 322 376
#     4  11  23  40  61  93 131 163 210 262 319 379
#     4  12  22  39  63  88 122 171 220 270 321 371
#     4  11  23  39  58  86 119 164 220 271 325 379
#
# _framework density 21.103086000000001
#
# number of rings (size 3 to 8) (size 9 to 14) (size 15 to 20)
#    0.000    1.231    3.077    3.000    0.000    6.154 
#    0.000   10.769    0.000    0.000    0.000    0.000 
#    0.000    0.000    0.000    0.000    0.000    0.000 
#
# Total GULP energy -145009.855625 kJ/mol
# GULP energy per Si atom -5577.302139 kJ/mol
# Density = 2.105505 g / cm^3
# Si number density = 21.103086 Si / 1000 Ang^3
#
#
#
# Elastic Constant Matrix: (Units=GPa)
#
#
# Indices 1 2 3 4 5 6 
#
# 1 84.1591 31.0060 -16.5769 0.0000 7.1874 0.0000
# 2 31.0060 100.0117 18.8061 0.0000 3.4606 0.0000
# 3 -16.5769 18.8061 37.2537 0.0000 6.6143 0.0000
# 4 0.0000 0.0000 0.0000 11.8846 0.0000 -12.7101
# 5 7.1874 3.4606 6.6143 0.0000 36.0742 0.0000
# 6 0.0000 0.0000 0.0000 -12.7101 0.0000 29.8416
#
#
#
# Elastic Compliance Matrix: (Units=1/GPa)
#
#
# Indices 1 2 3 4 5 6 
#
# 1 0.017623 -0.007659 0.012611 0.000000 -0.005089 0.000000
# 2 -0.007659 0.014376 -0.011051 0.000000 0.002173 0.000000
# 3 0.012611 -0.011051 0.039580 0.000000 -0.008710 0.000000
# 4 0.000000 0.000000 0.000000 0.154531 0.000000 0.065818
# 5 -0.005089 0.002173 -0.008710 0.000000 0.030123 0.000000
# 6 0.000000 0.000000 0.000000 0.065818 0.000000 0.061543
#
#
# Mechanical properties :
#
#
# Convention : Reuss Voigt Hill
#
# Bulk Modulus (GPa) = 16.84028 31.98832 24.41430
# Shear Modulus (GPa) = 14.29526 28.10604 21.20065
#
# Velocity S-wave (km/s) = 2.60552 3.65340 3.17302
# Velocity P-wave (km/s) = 4.12904 5.74348 5.00182
#
# Compressibility (1/GPa) = 0.05938144
#
# Stress axis : x y z
#
# Youngs Moduli (GPa) = 56.74548 69.56019 25.26551
#
# Poissons Ratio (x) = 0.53274 -0.31863
# Poissons Ratio (y) = 0.43460 0.27921
# Poissons Ratio (z) = -0.71563 0.76871
#
# Static dielectric constant tensor:
#      x y z
#    x 1.792000 0.000000 0.011830 
#    y 0.000000 1.802140 0.000000 
#    z 0.011830 0.000000 1.807960 
# 
# From -- ./inp_files/204947.got.cif
#   From: 2010.05.17/outbox.cif.g08.bks.cpg/sg12_103_cif.got.tgz:204947.got - 2010.06.03 13:09:07.
