data_PCOD9216465
_publ_section_title
;
Structure prediction by ZEFSAII (Michael W. Deem and Ramdas Pophale) SiO2 
 PCOD9216465
Probable space group: C 2/M
;
_chemical_formula_sum "Si O2"
_cell_formula_units_Z 40
_cell_length_a 12.043527
_cell_length_b 22.878945
_cell_length_c 11.667457
_cell_angle_alpha 90.000000
_cell_angle_beta 35.088293
_cell_angle_gamma 90.000000
_cell_volume 1848.040213
_symmetry_space_group_name_H-M "C 2/M"
_symmetry_group_IT_number 12
_symmetry_cell_setting 'monoclinic'
loop_
_space_group_symop_operation_xyz
x,y,z
-x,y,-z
-x,-y,-z
x,-y,z
1/2+x,1/2+y,z
1/2-x,1/2+y,-z
1/2-x,1/2-y,-z
1/2+x,1/2-y,z
loop_
_atom_site_type_symbol
_atom_site_label
_atom_site_fract_x
_atom_site_fract_y
_atom_site_fract_z
Si Si1 0.068438 0.638809 0.697081
Si Si2 0.602381 0.647273 0.767758
Si Si3 0.787145 0.068005 0.957414
Si Si4 0.748764 0.713206 0.862929
Si Si5 0.792711 0.844083 0.737022
O O1 0.253647 0.639341 0.458937
O O2 0.918262 0.585136 0.812490
O O3 0.138867 0.641871 0.767964
O O4 0.939742 0.693615 0.766706
O O5 0.466852 0.589823 0.883253
O O6 0.722715 0.669308 0.775913
O O7 0.437019 0.697451 0.902624
O O8 0.795897 0.108148 0.835428
O O9 0.799236 0.000000 0.921758
O O10 0.752248 0.779153 0.817949
O O11 0.000000 0.843277 0.500000
#
# Coordination Sequence:
#
# PCOD9216465 Si02
#       5
#     8   8   8   8   8
#     4  11  24  44  68 101 139 181 225 278 345 405
#     4  10  22  46  70  99 136 181 223 280 340 403
#     4  11  27  47  69 100 138 182 234 282 329 400
#     4  10  25  42  69 106 143 169 222 282 347 415
#     4  12  25  43  69 106 141 181 221 279 347 408
#
# _framework density 21.644549999999999
#
# number of rings (size 3 to 8) (size 9 to 14) (size 15 to 20)
#    0.000    1.200    2.000    2.400    8.400    6.000 
#    0.000    8.000    0.000   12.000    0.000    0.000 
#    0.000    0.000    0.000    0.000    0.000    0.000 
#
# Total GULP energy -111816.418266 kJ/mol
# GULP energy per Si atom -5590.820913 kJ/mol
# Density = 2.159529 g / cm^3
# Si number density = 21.644550 Si / 1000 Ang^3
#
#
#
# Elastic Constant Matrix: (Units=GPa)
#
#
# Indices 1 2 3 4 5 6 
#
# 1 116.8846 50.6575 16.1627 0.0000 9.2569 0.0000
# 2 50.6575 175.8075 53.5254 0.0000 10.9678 0.0000
# 3 16.1627 53.5254 150.4234 0.0000 0.3337 0.0001
# 4 0.0000 0.0000 0.0000 6.7688 0.0000 6.6503
# 5 9.2569 10.9678 0.3337 0.0000 36.6863 0.0000
# 6 0.0000 0.0000 0.0001 6.6503 0.0000 15.1041
#
#
#
# Elastic Compliance Matrix: (Units=1/GPa)
#
#
# Indices 1 2 3 4 5 6 
#
# 1 0.009877 -0.002713 -0.000092 0.000000 -0.001680 0.000000
# 2 -0.002713 0.007258 -0.002288 0.000000 -0.001464 0.000000
# 3 -0.000092 -0.002288 0.007470 0.000000 0.000639 0.000000
# 4 0.000000 0.000000 0.000000 0.260372 0.000000 -0.114641
# 5 -0.001680 -0.001464 0.000639 0.000000 0.028114 0.000000
# 6 0.000000 0.000000 0.000000 -0.114641 0.000000 0.116684
#
#
# Mechanical properties :
#
#
# Convention : Reuss Voigt Hill
#
# Bulk Modulus (GPa) = 69.35189 75.97853 72.66521
# Shear Modulus (GPa) = 11.24183 33.22982 22.23582
#
# Velocity S-wave (km/s) = 2.28147 3.92248 3.20866
# Velocity P-wave (km/s) = 6.24908 7.46281 6.88275
#
# Compressibility (1/GPa) = 0.01441922
#
# Stress axis : x y z
#
# Youngs Moduli (GPa) = 101.24400 137.78512 133.86103
#
# Poissons Ratio (x) = 0.37383 0.01233
# Poissons Ratio (y) = 0.27469 0.30624
# Poissons Ratio (z) = 0.00933 0.31522
#
# Static dielectric constant tensor:
#      x y z
#    x 1.853440 0.000000 0.012870 
#    y 0.000000 1.735990 0.000000 
#    z 0.012870 0.000000 1.827380 
# 
# From -- ./inp_files/135138.got.cif
#   From: 2010.05.17/outbox.cif.g08.bks.cpg/sg12_68_cif.got.tgz:135138.got - 2010.06.03 13:09:07.
