data_PCOD9216244
_publ_section_title
;
Structure prediction by ZEFSAII (Michael W. Deem and Ramdas Pophale) SiO2 
 PCOD9216244
Probable space group: C 2/M
;
_chemical_formula_sum "Si O2"
_cell_formula_units_Z 44
_cell_length_a 17.766951
_cell_length_b 22.755728
_cell_length_c 14.984080
_cell_angle_alpha 90.000000
_cell_angle_beta 159.812967
_cell_angle_gamma 90.000000
_cell_volume 2090.551170
_symmetry_space_group_name_H-M "C 2/M"
_symmetry_group_IT_number 12
_symmetry_cell_setting 'monoclinic'
loop_
_space_group_symop_operation_xyz
x,y,z
-x,y,-z
-x,-y,-z
x,-y,z
1/2+x,1/2+y,z
1/2-x,1/2+y,-z
1/2-x,1/2-y,-z
1/2+x,1/2-y,z
loop_
_atom_site_type_symbol
_atom_site_label
_atom_site_fract_x
_atom_site_fract_y
_atom_site_fract_z
Si Si1 0.339838 0.500000 0.906870
Si Si2 0.737414 0.181075 0.076593
Si Si3 0.251723 0.500000 0.534684
Si Si4 0.500000 0.599808 0.500000
Si Si5 0.363347 0.872663 0.535065
Si Si6 0.500000 0.896944 0.500000
Si Si7 0.533960 0.288021 0.240315
Si Si8 0.762909 0.500000 0.691784
O O1 0.195742 0.558433 0.741664
O O2 0.500000 0.500000 0.000000
O O3 0.489691 0.500000 0.160675
O O4 0.831751 0.140707 0.259082
O O5 0.925069 0.192696 0.212105
O O6 0.540851 0.149890 0.803776
O O7 0.639422 0.244003 0.997896
O O8 0.156822 0.442254 0.475188
O O9 0.207941 0.500000 0.381480
O O10 0.629023 0.556992 0.575972
O O11 0.441420 0.860018 0.522059
O O12 0.128779 0.843190 0.292562
O O13 0.750000 0.250000 0.500000
O O14 0.000000 0.500000 0.000000
#
# Coordination Sequence:
#
# PCOD9216244 Si02
#       8
#     4   8   4   4   8   4   8   4
#     4  11  22  42  58  95 134 173 219 267 333 410
#     4  10  22  43  70  93 135 175 224 279 336 393
#     4  12  23  41  72  92 134 184 210 273 343 394
#     4  11  24  42  67  99 135 176 216 278 330 395
#     4  11  23  40  65 100 134 176 220 276 335 406
#     4  11  24  38  61  97 135 169 224 273 336 404
#     4   9  21  45  67  93 125 172 226 274 331 395
#     4  11  25  42  62 107 137 169 228 266 331 405
#
# _framework density 21.047080999999999
#
# number of rings (size 3 to 8) (size 9 to 14) (size 15 to 20)
#    0.000    1.455    1.818    2.727    5.091    2.182 
#    0.000   10.000    0.000    0.000    0.000    0.000 
#    0.000    0.000    0.000    0.000    0.000    0.000 
#
# Total GULP energy -123033.057300 kJ/mol
# GULP energy per Si atom -5592.411695 kJ/mol
# Density = 2.099918 g / cm^3
# Si number density = 21.047081 Si / 1000 Ang^3
#
#
#
# Elastic Constant Matrix: (Units=GPa)
#
#
# Indices 1 2 3 4 5 6 
#
# 1 101.6158 43.1260 37.1589 0.0000 0.8794 0.0000
# 2 43.1260 111.8645 29.1932 -0.0001 4.3458 -0.0001
# 3 37.1589 29.1932 102.3191 -0.0002 -9.5710 -0.0001
# 4 0.0000 -0.0001 -0.0002 18.5662 0.0000 8.5992
# 5 0.8794 4.3458 -9.5710 0.0000 43.6342 0.0000
# 6 0.0000 -0.0001 -0.0001 8.5992 0.0000 15.1429
#
#
#
# Elastic Compliance Matrix: (Units=1/GPa)
#
#
# Indices 1 2 3 4 5 6 
#
# 1 0.012854 -0.003994 -0.003589 0.000000 -0.000649 0.000000
# 2 -0.003994 0.011010 -0.001823 0.000000 -0.001416 0.000000
# 3 -0.003589 -0.001823 0.011864 0.000000 0.002856 0.000000
# 4 0.000000 0.000000 0.000000 0.073084 0.000000 -0.041502
# 5 -0.000649 -0.001416 0.002856 0.000000 0.023698 0.000000
# 6 0.000000 0.000000 0.000000 -0.041502 0.000000 0.089606
#
#
# Mechanical properties :
#
#
# Convention : Reuss Voigt Hill
#
# Bulk Modulus (GPa) = 59.11747 59.41727 59.26737
# Shear Modulus (GPa) = 20.27843 29.22341 24.75092
#
# Velocity S-wave (km/s) = 3.10736 3.73027 3.43298
# Velocity P-wave (km/s) = 6.40496 6.84435 6.62830
#
# Compressibility (1/GPa) = 0.01691547
#
# Stress axis : x y z
#
# Youngs Moduli (GPa) = 77.79640 90.82775 84.28624
#
# Poissons Ratio (x) = 0.36273 0.30254
# Poissons Ratio (y) = 0.31069 0.15369
# Poissons Ratio (z) = 0.27924 0.16562
#
# Static dielectric constant tensor:
#      x y z
#    x 1.738370 0.000000 0.012460 
#    y 0.000000 1.783410 0.000000 
#    z 0.012460 0.000000 1.754640 
# 
# From -- ./inp_files/17054.got.cif
#   From: 2010.05.17/outbox.cif.g08.bks.cpg/sg12_9_cif.got.tgz:17054.got - 2010.06.03 13:09:07.
