data_PCOD9216529
_publ_section_title
;
Structure prediction by ZEFSAII (Michael W. Deem and Ramdas Pophale) SiO2 
 PCOD9216529
Probable space group: C 2/M
;
_chemical_formula_sum "Si O2"
_cell_formula_units_Z 56
_cell_length_a 14.711761
_cell_length_b 28.780985
_cell_length_c 9.029711
_cell_angle_alpha 90.000000
_cell_angle_beta 57.132997
_cell_angle_gamma 90.000000
_cell_volume 3211.356890
_symmetry_space_group_name_H-M "C 2/M"
_symmetry_group_IT_number 12
_symmetry_cell_setting 'monoclinic'
loop_
_space_group_symop_operation_xyz
x,y,z
-x,y,-z
-x,-y,-z
x,-y,z
1/2+x,1/2+y,z
1/2-x,1/2+y,-z
1/2-x,1/2-y,-z
1/2+x,1/2-y,z
loop_
_atom_site_type_symbol
_atom_site_label
_atom_site_fract_x
_atom_site_fract_y
_atom_site_fract_z
Si Si1 0.585084 0.146699 0.550540
Si Si2 0.285543 0.304205 0.466733
Si Si3 0.540875 0.052230 0.718983
Si Si4 0.473052 0.293040 0.697606
Si Si5 0.729902 0.349002 0.191206
Si Si6 0.326652 0.052823 0.089176
Si Si7 0.055257 0.701887 0.102882
O O1 0.500000 0.159821 0.500000
O O2 0.703011 0.169219 0.431119
O O3 0.584299 0.091520 0.571997
O O4 0.532016 0.167607 0.746109
O O5 0.250000 0.250000 0.500000
O O6 0.413580 0.305293 0.323844
O O7 0.271886 0.329478 0.638450
O O8 0.609440 0.054428 0.810775
O O9 0.549379 0.000000 0.652279
O O10 0.417224 0.060443 0.881516
O O11 0.500000 0.285202 0.500000
O O12 0.380881 0.331772 0.784510
O O13 0.428755 0.245690 0.805800
O O14 0.745138 0.404244 0.166564
O O15 0.834177 0.325076 0.024829
O O16 0.284083 0.000000 0.110464
O O17 0.000000 0.718126 0.000000
#
# Coordination Sequence:
#
# PCOD9216529 Si02
#       7
#     8   8   8   8   8   8   8
#     4  12  23  34  56  80 111 143 178 218 272 329
#     4  11  21  37  53  72 111 149 176 215 272 324
#     4   9  17  32  53  81 110 137 173 222 276 323
#     4  10  23  37  52  76 108 150 181 216 265 320
#     4  11  20  34  59  79 107 139 185 227 261 319
#     4   9  16  30  56  83 107 135 173 226 279 315
#     4  12  20  36  54  79 109 141 183 224 266 311
#
# _framework density 17.438110999999999
#
# number of rings (size 3 to 8) (size 9 to 14) (size 15 to 20)
#    0.000    1.429    5.714    1.714    2.000    0.286 
#    2.571    0.000    0.000    4.714    0.000    0.000 
#    0.000    2.857    0.000    0.000    0.000    0.000 
#
# Total GULP energy -156240.196000 kJ/mol
# GULP energy per Si atom -5580.007000 kJ/mol
# Density = 1.739842 g / cm^3
# Si number density = 17.438111 Si / 1000 Ang^3
#
#
#
# Elastic Constant Matrix: (Units=GPa)
#
#
# Indices 1 2 3 4 5 6 
#
# 1 106.0569 47.7816 9.1528 0.0000 -15.5055 0.0000
# 2 47.7816 153.3815 20.7793 0.0000 -14.5970 0.0000
# 3 9.1528 20.7793 24.4938 0.0000 -6.7022 0.0000
# 4 0.0000 0.0000 0.0000 23.2442 0.0000 0.3111
# 5 -15.5055 -14.5970 -6.7022 0.0000 17.3480 0.0000
# 6 0.0000 0.0000 0.0000 0.3111 0.0000 16.2930
#
#
#
# Elastic Compliance Matrix: (Units=1/GPa)
#
#
# Indices 1 2 3 4 5 6 
#
# 1 0.011957 -0.002979 0.000333 0.000000 0.008309 0.000000
# 2 -0.002979 0.008397 -0.005374 0.000000 0.002327 0.000000
# 3 0.000333 -0.005374 0.049319 0.000000 0.014830 0.000000
# 4 0.000000 0.000000 0.000000 0.043032 0.000000 -0.000822
# 5 0.008309 0.002327 0.014830 0.000000 0.072757 0.000000
# 6 0.000000 0.000000 0.000000 -0.000822 0.000000 0.061392
#
#
# Mechanical properties :
#
#
# Convention : Reuss Voigt Hill
#
# Bulk Modulus (GPa) = 18.64520 48.81772 33.73146
# Shear Modulus (GPa) = 17.80797 25.12493 21.46645
#
# Velocity S-wave (km/s) = 3.19910 3.79991 3.51238
# Velocity P-wave (km/s) = 4.93570 6.87809 5.98620
#
# Compressibility (1/GPa) = 0.05363310
#
# Stress axis : x y z
#
# Youngs Moduli (GPa) = 83.63163 119.08660 20.27611
#
# Poissons Ratio (x) = 0.35479 -0.00675
# Poissons Ratio (y) = 0.24916 0.10896
# Poissons Ratio (z) = -0.02784 0.63996
#
# Static dielectric constant tensor:
#      x y z
#    x 1.612940 0.000000 0.023220 
#    y 0.000000 1.606760 0.000000 
#    z 0.023220 0.000000 1.608260 
# 
# From -- ./inp_files/66859.got.cif
#   From: 2010.05.17/outbox.cif.g08.bks.cpg/sg12_34_cif.got.tgz:66859.got - 2010.06.03 13:09:07.
