data_PCOD9216352
_publ_section_title
;
Structure prediction by ZEFSAII (Michael W. Deem and Ramdas Pophale) SiO2 
 PCOD9216352
Probable space group: C 2/M
;
_chemical_formula_sum "Si O2"
_cell_formula_units_Z 36
_cell_length_a 11.377341
_cell_length_b 28.928630
_cell_length_c 5.177585
_cell_angle_alpha 90.000000
_cell_angle_beta 85.417486
_cell_angle_gamma 90.000000
_cell_volume 1698.655656
_symmetry_space_group_name_H-M "C 2/M"
_symmetry_group_IT_number 12
_symmetry_cell_setting 'monoclinic'
loop_
_space_group_symop_operation_xyz
x,y,z
-x,y,-z
-x,-y,-z
x,-y,z
1/2+x,1/2+y,z
1/2-x,1/2+y,-z
1/2-x,1/2-y,-z
1/2+x,1/2-y,z
loop_
_atom_site_type_symbol
_atom_site_label
_atom_site_fract_x
_atom_site_fract_y
_atom_site_fract_z
Si Si1 0.725392 0.219438 0.255317
Si Si2 0.500000 0.173632 0.500000
Si Si3 0.206407 0.553761 0.279092
Si Si4 0.637380 0.370315 0.928988
Si Si5 0.653030 0.897701 0.792186
O O1 0.750000 0.250000 0.500000
O O2 0.591359 0.202593 0.313346
O O3 0.750000 0.250000 0.000000
O O4 0.806737 0.173857 0.223052
O O5 0.425996 0.142098 0.315095
O O6 0.217416 0.500000 0.221500
O O7 0.159516 0.563237 0.572575
O O8 0.328201 0.582482 0.227481
O O9 0.126716 0.579610 0.076080
O O10 0.716966 0.376127 0.173820
O O11 0.500000 0.365394 0.000000
#
# Coordination Sequence:
#
# PCOD9216352 Si02
#       5
#     8   4   8   8   8
#     4  12  29  46  73 108 136 194 239 301 361 429
#     4  12  24  54  75 100 158 186 243 298 376 426
#     4  10  22  44  70 108 144 184 247 289 360 432
#     4  10  25  47  72 104 150 184 244 300 366 425
#     4  10  23  43  74 100 139 197 227 291 366 420
#
# _framework density 21.193228000000001
#
# number of rings (size 3 to 8) (size 9 to 14) (size 15 to 20)
#    1.333    0.000    2.222    2.000    3.111    8.444 
#    0.000    4.444    0.000    0.000    0.000    0.000 
#    0.000    0.000    0.000    0.000    0.000    0.000 
#
# Total GULP energy -100520.421162 kJ/mol
# GULP energy per Si atom -5584.467842 kJ/mol
# Density = 2.114499 g / cm^3
# Si number density = 21.193228 Si / 1000 Ang^3
#
#
#
# Elastic Constant Matrix: (Units=GPa)
#
#
# Indices 1 2 3 4 5 6 
#
# 1 117.4055 54.0353 32.3057 0.0000 -1.5795 0.0000
# 2 54.0353 137.7014 52.4116 0.0000 -0.3731 0.0000
# 3 32.3057 52.4116 139.5140 0.0000 12.3123 0.0000
# 4 0.0000 0.0000 0.0000 36.8179 0.0000 -6.5582
# 5 -1.5795 -0.3731 12.3123 0.0000 35.5051 0.0000
# 6 0.0000 0.0000 0.0000 -6.5582 0.0000 17.8741
#
#
#
# Elastic Compliance Matrix: (Units=1/GPa)
#
#
# Indices 1 2 3 4 5 6 
#
# 1 0.010544 -0.003709 -0.001120 0.000000 0.000819 0.000000
# 2 -0.003709 0.009831 -0.002918 0.000000 0.000950 0.000000
# 3 -0.001120 -0.002918 0.008800 0.000000 -0.003132 0.000000
# 4 0.000000 0.000000 0.000000 0.029060 0.000000 0.010662
# 5 0.000819 0.000950 -0.003132 0.000000 0.029298 0.000000
# 6 0.000000 0.000000 0.000000 0.010662 0.000000 0.059859
#
#
# Mechanical properties :
#
#
# Convention : Reuss Voigt Hill
#
# Bulk Modulus (GPa) = 73.10207 74.68070 73.89138
# Shear Modulus (GPa) = 29.86043 35.09729 32.47886
#
# Velocity S-wave (km/s) = 3.75769 4.07389 3.91898
# Velocity P-wave (km/s) = 7.30718 7.57913 7.44440
#
# Compressibility (1/GPa) = 0.01367950
#
# Stress axis : x y z
#
# Youngs Moduli (GPa) = 94.84277 101.72166 113.63768
#
# Poissons Ratio (x) = 0.37726 0.12733
# Poissons Ratio (y) = 0.35175 0.33162
# Poissons Ratio (z) = 0.10627 0.29684
#
# Static dielectric constant tensor:
#      x y z
#    x 1.782410 0.000000 -0.014720 
#    y 0.000000 1.741480 0.000000 
#    z -0.014720 0.000000 1.777360 
# 
# From -- ./inp_files/7604.got.cif
#   From: 2010.05.17/outbox.cif.g08.bks.cpg/sg12_4_cif.got.tgz:7604.got - 2010.06.03 13:09:07.
