data_PCOD9216572
_publ_section_title
;
Structure prediction by ZEFSAII (Michael W. Deem and Ramdas Pophale) SiO2 
 PCOD9216572
Probable space group: C 2/M
;
_chemical_formula_sum "Si O2"
_cell_formula_units_Z 64
_cell_length_a 15.794776
_cell_length_b 19.573928
_cell_length_c 17.218625
_cell_angle_alpha 90.000000
_cell_angle_beta 147.267137
_cell_angle_gamma 90.000000
_cell_volume 2878.489728
_symmetry_space_group_name_H-M "C 2/M"
_symmetry_group_IT_number 12
_symmetry_cell_setting 'monoclinic'
loop_
_space_group_symop_operation_xyz
x,y,z
-x,y,-z
-x,-y,-z
x,-y,z
1/2+x,1/2+y,z
1/2-x,1/2+y,-z
1/2-x,1/2-y,-z
1/2+x,1/2-y,z
loop_
_atom_site_type_symbol
_atom_site_label
_atom_site_fract_x
_atom_site_fract_y
_atom_site_fract_z
Si Si1 0.368206 0.422109 0.095878
Si Si2 0.745128 0.290746 0.914476
Si Si3 0.793663 0.420155 0.183538
Si Si4 0.143734 0.419102 0.503769
Si Si5 0.396530 0.202444 0.805477
Si Si6 0.267368 0.676136 0.472179
Si Si7 0.850836 0.135997 0.786445
Si Si8 0.917924 0.215142 0.359516
O O1 0.372554 0.500000 0.128210
O O2 0.344307 0.361855 0.138538
O O3 0.517975 0.407195 0.157042
O O4 0.228798 0.413795 0.925540
O O5 0.651445 0.251276 0.773571
O O6 0.750000 0.250000 0.000000
O O7 0.925061 0.307304 0.030819
O O8 0.763928 0.500000 0.179867
O O9 0.671153 0.377608 0.139844
O O10 0.968095 0.403331 0.343343
O O11 0.165096 0.500000 0.520496
O O12 0.251429 0.381714 0.523785
O O13 0.191702 0.389272 0.623318
O O14 0.367110 0.173573 0.696851
O O15 0.377066 0.284740 0.789719
O O16 0.242363 0.179310 0.734612
O O17 0.250000 0.750000 0.500000
O O18 0.433808 0.673315 0.557449
O O19 0.000000 0.249222 0.500000
#
# Coordination Sequence:
#
# PCOD9216572 Si02
#       8
#     8   8   8   8   8   8   8   8
#     4  11  24  42  64  92 128 169 211 264 324 378
#     4  12  23  42  67  97 128 167 221 270 315 383
#     4  10  23  38  56  87 131 173 206 249 313 396
#     4  11  23  39  62  90 125 171 218 266 320 382
#     4  11  24  39  62  95 128 170 211 269 322 382
#     4  11  21  40  61  89 127 167 215 267 321 374
#     4  12  22  36  59  92 130 170 211 255 319 389
#     4  10  25  42  64  94 131 167 213 271 325 374
#
# _framework density 22.233881
#
# number of rings (size 3 to 8) (size 9 to 14) (size 15 to 20)
#    0.000    1.000    2.500    4.500    3.500    4.000 
#    0.000    0.000    0.000    9.000    0.000    0.000 
#    0.000    0.000    0.000    0.000    0.000    0.000 
#
# Total GULP energy -178799.623110 kJ/mol
# GULP energy per Si atom -5587.488222 kJ/mol
# Density = 2.218328 g / cm^3
# Si number density = 22.233881 Si / 1000 Ang^3
#
#
#
# Elastic Constant Matrix: (Units=GPa)
#
#
# Indices 1 2 3 4 5 6 
#
# 1 94.0436 33.0169 19.9655 0.0003 7.7194 -0.0002
# 2 33.0169 90.1919 10.0517 0.0012 0.1888 0.0008
# 3 19.9655 10.0517 128.9360 -0.0004 -9.1127 -0.0011
# 4 0.0003 0.0012 -0.0004 22.5905 -0.0001 3.0026
# 5 7.7194 0.1888 -9.1127 -0.0001 46.3448 -0.0006
# 6 -0.0002 0.0008 -0.0011 3.0026 -0.0006 13.5148
#
#
#
# Elastic Compliance Matrix: (Units=1/GPa)
#
#
# Indices 1 2 3 4 5 6 
#
# 1 0.012791 -0.004476 -0.001806 0.000000 -0.002467 0.000000
# 2 -0.004476 0.012753 -0.000256 -0.000001 0.000643 -0.000001
# 3 -0.001806 -0.000256 0.008191 0.000000 0.001912 0.000001
# 4 0.000000 -0.000001 0.000000 0.045613 0.000000 -0.010134
# 5 -0.002467 0.000643 0.001912 0.000000 0.022362 0.000001
# 6 0.000000 -0.000001 0.000001 -0.010134 0.000001 0.076244
#
#
# Mechanical properties :
#
#
# Convention : Reuss Voigt Hill
#
# Bulk Modulus (GPa) = 48.40480 48.80444 48.60462
# Shear Modulus (GPa) = 25.26328 33.16583 29.21456
#
# Velocity S-wave (km/s) = 3.37449 3.86642 3.62880
# Velocity P-wave (km/s) = 6.08284 6.47537 6.28217
#
# Compressibility (1/GPa) = 0.02065911
#
# Stress axis : x y z
#
# Youngs Moduli (GPa) = 78.18160 78.41211 122.09200
#
# Poissons Ratio (x) = 0.35097 0.22051
# Poissons Ratio (y) = 0.34993 0.03122
# Poissons Ratio (z) = 0.14120 0.02005
#
# Static dielectric constant tensor:
#      x y z
#    x 2.009780 0.000000 -0.011890 
#    y 0.000000 1.773540 0.000000 
#    z -0.011890 0.000000 1.902050 
# 
# From -- ./inp_files/279124.got.cif
#   From: 2010.05.17/outbox.cif.g08.bks.cpg/sg12_140_cif.got.tgz:279124.got - 2010.06.03 13:09:07.
