data_PCOD9216058
_publ_section_title
;
Structure prediction by ZEFSAII (Michael W. Deem and Ramdas Pophale) SiO2 
 PCOD9216058
Probable space group: C 2/M
;
_chemical_formula_sum "Si O2"
_cell_formula_units_Z 40
_cell_length_a 11.041230
_cell_length_b 19.984299
_cell_length_c 7.320486
_cell_angle_alpha 90.000000
_cell_angle_beta 77.711233
_cell_angle_gamma 90.000000
_cell_volume 1578.264063
_symmetry_space_group_name_H-M "C 2/M"
_symmetry_group_IT_number 12
_symmetry_cell_setting 'monoclinic'
loop_
_space_group_symop_operation_xyz
x,y,z
-x,y,-z
-x,-y,-z
x,-y,z
1/2+x,1/2+y,z
1/2-x,1/2+y,-z
1/2-x,1/2-y,-z
1/2+x,1/2-y,z
loop_
_atom_site_type_symbol
_atom_site_label
_atom_site_fract_x
_atom_site_fract_y
_atom_site_fract_z
Si Si1 0.705808 0.896922 0.460018
Si Si2 0.574835 0.770944 0.653123
Si Si3 0.581171 0.110199 0.133889
Si Si4 0.787693 0.924447 0.812278
Si Si5 0.042367 0.127816 0.783893
O O1 0.680165 0.819082 0.530736
O O2 0.611396 0.916306 0.328060
O O3 0.703054 0.929249 0.658995
O O4 0.841102 0.910649 0.334774
O O5 0.500000 0.747303 0.500000
O O6 0.489590 0.821383 0.797139
O O7 0.590608 0.704429 0.765198
O O8 0.500000 0.075603 0.000000
O O9 0.713609 0.116071 0.990883
O O10 0.914308 0.886840 0.719443
O O11 0.812623 0.000000 0.868405
O O12 0.000000 0.108407 0.000000
#
# Coordination Sequence:
#
# PCOD9216058 Si02
#       5
#     8   8   8   8   8
#     4  11  24  46  72 107 143 190 235 291 362 428
#     4  10  22  42  73 109 147 181 229 297 361 434
#     4  11  23  47  72 107 141 182 241 298 360 417
#     4  12  28  48  73 103 145 196 241 293 350 424
#     4  12  25  44  72 111 143 190 233 296 363 425
#
# _framework density 25.344301000000002
#
# number of rings (size 3 to 8) (size 9 to 14) (size 15 to 20)
#    0.000    0.800    4.000    3.000    0.000    5.600 
#    0.000    1.000    0.000    0.000    0.000    0.000 
#    0.000    0.000    0.000    0.000    0.000    0.000 
#
# Total GULP energy -111632.308578 kJ/mol
# GULP energy per Si atom -5581.615429 kJ/mol
# Density = 2.528662 g / cm^3
# Si number density = 25.344301 Si / 1000 Ang^3
#
#
#
# Elastic Constant Matrix: (Units=GPa)
#
#
# Indices 1 2 3 4 5 6 
#
# 1 104.9494 11.5934 54.2134 0.0000 -10.3003 0.0000
# 2 11.5934 83.2878 15.4066 0.0000 -8.0526 0.0000
# 3 54.2134 15.4066 185.3368 0.0000 -5.4784 0.0000
# 4 0.0000 0.0000 0.0000 3.2447 0.0000 7.8590
# 5 -10.3003 -8.0526 -5.4784 0.0000 67.9583 0.0000
# 6 0.0000 0.0000 0.0000 7.8590 0.0000 1.7664
#
#
#
# Elastic Compliance Matrix: (Units=1/GPa)
#
#
# Indices 1 2 3 4 5 6 
#
# 1 0.011427 -0.000861 -0.003230 0.000000 0.001370 0.000000
# 2 -0.000861 0.012387 -0.000740 0.000000 0.001278 0.000000
# 3 -0.003230 -0.000740 0.006400 0.000000 -0.000061 0.000000
# 4 0.000000 0.000000 0.000000 -0.031524 0.000000 0.140258
# 5 0.001370 0.001278 -0.000061 0.000000 0.015069 0.000000
# 6 0.000000 0.000000 0.000000 0.140258 0.000000 -0.057908
#
#
# Mechanical properties :
#
#
# Convention : Reuss Voigt Hill
#
# Bulk Modulus (GPa) = 48.65874 59.55564 54.10719
# Shear Modulus (GPa) = -180.92146 34.08459 -73.41844
#
# Velocity S-wave (km/s) = -8.45816 3.67121 -5.38807
# Velocity P-wave (km/s) = 8.72619 6.44361 4.16091
#
# Compressibility (1/GPa) = 0.02055129
#
# Stress axis : x y z
#
# Youngs Moduli (GPa) = 87.51510 80.73110 156.24428
#
# Poissons Ratio (x) = 0.06948 0.50473
# Poissons Ratio (y) = 0.07531 0.11565
# Poissons Ratio (z) = 0.28271 0.05976
#
# Static dielectric constant tensor:
#      x y z
#    x 2.087910 0.000000 0.062550 
#    y 0.000000 2.012760 0.000000 
#    z 0.062550 0.000000 1.980340 
# 
# From -- ./inp_files/48611.got.cif
#   From: 2010.05.17/outbox.cif.g08.bks.cpg/sg12_25_cif.got.tgz:48611.got - 2010.06.03 13:09:07.
