data_PCOD9216106
_publ_section_title
;
Structure prediction by ZEFSAII (Michael W. Deem and Ramdas Pophale) SiO2 
 PCOD9216106
Probable space group: C 2/M
;
_chemical_formula_sum "Si O2"
_cell_formula_units_Z 64
_cell_length_a 14.053741
_cell_length_b 19.134530
_cell_length_c 21.090615
_cell_angle_alpha 90.000000
_cell_angle_beta 144.811553
_cell_angle_gamma 90.000000
_cell_volume 3268.309255
_symmetry_space_group_name_H-M "C 2/M"
_symmetry_group_IT_number 12
_symmetry_cell_setting 'monoclinic'
loop_
_space_group_symop_operation_xyz
x,y,z
-x,y,-z
-x,-y,-z
x,-y,z
1/2+x,1/2+y,z
1/2-x,1/2+y,-z
1/2-x,1/2-y,-z
1/2+x,1/2-y,z
loop_
_atom_site_type_symbol
_atom_site_label
_atom_site_fract_x
_atom_site_fract_y
_atom_site_fract_z
Si Si1 0.440719 0.920338 0.559188
Si Si2 0.495747 0.310528 0.136455
Si Si3 0.662146 0.809725 0.742982
Si Si4 0.433534 0.346524 0.324738
Si Si5 0.310517 0.578263 0.458952
Si Si6 0.355195 0.829574 0.119540
Si Si7 0.641522 0.081086 0.230089
Si Si8 0.118658 0.083237 0.307886
O O1 0.579894 0.863936 0.649312
O O2 0.327782 0.919558 0.561576
O O3 0.310200 0.903794 0.432269
O O4 0.502603 0.000000 0.584622
O O5 0.648846 0.296272 0.173446
O O6 0.448971 0.242909 0.153315
O O7 0.554803 0.373619 0.213368
O O8 0.329929 0.326960 0.007590
O O9 0.569621 0.735561 0.689431
O O10 0.647952 0.838406 0.806593
O O11 0.551702 0.365944 0.447990
O O12 0.251766 0.374472 0.241953
O O13 0.510365 0.388896 0.307990
O O14 0.386117 0.500000 0.502772
O O15 0.227749 0.587971 0.346105
O O16 0.459454 0.888972 0.140907
O O17 0.641988 0.000000 0.212547
O O18 0.100307 0.000000 0.291037
#
# Coordination Sequence:
#
# PCOD9216106 Si02
#       8
#     8   8   8   8   8   8   8   8
#     4   9  20  38  62  92 129 167 200 252 311 368
#     4  11  25  44  64  87 121 169 208 258 311 365
#     4  12  23  40  67  96 122 163 209 255 313 372
#     4  11  21  35  60  97 128 164 205 250 310 377
#     4   9  18  34  57  88 131 169 196 247 314 368
#     4  11  24  44  64  86 125 162 211 261 309 360
#     4  11  21  38  63  93 127 164 209 256 311 369
#     4  10  22  43  65  91 130 168 205 253 315 372
#
# _framework density 19.581990000000001
#
# number of rings (size 3 to 8) (size 9 to 14) (size 15 to 20)
#    0.000    1.500    3.750    2.625    0.000    5.500 
#    2.250    1.875    0.000    3.750    0.000    0.000 
#    0.000    0.000    0.000    0.000    0.000    0.000 
#
# Total GULP energy -178837.179074 kJ/mol
# GULP energy per Si atom -5588.661846 kJ/mol
# Density = 1.953742 g / cm^3
# Si number density = 19.581990 Si / 1000 Ang^3
#
#
#
# Elastic Constant Matrix: (Units=GPa)
#
#
# Indices 1 2 3 4 5 6 
#
# 1 60.7584 14.6132 21.7969 -0.0003 6.5630 -0.0007
# 2 14.6132 78.5001 43.2688 0.0004 -0.2012 0.0007
# 3 21.7969 43.2688 72.4614 0.0002 13.3879 -0.0002
# 4 -0.0003 0.0004 0.0002 14.1190 0.0001 -32.9614
# 5 6.5630 -0.2012 13.3879 0.0001 28.8743 -0.0001
# 6 -0.0007 0.0007 -0.0002 -32.9614 -0.0001 -43.3583
#
#
#
# Elastic Compliance Matrix: (Units=1/GPa)
#
#
# Indices 1 2 3 4 5 6 
#
# 1 0.018572 -0.000884 -0.004679 0.000000 -0.002058 0.000000
# 2 -0.000884 0.019995 -0.012836 0.000000 0.006292 0.000000
# 3 -0.004679 -0.012836 0.024819 0.000000 -0.010534 0.000000
# 4 0.000000 0.000000 0.000000 0.025525 0.000000 -0.019405
# 5 -0.002058 0.006292 -0.010534 0.000000 0.040028 0.000000
# 6 0.000000 0.000000 0.000000 -0.019405 0.000000 -0.008312
#
#
# Mechanical properties :
#
#
# Convention : Reuss Voigt Hill
#
# Bulk Modulus (GPa) = 37.61007 41.23086 39.42047
# Shear Modulus (GPa) = 30.06857 8.72975 19.39916
#
# Velocity S-wave (km/s) = 3.92282 2.11370 3.15089
# Velocity P-wave (km/s) = 6.30605 5.20175 5.78033
#
# Compressibility (1/GPa) = 0.02658862
#
# Stress axis : x y z
#
# Youngs Moduli (GPa) = 53.84469 50.01353 40.29221
#
# Poissons Ratio (x) = 0.04420 0.18851
# Poissons Ratio (y) = 0.04758 0.51719
# Poissons Ratio (z) = 0.25192 0.64197
#
# Static dielectric constant tensor:
#      x y z
#    x 1.711050 0.000000 0.012350 
#    y 0.000000 1.667290 0.000000 
#    z 0.012350 0.000000 1.664640 
# 
# From -- ./inp_files/340882.got.cif
#   From: 2010.05.17/outbox.cif.g08.bks.cpg/sg12_171_cif.got.tgz:340882.got - 2010.06.03 13:09:07.
