data_PCOD9216331
_publ_section_title
;
Structure prediction by ZEFSAII (Michael W. Deem and Ramdas Pophale) SiO2 
 PCOD9216331
Probable space group: C 2/M
;
_chemical_formula_sum "Si O2"
_cell_formula_units_Z 56
_cell_length_a 29.601204
_cell_length_b 11.043570
_cell_length_c 10.021057
_cell_angle_alpha 90.000000
_cell_angle_beta 109.656183
_cell_angle_gamma 90.000000
_cell_volume 3085.019469
_symmetry_space_group_name_H-M "C 2/M"
_symmetry_group_IT_number 12
_symmetry_cell_setting 'monoclinic'
loop_
_space_group_symop_operation_xyz
x,y,z
-x,y,-z
-x,-y,-z
x,-y,z
1/2+x,1/2+y,z
1/2-x,1/2+y,-z
1/2-x,1/2-y,-z
1/2+x,1/2-y,z
loop_
_atom_site_type_symbol
_atom_site_label
_atom_site_fract_x
_atom_site_fract_y
_atom_site_fract_z
Si Si1 0.106742 0.739714 0.370746
Si Si2 0.489787 0.358349 0.839888
Si Si3 0.851905 0.644478 0.862211
Si Si4 0.144615 0.139810 0.665097
Si Si5 0.248638 0.140488 0.891194
Si Si6 0.536211 0.000000 0.724986
Si Si7 0.415512 0.751887 0.157567
Si Si8 0.431173 0.000000 0.548312
O O1 0.054916 0.791242 0.272839
O O2 0.136381 0.701085 0.269819
O O3 0.132421 0.828478 0.500467
O O4 0.097893 0.618585 0.446130
O O5 0.477426 0.500000 0.835666
O O6 0.540732 0.341177 0.817617
O O7 0.500000 0.311558 0.000000
O O8 0.865934 0.500000 0.879545
O O9 0.796335 0.648981 0.849106
O O10 0.880308 0.727424 0.997721
O O11 0.200452 0.155576 0.756874
O O12 0.114176 0.219123 0.739916
O O13 0.132066 0.000000 0.677744
O O14 0.247789 0.000000 0.945387
O O15 0.250000 0.250000 0.000000
O O16 0.558284 0.119992 0.805679
O O17 0.479365 0.000000 0.684178
O O18 0.551027 0.000000 0.584856
#
# Coordination Sequence:
#
# PCOD9216331 Si02
#       8
#     8   8   8   8   8   4   8   4
#     4  12  23  41  62  90 130 165 207 255 314 374
#     4  11  24  39  57  88 127 168 210 253 300 371
#     4  11  23  38  66  97 124 160 206 263 324 374
#     4  11  25  43  64  89 127 170 207 257 316 374
#     4  10  22  44  68  97 128 160 212 269 319 382
#     4  11  22  35  59  95 125 161 205 263 311 362
#     4  12  21  38  64  91 124 159 210 257 313 376
#     4  11  22  37  57  89 131 161 199 259 313 362
#
# _framework density 18.152235000000001
#
# number of rings (size 3 to 8) (size 9 to 14) (size 15 to 20)
#    0.000    0.857    7.143    0.857    0.000    1.143 
#    1.286    5.000    0.000    0.000    0.000    0.000 
#    0.000    0.000    0.000    0.000    0.000    0.000 
#
# Total GULP energy -156233.458619 kJ/mol
# GULP energy per Si atom -5579.766379 kJ/mol
# Density = 1.811092 g / cm^3
# Si number density = 18.152235 Si / 1000 Ang^3
#
#
#
# Elastic Constant Matrix: (Units=GPa)
#
#
# Indices 1 2 3 4 5 6 
#
# 1 87.9810 9.3376 27.7886 0.0000 0.9454 0.0000
# 2 9.3376 56.4007 17.8607 0.0000 7.1185 0.0000
# 3 27.7886 17.8607 90.6600 0.0000 1.6898 0.0000
# 4 0.0000 0.0000 0.0000 21.2478 0.0000 3.8198
# 5 0.9454 7.1185 1.6898 0.0000 29.1962 0.0000
# 6 0.0000 0.0000 0.0000 3.8198 0.0000 65.4059
#
#
#
# Elastic Compliance Matrix: (Units=1/GPa)
#
#
# Indices 1 2 3 4 5 6 
#
# 1 0.012629 -0.000926 -0.003689 0.000000 0.000030 0.000000
# 2 -0.000926 0.019560 -0.003485 0.000000 -0.004537 0.000000
# 3 -0.003689 -0.003485 0.012843 0.000000 0.000226 0.000000
# 4 0.000000 0.000000 0.000000 0.047563 0.000000 -0.002778
# 5 0.000030 -0.004537 0.000226 0.000000 0.035343 0.000000
# 6 0.000000 0.000000 0.000000 -0.002778 0.000000 0.015451
#
#
# Mechanical properties :
#
#
# Convention : Reuss Voigt Hill
#
# Bulk Modulus (GPa) = 34.68424 38.33508 36.50966
# Shear Modulus (GPa) = 29.55054 35.17364 32.36209
#
# Velocity S-wave (km/s) = 4.03914 4.40671 4.22692
# Velocity P-wave (km/s) = 6.39545 6.85978 6.63168
#
# Compressibility (1/GPa) = 0.02883154
#
# Stress axis : x y z
#
# Youngs Moduli (GPa) = 79.18101 51.12500 77.86143
#
# Poissons Ratio (x) = 0.04737 0.28724
# Poissons Ratio (y) = 0.07336 0.27134
# Poissons Ratio (z) = 0.29211 0.17817
#
# Static dielectric constant tensor:
#      x y z
#    x 1.603450 0.000000 0.006300 
#    y 0.000000 1.619510 0.000000 
#    z 0.006300 0.000000 1.619050 
# 
# From -- ./inp_files/110585.got.cif
#   From: 2010.05.17/outbox.cif.g08.bks.cpg/sg12_56_cif.got.tgz:110585.got - 2010.06.03 13:09:07.
