data_PCOD9216171
_publ_section_title
;
Structure prediction by ZEFSAII (Michael W. Deem and Ramdas Pophale) SiO2 
 PCOD9216171
Probable space group: C 2/M
;
_chemical_formula_sum "Si O2"
_cell_formula_units_Z 44
_cell_length_a 9.660294
_cell_length_b 24.358638
_cell_length_c 11.757294
_cell_angle_alpha 90.000000
_cell_angle_beta 127.688353
_cell_angle_gamma 90.000000
_cell_volume 2189.364831
_symmetry_space_group_name_H-M "C 2/M"
_symmetry_group_IT_number 12
_symmetry_cell_setting 'monoclinic'
loop_
_space_group_symop_operation_xyz
x,y,z
-x,y,-z
-x,-y,-z
x,-y,z
1/2+x,1/2+y,z
1/2-x,1/2+y,-z
1/2-x,1/2-y,-z
1/2+x,1/2-y,z
loop_
_atom_site_type_symbol
_atom_site_label
_atom_site_fract_x
_atom_site_fract_y
_atom_site_fract_z
Si Si1 0.951662 0.000000 0.276035
Si Si2 0.968313 0.595682 0.733602
Si Si3 0.367489 0.000000 0.040062
Si Si4 0.212847 0.694062 0.824693
Si Si5 0.881256 0.881860 0.334327
Si Si6 0.541319 0.696872 0.831342
Si Si7 0.156259 0.500000 0.490042
O O1 0.905395 0.946456 0.325028
O O2 0.156941 0.000000 0.356077
O O3 0.828334 0.000000 0.104465
O O4 0.822918 0.625354 0.738590
O O5 0.865699 0.554996 0.596587
O O6 0.087479 0.554127 0.866062
O O7 0.089967 0.641907 0.740309
O O8 0.500000 0.000000 0.000000
O O9 0.351225 0.702404 0.792937
O O10 0.099618 0.747889 0.795800
O O11 0.325552 0.685500 0.997198
O O12 0.941244 0.851228 0.251293
O O13 0.000000 0.864268 0.500000
O O14 0.000000 0.500000 0.500000
#
# Coordination Sequence:
#
# PCOD9216171 Si02
#       7
#     4   8   4   8   8   8   4
#     4  12  22  40  66  91 134 173 222 262 326 386
#     4  11  23  40  64  98 133 165 224 262 328 386
#     4  11  21  37  64 103 127 169 217 274 315 384
#     4  10  22  43  67  96 125 172 210 283 319 389
#     4  12  23  39  66  97 131 179 213 267 319 403
#     4  10  23  42  67  96 131 164 223 262 340 376
#     4  11  26  44  62  91 133 185 214 265 328 397
#
# _framework density 20.097152000000001
#
# number of rings (size 3 to 8) (size 9 to 14) (size 15 to 20)
#    0.000    1.091    3.636    3.000    2.545    1.455 
#    0.000    5.455    0.000    0.000    0.000    0.000 
#    0.000    0.000    0.000    0.000    0.000    0.000 
#
# Total GULP energy -123022.256029 kJ/mol
# GULP energy per Si atom -5591.920729 kJ/mol
# Density = 2.005141 g / cm^3
# Si number density = 20.097152 Si / 1000 Ang^3
#
#
#
# Elastic Constant Matrix: (Units=GPa)
#
#
# Indices 1 2 3 4 5 6 
#
# 1 166.5158 60.2500 46.0435 0.0000 6.8141 0.0000
# 2 60.2500 109.6419 27.7213 0.0000 -2.9087 0.0000
# 3 46.0435 27.7213 88.0220 0.0000 14.2633 0.0000
# 4 0.0000 0.0000 0.0000 -4.0486 0.0000 9.4384
# 5 6.8141 -2.9087 14.2633 0.0000 38.4381 0.0000
# 6 0.0000 0.0000 0.0000 9.4384 0.0000 26.1255
#
#
#
# Elastic Compliance Matrix: (Units=1/GPa)
#
#
# Indices 1 2 3 4 5 6 
#
# 1 0.008232 -0.003778 -0.003015 0.000000 -0.000626 0.000000
# 2 -0.003778 0.011795 -0.002119 0.000000 0.002349 0.000000
# 3 -0.003015 -0.002119 0.014411 0.000000 -0.004973 0.000000
# 4 0.000000 0.000000 0.000000 -0.134077 0.000000 0.048438
# 5 -0.000626 0.002349 -0.004973 0.000000 0.028150 0.000000
# 6 0.000000 0.000000 0.000000 0.048438 0.000000 0.020777
#
#
# Mechanical properties :
#
#
# Convention : Reuss Voigt Hill
#
# Bulk Modulus (GPa) = 60.18868 70.24548 65.21708
# Shear Modulus (GPa) = -182.80753 27.44733 -77.68010
#
# Velocity S-wave (km/s) = -9.54774 3.69959 -6.22384
# Velocity P-wave (km/s) = 9.56723 7.29919 4.37343
#
# Compressibility (1/GPa) = 0.01661442
#
# Stress axis : x y z
#
# Youngs Moduli (GPa) = 121.48383 84.78442 69.39174
#
# Poissons Ratio (x) = 0.32030 0.20919
# Poissons Ratio (y) = 0.45894 0.14704
# Poissons Ratio (z) = 0.36622 0.17966
#
# Static dielectric constant tensor:
#      x y z
#    x 1.699420 0.000000 0.015960 
#    y 0.000000 1.695740 0.000000 
#    z 0.015960 0.000000 1.726550 
# 
# From -- ./inp_files/122708.got.cif
#   From: 2010.05.17/outbox.cif.g08.bks.cpg/sg12_62_cif.got.tgz:122708.got - 2010.06.03 13:09:07.
