data_PCOD9216769
_publ_section_title
;
Structure prediction by ZEFSAII (Michael W. Deem and Ramdas Pophale) SiO2 
 PCOD9216769
Probable space group: C 2/M
;
_chemical_formula_sum "Si O2"
_cell_formula_units_Z 50
_cell_length_a 24.843972
_cell_length_b 7.157039
_cell_length_c 11.859339
_cell_angle_alpha 90.000000
_cell_angle_beta 114.436652
_cell_angle_gamma 90.000000
_cell_volume 1919.801437
_symmetry_space_group_name_H-M "C 2/M"
_symmetry_group_IT_number 12
_symmetry_cell_setting 'monoclinic'
loop_
_space_group_symop_operation_xyz
x,y,z
-x,y,-z
-x,-y,-z
x,-y,z
1/2+x,1/2+y,z
1/2-x,1/2+y,-z
1/2-x,1/2-y,-z
1/2+x,1/2-y,z
loop_
_atom_site_type_symbol
_atom_site_label
_atom_site_fract_x
_atom_site_fract_y
_atom_site_fract_z
Si Si1 0.154569 0.704420 0.854854
Si Si2 0.771563 0.720354 0.393334
Si Si3 0.095704 0.271877 0.459709
Si Si4 0.500000 0.500000 0.500000
Si Si5 0.563953 0.227607 0.929974
Si Si6 0.426124 0.224591 0.814856
Si Si7 0.723062 0.274516 0.135541
O O1 0.142545 0.500000 0.795098
O O2 0.209305 0.784017 0.835594
O O3 0.093677 0.796057 0.839198
O O4 0.182426 0.690025 0.005078
O O5 0.774153 0.500000 0.374764
O O6 0.750000 0.750000 0.500000
O O7 0.839243 0.782434 0.437614
O O8 0.720907 0.786235 0.262658
O O9 0.088443 0.500000 0.459854
O O10 0.098600 0.220762 0.328171
O O11 0.044012 0.163261 0.479978
O O12 0.591933 0.290253 0.074548
O O13 0.566096 0.000000 0.928041
O O14 0.495452 0.275814 0.870204
O O15 0.421666 0.000000 0.815901
O O16 0.718876 0.500000 0.116874
#
# Coordination Sequence:
#
# PCOD9216769 Si02
#       7
#     8   8   8   2   8   8   8
#     4   9  17  30  53  80 109 147 190 241 303 367
#     4  10  23  40  62  91 125 168 216 265 319 380
#     4  10  23  43  66  94 127 171 216 266 327 384
#     4  12  26  44  68  92 128 168 222 274 318 388
#     4   8  14  26  52  86 112 147 193 244 302 370
#     4   8  15  30  54  85 117 147 196 250 306 378
#     4   9  19  35  51  78 116 151 194 247 306 368
#
# _framework density 26.044357999999999
#
# number of rings (size 3 to 8) (size 9 to 14) (size 15 to 20)
#    0.000    2.880    0.000    1.200    3.360    1.920 
#    0.000    4.800    8.800    0.960    0.000    0.000 
#    0.000    0.000    0.000    0.000    0.000    0.000 
#
# Total GULP energy -139266.511276 kJ/mol
# GULP energy per Si atom -5570.660451 kJ/mol
# Density = 2.598508 g / cm^3
# Si number density = 26.044358 Si / 1000 Ang^3
#
#
#
# Elastic Constant Matrix: (Units=GPa)
#
#
# Indices 1 2 3 4 5 6 
#
# 1 67.2559 2.4143 -24.8527 0.0000 -13.2976 0.0000
# 2 2.4143 166.1726 -3.3798 0.0000 0.4014 0.0000
# 3 -24.8527 -3.3798 96.8356 0.0000 11.5879 0.0000
# 4 0.0000 0.0000 0.0000 -0.1941 0.0000 -4.0324
# 5 -13.2976 0.4014 11.5879 0.0000 32.9995 0.0000
# 6 0.0000 0.0000 0.0000 -4.0324 0.0000 -8.3409
#
#
#
# Elastic Compliance Matrix: (Units=1/GPa)
#
#
# Indices 1 2 3 4 5 6 
#
# 1 0.017395 -0.000190 0.003778 0.000000 0.005686 0.000000
# 2 -0.000190 0.006025 0.000187 0.000000 -0.000216 0.000000
# 3 0.003778 0.000187 0.011609 0.000000 -0.002557 0.000000
# 4 0.000000 0.000000 0.000000 0.569687 0.000000 -0.275415
# 5 0.005686 -0.000216 -0.002557 0.000000 0.033495 0.000000
# 6 0.000000 0.000000 0.000000 -0.275415 0.000000 0.013257
#
#
# Mechanical properties :
#
#
# Convention : Reuss Voigt Hill
#
# Bulk Modulus (GPa) = 23.48541 30.95863 27.22202
# Shear Modulus (GPa) = 7.59750 28.63172 18.11461
#
# Velocity S-wave (km/s) = 1.70982 3.31923 2.64015
# Velocity P-wave (km/s) = 3.59653 5.15776 4.44620
#
# Compressibility (1/GPa) = 0.04257962
#
# Stress axis : x y z
#
# Youngs Moduli (GPa) = 57.48650 165.97708 86.14197
#
# Poissons Ratio (x) = 0.03148 -0.32540
# Poissons Ratio (y) = 0.01090 -0.01614
# Poissons Ratio (z) = -0.21716 -0.03110
#
# Static dielectric constant tensor:
#      x y z
#    x 2.094130 0.000000 -0.030930 
#    y 0.000000 2.112000 0.000000 
#    z -0.030930 0.000000 2.010820 
# 
# From -- ./inp_files/180158.got.cif
#   From: 2010.05.17/outbox.cif.g08.bks.cpg/sg12_91_cif.got.tgz:180158.got - 2010.06.03 13:09:07.
