data_PCOD9216643
_publ_section_title
;
Structure prediction by ZEFSAII (Michael W. Deem and Ramdas Pophale) SiO2 
 PCOD9216643
Probable space group: C 2/M
;
_chemical_formula_sum "Si O2"
_cell_formula_units_Z 34
_cell_length_a 16.396236
_cell_length_b 7.267910
_cell_length_c 17.536114
_cell_angle_alpha 90.000000
_cell_angle_beta 137.995039
_cell_angle_gamma 90.000000
_cell_volume 1398.426729
_symmetry_space_group_name_H-M "C 2/M"
_symmetry_group_IT_number 12
_symmetry_cell_setting 'monoclinic'
loop_
_space_group_symop_operation_xyz
x,y,z
-x,y,-z
-x,-y,-z
x,-y,z
1/2+x,1/2+y,z
1/2-x,1/2+y,-z
1/2-x,1/2-y,-z
1/2+x,1/2-y,z
loop_
_atom_site_type_symbol
_atom_site_label
_atom_site_fract_x
_atom_site_fract_y
_atom_site_fract_z
Si Si1 0.810337 0.292487 0.918199
Si Si2 0.807977 0.717956 0.622032
Si Si3 0.927378 0.275566 0.147444
Si Si4 0.000000 0.500000 0.500000
Si Si5 0.331313 0.277258 0.325113
O O1 0.851184 0.500000 0.930332
O O2 0.685332 0.292435 0.880607
O O3 0.766209 0.218599 0.806735
O O4 0.907246 0.214238 0.045634
O O5 0.814614 0.500000 0.638642
O O6 0.750000 0.750000 0.500000
O O7 0.722571 0.785530 0.630891
O O8 0.945191 0.785697 0.729019
O O9 0.920649 0.500000 0.142934
O O10 0.045334 0.662345 0.592556
O O11 0.348230 0.500000 0.332715
#
# Coordination Sequence:
#
# PCOD9216643 Si02
#       5
#     8   8   8   2   8
#     4   9  19  37  60  88 119 156 205 254 303 360
#     4  10  23  39  58  86 123 160 204 256 309 368
#     4   9  19  36  61  87 117 161 204 249 305 365
#     4  12  26  40  68  88 124 168 202 264 300 376
#     4  10  24  42  62  93 123 161 210 254 308 366
#
# _framework density 24.313037000000001
#
# number of rings (size 3 to 8) (size 9 to 14) (size 15 to 20)
#    0.000    2.353    0.000    0.353    6.588    1.882 
#    0.000    4.706    0.000    1.412    0.000    0.000 
#    0.000    0.000    0.000    0.000    0.000    0.000 
#
# Total GULP energy -94713.131753 kJ/mol
# GULP energy per Si atom -5571.360691 kJ/mol
# Density = 2.425770 g / cm^3
# Si number density = 24.313037 Si / 1000 Ang^3
#
#
#
# Elastic Constant Matrix: (Units=GPa)
#
#
# Indices 1 2 3 4 5 6 
#
# 1 51.3480 -5.0560 56.6449 0.0000 -18.0637 0.0000
# 2 -5.0560 137.6207 9.5001 0.0000 0.1176 0.0000
# 3 56.6449 9.5001 236.3094 0.0000 -23.3048 0.0000
# 4 0.0000 0.0000 0.0000 -1.4826 0.0000 -4.7666
# 5 -18.0637 0.1176 -23.3048 0.0000 49.6274 0.0000
# 6 0.0000 0.0000 0.0000 -4.7666 0.0000 -8.9480
#
#
#
# Elastic Compliance Matrix: (Units=1/GPa)
#
#
# Indices 1 2 3 4 5 6 
#
# 1 0.029310 0.001507 -0.006328 0.000000 0.007693 0.000000
# 2 0.001507 0.007365 -0.000634 0.000000 0.000233 0.000000
# 3 -0.006328 -0.000634 0.005816 0.000000 0.000430 0.000000
# 4 0.000000 0.000000 0.000000 0.946472 0.000000 -0.504182
# 5 0.007693 0.000233 0.000430 0.000000 0.023152 0.000000
# 6 0.000000 0.000000 0.000000 -0.504182 0.000000 0.156820
#
#
# Mechanical properties :
#
#
# Convention : Reuss Voigt Hill
#
# Bulk Modulus (GPa) = 31.66363 60.82847 46.24605
# Shear Modulus (GPa) = 4.20037 32.11863 18.15950
#
# Velocity S-wave (km/s) = 1.31582 3.63856 2.73592
# Velocity P-wave (km/s) = 3.91919 6.53646 5.38913
#
# Compressibility (1/GPa) = 0.03158197
#
# Stress axis : x y z
#
# Youngs Moduli (GPa) = 34.11770 135.77171 171.92732
#
# Poissons Ratio (x) = -0.20462 1.08791
# Poissons Ratio (y) = -0.05142 0.10906
# Poissons Ratio (z) = 0.21589 0.08613
#
# Static dielectric constant tensor:
#      x y z
#    x 2.929770 0.000000 -0.147300 
#    y 0.000000 1.627270 0.000000 
#    z -0.147300 0.000000 2.038180 
# 
# From -- ./inp_files/151242.got.cif
#   From: 2010.05.17/outbox.cif.g08.bks.cpg/sg12_76_cif.got.tgz:151242.got - 2010.06.03 13:09:07.
