data_PCOD9216290
_publ_section_title
;
Structure prediction by ZEFSAII (Michael W. Deem and Ramdas Pophale) SiO2 
 PCOD9216290
Probable space group: C 2/M
;
_chemical_formula_sum "Si O2"
_cell_formula_units_Z 28
_cell_length_a 17.881760
_cell_length_b 7.835879
_cell_length_c 18.125001
_cell_angle_alpha 90.000000
_cell_angle_beta 142.671166
_cell_angle_gamma 90.000000
_cell_volume 1540.022555
_symmetry_space_group_name_H-M "C 2/M"
_symmetry_group_IT_number 12
_symmetry_cell_setting 'monoclinic'
loop_
_space_group_symop_operation_xyz
x,y,z
-x,y,-z
-x,-y,-z
x,-y,z
1/2+x,1/2+y,z
1/2-x,1/2+y,-z
1/2-x,1/2-y,-z
1/2+x,1/2-y,z
loop_
_atom_site_type_symbol
_atom_site_label
_atom_site_fract_x
_atom_site_fract_y
_atom_site_fract_z
Si Si1 0.602530 0.000000 0.015722
Si Si2 0.916391 0.000000 0.505211
Si Si3 0.743239 0.698808 0.409028
Si Si4 0.960801 0.188496 0.139025
Si Si5 0.123874 0.000000 0.792364
O O1 0.583676 0.164309 0.948922
O O2 0.500000 0.000000 0.000000
O O3 0.747688 0.000000 0.150457
O O4 0.000000 0.000000 0.500000
O O5 0.832031 0.167904 0.439293
O O6 0.005220 0.000000 0.646702
O O7 0.777756 0.500000 0.427512
O O8 0.750000 0.750000 0.500000
O O9 0.603291 0.718603 0.271627
O O10 0.951778 0.000000 0.095999
O O11 0.888831 0.159721 0.160323
#
# Coordination Sequence:
#
# PCOD9216290 Si02
#       5
#     4   4   8   8   4
#     4  12  25  38  65  91 118 164 205 254 318 340
#     4  12  25  38  63  95 137 153 195 275 307 356
#     4  11  19  38  66  94 117 163 211 243 309 380
#     4   9  21  40  63  85 121 160 208 246 291 373
#     4  10  22  44  57  94 120 163 215 237 297 382
#
# _framework density 18.181550999999999
#
# number of rings (size 3 to 8) (size 9 to 14) (size 15 to 20)
#    0.857    0.571    4.286    1.714    4.000    1.143 
#    0.000    0.000    0.000    0.000    0.000    0.000 
#    0.000    0.000    0.000    0.000    0.000    0.000 
#
# Total GULP energy -78048.114953 kJ/mol
# GULP energy per Si atom -5574.865354 kJ/mol
# Density = 1.814017 g / cm^3
# Si number density = 18.181551 Si / 1000 Ang^3
#
#
#
# Elastic Constant Matrix: (Units=GPa)
#
#
# Indices 1 2 3 4 5 6 
#
# 1 110.8083 31.9240 10.9243 0.0000 29.6026 0.0000
# 2 31.9240 106.7282 43.7537 0.0000 18.9376 0.0000
# 3 10.9243 43.7537 58.9429 0.0000 21.2662 0.0000
# 4 0.0000 0.0000 0.0000 16.6273 0.0000 2.6018
# 5 29.6026 18.9376 21.2662 0.0000 31.1482 0.0000
# 6 0.0000 0.0000 0.0000 2.6018 0.0000 20.0861
#
#
#
# Elastic Compliance Matrix: (Units=1/GPa)
#
#
# Indices 1 2 3 4 5 6 
#
# 1 0.013313 -0.003673 0.005332 0.000000 -0.014060 0.000000
# 2 -0.003673 0.014559 -0.010870 0.000000 0.002061 0.000000
# 3 0.005332 -0.010870 0.031167 0.000000 -0.019738 0.000000
# 4 0.000000 0.000000 0.000000 0.061386 0.000000 -0.007952
# 5 -0.014060 0.002061 -0.019738 0.000000 0.057689 0.000000
# 6 0.000000 0.000000 0.000000 -0.007952 0.000000 0.050816
#
#
# Mechanical properties :
#
#
# Convention : Reuss Voigt Hill
#
# Bulk Modulus (GPa) = 24.62022 49.96482 37.29252
# Shear Modulus (GPa) = 19.16498 26.23082 22.69790
#
# Velocity S-wave (km/s) = 3.25020 3.80243 3.53711
# Velocity P-wave (km/s) = 5.25887 6.84242 6.10223
#
# Compressibility (1/GPa) = 0.04061703
#
# Stress axis : x y z
#
# Youngs Moduli (GPa) = 75.11290 68.68691 32.08481
#
# Poissons Ratio (x) = 0.25231 -0.17107
# Poissons Ratio (y) = 0.27592 0.34876
# Poissons Ratio (z) = -0.40050 0.74661
#
# Static dielectric constant tensor:
#      x y z
#    x 1.621890 0.000000 0.016150 
#    y 0.000000 1.589660 0.000000 
#    z 0.016150 0.000000 1.628050 
# 
# From -- ./inp_files/267483.got.cif
#   From: 2010.05.17/outbox.cif.g08.bks.cpg/sg12_134_cif.got.tgz:267483.got - 2010.06.03 13:09:07.
