data_PCOD9216856
_publ_section_title
;
Structure prediction by ZEFSAII (Michael W. Deem and Ramdas Pophale) SiO2 
 PCOD9216856
Probable space group: C 2/M
;
_chemical_formula_sum "Si O2"
_cell_formula_units_Z 44
_cell_length_a 11.797293
_cell_length_b 16.980173
_cell_length_c 11.430982
_cell_angle_alpha 90.000000
_cell_angle_beta 62.207918
_cell_angle_gamma 90.000000
_cell_volume 2025.709899
_symmetry_space_group_name_H-M "C 2/M"
_symmetry_group_IT_number 12
_symmetry_cell_setting 'monoclinic'
loop_
_space_group_symop_operation_xyz
x,y,z
-x,y,-z
-x,-y,-z
x,-y,z
1/2+x,1/2+y,z
1/2-x,1/2+y,-z
1/2-x,1/2-y,-z
1/2+x,1/2-y,z
loop_
_atom_site_type_symbol
_atom_site_label
_atom_site_fract_x
_atom_site_fract_y
_atom_site_fract_z
Si Si1 0.262478 0.180568 0.860802
Si Si2 0.817349 0.166905 0.490467
Si Si3 0.642410 0.908993 0.409571
Si Si4 0.500000 0.776211 0.000000
Si Si5 0.098220 0.835849 0.281558
Si Si6 0.177097 0.409907 0.932300
O O1 0.280853 0.135125 0.729907
O O2 0.119656 0.214198 0.955221
O O3 0.355284 0.255778 0.802250
O O4 0.314928 0.127503 0.941615
O O5 0.750000 0.250000 0.500000
O O6 0.719576 0.101516 0.492488
O O7 0.857024 0.164396 0.605618
O O8 0.946630 0.159148 0.353266
O O9 0.500000 0.874703 0.500000
O O10 0.628883 0.000000 0.383467
O O11 0.591363 0.847149 0.898462
O O12 0.177806 0.904494 0.183127
O O13 0.135516 0.500000 0.950793
#
# Coordination Sequence:
#
# PCOD9216856 Si02
#       6
#     8   8   8   4   8   8
#     4  11  23  41  68  98 132 171 223 272 325 400
#     4  11  22  40  67  95 128 174 225 274 326 396
#     4  11  25  42  64  97 135 173 218 277 340 396
#     4  10  23  42  67  96 126 176 230 266 319 398
#     4  10  23  40  66  99 128 174 228 270 328 397
#     4  11  25  43  65  98 140 175 216 278 340 395
#
# _framework density 21.720780999999999
#
# number of rings (size 3 to 8) (size 9 to 14) (size 15 to 20)
#    0.000    1.273    1.818    4.091    5.091    4.364 
#    0.000    4.545    0.000    0.000    0.000    0.000 
#    0.000    0.000    0.000    0.000    0.000    0.000 
#
# Total GULP energy -122590.580704 kJ/mol
# GULP energy per Si atom -5572.299123 kJ/mol
# Density = 2.167134 g / cm^3
# Si number density = 21.720781 Si / 1000 Ang^3
#
#
#
# Elastic Constant Matrix: (Units=GPa)
#
#
# Indices 1 2 3 4 5 6 
#
# 1 129.5378 32.5807 55.7561 0.0000 -27.8690 0.0000
# 2 32.5807 108.2828 31.1173 0.0000 -6.6750 0.0000
# 3 55.7561 31.1173 97.1738 0.0000 -14.3582 0.0000
# 4 0.0000 0.0000 0.0000 23.6864 0.0000 2.9872
# 5 -27.8690 -6.6750 -14.3582 0.0000 38.2274 0.0000
# 6 0.0000 0.0000 0.0000 2.9872 0.0000 17.1538
#
#
#
# Elastic Compliance Matrix: (Units=1/GPa)
#
#
# Indices 1 2 3 4 5 6 
#
# 1 0.011766 -0.001629 -0.005298 0.000000 0.006303 0.000000
# 2 -0.001629 0.010409 -0.002441 0.000000 -0.000287 0.000000
# 3 -0.005298 -0.002441 0.014271 0.000000 0.001071 0.000000
# 4 0.000000 0.000000 0.000000 0.043166 0.000000 -0.007517
# 5 0.006303 -0.000287 0.001071 0.000000 0.031107 0.000000
# 6 0.000000 0.000000 0.000000 -0.007517 0.000000 0.059605
#
#
# Mechanical properties :
#
#
# Convention : Reuss Voigt Hill
#
# Bulk Modulus (GPa) = 56.46629 63.76695 60.11662
# Shear Modulus (GPa) = 25.64583 30.18287 27.91435
#
# Velocity S-wave (km/s) = 3.43987 3.73176 3.58878
# Velocity P-wave (km/s) = 6.46759 6.92743 6.70146
#
# Compressibility (1/GPa) = 0.01770968
#
# Stress axis : x y z
#
# Youngs Moduli (GPa) = 84.99053 96.07064 70.07397
#
# Poissons Ratio (x) = 0.15651 0.37125
# Poissons Ratio (y) = 0.13846 0.17104
# Poissons Ratio (z) = 0.45028 0.23449
#
# Static dielectric constant tensor:
#      x y z
#    x 1.876440 0.000000 -0.003900 
#    y 0.000000 1.797240 0.000000 
#    z -0.003900 0.000000 1.828320 
# 
# From -- ./inp_files/131595.got.cif
#   From: 2010.05.17/outbox.cif.g08.bks.cpg/sg12_66_cif.got.tgz:131595.got - 2010.06.03 13:09:07.
