data_PCOD9216077
_publ_section_title
;
Structure prediction by ZEFSAII (Michael W. Deem and Ramdas Pophale) SiO2 
 PCOD9216077
Probable space group: C 2/M
;
_chemical_formula_sum "Si O2"
_cell_formula_units_Z 40
_cell_length_a 5.033801
_cell_length_b 26.227959
_cell_length_c 15.361574
_cell_angle_alpha 90.000000
_cell_angle_beta 62.651771
_cell_angle_gamma 90.000000
_cell_volume 1801.449565
_symmetry_space_group_name_H-M "C 2/M"
_symmetry_group_IT_number 12
_symmetry_cell_setting 'monoclinic'
loop_
_space_group_symop_operation_xyz
x,y,z
-x,y,-z
-x,-y,-z
x,-y,z
1/2+x,1/2+y,z
1/2-x,1/2+y,-z
1/2-x,1/2-y,-z
1/2+x,1/2-y,z
loop_
_atom_site_type_symbol
_atom_site_label
_atom_site_fract_x
_atom_site_fract_y
_atom_site_fract_z
Si Si1 0.849337 0.104094 0.934115
Si Si2 0.135190 0.653134 0.222093
Si Si3 0.783708 0.877378 0.396345
Si Si4 0.730535 0.557181 0.236011
Si Si5 0.177567 0.215951 0.360653
O O1 0.867184 0.065848 0.849350
O O2 0.051235 0.152466 0.874687
O O3 0.500000 0.115506 0.000000
O O4 0.000000 0.084032 0.000000
O O5 0.197407 0.647754 0.316070
O O6 0.972696 0.601112 0.217245
O O7 0.899138 0.698999 0.247767
O O8 0.500000 0.885059 0.500000
O O9 0.959379 0.928189 0.341617
O O10 0.015266 0.837472 0.404194
O O11 0.836666 0.500000 0.233720
O O12 0.409240 0.244894 0.386691
#
# Coordination Sequence:
#
# PCOD9216077 Si02
#       5
#     8   8   8   8   8
#     4  11  22  41  67  97 128 171 212 265 326 381
#     4  10  22  43  63  95 132 171 212 271 319 389
#     4  10  23  42  63  94 133 174 218 265 319 383
#     4  10  23  41  64  96 131 173 217 265 319 383
#     4  11  22  40  67  97 128 169 212 268 327 379
#
# _framework density 22.204339999999998
#
# number of rings (size 3 to 8) (size 9 to 14) (size 15 to 20)
#    0.000    1.600    4.000    0.000    0.000    8.400 
#    0.000    1.000    0.000    3.600    0.000    0.000 
#    0.000    0.000    0.000    0.000    0.000    0.000 
#
# Total GULP energy -111577.807212 kJ/mol
# GULP energy per Si atom -5578.890361 kJ/mol
# Density = 2.215380 g / cm^3
# Si number density = 22.204340 Si / 1000 Ang^3
#
#
#
# Elastic Constant Matrix: (Units=GPa)
#
#
# Indices 1 2 3 4 5 6 
#
# 1 109.6863 31.1656 24.7149 0.0000 -19.1704 0.0000
# 2 31.1656 60.6655 41.0759 0.0000 3.1202 0.0000
# 3 24.7149 41.0759 128.7262 0.0000 -35.6874 0.0000
# 4 0.0000 0.0000 0.0000 -7.7083 0.0000 -5.6375
# 5 -19.1704 3.1202 -35.6874 0.0000 46.4795 0.0000
# 6 0.0000 0.0000 0.0000 -5.6375 0.0000 20.5388
#
#
#
# Elastic Compliance Matrix: (Units=1/GPa)
#
#
# Indices 1 2 3 4 5 6 
#
# 1 0.012222 -0.008234 0.002327 0.000000 0.007380 0.000000
# 2 -0.008234 0.029467 -0.011830 0.000000 -0.014458 0.000000
# 3 0.002327 -0.011830 0.014715 0.000000 0.013052 0.000000
# 4 0.000000 0.000000 0.000000 -0.108041 0.000000 -0.029655
# 5 0.007380 -0.014458 0.013052 0.000000 0.035551 0.000000
# 6 0.000000 0.000000 0.000000 -0.029655 0.000000 0.040548
#
#
# Mechanical properties :
#
#
# Convention : Reuss Voigt Hill
#
# Bulk Modulus (GPa) = 47.77757 54.77674 51.27715
# Shear Modulus (GPa) = 74.72254 25.33678 50.02966
#
# Velocity S-wave (km/s) = 5.80735 3.38164 4.75188
# Velocity P-wave (km/s) = 8.15665 6.32221 7.29730
#
# Compressibility (1/GPa) = 0.02093032
#
# Stress axis : x y z
#
# Youngs Moduli (GPa) = 81.81948 33.93574 67.95698
#
# Poissons Ratio (x) = 0.27942 -0.15813
# Poissons Ratio (y) = 0.67369 0.80394
# Poissons Ratio (z) = -0.19039 0.40147
#
# Static dielectric constant tensor:
#      x y z
#    x 1.916290 0.000000 0.004760 
#    y 0.000000 1.806290 0.000000 
#    z 0.004760 0.000000 1.886710 
# 
# From -- ./inp_files/253397.got.cif
#   From: 2010.05.17/outbox.cif.g08.bks.cpg/sg12_127_cif.got.tgz:253397.got - 2010.06.03 13:09:07.
