data_PCOD9216924
_publ_section_title
;
Structure prediction by ZEFSAII (Michael W. Deem and Ramdas Pophale) SiO2 
 PCOD9216924
Probable space group: C 2/M
;
_chemical_formula_sum "Si O2"
_cell_formula_units_Z 56
_cell_length_a 16.525131
_cell_length_b 8.842071
_cell_length_c 20.630827
_cell_angle_alpha 90.000000
_cell_angle_beta 81.072512
_cell_angle_gamma 90.000000
_cell_volume 2977.982695
_symmetry_space_group_name_H-M "C 2/M"
_symmetry_group_IT_number 12
_symmetry_cell_setting 'monoclinic'
loop_
_space_group_symop_operation_xyz
x,y,z
-x,y,-z
-x,-y,-z
x,-y,z
1/2+x,1/2+y,z
1/2-x,1/2+y,-z
1/2-x,1/2-y,-z
1/2+x,1/2-y,z
loop_
_atom_site_type_symbol
_atom_site_label
_atom_site_fract_x
_atom_site_fract_y
_atom_site_fract_z
Si Si1 0.187228 0.317061 0.866641
Si Si2 0.882125 0.818048 0.351995
Si Si3 0.092752 0.831733 0.504193
Si Si4 0.135625 0.683020 0.137842
Si Si5 0.096651 0.181881 0.002006
Si Si6 0.042297 0.681425 0.783675
Si Si7 0.775153 0.678883 0.567507
O O1 0.191862 0.500000 0.867810
O O2 0.278846 0.250301 0.845122
O O3 0.151954 0.252690 0.938534
O O4 0.116654 0.272287 0.823018
O O5 0.904386 0.772059 0.422655
O O6 0.932865 0.741741 0.289708
O O7 0.785231 0.777780 0.366898
O O8 0.890663 0.000000 0.345840
O O9 0.133773 0.738032 0.441838
O O10 0.000000 0.845617 0.500000
O O11 0.130297 0.000000 0.500166
O O12 0.140868 0.500000 0.137225
O O13 0.049745 0.728408 0.183800
O O14 0.123792 0.745141 0.066413
O O15 0.106639 0.000000 0.002742
O O16 0.000000 0.213879 0.000000
O O17 0.041963 0.500000 0.783821
O O18 0.774471 0.500000 0.563400
O O19 0.750000 0.750000 0.500000
#
# Coordination Sequence:
#
# PCOD9216924 Si02
#       7
#     8   8   8   8   8   8   8
#     4  11  23  41  62  87 117 153 198 243 293 349
#     4   9  19  35  56  80 110 147 186 229 280 337
#     4   9  18  34  55  82 114 145 182 230 281 333
#     4  11  23  41  62  87 119 155 196 244 295 344
#     4  11  22  37  62  92 118 152 196 243 296 347
#     4  10  23  41  60  82 116 158 197 239 290 349
#     4   9  17  31  52  78 104 136 177 221 270 323
#
# _framework density 18.804677000000002
#
# number of rings (size 3 to 8) (size 9 to 14) (size 15 to 20)
#    0.000    2.000    1.429    3.000    0.000    6.000 
#    2.571    0.000    0.000    0.000    0.000    0.000 
#    0.000    0.000    0.000    0.000    0.000    0.000 
#
# Total GULP energy -155922.675836 kJ/mol
# GULP energy per Si atom -5568.666994 kJ/mol
# Density = 1.876188 g / cm^3
# Si number density = 18.804677 Si / 1000 Ang^3
#
#
#
# Elastic Constant Matrix: (Units=GPa)
#
#
# Indices 1 2 3 4 5 6 
#
# 1 140.2938 41.8788 50.5931 0.0000 -31.2228 0.0000
# 2 41.8788 47.7000 23.7490 0.0000 -13.6575 0.0000
# 3 50.5931 23.7490 110.4371 0.0000 -31.6568 0.0000
# 4 0.0000 0.0000 0.0000 21.7839 0.0000 -5.3650
# 5 -31.2228 -13.6575 -31.6568 0.0000 25.3760 0.0000
# 6 0.0000 0.0000 0.0000 -5.3650 0.0000 28.3037
#
#
#
# Elastic Compliance Matrix: (Units=1/GPa)
#
#
# Indices 1 2 3 4 5 6 
#
# 1 0.011697 -0.007060 -0.001252 0.000000 0.009030 0.000000
# 2 -0.007060 0.029442 -0.001626 0.000000 0.005130 0.000000
# 3 -0.001252 -0.001626 0.014455 0.000000 0.015617 0.000000
# 4 0.000000 0.000000 0.000000 0.048153 0.000000 0.009128
# 5 0.009030 0.005130 0.015617 0.000000 0.072761 0.000000
# 6 0.000000 0.000000 0.000000 0.009128 0.000000 0.037061
#
#
# Mechanical properties :
#
#
# Convention : Reuss Voigt Hill
#
# Bulk Modulus (GPa) = 27.99866 58.98583 43.49225
# Shear Modulus (GPa) = 20.37900 27.24007 23.80954
#
# Velocity S-wave (km/s) = 3.29556 3.81015 3.56216
# Velocity P-wave (km/s) = 5.42241 7.12685 6.33224
#
# Compressibility (1/GPa) = 0.03571599
#
# Stress axis : x y z
#
# Youngs Moduli (GPa) = 85.49538 33.96548 69.18193
#
# Poissons Ratio (x) = 0.23981 0.08659
# Poissons Ratio (y) = 0.60364 0.11252
# Poissons Ratio (z) = 0.10700 0.05524
#
# Static dielectric constant tensor:
#      x y z
#    x 1.814080 0.000000 -0.006480 
#    y 0.000000 1.690510 0.000000 
#    z -0.006480 0.000000 1.622140 
# 
# From -- ./inp_files/275107.got.cif
#   From: 2010.05.17/outbox.cif.g08.bks.cpg/sg12_138_cif.got.tgz:275107.got - 2010.06.03 13:09:07.
