data_PCOD9216332
_publ_section_title
;
Structure prediction by ZEFSAII (Michael W. Deem and Ramdas Pophale) SiO2 
 PCOD9216332
Probable space group: C 2/M
;
_chemical_formula_sum "Si O2"
_cell_formula_units_Z 44
_cell_length_a 18.014578
_cell_length_b 13.280356
_cell_length_c 11.357385
_cell_angle_alpha 90.000000
_cell_angle_beta 123.038501
_cell_angle_gamma 90.000000
_cell_volume 2277.791158
_symmetry_space_group_name_H-M "C 2/M"
_symmetry_group_IT_number 12
_symmetry_cell_setting 'monoclinic'
loop_
_space_group_symop_operation_xyz
x,y,z
-x,y,-z
-x,-y,-z
x,-y,z
1/2+x,1/2+y,z
1/2-x,1/2+y,-z
1/2-x,1/2-y,-z
1/2+x,1/2-y,z
loop_
_atom_site_type_symbol
_atom_site_label
_atom_site_fract_x
_atom_site_fract_y
_atom_site_fract_z
Si Si1 0.105518 0.115745 0.104971
Si Si2 0.122162 0.500000 0.240254
Si Si3 0.053671 0.500000 0.760350
Si Si4 0.324667 0.330718 0.090538
Si Si5 0.512999 0.220389 0.645832
Si Si6 0.662806 0.775836 0.351088
Si Si7 0.792358 0.500000 0.927961
O O1 0.147991 0.200003 0.227587
O O2 0.116969 0.000000 0.158537
O O3 0.146427 0.123007 0.009674
O O4 0.000000 0.135238 0.000000
O O5 0.164345 0.394210 0.318193
O O6 0.136266 0.500000 0.113250
O O7 0.022403 0.500000 0.204218
O O8 0.038998 0.602261 0.675994
O O9 0.150248 0.500000 0.902849
O O10 0.409268 0.281921 0.224606
O O11 0.274184 0.407317 0.131348
O O12 0.250000 0.250000 0.000000
O O13 0.500000 0.250081 0.500000
O O14 0.423294 0.236377 0.640963
O O15 0.750000 0.750000 0.500000
#
# Coordination Sequence:
#
# PCOD9216332 Si02
#       7
#     8   4   4   8   8   8   4
#     4  11  24  46  71  95 134 181 231 277 330 407
#     4  10  25  43  66 101 135 178 232 277 344 397
#     4  10  22  44  68  98 133 175 221 282 333 404
#     4  12  24  42  67 101 134 173 220 275 336 396
#     4  11  25  44  66 100 138 174 220 277 342 397
#     4  11  26  44  70  98 136 184 227 278 337 408
#     4  12  23  39  68 104 132 169 224 276 336 391
#
# _framework density 19.316960000000002
#
# number of rings (size 3 to 8) (size 9 to 14) (size 15 to 20)
#    0.000    0.909    4.545    1.636    6.364    0.000 
#    0.000    0.455    0.000    0.000    0.000    0.000 
#    0.000    0.000    0.000    0.000    0.000    0.000 
#
# Total GULP energy -122892.442751 kJ/mol
# GULP energy per Si atom -5586.020125 kJ/mol
# Density = 1.927299 g / cm^3
# Si number density = 19.316960 Si / 1000 Ang^3
#
#
#
# Elastic Constant Matrix: (Units=GPa)
#
#
# Indices 1 2 3 4 5 6 
#
# 1 43.4086 20.0747 37.6904 0.0000 8.0551 0.0000
# 2 20.0747 134.6048 64.1095 0.0000 14.7979 0.0000
# 3 37.6904 64.1095 131.5648 0.0000 14.9362 0.0000
# 4 0.0000 0.0000 0.0000 6.0390 0.0000 -14.4385
# 5 8.0551 14.7979 14.9362 0.0000 42.6004 0.0000
# 6 0.0000 0.0000 0.0000 -14.4385 0.0000 23.2748
#
#
#
# Elastic Compliance Matrix: (Units=1/GPa)
#
#
# Indices 1 2 3 4 5 6 
#
# 1 0.031005 -0.000308 -0.008414 0.000000 -0.002806 0.000000
# 2 -0.000308 0.009809 -0.004490 0.000000 -0.001775 0.000000
# 3 -0.008414 -0.004490 0.012332 0.000000 -0.001173 0.000000
# 4 0.000000 0.000000 0.000000 -0.342717 0.000000 -0.212603
# 5 -0.002806 -0.001775 -0.001173 0.000000 0.025032 0.000000
# 6 0.000000 0.000000 0.000000 -0.212603 0.000000 -0.088923
#
#
# Mechanical properties :
#
#
# Convention : Reuss Voigt Hill
#
# Bulk Modulus (GPa) = 37.42145 61.48082 49.45114
# Shear Modulus (GPa) = -15.71684 26.89642 5.58979
#
# Velocity S-wave (km/s) = -2.85551 3.73550 1.70294
# Velocity P-wave (km/s) = 2.92275 7.10646 5.43342
#
# Compressibility (1/GPa) = 0.02672264
#
# Stress axis : x y z
#
# Youngs Moduli (GPa) = 32.25244 101.95096 81.08911
#
# Poissons Ratio (x) = 0.03145 0.68225
# Poissons Ratio (y) = 0.00995 0.36407
# Poissons Ratio (z) = 0.27136 0.45774
#
# Static dielectric constant tensor:
#      x y z
#    x 1.666560 0.000000 -0.036920 
#    y 0.000000 1.866070 0.000000 
#    z -0.036920 0.000000 1.645630 
# 
# From -- ./inp_files/154438.got.cif
#   From: 2010.05.17/outbox.cif.g08.bks.cpg/sg12_78_cif.got.tgz:154438.got - 2010.06.03 13:09:07.
