data_PCOD9216299
_publ_section_title
;
Structure prediction by ZEFSAII (Michael W. Deem and Ramdas Pophale) SiO2 
 PCOD9216299
Probable space group: C 2/M
;
_chemical_formula_sum "Si O2"
_cell_formula_units_Z 34
_cell_length_a 12.890408
_cell_length_b 20.143664
_cell_length_c 11.680922
_cell_angle_alpha 90.000000
_cell_angle_beta 148.537434
_cell_angle_gamma 90.000000
_cell_volume 1583.084107
_symmetry_space_group_name_H-M "C 2/M"
_symmetry_group_IT_number 12
_symmetry_cell_setting 'monoclinic'
loop_
_space_group_symop_operation_xyz
x,y,z
-x,y,-z
-x,-y,-z
x,-y,z
1/2+x,1/2+y,z
1/2-x,1/2+y,-z
1/2-x,1/2-y,-z
1/2+x,1/2-y,z
loop_
_atom_site_type_symbol
_atom_site_label
_atom_site_fract_x
_atom_site_fract_y
_atom_site_fract_z
Si Si1 0.481788 0.421469 0.613887
Si Si2 0.226879 0.891889 0.054407
Si Si3 0.858426 0.654459 0.564541
Si Si4 0.465973 0.264982 0.845770
Si Si5 0.000000 0.000000 0.000000
O O1 0.500000 0.398008 0.500000
O O2 0.440331 0.500000 0.572934
O O3 0.677019 0.409565 0.875215
O O4 0.305689 0.384543 0.515739
O O5 0.138752 0.818386 0.989668
O O6 0.460357 0.891888 0.300606
O O7 0.106074 0.942282 0.019887
O O8 0.737273 0.691659 0.351023
O O9 0.949068 0.711618 0.730402
O O10 0.500000 0.232263 0.000000
#
# Coordination Sequence:
#
# PCOD9216299 Si02
#       5
#     8   8   8   8   2
#     4  10  23  42  63  97 137 166 220 283 323 397
#     4  11  23  44  65  96 136 177 222 276 334 399
#     4  10  24  42  69  99 126 184 225 264 348 402
#     4  10  22  44  64  99 138 166 227 285 325 397
#     4  12  24  44  68 102 140 174 226 288 322 404
#
# _framework density 21.477066000000001
#
# number of rings (size 3 to 8) (size 9 to 14) (size 15 to 20)
#    0.000    1.647    2.353    0.706    4.941    0.941 
#    0.000    7.059    0.000    0.000    0.000    0.000 
#    0.000    0.000    0.000    0.000    0.000    0.000 
#
# Total GULP energy -94759.871323 kJ/mol
# GULP energy per Si atom -5574.110078 kJ/mol
# Density = 2.142818 g / cm^3
# Si number density = 21.477066 Si / 1000 Ang^3
#
#
#
# Elastic Constant Matrix: (Units=GPa)
#
#
# Indices 1 2 3 4 5 6 
#
# 1 67.4628 0.9067 51.2156 0.0000 -17.5534 0.0000
# 2 0.9067 52.4609 -2.1152 0.0000 2.6801 0.0000
# 3 51.2156 -2.1152 96.2408 0.0000 -0.3170 0.0000
# 4 0.0000 0.0000 0.0000 28.4617 0.0000 -12.9958
# 5 -17.5534 2.6801 -0.3170 0.0000 27.1858 0.0000
# 6 0.0000 0.0000 0.0000 -12.9958 0.0000 24.1906
#
#
#
# Elastic Compliance Matrix: (Units=1/GPa)
#
#
# Indices 1 2 3 4 5 6 
#
# 1 0.034696 -0.002489 -0.018445 0.000000 0.022433 0.000000
# 2 -0.002489 0.019353 0.001739 0.000000 -0.003495 0.000000
# 3 -0.018445 0.001739 0.020205 0.000000 -0.011845 0.000000
# 4 0.000000 0.000000 0.000000 0.046555 0.000000 0.025010
# 5 0.022433 -0.003495 -0.011845 0.000000 0.051475 0.000000
# 6 0.000000 0.000000 0.000000 0.025010 0.000000 0.054774
#
#
# Mechanical properties :
#
#
# Convention : Reuss Voigt Hill
#
# Bulk Modulus (GPa) = 27.88319 35.13096 31.50707
# Shear Modulus (GPa) = 18.02422 27.04480 22.53451
#
# Velocity S-wave (km/s) = 2.90009 3.55243 3.24271
# Velocity P-wave (km/s) = 4.92189 5.76362 5.35930
#
# Compressibility (1/GPa) = 0.03586391
#
# Stress axis : x y z
#
# Youngs Moduli (GPa) = 28.82173 51.67025 49.49177
#
# Poissons Ratio (x) = 0.12863 0.91286
# Poissons Ratio (y) = 0.07175 -0.08605
# Poissons Ratio (z) = 0.53161 -0.08983
#
# Static dielectric constant tensor:
#      x y z
#    x 1.782140 0.000000 -0.004670 
#    y 0.000000 1.751260 0.000000 
#    z -0.004670 0.000000 1.805670 
# 
# From -- ./inp_files/6940.got.cif
#   From: 2010.05.17/outbox.cif.g08.bks.cpg/sg12_4_cif.got.tgz:6940.got - 2010.06.03 13:09:07.
