data_PCOD9216414
_publ_section_title
;
Structure prediction by ZEFSAII (Michael W. Deem and Ramdas Pophale) SiO2 
 PCOD9216414
Probable space group: C 2/M
;
_chemical_formula_sum "Si O2"
_cell_formula_units_Z 44
_cell_length_a 12.317815
_cell_length_b 17.223181
_cell_length_c 9.317598
_cell_angle_alpha 90.000000
_cell_angle_beta 89.195167
_cell_angle_gamma 90.000000
_cell_volume 1976.551632
_symmetry_space_group_name_H-M "C 2/M"
_symmetry_group_IT_number 12
_symmetry_cell_setting 'monoclinic'
loop_
_space_group_symop_operation_xyz
x,y,z
-x,y,-z
-x,-y,-z
x,-y,z
1/2+x,1/2+y,z
1/2-x,1/2+y,-z
1/2-x,1/2-y,-z
1/2+x,1/2-y,z
loop_
_atom_site_type_symbol
_atom_site_label
_atom_site_fract_x
_atom_site_fract_y
_atom_site_fract_z
Si Si1 0.627191 0.748256 0.188226
Si Si2 0.500000 0.862640 0.000000
Si Si3 0.877395 0.153603 0.524851
Si Si4 0.409678 0.000000 0.148120
Si Si5 0.147786 0.500000 0.286924
Si Si6 0.759377 0.500000 0.413346
Si Si7 0.192016 0.860003 0.791030
Si Si8 0.500000 0.630034 0.000000
O O1 0.627059 0.721299 0.354726
O O2 0.742141 0.786882 0.145839
O O3 0.585915 0.674976 0.099405
O O4 0.537941 0.810884 0.133368
O O5 0.592151 0.922123 0.945597
O O6 0.808988 0.078655 0.571840
O O7 0.842214 0.173359 0.363893
O O8 0.000000 0.127792 0.500000
O O9 0.526735 0.000000 0.226832
O O10 0.315391 0.000000 0.260895
O O11 0.152870 0.500000 0.459562
O O12 0.218143 0.425897 0.237467
O O13 0.089283 0.896771 0.878225
#
# Coordination Sequence:
#
# PCOD9216414 Si02
#       8
#     8   4   8   4   4   4   8   4
#     4  11  23  44  67  98 138 177 225 284 339 406
#     4  10  24  43  72 100 142 181 222 288 334 423
#     4  11  23  47  68 100 136 179 234 286 338 402
#     4  11  21  47  68 104 136 186 224 278 354 397
#     4  10  22  45  69  97 139 174 232 289 326 414
#     4  10  25  41  75  98 131 185 231 287 340 406
#     4  11  23  44  66  99 135 181 228 279 345 399
#     4  11  24  40  64  96 138 179 224 281 336 412
#
# _framework density 22.260992000000002
#
# number of rings (size 3 to 8) (size 9 to 14) (size 15 to 20)
#    0.000    1.273    3.636    1.636    0.000    4.727 
#    6.545    0.000    0.000    1.636    0.000    0.000 
#    0.000    0.000    0.000    0.000    0.000    0.000 
#
# Total GULP energy -122624.657739 kJ/mol
# GULP energy per Si atom -5573.848079 kJ/mol
# Density = 2.221033 g / cm^3
# Si number density = 22.260992 Si / 1000 Ang^3
#
#
#
# Elastic Constant Matrix: (Units=GPa)
#
#
# Indices 1 2 3 4 5 6 
#
# 1 57.5778 -3.5311 10.3484 0.0000 7.0537 0.0000
# 2 -3.5311 49.3966 33.9354 0.0000 12.3178 0.0000
# 3 10.3484 33.9354 107.4132 0.0000 3.8402 0.0000
# 4 0.0000 0.0000 0.0000 863.9635 0.0000 -337.0539
# 5 7.0537 12.3178 3.8402 0.0000 49.2502 0.0000
# 6 0.0000 0.0000 0.0000 -337.0539 0.0000 151.4535
#
#
#
# Elastic Compliance Matrix: (Units=1/GPa)
#
#
# Indices 1 2 3 4 5 6 
#
# 1 0.018601 0.004275 -0.003018 0.000000 -0.003498 0.000000
# 2 0.004275 0.028634 -0.009206 0.000000 -0.007056 0.000000
# 3 -0.003018 -0.009206 0.012446 0.000000 0.001764 0.000000
# 4 0.000000 0.000000 0.000000 0.008782 0.000000 0.019545
# 5 -0.003498 -0.007056 0.001764 0.000000 0.022433 0.000000
# 6 0.000000 0.000000 0.000000 0.019545 0.000000 0.050100
#
#
# Mechanical properties :
#
#
# Convention : Reuss Voigt Hill
#
# Bulk Modulus (GPa) = 22.83960 32.87700 27.85830
# Shear Modulus (GPa) = 29.15670 224.50910 126.83290
#
# Velocity S-wave (km/s) = 3.62300 10.05346 7.55639
# Velocity P-wave (km/s) = 5.27102 12.22962 9.41667
#
# Compressibility (1/GPa) = 0.04378359
#
# Stress axis : x y z
#
# Youngs Moduli (GPa) = 53.76098 34.92360 80.34724
#
# Poissons Ratio (x) = -0.14930 0.24246
# Poissons Ratio (y) = -0.22983 0.73968
# Poissons Ratio (z) = 0.16223 0.32151
#
# Static dielectric constant tensor:
#      x y z
#    x 1.825460 0.000000 0.043170 
#    y 0.000000 1.855130 0.000000 
#    z 0.043170 0.000000 1.878780 
# 
# From -- ./inp_files/49355.got.cif
#   From: 2010.05.17/outbox.cif.g08.bks.cpg/sg12_25_cif.got.tgz:49355.got - 2010.06.03 13:09:07.
