data_PCOD9216908
_publ_section_title
;
Structure prediction by ZEFSAII (Michael W. Deem and Ramdas Pophale) SiO2 
 PCOD9216908
Probable space group: C 2/M
;
_chemical_formula_sum "Si O2"
_cell_formula_units_Z 48
_cell_length_a 11.338821
_cell_length_b 26.497421
_cell_length_c 14.088149
_cell_angle_alpha 90.000000
_cell_angle_beta 149.075443
_cell_angle_gamma 90.000000
_cell_volume 2175.262342
_symmetry_space_group_name_H-M "C 2/M"
_symmetry_group_IT_number 12
_symmetry_cell_setting 'monoclinic'
loop_
_space_group_symop_operation_xyz
x,y,z
-x,y,-z
-x,-y,-z
x,-y,z
1/2+x,1/2+y,z
1/2-x,1/2+y,-z
1/2-x,1/2-y,-z
1/2+x,1/2-y,z
loop_
_atom_site_type_symbol
_atom_site_label
_atom_site_fract_x
_atom_site_fract_y
_atom_site_fract_z
Si Si1 0.957466 0.130774 0.873073
Si Si2 0.186771 0.829660 0.712556
Si Si3 0.125138 0.500000 0.983767
Si Si4 0.115268 0.696672 0.886030
Si Si5 0.097248 0.283054 0.673407
Si Si6 0.806985 0.000000 0.449216
Si Si7 0.994565 0.083065 0.277862
O O1 0.863647 0.103201 0.715008
O O2 0.801463 0.177386 0.799189
O O3 0.191125 0.155257 0.996801
O O4 0.000000 0.100206 0.000000
O O5 0.438122 0.824599 0.840150
O O6 0.159892 0.774398 0.738412
O O7 0.125638 0.873245 0.743725
O O8 0.000000 0.835273 0.500000
O O9 0.935463 0.500000 0.771080
O O10 0.292465 0.547905 0.097242
O O11 0.000000 0.500000 0.000000
O O12 0.977671 0.701166 0.689747
O O13 0.250000 0.750000 0.000000
O O14 0.000000 0.281581 0.500000
O O15 0.000000 0.000000 0.500000
O O16 0.853662 0.048739 0.546998
#
# Coordination Sequence:
#
# PCOD9216908 Si02
#       7
#     8   8   4   8   8   4   8
#     4  10  23  42  65  96 134 184 232 276 336 409
#     4  11  25  36  66 102 134 180 237 279 339 412
#     4  11  25  46  69  98 138 171 221 295 376 413
#     4  11  22  39  62  87 134 184 237 281 328 394
#     4  10  23  41  58  91 142 188 224 277 323 398
#     4  11  23  46  69 100 141 164 222 297 366 415
#     4  11  25  43  73 101 136 179 229 295 353 425
#
# _framework density 22.066303000000001
#
# number of rings (size 3 to 8) (size 9 to 14) (size 15 to 20)
#    0.000    1.333    3.333    1.500    4.667    2.667 
#    3.000    1.667    0.000    1.000    0.000    0.000 
#    0.000    0.000    0.000    0.000    0.000    0.000 
#
# Total GULP energy -133991.102252 kJ/mol
# GULP energy per Si atom -5582.962594 kJ/mol
# Density = 2.201608 g / cm^3
# Si number density = 22.066303 Si / 1000 Ang^3
#
#
#
# Elastic Constant Matrix: (Units=GPa)
#
#
# Indices 1 2 3 4 5 6 
#
# 1 118.2775 57.1050 43.0821 0.0000 -38.3076 -0.0001
# 2 57.1050 103.5049 36.0130 0.0000 -21.2904 0.0000
# 3 43.0821 36.0130 115.9934 0.0000 -32.7643 -0.0005
# 4 0.0000 0.0000 0.0000 18.2533 0.0000 -21.9422
# 5 -38.3076 -21.2904 -32.7643 0.0000 41.4306 -0.0002
# 6 -0.0001 0.0000 -0.0005 -21.9422 -0.0002 116.3021
#
#
#
# Elastic Compliance Matrix: (Units=1/GPa)
#
#
# Indices 1 2 3 4 5 6 
#
# 1 0.014829 -0.005815 -0.000867 0.000000 0.010037 0.000000
# 2 -0.005815 0.013582 -0.002066 0.000000 -0.000031 0.000000
# 3 -0.000867 -0.002066 0.011664 0.000000 0.007361 0.000000
# 4 0.000000 0.000000 0.000000 0.070854 0.000000 0.013368
# 5 0.010037 -0.000031 0.007361 0.000000 0.039222 0.000000
# 6 0.000000 0.000000 0.000000 0.013368 0.000000 0.011120
#
#
# Mechanical properties :
#
#
# Convention : Reuss Voigt Hill
#
# Bulk Modulus (GPa) = 44.28931 67.79735 56.04333
# Shear Modulus (GPa) = 26.83937 48.63556 37.73746
#
# Velocity S-wave (km/s) = 3.49134 4.69984 4.13992
# Velocity P-wave (km/s) = 6.03052 7.76160 6.95017
#
# Compressibility (1/GPa) = 0.02257881
#
# Stress axis : x y z
#
# Youngs Moduli (GPa) = 67.43603 73.62678 85.73557
#
# Poissons Ratio (x) = 0.42814 0.07435
# Poissons Ratio (y) = 0.39214 0.17711
# Poissons Ratio (z) = 0.05848 0.15210
#
# Static dielectric constant tensor:
#      x y z
#    x 1.800900 0.000000 -0.114180 
#    y 0.000000 1.829890 0.000000 
#    z -0.114180 0.000000 1.911630 
# 
# From -- ./inp_files/209936.got.cif
#   From: 2010.05.17/outbox.cif.g08.bks.cpg/sg12_105_cif.got.tgz:209936.got - 2010.06.03 13:09:07.
