data_PCOD9216097
_publ_section_title
;
Structure prediction by ZEFSAII (Michael W. Deem and Ramdas Pophale) SiO2 
 PCOD9216097
Probable space group: C 2/M
;
_chemical_formula_sum "Si O2"
_cell_formula_units_Z 44
_cell_length_a 29.822918
_cell_length_b 14.231053
_cell_length_c 19.117812
_cell_angle_alpha 90.000000
_cell_angle_beta 162.658795
_cell_angle_gamma 90.000000
_cell_volume 2418.416691
_symmetry_space_group_name_H-M "C 2/M"
_symmetry_group_IT_number 12
_symmetry_cell_setting 'monoclinic'
loop_
_space_group_symop_operation_xyz
x,y,z
-x,y,-z
-x,-y,-z
x,-y,z
1/2+x,1/2+y,z
1/2-x,1/2+y,-z
1/2-x,1/2-y,-z
1/2+x,1/2-y,z
loop_
_atom_site_type_symbol
_atom_site_label
_atom_site_fract_x
_atom_site_fract_y
_atom_site_fract_z
Si Si1 0.411690 0.610232 0.436854
Si Si2 0.427500 0.314046 0.613162
Si Si3 0.914842 0.000000 0.687720
Si Si4 0.864738 0.795990 0.851486
Si Si5 0.930377 0.669470 0.080886
Si Si6 0.827740 0.000000 0.811980
Si Si7 0.834864 0.500000 0.576364
O O1 0.500000 0.644498 0.500000
O O2 0.445802 0.500000 0.496807
O O3 0.451468 0.662670 0.567703
O O4 0.233347 0.622936 0.160765
O O5 0.436818 0.408162 0.673027
O O6 0.260935 0.268560 0.371991
O O7 0.542267 0.237797 0.813404
O O8 0.750331 0.000000 0.476995
O O9 0.025844 0.000000 0.919692
O O10 0.782551 0.890284 0.757973
O O11 0.934276 0.735251 0.017891
O O12 0.000000 0.823149 0.000000
O O13 0.059152 0.590951 0.271277
O O14 0.787267 0.000000 0.668474
#
# Coordination Sequence:
#
# PCOD9216097 Si02
#       7
#     8   8   4   8   8   4   4
#     4  10  22  43  65  85 109 142 193 249 299 349
#     4  11  23  38  59  87 115 154 194 237 289 340
#     4  12  23  37  56  85 124 161 195 230 274 332
#     4  11  22  35  53  84 121 157 197 234 272 333
#     4  11  23  38  59  87 115 154 194 237 289 340
#     4  12  23  34  54  84 121 164 197 226 272 334
#     4  12  23  37  56  85 124 161 195 230 274 332
#
# _framework density 18.193722000000001
#
# number of rings (size 3 to 8) (size 9 to 14) (size 15 to 20)
#    0.000    0.909    5.455    2.727    0.000    2.182 
#    0.000    2.727    0.000    0.000    0.000    5.091 
#    0.000    0.000    0.000    0.000    0.000    0.000 
#
# Total GULP energy -122587.340296 kJ/mol
# GULP energy per Si atom -5572.151832 kJ/mol
# Density = 1.815231 g / cm^3
# Si number density = 18.193722 Si / 1000 Ang^3
#
#
#
# Elastic Constant Matrix: (Units=GPa)
#
#
# Indices 1 2 3 4 5 6 
#
# 1 77.8963 13.9608 22.2915 0.0000 -3.8238 0.0000
# 2 13.9608 101.6760 12.3505 0.0000 -14.8349 0.0000
# 3 22.2915 12.3505 51.2098 0.0000 -27.1065 0.0000
# 4 0.0000 0.0000 0.0000 -10.0465 0.0000 10.7230
# 5 -3.8238 -14.8349 -27.1065 0.0000 21.9456 0.0000
# 6 0.0000 0.0000 0.0000 10.7230 0.0000 11.1385
#
#
#
# Elastic Compliance Matrix: (Units=1/GPa)
#
#
# Indices 1 2 3 4 5 6 
#
# 1 0.017704 -0.003416 -0.018695 0.000000 -0.022316 0.000000
# 2 -0.003416 0.011815 0.007366 0.000000 0.016490 0.000000
# 3 -0.018695 0.007366 0.077414 0.000000 0.097341 0.000000
# 4 0.000000 0.000000 0.000000 -0.049093 0.000000 0.047262
# 5 -0.022316 0.016490 0.097341 0.000000 0.173059 0.000000
# 6 0.000000 0.000000 0.000000 0.047262 0.000000 0.044280
#
#
# Mechanical properties :
#
#
# Convention : Reuss Voigt Hill
#
# Bulk Modulus (GPa) = 12.91269 36.44309 24.67789
# Shear Modulus (GPa) = 15.12926 16.75280 15.94103
#
# Velocity S-wave (km/s) = 2.88682 3.03776 2.96325
# Velocity P-wave (km/s) = 4.26900 5.69017 5.03003
#
# Compressibility (1/GPa) = 0.07744320
#
# Stress axis : x y z
#
# Youngs Moduli (GPa) = 56.48319 84.63497 12.91754
#
# Poissons Ratio (x) = 0.28912 0.24150
# Poissons Ratio (y) = 0.19295 -0.09515
# Poissons Ratio (z) = 1.05597 -0.62343
#
# Static dielectric constant tensor:
#      x y z
#    x 1.591650 0.000000 -0.012440 
#    y 0.000000 1.628330 0.000000 
#    z -0.012440 0.000000 1.613800 
# 
# From -- ./inp_files/183627.got.cif
#   From: 2010.05.17/outbox.cif.g08.bks.cpg/sg12_92_cif.got.tgz:183627.got - 2010.06.03 13:09:07.
