data_PCOD9216513
_publ_section_title
;
Structure prediction by ZEFSAII (Michael W. Deem and Ramdas Pophale) SiO2 
 PCOD9216513
Probable space group: C 2/M
;
_chemical_formula_sum "Si O2"
_cell_formula_units_Z 40
_cell_length_a 11.951461
_cell_length_b 21.698391
_cell_length_c 8.707671
_cell_angle_alpha 90.000000
_cell_angle_beta 98.503125
_cell_angle_gamma 90.000000
_cell_volume 2233.316415
_symmetry_space_group_name_H-M "C 2/M"
_symmetry_group_IT_number 12
_symmetry_cell_setting 'monoclinic'
loop_
_space_group_symop_operation_xyz
x,y,z
-x,y,-z
-x,-y,-z
x,-y,z
1/2+x,1/2+y,z
1/2-x,1/2+y,-z
1/2-x,1/2-y,-z
1/2+x,1/2-y,z
loop_
_atom_site_type_symbol
_atom_site_label
_atom_site_fract_x
_atom_site_fract_y
_atom_site_fract_z
Si Si1 0.627582 0.675508 0.978934
Si Si2 0.044897 0.571824 0.260545
Si Si3 0.120962 0.679355 0.485127
Si Si4 0.680836 0.072716 0.968951
Si Si5 0.242798 0.750800 0.750480
O O1 0.712269 0.617709 0.014782
O O2 0.669766 0.728096 0.104464
O O3 0.500000 0.659839 0.000000
O O4 0.649598 0.706568 0.816488
O O5 0.045956 0.500000 0.301348
O O6 0.090769 0.613002 0.408359
O O7 0.918472 0.587600 0.174350
O O8 0.123181 0.580175 0.125309
O O9 0.191772 0.691562 0.652987
O O10 0.189526 0.711709 0.363351
O O11 0.000000 0.709433 0.500000
O O12 0.708797 0.000000 0.956662
#
# Coordination Sequence:
#
# PCOD9216513 Si02
#       5
#     8   8   8   8   8
#     4  11  21  37  57  80 109 151 189 227 269 330
#     4   9  18  34  58  84 112 142 179 234 287 326
#     4  11  20  35  55  80 112 145 177 230 283 328
#     4   9  18  34  57  85 110 141 187 232 276 328
#     4  10  23  36  51  81 114 146 186 227 273 330
#
# _framework density 17.910582999999999
#
# number of rings (size 3 to 8) (size 9 to 14) (size 15 to 20)
#    0.000    2.000    2.000    3.600    0.000    2.400 
#    0.000    1.000    0.000    0.000    0.000    2.800 
#    0.000    0.000    0.000    0.000    0.000    0.000 
#
# Total GULP energy -111474.594130 kJ/mol
# GULP energy per Si atom -5573.729706 kJ/mol
# Density = 1.786982 g / cm^3
# Si number density = 17.910583 Si / 1000 Ang^3
#
#
#
# Elastic Constant Matrix: (Units=GPa)
#
#
# Indices 1 2 3 4 5 6 
#
# 1 134.6425 60.5862 39.9897 0.0000 -15.4736 0.0000
# 2 60.5862 94.5043 40.2714 0.0000 -5.0153 0.0000
# 3 39.9897 40.2714 69.7252 0.0000 -9.2277 0.0000
# 4 0.0000 0.0000 0.0000 637.9622 0.0000 -490.3743
# 5 -15.4736 -5.0153 -9.2277 0.0000 26.3178 0.0000
# 6 0.0000 0.0000 0.0000 -490.3743 0.0000 426.5008
#
#
#
# Elastic Compliance Matrix: (Units=1/GPa)
#
#
# Indices 1 2 3 4 5 6 
#
# 1 0.011401 -0.006020 -0.002440 0.000000 0.004700 0.000000
# 2 -0.006020 0.017216 -0.006842 0.000000 -0.002658 0.000000
# 3 -0.002440 -0.006842 0.020271 0.000000 0.004369 0.000000
# 4 0.000000 0.000000 0.000000 0.013486 0.000000 0.015506
# 5 0.004700 -0.002658 0.004369 0.000000 0.041786 0.000000
# 6 0.000000 0.000000 0.000000 0.015506 0.000000 0.020173
#
#
# Mechanical properties :
#
#
# Convention : Reuss Voigt Hill
#
# Bulk Modulus (GPa) = 54.69303 64.50742 59.60023
# Shear Modulus (GPa) = 31.04974 228.69113 129.87044
#
# Velocity S-wave (km/s) = 4.16817 11.31203 8.52454
# Velocity P-wave (km/s) = 7.33265 14.37744 11.41224
#
# Compressibility (1/GPa) = 0.01828386
#
# Stress axis : x y z
#
# Youngs Moduli (GPa) = 87.71416 58.08711 49.33034
#
# Poissons Ratio (x) = 0.34967 0.12035
# Poissons Ratio (y) = 0.52802 0.33754
# Poissons Ratio (z) = 0.21400 0.39745
#
# Static dielectric constant tensor:
#      x y z
#    x 1.616130 0.000000 -0.005930 
#    y 0.000000 1.619560 0.000000 
#    z -0.005930 0.000000 1.635980 
# 
# From -- ./inp_files/48505.got.cif
#   From: 2010.05.17/outbox.cif.g08.bks.cpg/sg12_25_cif.got.tgz:48505.got - 2010.06.03 13:09:07.
