data_PCOD9216454
_publ_section_title
;
Structure prediction by ZEFSAII (Michael W. Deem and Ramdas Pophale) SiO2 
 PCOD9216454
Probable space group: C 2/M
;
_chemical_formula_sum "Si O2"
_cell_formula_units_Z 52
_cell_length_a 9.699062
_cell_length_b 28.041031
_cell_length_c 16.193314
_cell_angle_alpha 90.000000
_cell_angle_beta 32.481477
_cell_angle_gamma 90.000000
_cell_volume 2365.132679
_symmetry_space_group_name_H-M "C 2/M"
_symmetry_group_IT_number 12
_symmetry_cell_setting 'monoclinic'
loop_
_space_group_symop_operation_xyz
x,y,z
-x,y,-z
-x,-y,-z
x,-y,z
1/2+x,1/2+y,z
1/2-x,1/2+y,-z
1/2-x,1/2-y,-z
1/2+x,1/2-y,z
loop_
_atom_site_type_symbol
_atom_site_label
_atom_site_fract_x
_atom_site_fract_y
_atom_site_fract_z
Si Si1 0.467222 0.105440 0.386636
Si Si2 0.654439 0.195488 0.846910
Si Si3 0.375230 0.894149 0.241891
Si Si4 0.488035 0.276664 0.821461
Si Si5 0.507946 0.554394 0.309043
Si Si6 0.500000 0.188557 0.500000
Si Si7 0.062866 0.112385 0.115455
O O1 0.371835 0.110220 0.341509
O O2 0.415718 0.152140 0.469532
O O3 0.776242 0.097245 0.230036
O O4 0.287373 0.065115 0.517767
O O5 0.728803 0.155010 0.746115
O O6 0.473271 0.232813 0.891830
O O7 0.854068 0.225622 0.799555
O O8 0.500000 0.170460 0.000000
O O9 0.194898 0.933854 0.291558
O O10 0.675809 0.900812 0.064326
O O11 0.446981 0.329912 0.878420
O O12 0.785974 0.278426 0.646302
O O13 0.540445 0.500000 0.266391
O O14 0.579223 0.589980 0.198481
#
# Coordination Sequence:
#
# PCOD9216454 Si02
#       7
#     8   8   8   8   8   4   8
#     4  11  23  44  72 100 134 183 228 286 349 416
#     4  12  24  42  64 100 142 185 230 278 343 411
#     4  12  25  43  71 105 144 181 232 296 343 403
#     4  11  24  40  66  96 138 184 234 279 331 411
#     4  12  25  48  76 100 138 189 229 283 361 428
#     4  10  22  46  65  92 140 180 235 276 346 420
#     4  11  23  46  69 103 142 182 234 285 345 417
#
# _framework density 21.986082
#
# number of rings (size 3 to 8) (size 9 to 14) (size 15 to 20)
#    0.000    0.615    6.154    1.846    4.308    4.308 
#    2.769    0.000    0.000    2.769    0.000    0.000 
#    0.000    0.000    0.000    0.000    0.000    0.000 
#
# Total GULP energy -145167.857403 kJ/mol
# GULP energy per Si atom -5583.379131 kJ/mol
# Density = 2.193604 g / cm^3
# Si number density = 21.986082 Si / 1000 Ang^3
#
#
#
# Elastic Constant Matrix: (Units=GPa)
#
#
# Indices 1 2 3 4 5 6 
#
# 1 93.2646 30.7016 9.4478 0.0000 18.8158 0.0000
# 2 30.7016 82.3080 15.5612 0.0000 0.4399 0.0000
# 3 9.4478 15.5612 54.6833 0.0000 5.4288 0.0000
# 4 0.0000 0.0000 0.0000 22.2919 0.0000 -1.6990
# 5 18.8158 0.4399 5.4288 0.0000 45.2087 0.0000
# 6 0.0000 0.0000 0.0000 -1.6990 0.0000 26.1897
#
#
#
# Elastic Compliance Matrix: (Units=1/GPa)
#
#
# Indices 1 2 3 4 5 6 
#
# 1 0.013500 -0.004934 -0.000380 0.000000 -0.005525 0.000000
# 2 -0.004934 0.014648 -0.003548 0.000000 0.002337 0.000000
# 3 -0.000380 -0.003548 0.019577 0.000000 -0.002158 0.000000
# 4 0.000000 0.000000 0.000000 0.045082 0.000000 0.002925
# 5 -0.005525 0.002337 -0.002158 0.000000 0.024656 0.000000
# 6 0.000000 0.000000 0.000000 0.002925 0.000000 0.038373
#
#
# Mechanical properties :
#
#
# Convention : Reuss Voigt Hill
#
# Bulk Modulus (GPa) = 33.33254 37.96411 35.64832
# Shear Modulus (GPa) = 27.23924 30.37443 28.80683
#
# Velocity S-wave (km/s) = 3.52366 3.72093 3.62364
# Velocity P-wave (km/s) = 5.63459 5.98040 5.81007
#
# Compressibility (1/GPa) = 0.03000072
#
# Stress axis : x y z
#
# Youngs Moduli (GPa) = 74.07660 68.26755 51.08127
#
# Poissons Ratio (x) = 0.33684 0.01940
# Poissons Ratio (y) = 0.36550 0.18124
# Poissons Ratio (z) = 0.02813 0.24221
#
# Static dielectric constant tensor:
#      x y z
#    x 1.847750 0.000000 -0.075300 
#    y 0.000000 1.744870 0.000000 
#    z -0.075300 0.000000 1.869420 
# 
# From -- ./inp_files/201184.got.cif
#   From: 2010.05.17/outbox.cif.g08.bks.cpg/sg12_101_cif.got.tgz:201184.got - 2010.06.03 13:09:07.
