data_PCOD9216307
_publ_section_title
;
Structure prediction by ZEFSAII (Michael W. Deem and Ramdas Pophale) SiO2 
 PCOD9216307
Probable space group: C 2/M
;
_chemical_formula_sum "Si O2"
_cell_formula_units_Z 38
_cell_length_a 17.829788
_cell_length_b 18.285751
_cell_length_c 5.178142
_cell_angle_alpha 90.000000
_cell_angle_beta 66.773633
_cell_angle_gamma 90.000000
_cell_volume 1551.410360
_symmetry_space_group_name_H-M "C 2/M"
_symmetry_group_IT_number 12
_symmetry_cell_setting 'monoclinic'
loop_
_space_group_symop_operation_xyz
x,y,z
-x,y,-z
-x,-y,-z
x,-y,z
1/2+x,1/2+y,z
1/2-x,1/2+y,-z
1/2-x,1/2-y,-z
1/2+x,1/2-y,z
loop_
_atom_site_type_symbol
_atom_site_label
_atom_site_fract_x
_atom_site_fract_y
_atom_site_fract_z
Si Si1 0.705334 0.419964 0.906131
Si Si2 0.912065 0.715232 0.256099
Si Si3 0.136656 0.421091 0.977596
Si Si4 0.874595 0.876734 0.490551
Si Si5 0.000000 0.378713 0.500000
Si Si6 0.000000 0.000000 0.500000
O O1 0.667529 0.500000 0.020455
O O2 0.657887 0.368293 0.172021
O O3 0.797280 0.420824 0.881845
O O4 0.691339 0.408548 0.623577
O O5 0.888883 0.797413 0.349284
O O6 0.929443 0.674278 0.498149
O O7 0.856997 0.656349 0.178890
O O8 0.000000 0.718371 0.000000
O O9 0.149003 0.500000 0.820951
O O10 0.044863 0.422227 0.216213
O O11 0.949254 0.934081 0.407921
#
# Coordination Sequence:
#
# PCOD9216307 Si02
#       6
#     8   8   8   8   4   2
#     4  11  25  47  68 109 145 190 241 302 358 436
#     4  10  25  43  67 103 143 185 246 305 355 431
#     4  10  24  44  73  98 145 188 243 301 366 428
#     4  12  27  44  74 104 148 191 244 294 367 427
#     4  10  22  44  66 106 130 188 244 294 360 432
#     4  12  26  46  80 108 146 200 238 296 360 434
#
# _framework density 24.493842000000001
#
# number of rings (size 3 to 8) (size 9 to 14) (size 15 to 20)
#    0.000    1.263    2.105    0.947   11.789    7.158 
#    0.000    0.000    0.000    0.000    0.000    0.000 
#    0.000    0.000    0.000    0.000    0.000    0.000 
#
# Total GULP energy -105780.877972 kJ/mol
# GULP energy per Si atom -5567.414630 kJ/mol
# Density = 2.443809 g / cm^3
# Si number density = 24.493842 Si / 1000 Ang^3
#
#
#
# Elastic Constant Matrix: (Units=GPa)
#
#
# Indices 1 2 3 4 5 6 
#
# 1 80.9463 61.9611 26.0310 0.0000 34.8701 0.0000
# 2 61.9611 205.3989 24.1432 0.0000 1.4743 0.0000
# 3 26.0310 24.1432 69.0174 0.0000 12.9667 0.0000
# 4 0.0000 0.0000 0.0000 16.2654 0.0000 -12.9497
# 5 34.8701 1.4743 12.9667 0.0000 40.0509 0.0000
# 6 0.0000 0.0000 0.0000 -12.9497 0.0000 -53.6741
#
#
#
# Elastic Compliance Matrix: (Units=1/GPa)
#
#
# Indices 1 2 3 4 5 6 
#
# 1 0.031555 -0.008871 -0.003938 0.000000 -0.025872 0.000000
# 2 -0.008871 0.007577 -0.000749 0.000000 0.007687 0.000000
# 3 -0.003938 -0.000749 0.016597 0.000000 -0.001917 0.000000
# 4 0.000000 0.000000 0.000000 0.051574 0.000000 -0.012443
# 5 -0.025872 0.007687 -0.001917 0.000000 0.047831 0.000000
# 6 0.000000 0.000000 0.000000 -0.012443 0.000000 -0.015629
#
#
# Mechanical properties :
#
#
# Convention : Reuss Voigt Hill
#
# Bulk Modulus (GPa) = 34.94747 64.40368 49.67558
# Shear Modulus (GPa) = 28.38346 16.74359 22.56352
#
# Velocity S-wave (km/s) = 3.40781 2.61738 3.03841
# Velocity P-wave (km/s) = 5.45738 5.95694 5.71263
#
# Compressibility (1/GPa) = 0.02861437
#
# Stress axis : x y z
#
# Youngs Moduli (GPa) = 31.69022 131.97208 60.25336
#
# Poissons Ratio (x) = 1.17066 0.23727
# Poissons Ratio (y) = 0.28111 0.04514
# Poissons Ratio (z) = 0.12479 0.09887
#
# Static dielectric constant tensor:
#      x y z
#    x 2.003690 0.000000 -0.061970 
#    y 0.000000 1.948700 0.000000 
#    z -0.061970 0.000000 2.031750 
# 
# From -- ./inp_files/15247.got.cif
#   From: 2010.05.17/outbox.cif.g08.bks.cpg/sg12_8_cif.got.tgz:15247.got - 2010.06.03 13:09:07.
