data_PCOD9216060
_publ_section_title
;
Structure prediction by ZEFSAII (Michael W. Deem and Ramdas Pophale) SiO2 
 PCOD9216060
Probable space group: C 2/M
;
_chemical_formula_sum "Si O2"
_cell_formula_units_Z 32
_cell_length_a 16.047310
_cell_length_b 15.093657
_cell_length_c 4.980110
_cell_angle_alpha 90.000000
_cell_angle_beta 104.108447
_cell_angle_gamma 90.000000
_cell_volume 1169.860279
_symmetry_space_group_name_H-M "C 2/M"
_symmetry_group_IT_number 12
_symmetry_cell_setting 'monoclinic'
loop_
_space_group_symop_operation_xyz
x,y,z
-x,y,-z
-x,-y,-z
x,-y,z
1/2+x,1/2+y,z
1/2-x,1/2+y,-z
1/2-x,1/2-y,-z
1/2+x,1/2-y,z
loop_
_atom_site_type_symbol
_atom_site_label
_atom_site_fract_x
_atom_site_fract_y
_atom_site_fract_z
Si Si1 0.263282 0.641849 0.783905
Si Si2 0.639255 0.594069 0.657265
Si Si3 0.083383 0.605940 0.386778
Si Si4 0.589965 0.242257 0.946241
O O1 0.321165 0.595969 0.604388
O O2 0.165089 0.641983 0.618914
O O3 0.315466 0.733042 0.856850
O O4 0.280086 0.594210 0.075885
O O5 0.592588 0.500000 0.666415
O O6 0.595297 0.688184 0.695690
O O7 0.084868 0.500000 0.383827
O O8 0.085182 0.644647 0.088188
O O9 0.000000 0.636313 0.500000
O O10 0.500000 0.278570 0.000000
#
# Coordination Sequence:
#
# PCOD9216060 Si02
#       4
#     8   8   8   8
#     4  10  24  46  73 105 145 191 236 297 358 425
#     4  10  22  42  74 106 144 188 232 294 362 430
#     4  11  25  46  74 107 146 194 245 300 358 428
#     4  10  26  44  72 107 147 188 243 295 364 430
#
# _framework density 27.353695999999999
#
# number of rings (size 3 to 8) (size 9 to 14) (size 15 to 20)
#    1.500    0.250    0.000    3.000    3.500    4.000 
#    0.000    3.750    0.000    0.000    0.000    0.000 
#    0.000    0.000    0.000    0.000    0.000    0.000 
#
# Total GULP energy -89085.596234 kJ/mol
# GULP energy per Si atom -5567.849765 kJ/mol
# Density = 2.729144 g / cm^3
# Si number density = 27.353696 Si / 1000 Ang^3
#
#
#
# Elastic Constant Matrix: (Units=GPa)
#
#
# Indices 1 2 3 4 5 6 
#
# 1 172.2795 31.1130 0.8676 0.0000 15.3155 0.0000
# 2 31.1130 185.2172 4.3301 0.0000 1.0459 0.0000
# 3 0.8676 4.3301 83.9653 0.0000 -1.1250 0.0000
# 4 0.0000 0.0000 0.0000 79.5359 0.0000 -40.2801
# 5 15.3155 1.0459 -1.1250 0.0000 38.3318 0.0000
# 6 0.0000 0.0000 0.0000 -40.2801 0.0000 33.2478
#
#
#
# Elastic Compliance Matrix: (Units=1/GPa)
#
#
# Indices 1 2 3 4 5 6 
#
# 1 0.006209 -0.001028 -0.000044 0.000000 -0.002454 0.000000
# 2 -0.001028 0.005577 -0.000274 0.000000 0.000251 0.000000
# 3 -0.000044 -0.000274 0.011929 0.000000 0.000375 0.000000
# 4 0.000000 0.000000 0.000000 0.032535 0.000000 0.039417
# 5 -0.002454 0.000251 0.000375 0.000000 0.027073 0.000000
# 6 0.000000 0.000000 0.000000 0.039417 0.000000 0.077831
#
#
# Mechanical properties :
#
#
# Convention : Reuss Voigt Hill
#
# Bulk Modulus (GPa) = 47.56641 57.12037 52.34339
# Shear Modulus (GPa) = 29.26498 57.23317 43.24908
#
# Velocity S-wave (km/s) = 3.27444 4.57917 3.98063
# Velocity P-wave (km/s) = 5.63232 6.99184 6.34858
#
# Compressibility (1/GPa) = 0.02102324
#
# Stress axis : x y z
#
# Youngs Moduli (GPa) = 161.06817 179.31625 83.82738
#
# Poissons Ratio (x) = 0.18434 0.00369
# Poissons Ratio (y) = 0.16558 0.02294
# Poissons Ratio (z) = 0.00709 0.04906
#
# Static dielectric constant tensor:
#      x y z
#    x 2.129680 0.000000 0.058760 
#    y 0.000000 2.362940 0.000000 
#    z 0.058760 0.000000 2.379240 
# 
# From -- ./inp_files/10218.got.cif
#   From: 2010.05.17/outbox.cif.g08.bks.cpg/sg12_6_cif.got.tgz:10218.got - 2010.06.03 13:09:07.
