data_PCOD9216808
_publ_section_title
;
Structure prediction by ZEFSAII (Michael W. Deem and Ramdas Pophale) SiO2 
 PCOD9216808
Probable space group: C 2/M
;
_chemical_formula_sum "Si O2"
_cell_formula_units_Z 40
_cell_length_a 18.769864
_cell_length_b 17.637870
_cell_length_c 13.189971
_cell_angle_alpha 90.000000
_cell_angle_beta 22.504101
_cell_angle_gamma 90.000000
_cell_volume 1671.343831
_symmetry_space_group_name_H-M "C 2/M"
_symmetry_group_IT_number 12
_symmetry_cell_setting 'monoclinic'
loop_
_space_group_symop_operation_xyz
x,y,z
-x,y,-z
-x,-y,-z
x,-y,z
1/2+x,1/2+y,z
1/2-x,1/2+y,-z
1/2-x,1/2-y,-z
1/2+x,1/2-y,z
loop_
_atom_site_type_symbol
_atom_site_label
_atom_site_fract_x
_atom_site_fract_y
_atom_site_fract_z
Si Si1 0.468893 0.326254 0.647796
Si Si2 0.796723 0.583043 0.463748
Si Si3 0.665058 0.133421 0.909148
Si Si4 0.818420 0.585258 0.672408
Si Si5 0.479528 0.296015 0.858414
O O1 0.500000 0.280455 0.500000
O O2 0.662571 0.374057 0.395690
O O3 0.284593 0.371884 0.857639
O O4 0.447438 0.284310 0.780362
O O5 0.702924 0.500000 0.573874
O O6 0.856446 0.588848 0.502957
O O7 0.674198 0.659120 0.610633
O O8 0.983744 0.583218 0.151351
O O9 0.572719 0.216878 0.021768
O O10 0.751124 0.500000 0.782589
O O11 0.000000 0.598075 0.500000
O O12 0.663029 0.644321 0.907579
#
# Coordination Sequence:
#
# PCOD9216808 Si02
#       5
#     8   8   8   8   8
#     4   8  22  40  61  94 119 157 213 254 308 360
#     4  11  24  42  61  92 129 163 205 254 310 372
#     4   9  22  40  63  91 125 159 210 251 307 367
#     4  10  23  40  64  93 123 165 209 254 312 368
#     4  12  21  37  66  90 129 160 202 258 315 361
#
# _framework density 23.932838
#
# number of rings (size 3 to 8) (size 9 to 14) (size 15 to 20)
#    1.200    0.600    0.000    3.600    5.600    2.400 
#    3.600    6.000    0.000    0.000    0.000    0.000 
#    0.000    0.000    0.000    0.000    0.000    0.000 
#
# Total GULP energy -111496.851454 kJ/mol
# GULP energy per Si atom -5574.842573 kJ/mol
# Density = 2.387837 g / cm^3
# Si number density = 23.932838 Si / 1000 Ang^3
#
#
#
# Elastic Constant Matrix: (Units=GPa)
#
#
# Indices 1 2 3 4 5 6 
#
# 1 66.4599 -8.6514 -6.0177 -0.0045 1.5839 0.0156
# 2 -8.6514 86.9188 30.2521 -0.0012 -19.5198 0.0198
# 3 -6.0177 30.2521 124.6082 -0.0049 -20.5380 0.0201
# 4 -0.0045 -0.0012 -0.0049 26.6041 0.0051 -8.7393
# 5 1.5839 -19.5198 -20.5380 0.0051 37.3107 -0.0127
# 6 0.0156 0.0198 0.0201 -8.7393 -0.0127 -5.3585
#
#
#
# Elastic Compliance Matrix: (Units=1/GPa)
#
#
# Indices 1 2 3 4 5 6 
#
# 1 0.015266 0.001444 0.000445 0.000013 0.000352 0.000030
# 2 0.001444 0.013770 -0.002305 0.000007 0.005874 0.000022
# 3 0.000445 -0.002305 0.009243 0.000005 0.003863 0.000011
# 4 0.000013 0.000007 0.000005 0.024476 -0.000012 -0.039917
# 5 0.000352 0.005874 0.003863 -0.000012 0.031986 -0.000020
# 6 0.000030 0.000022 0.000011 -0.039917 -0.000020 -0.121516
#
#
# Mechanical properties :
#
#
# Convention : Reuss Voigt Hill
#
# Bulk Modulus (GPa) = 26.70486 34.35032 30.52759
# Shear Modulus (GPa) = -371.50168 29.20485 -171.14842
#
# Velocity S-wave (km/s) = -12.47252 3.49705 -8.46565
# Velocity P-wave (km/s) = 14.00842 5.53983 9.09797
#
# Compressibility (1/GPa) = 0.03744636
#
# Stress axis : x y z
#
# Youngs Moduli (GPa) = 65.50297 72.62078 108.19012
#
# Poissons Ratio (x) = -0.10485 -0.04812
# Poissons Ratio (y) = -0.09457 0.24940
# Poissons Ratio (z) = -0.02913 0.16741
#
# Static dielectric constant tensor:
#      x y z
#    x 1.959500 0.000000 -0.057350 
#    y 0.000000 1.906000 0.000010 
#    z -0.057350 0.000010 1.958980 
# 
# From -- ./inp_files/234587.got.cif
#   From: 2010.05.17/outbox.cif.g08.bks.cpg/sg12_118_cif.got.tgz:234587.got - 2010.06.03 13:09:07.
