data_PCOD9216284
_publ_section_title
;
Structure prediction by ZEFSAII (Michael W. Deem and Ramdas Pophale) SiO2 
 PCOD9216284
Probable space group: C 2/M
;
_chemical_formula_sum "Si O2"
_cell_formula_units_Z 28
_cell_length_a 11.596952
_cell_length_b 18.101603
_cell_length_c 5.458302
_cell_angle_alpha 90.000000
_cell_angle_beta 85.637689
_cell_angle_gamma 90.000000
_cell_volume 1142.505975
_symmetry_space_group_name_H-M "C 2/M"
_symmetry_group_IT_number 12
_symmetry_cell_setting 'monoclinic'
loop_
_space_group_symop_operation_xyz
x,y,z
-x,y,-z
-x,-y,-z
x,-y,z
1/2+x,1/2+y,z
1/2-x,1/2+y,-z
1/2-x,1/2-y,-z
1/2+x,1/2-y,z
loop_
_atom_site_type_symbol
_atom_site_label
_atom_site_fract_x
_atom_site_fract_y
_atom_site_fract_z
Si Si1 0.444247 0.587758 0.254434
Si Si2 0.185261 0.225975 0.253255
Si Si3 0.226527 0.413840 0.575413
Si Si4 0.500000 0.823772 0.500000
O O1 0.500000 0.616069 0.500000
O O2 0.469513 0.500000 0.247567
O O3 0.306121 0.594034 0.317551
O O4 0.500000 0.620254 0.000000
O O5 0.250000 0.250000 0.500000
O O6 0.204203 0.137855 0.249858
O O7 0.063495 0.268862 0.297804
O O8 0.250000 0.250000 0.000000
O O9 0.224122 0.500000 0.639945
O O10 0.100506 0.378285 0.576539
#
# Coordination Sequence:
#
# PCOD9216284 Si02
#       4
#     8   8   8   4
#     4   9  19  36  60  95 140 181 226 289 357 416
#     4  10  24  46  68  99 145 194 233 288 370 443
#     4  10  22  43  74 110 143 190 249 308 361 430
#     4  10  23  46  71 106 148 198 238 302 373 442
#
# _framework density 24.507529000000002
#
# number of rings (size 3 to 8) (size 9 to 14) (size 15 to 20)
#    0.000    2.286    0.000    0.429    2.000    9.143 
#    0.000   14.286    0.000    0.000    0.000    0.000 
#    0.000    0.000    0.000    0.000    0.000    0.000 
#
# Total GULP energy -78128.515392 kJ/mol
# GULP energy per Si atom -5580.608242 kJ/mol
# Density = 2.445175 g / cm^3
# Si number density = 24.507529 Si / 1000 Ang^3
#
#
#
# Elastic Constant Matrix: (Units=GPa)
#
#
# Indices 1 2 3 4 5 6 
#
# 1 172.8175 63.9480 70.9182 0.0000 -28.3942 0.0000
# 2 63.9480 225.9569 72.0489 0.0000 -21.9333 0.0000
# 3 70.9182 72.0489 192.9239 0.0000 -32.4032 0.0000
# 4 0.0000 0.0000 0.0000 35.4596 0.0000 -7.9321
# 5 -28.3942 -21.9333 -32.4032 0.0000 42.6267 0.0000
# 6 0.0000 0.0000 0.0000 -7.9321 0.0000 56.3139
#
#
#
# Elastic Compliance Matrix: (Units=1/GPa)
#
#
# Indices 1 2 3 4 5 6 
#
# 1 0.007470 -0.001259 -0.001776 0.000000 0.002979 0.000000
# 2 -0.001259 0.005302 -0.001376 0.000000 0.000844 0.000000
# 3 -0.001776 -0.001376 0.006915 0.000000 0.003366 0.000000
# 4 0.000000 0.000000 0.000000 0.029119 0.000000 0.004102
# 5 0.002979 0.000844 0.003366 0.000000 0.028437 0.000000
# 6 0.000000 0.000000 0.000000 0.004102 0.000000 0.018335
#
#
# Mechanical properties :
#
#
# Convention : Reuss Voigt Hill
#
# Bulk Modulus (GPa) = 92.01716 111.72538 101.87127
# Shear Modulus (GPa) = 46.28705 52.53225 49.40965
#
# Velocity S-wave (km/s) = 4.35062 4.63483 4.49497
# Velocity P-wave (km/s) = 7.92876 8.62145 8.28235
#
# Compressibility (1/GPa) = 0.01086754
#
# Stress axis : x y z
#
# Youngs Moduli (GPa) = 133.86310 188.59052 144.60785
#
# Poissons Ratio (x) = 0.23741 0.25677
# Poissons Ratio (y) = 0.16852 0.19894
# Poissons Ratio (z) = 0.23770 0.25945
#
# Static dielectric constant tensor:
#      x y z
#    x 2.165030 0.000000 0.001770 
#    y 0.000000 2.005810 0.000000 
#    z 0.001770 0.000000 1.966690 
# 
# From -- ./inp_files/5643.got.cif
#   From: 2010.05.17/outbox.cif.g08.bks.cpg/sg12_3_cif.got.tgz:5643.got - 2010.06.03 13:09:07.
