data_PCOD9216563
_publ_section_title
;
Structure prediction by ZEFSAII (Michael W. Deem and Ramdas Pophale) SiO2 
 PCOD9216563
Probable space group: C 2/M
;
_chemical_formula_sum "Si O2"
_cell_formula_units_Z 32
_cell_length_a 9.916472
_cell_length_b 24.582980
_cell_length_c 14.685197
_cell_angle_alpha 90.000000
_cell_angle_beta 154.489855
_cell_angle_gamma 90.000000
_cell_volume 1541.760901
_symmetry_space_group_name_H-M "C 2/M"
_symmetry_group_IT_number 12
_symmetry_cell_setting 'monoclinic'
loop_
_space_group_symop_operation_xyz
x,y,z
-x,y,-z
-x,-y,-z
x,-y,z
1/2+x,1/2+y,z
1/2-x,1/2+y,-z
1/2-x,1/2-y,-z
1/2+x,1/2-y,z
loop_
_atom_site_type_symbol
_atom_site_label
_atom_site_fract_x
_atom_site_fract_y
_atom_site_fract_z
Si Si1 0.334679 0.000000 0.653571
Si Si2 0.720653 0.618771 0.902751
Si Si3 0.357330 0.107269 0.195334
Si Si4 0.330010 0.802261 0.489393
Si Si5 0.279368 0.500000 0.096642
O O1 0.407117 0.943563 0.647574
O O2 0.000000 0.000000 0.500000
O O3 0.602452 0.000000 0.893317
O O4 0.477466 0.664836 0.728492
O O5 0.561291 0.558574 0.800170
O O6 0.856003 0.624106 0.087681
O O7 0.000000 0.619438 0.000000
O O8 0.459906 0.156448 0.322691
O O9 0.000000 0.090995 0.000000
O O10 0.500000 0.785965 0.500000
O O11 0.250000 0.750000 0.500000
O O12 0.000000 0.500000 0.000000
#
# Coordination Sequence:
#
# PCOD9216563 Si02
#       5
#     4   8   8   8   4
#     4  10  23  37  70 107 139 179 222 270 336 413
#     4  10  23  43  70 103 136 176 222 281 341 410
#     4  11  24  46  68 100 146 178 222 281 346 406
#     4  12  29  47  69  97 131 181 240 284 345 401
#     4   8  18  37  62  98 139 163 212 261 337 398
#
# _framework density 20.755489000000001
#
# number of rings (size 3 to 8) (size 9 to 14) (size 15 to 20)
#    0.000    1.500    2.500    0.375   14.000    2.000 
#    0.000    1.250    0.000    0.000    0.000    0.000 
#    0.000    0.000    0.000    0.000    0.000    0.000 
#
# Total GULP energy -89375.641676 kJ/mol
# GULP energy per Si atom -5585.977605 kJ/mol
# Density = 2.070825 g / cm^3
# Si number density = 20.755489 Si / 1000 Ang^3
#
#
#
# Elastic Constant Matrix: (Units=GPa)
#
#
# Indices 1 2 3 4 5 6 
#
# 1 164.0042 62.3241 43.2657 0.0007 -6.5804 0.0007
# 2 62.3241 170.0970 51.2672 0.0001 6.1508 0.0001
# 3 43.2657 51.2672 87.4565 0.0030 -3.8672 0.0029
# 4 0.0007 0.0001 0.0030 25.3708 0.0011 1.0919
# 5 -6.5804 6.1508 -3.8672 0.0011 44.4519 0.0010
# 6 0.0007 0.0001 0.0029 1.0919 0.0010 35.6745
#
#
#
# Elastic Compliance Matrix: (Units=1/GPa)
#
#
# Indices 1 2 3 4 5 6 
#
# 1 0.007590 -0.002075 -0.002485 0.000000 0.001194 0.000000
# 2 -0.002075 0.007790 -0.003615 0.000001 -0.001700 0.000000
# 3 -0.002485 -0.003615 0.014846 -0.000002 0.001424 -0.000001
# 4 0.000000 0.000001 -0.000002 0.039467 -0.000001 -0.001208
# 5 0.001194 -0.001700 0.001424 -0.000001 0.023032 -0.000001
# 6 0.000000 0.000000 -0.000001 -0.001208 -0.000001 0.028068
#
#
# Mechanical properties :
#
#
# Convention : Reuss Voigt Hill
#
# Bulk Modulus (GPa) = 72.07481 81.69685 76.88583
# Shear Modulus (GPa) = 35.26831 38.74615 37.00723
#
# Velocity S-wave (km/s) = 4.12664 4.32532 4.22715
# Velocity P-wave (km/s) = 7.58331 8.02444 7.80699
#
# Compressibility (1/GPa) = 0.01387447
#
# Stress axis : x y z
#
# Youngs Moduli (GPa) = 131.76084 128.36314 67.35725
#
# Poissons Ratio (x) = 0.26634 0.16742
# Poissons Ratio (y) = 0.27339 0.24353
# Poissons Ratio (z) = 0.32749 0.46409
#
# Static dielectric constant tensor:
#      x y z
#    x 1.705610 0.000000 0.015420 
#    y 0.000000 1.765660 -0.000010 
#    z 0.015420 -0.000010 1.684640 
# 
# From -- ./inp_files/198716.got.cif
#   From: 2010.05.17/outbox.cif.g08.bks.cpg/sg12_100_cif.got.tgz:198716.got - 2010.06.03 13:09:07.
