data_PCOD9216886
_publ_section_title
;
Structure prediction by ZEFSAII (Michael W. Deem and Ramdas Pophale) SiO2 
 PCOD9216886
Probable space group: C 2/M
;
_chemical_formula_sum "Si O2"
_cell_formula_units_Z 56
_cell_length_a 9.831689
_cell_length_b 14.559045
_cell_length_c 22.367449
_cell_angle_alpha 90.000000
_cell_angle_beta 126.289766
_cell_angle_gamma 90.000000
_cell_volume 2580.660325
_symmetry_space_group_name_H-M "C 2/M"
_symmetry_group_IT_number 12
_symmetry_cell_setting 'monoclinic'
loop_
_space_group_symop_operation_xyz
x,y,z
-x,y,-z
-x,-y,-z
x,-y,z
1/2+x,1/2+y,z
1/2-x,1/2+y,-z
1/2-x,1/2-y,-z
1/2+x,1/2-y,z
loop_
_atom_site_type_symbol
_atom_site_label
_atom_site_fract_x
_atom_site_fract_y
_atom_site_fract_z
Si Si1 0.878951 0.500000 0.333444
Si Si2 0.000000 0.245739 0.000000
Si Si3 0.420214 0.836146 0.253440
Si Si4 0.157775 0.655032 0.579230
Si Si5 0.251694 0.894987 0.882558
Si Si6 0.978304 0.809362 0.370047
Si Si7 0.052474 0.892300 0.116061
Si Si8 0.190179 0.601119 0.242313
O O1 0.951260 0.420458 0.306452
O O2 0.806915 0.581427 0.359771
O O3 0.148132 0.315400 0.057257
O O4 0.967881 0.175592 0.046219
O O5 0.437101 0.749031 0.299830
O O6 0.238177 0.855423 0.177881
O O7 0.556860 0.830239 0.236569
O O8 0.322850 0.670939 0.581480
O O9 0.000000 0.618356 0.500000
O O10 0.089199 0.749084 0.592148
O O11 0.274640 0.882879 0.818079
O O12 0.058070 0.890570 0.852651
O O13 0.308586 0.000000 0.912637
O O14 0.856999 0.895044 0.326565
O O15 0.059976 0.000000 0.098753
O O16 0.111408 0.500000 0.225172
#
# Coordination Sequence:
#
# PCOD9216886 Si02
#       8
#     4   4   8   8   8   8   8   8
#     4  10  23  40  72  94 129 170 217 269 326 378
#     4  12  24  42  64  94 132 172 216 266 332 394
#     4  11  22  43  65  94 126 167 213 272 325 382
#     4  11  24  43  66  97 134 175 217 263 323 392
#     4  10  25  42  65  92 129 170 216 271 325 395
#     4  11  24  39  66  94 132 172 215 268 323 384
#     4  11  24  42  66  94 127 168 220 270 326 391
#     4  11  23  41  64  95 127 165 217 270 331 376
#
# _framework density 21.699873
#
# number of rings (size 3 to 8) (size 9 to 14) (size 15 to 20)
#    0.000    1.143    2.857    2.357    5.000    4.571 
#    0.000    1.429    0.000    1.286    0.000    0.000 
#    0.000    0.000    0.000    0.000    0.000    0.000 
#
# Total GULP energy -155868.492052 kJ/mol
# GULP energy per Si atom -5566.731859 kJ/mol
# Density = 2.165048 g / cm^3
# Si number density = 21.699873 Si / 1000 Ang^3
#
#
#
# Elastic Constant Matrix: (Units=GPa)
#
#
# Indices 1 2 3 4 5 6 
#
# 1 90.1771 -14.6603 7.1172 0.0000 2.0568 0.0000
# 2 -14.6603 84.5330 3.3122 0.0000 6.8157 0.0000
# 3 7.1172 3.3122 25.9615 0.0000 10.5335 0.0000
# 4 0.0000 0.0000 0.0000 0.8602 0.0000 9.8631
# 5 2.0568 6.8157 10.5335 0.0000 26.5000 0.0000
# 6 0.0000 0.0000 0.0000 9.8631 0.0000 -53.0919
#
#
#
# Elastic Compliance Matrix: (Units=1/GPa)
#
#
# Indices 1 2 3 4 5 6 
#
# 1 0.011717 0.002175 -0.003450 0.000000 -0.000097 0.000000
# 2 0.002175 0.012486 -0.000975 0.000000 -0.002993 0.000000
# 3 -0.003450 -0.000975 0.046951 0.000000 -0.018144 0.000000
# 4 0.000000 0.000000 0.000000 0.371405 0.000000 0.068998
# 5 -0.000097 -0.002993 -0.018144 0.000000 0.045725 0.000000
# 6 0.000000 0.000000 0.000000 0.068998 0.000000 -0.006017
#
#
# Mechanical properties :
#
#
# Convention : Reuss Voigt Hill
#
# Bulk Modulus (GPa) = 15.00285 21.35666 18.17975
# Shear Modulus (GPa) = 9.82346 8.51383 9.16864
#
# Velocity S-wave (km/s) = 2.12997 1.98292 2.05776
# Velocity P-wave (km/s) = 3.60248 3.88662 3.74724
#
# Compressibility (1/GPa) = 0.06665399
#
# Stress axis : x y z
#
# Youngs Moduli (GPa) = 85.34285 80.08696 21.29901
#
# Poissons Ratio (x) = -0.17420 0.07349
# Poissons Ratio (y) = -0.18564 0.02077
# Poissons Ratio (z) = 0.29445 0.07810
#
# Static dielectric constant tensor:
#      x y z
#    x 1.795020 0.000000 0.004510 
#    y 0.000000 1.797340 0.000000 
#    z 0.004510 0.000000 1.797290 
# 
# From -- ./inp_files/333054.got.cif
#   From: 2010.05.17/outbox.cif.g08.bks.cpg/sg12_167_cif.got.tgz:333054.got - 2010.06.03 13:09:07.
