data_PCOD9216830
_publ_section_title
;
Structure prediction by ZEFSAII (Michael W. Deem and Ramdas Pophale) SiO2 
 PCOD9216830
Probable space group: C 2/M
;
_chemical_formula_sum "Si O2"
_cell_formula_units_Z 56
_cell_length_a 7.771548
_cell_length_b 28.221611
_cell_length_c 20.088757
_cell_angle_alpha 90.000000
_cell_angle_beta 37.215077
_cell_angle_gamma 90.000000
_cell_volume 2664.774274
_symmetry_space_group_name_H-M "C 2/M"
_symmetry_group_IT_number 12
_symmetry_cell_setting 'monoclinic'
loop_
_space_group_symop_operation_xyz
x,y,z
-x,y,-z
-x,-y,-z
x,-y,z
1/2+x,1/2+y,z
1/2-x,1/2+y,-z
1/2-x,1/2-y,-z
1/2+x,1/2-y,z
loop_
_atom_site_type_symbol
_atom_site_label
_atom_site_fract_x
_atom_site_fract_y
_atom_site_fract_z
Si Si1 0.617111 0.379895 0.304842
Si Si2 0.935775 0.760671 0.119990
Si Si3 0.093433 0.211555 0.722487
Si Si4 0.515217 0.291539 0.566966
Si Si5 0.696234 0.945839 0.506316
Si Si6 0.745930 0.617502 0.711610
Si Si7 0.274148 0.360905 0.126600
O O1 0.482275 0.329773 0.374544
O O2 0.478902 0.418502 0.396712
O O3 0.514652 0.392005 0.260667
O O4 0.954194 0.376289 0.207598
O O5 0.956280 0.784147 0.184347
O O6 0.740531 0.714634 0.192585
O O7 0.795369 0.803357 0.121131
O O8 0.250000 0.750000 0.000000
O O9 0.230104 0.259631 0.654450
O O10 0.319987 0.168760 0.655187
O O11 0.500000 0.316594 0.500000
O O12 0.750000 0.250000 0.500000
O O13 0.500000 0.945453 0.500000
O O14 0.505787 0.917657 0.618289
O O15 0.748033 0.000000 0.509682
O O16 0.675630 0.621109 0.811908
O O17 0.500000 0.376632 0.000000
#
# Coordination Sequence:
#
# PCOD9216830 Si02
#       7
#     8   8   8   8   8   8   8
#     4  11  23  41  65  93 130 169 214 269 327 389
#     4  11  22  36  55  79 120 167 219 264 297 351
#     4  11  21  35  52  83 118 166 210 250 307 367
#     4  12  24  36  56  86 129 171 211 260 319 381
#     4   9  20  42  72 103 129 163 211 270 339 411
#     4  10  23  40  65  93 131 166 217 268 326 392
#     4  11  25  41  61  91 130 174 221 269 314 379
#
# _framework density 21.014914999999998
#
# number of rings (size 3 to 8) (size 9 to 14) (size 15 to 20)
#    0.000    1.286    1.429    4.714    6.000    1.714 
#    0.000    1.429    0.000    1.714    0.000    4.000 
#    0.000    0.000    0.000    0.000    0.000    0.000 
#
# Total GULP energy -155946.939608 kJ/mol
# GULP energy per Si atom -5569.533557 kJ/mol
# Density = 2.096708 g / cm^3
# Si number density = 21.014915 Si / 1000 Ang^3
#
#
#
# Elastic Constant Matrix: (Units=GPa)
#
#
# Indices 1 2 3 4 5 6 
#
# 1 115.7007 19.7057 66.9669 -0.0002 4.4527 0.0000
# 2 19.7057 111.1606 64.9535 -0.0001 -10.4793 0.0000
# 3 66.9669 64.9535 161.3894 -0.0010 -8.5845 0.0004
# 4 -0.0002 -0.0001 -0.0010 20.8247 0.0003 -0.9501
# 5 4.4527 -10.4793 -8.5845 0.0003 45.0342 -0.0001
# 6 0.0000 0.0000 0.0004 -0.9501 -0.0001 13.0931
#
#
#
# Elastic Compliance Matrix: (Units=1/GPa)
#
#
# Indices 1 2 3 4 5 6 
#
# 1 0.011622 0.000829 -0.005260 0.000000 -0.001959 0.000000
# 2 0.000829 0.011976 -0.005071 0.000000 0.001738 0.000000
# 3 -0.005260 -0.005071 0.010491 0.000000 0.001340 0.000000
# 4 0.000000 0.000000 0.000000 0.048179 0.000000 0.003496
# 5 -0.001959 0.001738 0.001340 0.000000 0.023059 0.000000
# 6 0.000000 0.000000 0.000000 0.003496 0.000000 0.076630
#
#
# Mechanical properties :
#
#
# Convention : Reuss Voigt Hill
#
# Bulk Modulus (GPa) = 66.29732 76.83367 71.56549
# Shear Modulus (GPa) = 24.27297 31.56538 27.91917
#
# Velocity S-wave (km/s) = 3.40227 3.87983 3.64887
# Velocity P-wave (km/s) = 6.85931 7.53071 7.20284
#
# Compressibility (1/GPa) = 0.01508357
#
# Stress axis : x y z
#
# Youngs Moduli (GPa) = 86.04584 83.49820 95.31868
#
# Poissons Ratio (x) = -0.06919 0.50138
# Poissons Ratio (y) = -0.07130 0.48340
# Poissons Ratio (z) = 0.45260 0.42346
#
# Static dielectric constant tensor:
#      x y z
#    x 2.070960 0.000000 0.037260 
#    y 0.000000 1.873460 0.000000 
#    z 0.037260 0.000000 1.755210 
# 
# From -- ./inp_files/302991.got.cif
#   From: 2010.05.17/outbox.cif.g08.bks.cpg/sg12_152_cif.got.tgz:302991.got - 2010.06.03 13:09:07.
