data_PCOD9216327
_publ_section_title
;
Structure prediction by ZEFSAII (Michael W. Deem and Ramdas Pophale) SiO2 
 PCOD9216327
Probable space group: C 2/M
;
_chemical_formula_sum "Si O2"
_cell_formula_units_Z 44
_cell_length_a 11.067762
_cell_length_b 28.189277
_cell_length_c 7.363109
_cell_angle_alpha 90.000000
_cell_angle_beta 57.372900
_cell_angle_gamma 90.000000
_cell_volume 1934.723524
_symmetry_space_group_name_H-M "C 2/M"
_symmetry_group_IT_number 12
_symmetry_cell_setting 'monoclinic'
loop_
_space_group_symop_operation_xyz
x,y,z
-x,y,-z
-x,-y,-z
x,-y,z
1/2+x,1/2+y,z
1/2-x,1/2+y,-z
1/2-x,1/2-y,-z
1/2+x,1/2-y,z
loop_
_atom_site_type_symbol
_atom_site_label
_atom_site_fract_x
_atom_site_fract_y
_atom_site_fract_z
Si Si1 0.417495 0.000000 0.872423
Si Si2 0.958158 0.396308 0.733686
Si Si3 0.247772 0.105299 0.385402
Si Si4 0.168782 0.000000 0.315290
Si Si5 0.162381 0.124324 0.864169
Si Si6 0.602429 0.726801 0.056705
Si Si7 0.500000 0.321945 0.500000
O O1 0.464129 0.953146 0.732106
O O2 0.500000 0.000000 0.000000
O O3 0.246211 0.000000 0.054271
O O4 0.789664 0.387254 0.902601
O O5 0.000000 0.376980 0.500000
O O6 0.085289 0.380858 0.764187
O O7 0.221937 0.051049 0.347316
O O8 0.215986 0.107929 0.625850
O O9 0.136802 0.142907 0.392659
O O10 0.000000 0.000000 0.500000
O O11 0.145966 0.180459 0.904354
O O12 0.000000 0.104629 0.000000
O O13 0.517474 0.709591 0.305463
O O14 0.500000 0.755204 0.000000
O O15 0.750000 0.750000 0.000000
#
# Coordination Sequence:
#
# PCOD9216327 Si02
#       7
#     4   8   8   4   8   8   4
#     4  12  23  38  58  91 139 177 243 300 337 399
#     4  10  23  40  63  92 133 187 234 294 349 412
#     4  11  22  43  67 100 142 189 238 287 347 412
#     4  12  26  36  61 100 140 188 244 292 335 412
#     4  10  22  44  68  94 138 179 232 290 353 428
#     4  11  26  49  73 109 142 179 239 300 367 446
#     4  12  24  45  80  98 150 194 228 301 360 430
#
# _framework density 22.742266000000001
#
# number of rings (size 3 to 8) (size 9 to 14) (size 15 to 20)
#    0.000    1.091    6.364    0.273    5.091    4.364 
#    4.909    0.909    0.000    0.000    0.000    0.000 
#    0.000    0.000    0.000    0.000    0.000    0.000 
#
# Total GULP energy -122672.861376 kJ/mol
# GULP energy per Si atom -5576.039153 kJ/mol
# Density = 2.269050 g / cm^3
# Si number density = 22.742266 Si / 1000 Ang^3
#
#
#
# Elastic Constant Matrix: (Units=GPa)
#
#
# Indices 1 2 3 4 5 6 
#
# 1 198.5985 28.5022 51.2488 0.0000 -42.5879 0.0000
# 2 28.5022 43.1206 14.5719 0.0000 2.5144 0.0000
# 3 51.2488 14.5719 117.7584 0.0000 -8.4138 0.0000
# 4 0.0000 0.0000 0.0000 17.2770 0.0000 0.7243
# 5 -42.5879 2.5144 -8.4138 0.0000 45.2100 0.0000
# 6 0.0000 0.0000 0.0000 0.7243 0.0000 25.0376
#
#
#
# Elastic Compliance Matrix: (Units=1/GPa)
#
#
# Indices 1 2 3 4 5 6 
#
# 1 0.007888 -0.004856 -0.002313 0.000000 0.007270 0.000000
# 2 -0.004856 0.027360 -0.001731 0.000000 -0.006418 0.000000
# 3 -0.002313 -0.001731 0.009693 0.000000 -0.000278 0.000000
# 4 0.000000 0.000000 0.000000 0.057951 0.000000 -0.001676
# 5 0.007270 -0.006418 -0.000278 0.000000 0.029273 0.000000
# 6 0.000000 0.000000 0.000000 -0.001676 0.000000 0.039988
#
#
# Mechanical properties :
#
#
# Convention : Reuss Voigt Hill
#
# Bulk Modulus (GPa) = 36.84398 60.90257 48.87328
# Shear Modulus (GPa) = 25.12574 35.18188 30.15381
#
# Velocity S-wave (km/s) = 3.32746 3.93744 3.64523
# Velocity P-wave (km/s) = 5.56763 6.89266 6.26527
#
# Compressibility (1/GPa) = 0.02714148
#
# Stress axis : x y z
#
# Youngs Moduli (GPa) = 126.77375 36.54977 103.17088
#
# Poissons Ratio (x) = 0.17750 0.23858
# Poissons Ratio (y) = 0.61566 0.17856
# Poissons Ratio (z) = 0.29317 0.06326
#
# Static dielectric constant tensor:
#      x y z
#    x 2.010080 0.000000 -0.026650 
#    y 0.000000 1.792650 0.000000 
#    z -0.026650 0.000000 1.921440 
# 
# From -- ./inp_files/54077.got.cif
#   From: 2010.05.17/outbox.cif.g08.bks.cpg/sg12_28_cif.got.tgz:54077.got - 2010.06.03 13:09:07.
