data_PCOD9216160
_publ_section_title
;
Structure prediction by ZEFSAII (Michael W. Deem and Ramdas Pophale) SiO2 
 PCOD9216160
Probable space group: C 2/M
;
_chemical_formula_sum "Si O2"
_cell_formula_units_Z 36
_cell_length_a 9.564553
_cell_length_b 14.519499
_cell_length_c 21.128742
_cell_angle_alpha 90.000000
_cell_angle_beta 37.715231
_cell_angle_gamma 90.000000
_cell_volume 1794.960711
_symmetry_space_group_name_H-M "C 2/M"
_symmetry_group_IT_number 12
_symmetry_cell_setting 'monoclinic'
loop_
_space_group_symop_operation_xyz
x,y,z
-x,y,-z
-x,-y,-z
x,-y,z
1/2+x,1/2+y,z
1/2-x,1/2+y,-z
1/2-x,1/2-y,-z
1/2+x,1/2-y,z
loop_
_atom_site_type_symbol
_atom_site_label
_atom_site_fract_x
_atom_site_fract_y
_atom_site_fract_z
Si Si1 0.196930 0.500000 0.485072
Si Si2 0.677206 0.301054 0.725375
Si Si3 0.739631 0.200705 0.070641
Si Si4 0.819334 0.500000 0.723468
Si Si5 0.881934 0.196487 0.397564
Si Si6 0.273672 0.000000 0.891535
O O1 0.352944 0.589392 0.423032
O O2 0.000000 0.500000 0.500000
O O3 0.062001 0.500000 0.600027
O O4 0.426809 0.261705 0.827148
O O5 0.700420 0.405750 0.741996
O O6 0.725448 0.293267 0.633519
O O7 0.864242 0.238192 0.693499
O O8 0.646491 0.095792 0.106163
O O9 0.750000 0.250000 0.000000
O O10 0.000000 0.197562 0.000000
O O11 0.826665 0.500000 0.797177
O O12 0.750000 0.250000 0.500000
O O13 0.000000 0.000000 0.000000
#
# Coordination Sequence:
#
# PCOD9216160 Si02
#       6
#     4   8   8   4   8   4
#     4  12  22  43  64  97 139 180 226 269 337 394
#     4  12  24  41  69  96 132 180 228 272 340 394
#     4  11  24  45  69 101 134 173 222 279 335 401
#     4  12  22  42  68  96 132 187 216 270 342 398
#     4  12  23  41  63  95 132 179 223 275 322 399
#     4  10  22  43  67  93 132 172 215 269 340 397
#
# _framework density 20.056148
#
# number of rings (size 3 to 8) (size 9 to 14) (size 15 to 20)
#    0.000    0.444    4.444    6.000    0.000    0.889 
#    0.000    7.778    0.000    0.000    0.000    0.000 
#    0.000    0.000    0.000    0.000    0.000    0.000 
#
# Total GULP energy -100578.942145 kJ/mol
# GULP energy per Si atom -5587.719008 kJ/mol
# Density = 2.001050 g / cm^3
# Si number density = 20.056148 Si / 1000 Ang^3
#
#
#
# Elastic Constant Matrix: (Units=GPa)
#
#
# Indices 1 2 3 4 5 6 
#
# 1 84.6726 65.7079 28.2737 0.0004 24.8065 -0.0004
# 2 65.7079 211.4330 48.2590 0.0008 2.6845 -0.0005
# 3 28.2737 48.2590 92.6874 0.0005 15.6182 -0.0006
# 4 0.0004 0.0008 0.0005 27.8315 -0.0004 5.3236
# 5 24.8065 2.6845 15.6182 -0.0004 51.4024 0.0005
# 6 -0.0004 -0.0005 -0.0006 5.3236 0.0005 23.3635
#
#
#
# Elastic Compliance Matrix: (Units=1/GPa)
#
#
# Indices 1 2 3 4 5 6 
#
# 1 0.019027 -0.005454 -0.001544 0.000000 -0.008428 0.000000
# 2 -0.005454 0.006948 -0.002463 0.000000 0.003017 0.000000
# 3 -0.001544 -0.002463 0.013064 0.000000 -0.003095 0.000000
# 4 0.000000 0.000000 0.000000 0.037568 0.000001 -0.008560
# 5 -0.008428 0.003017 -0.003095 0.000001 0.024305 -0.000001
# 6 0.000000 0.000000 0.000000 -0.008560 -0.000001 0.044752
#
#
# Mechanical properties :
#
#
# Convention : Reuss Voigt Hill
#
# Bulk Modulus (GPa) = 49.70631 74.80826 62.25729
# Shear Modulus (GPa) = 29.18995 36.95631 33.07313
#
# Velocity S-wave (km/s) = 3.81912 4.29726 4.06523
# Velocity P-wave (km/s) = 6.65470 7.87415 7.28997
#
# Compressibility (1/GPa) = 0.02011817
#
# Stress axis : x y z
#
# Youngs Moduli (GPa) = 52.55583 143.92119 76.54751
#
# Poissons Ratio (x) = 0.78490 0.11822
# Poissons Ratio (y) = 0.28662 0.18850
# Poissons Ratio (z) = 0.08117 0.35441
#
# Static dielectric constant tensor:
#      x y z
#    x 1.727690 0.000000 0.006240 
#    y 0.000000 1.726120 0.000000 
#    z 0.006240 0.000000 1.731030 
# 
# From -- ./inp_files/300111.got.cif
#   From: 2010.05.17/outbox.cif.g08.bks.cpg/sg12_151_cif.got.tgz:300111.got - 2010.06.03 13:09:07.
