data_PCOD9216771
_publ_section_title
;
Structure prediction by ZEFSAII (Michael W. Deem and Ramdas Pophale) SiO2 
 PCOD9216771
Probable space group: C 2/M
;
_chemical_formula_sum "Si O2"
_cell_formula_units_Z 64
_cell_length_a 11.565280
_cell_length_b 29.377910
_cell_length_c 9.581724
_cell_angle_alpha 90.000000
_cell_angle_beta 90.451501
_cell_angle_gamma 90.000000
_cell_volume 3255.421446
_symmetry_space_group_name_H-M "C 2/M"
_symmetry_group_IT_number 12
_symmetry_cell_setting 'monoclinic'
loop_
_space_group_symop_operation_xyz
x,y,z
-x,y,-z
-x,-y,-z
x,-y,z
1/2+x,1/2+y,z
1/2-x,1/2+y,-z
1/2-x,1/2-y,-z
1/2+x,1/2-y,z
loop_
_atom_site_type_symbol
_atom_site_label
_atom_site_fract_x
_atom_site_fract_y
_atom_site_fract_z
Si Si1 0.373003 0.552023 0.442159
Si Si2 0.372040 0.622881 0.946257
Si Si3 0.266655 0.109778 0.776333
Si Si4 0.381158 0.800576 0.676057
Si Si5 0.357218 0.815259 0.367510
Si Si6 0.268257 0.913537 0.309280
Si Si7 0.505023 0.053968 0.166346
Si Si8 0.803822 0.224058 0.868734
O O1 0.500000 0.564632 0.500000
O O2 0.377790 0.500000 0.390424
O O3 0.326382 0.585701 0.323741
O O4 0.284515 0.555489 0.570852
O O5 0.328176 0.596285 0.809432
O O6 0.363604 0.676946 0.913882
O O7 0.500000 0.611403 0.000000
O O8 0.282256 0.611497 0.068111
O O9 0.294134 0.161177 0.730475
O O10 0.385845 0.081373 0.772317
O O11 0.349636 0.789812 0.515452
O O12 0.508925 0.821428 0.668583
O O13 0.383066 0.758258 0.780667
O O14 0.299551 0.864759 0.377865
O O15 0.296492 0.789316 0.241083
O O16 0.384733 0.932023 0.238191
O O17 0.522949 0.000000 0.184502
O O18 0.500000 0.063648 0.000000
O O19 0.750000 0.250000 0.000000
#
# Coordination Sequence:
#
# PCOD9216771 Si02
#       8
#     8   8   8   8   8   8   8   8
#     4  11  25  44  67  98 134 172 216 268 324 390
#     4  11  25  42  63  93 127 173 224 266 321 394
#     4  12  22  42  68  93 132 171 214 267 328 387
#     4  11  22  40  64  89 128 167 209 264 322 391
#     4  10  23  40  62  92 127 167 210 259 328 385
#     4  11  21  43  67  94 131 173 216 266 327 385
#     4  11  23  39  65 101 134 167 214 275 330 385
#     4  11  24  39  62  91 124 164 214 271 317 380
#
# _framework density 19.659514000000001
#
# number of rings (size 3 to 8) (size 9 to 14) (size 15 to 20)
#    0.000    1.000    5.000    1.875    1.750    0.500 
#    0.000    1.250    0.000    3.000    0.000    0.000 
#    0.000    0.000    0.000    0.000    0.000    0.000 
#
# Total GULP energy -178843.175747 kJ/mol
# GULP energy per Si atom -5588.849242 kJ/mol
# Density = 1.961477 g / cm^3
# Si number density = 19.659514 Si / 1000 Ang^3
#
#
#
# Elastic Constant Matrix: (Units=GPa)
#
#
# Indices 1 2 3 4 5 6 
#
# 1 75.6888 9.5490 3.3712 0.0000 11.2327 0.0000
# 2 9.5490 56.4047 8.6019 0.0000 8.0977 0.0000
# 3 3.3712 8.6019 64.3527 0.0000 -5.5297 0.0000
# 4 0.0000 0.0000 0.0000 30.9957 0.0000 -0.1119
# 5 11.2327 8.0977 -5.5297 0.0000 30.1371 0.0000
# 6 0.0000 0.0000 0.0000 -0.1119 0.0000 20.1288
#
#
#
# Elastic Compliance Matrix: (Units=1/GPa)
#
#
# Indices 1 2 3 4 5 6 
#
# 1 0.014199 -0.001529 -0.000974 0.000000 -0.005060 0.000000
# 2 -0.001529 0.019168 -0.002922 0.000000 -0.005117 0.000000
# 3 -0.000974 -0.002922 0.016337 0.000000 0.004146 0.000000
# 4 0.000000 0.000000 0.000000 0.032263 0.000000 0.000179
# 5 -0.005060 -0.005117 0.004146 0.000000 0.037203 0.000000
# 6 0.000000 0.000000 0.000000 0.000179 0.000000 0.049681
#
#
# Mechanical properties :
#
#
# Convention : Reuss Voigt Hill
#
# Bulk Modulus (GPa) = 25.73686 26.61004 26.17345
# Shear Modulus (GPa) = 25.95337 27.91393 26.93365
#
# Velocity S-wave (km/s) = 3.63732 3.77220 3.70537
# Velocity P-wave (km/s) = 5.54616 5.70417 5.62572
#
# Compressibility (1/GPa) = 0.03885478
#
# Stress axis : x y z
#
# Youngs Moduli (GPa) = 70.42624 52.17038 61.21007
#
# Poissons Ratio (x) = 0.07976 0.05964
# Poissons Ratio (y) = 0.10767 0.17884
# Poissons Ratio (z) = 0.06862 0.15243
#
# Static dielectric constant tensor:
#      x y z
#    x 1.666180 0.000000 0.005730 
#    y 0.000000 1.681510 0.000000 
#    z 0.005730 0.000000 1.675080 
# 
# From -- ./inp_files/54745.got.cif
#   From: 2010.05.17/outbox.cif.g08.bks.cpg/sg12_28_cif.got.tgz:54745.got - 2010.06.03 13:09:07.
