data_PCOD9216461
_publ_section_title
;
Structure prediction by ZEFSAII (Michael W. Deem and Ramdas Pophale) SiO2 
 PCOD9216461
Probable space group: C 2/M
;
_chemical_formula_sum "Si O2"
_cell_formula_units_Z 44
_cell_length_a 26.906926
_cell_length_b 12.725954
_cell_length_c 15.112093
_cell_angle_alpha 90.000000
_cell_angle_beta 152.936940
_cell_angle_gamma 90.000000
_cell_volume 2354.304555
_symmetry_space_group_name_H-M "C 2/M"
_symmetry_group_IT_number 12
_symmetry_cell_setting 'monoclinic'
loop_
_space_group_symop_operation_xyz
x,y,z
-x,y,-z
-x,-y,-z
x,-y,z
1/2+x,1/2+y,z
1/2-x,1/2+y,-z
1/2-x,1/2-y,-z
1/2+x,1/2-y,z
loop_
_atom_site_type_symbol
_atom_site_label
_atom_site_fract_x
_atom_site_fract_y
_atom_site_fract_z
Si Si1 0.534185 0.000000 0.950956
Si Si2 0.681758 0.775800 0.611817
Si Si3 0.496087 0.375137 0.239438
Si Si4 0.402362 0.000000 0.277201
Si Si5 0.581918 0.234093 0.047495
Si Si6 0.258768 0.682401 0.927280
Si Si7 0.571995 0.000000 0.398413
O O1 0.440860 0.000000 0.727964
O O2 0.500000 0.000000 0.000000
O O3 0.591121 0.113186 0.027816
O O4 0.593632 0.689066 0.441876
O O5 0.794561 0.768808 0.735652
O O6 0.721004 0.763737 0.775719
O O7 0.631712 0.892701 0.521868
O O8 0.518752 0.500000 0.264293
O O9 0.470150 0.312839 0.107173
O O10 0.381118 0.361406 0.108596
O O11 0.500000 0.000000 0.500000
O O12 0.328427 0.904357 0.187093
O O13 0.454287 0.000000 0.261564
O O14 0.500000 0.233922 0.000000
O O15 0.250000 0.750000 0.000000
#
# Coordination Sequence:
#
# PCOD9216461 Si02
#       7
#     4   8   8   4   8   8   4
#     4  10  22  46  67  95 130 164 222 278 321 394
#     4  11  24  42  67  94 131 169 223 265 327 391
#     4  11  24  44  62  96 138 168 213 272 328 385
#     4  12  22  38  67  94 127 169 225 262 310 386
#     4  10  24  44  67  96 129 169 215 270 331 389
#     4  11  24  42  63  93 130 173 216 270 317 383
#     4  12  22  42  71  96 124 178 230 263 315 396
#
# _framework density 18.689170000000001
#
# number of rings (size 3 to 8) (size 9 to 14) (size 15 to 20)
#    0.000    1.091    4.545    1.091    7.636    1.091 
#    1.636    0.909    0.000    0.000    0.000    0.000 
#    0.000    0.000    0.000    0.000    0.000    0.000 
#
# Total GULP energy -122645.037313 kJ/mol
# GULP energy per Si atom -5574.774423 kJ/mol
# Density = 1.864663 g / cm^3
# Si number density = 18.689170 Si / 1000 Ang^3
#
#
#
# Elastic Constant Matrix: (Units=GPa)
#
#
# Indices 1 2 3 4 5 6 
#
# 1 104.4292 51.1869 56.1823 0.0000 11.3217 0.0000
# 2 51.1869 153.6769 60.9201 0.0000 10.4853 0.0000
# 3 56.1823 60.9201 129.2441 0.0000 14.9326 0.0000
# 4 0.0000 0.0000 0.0000 1.5468 0.0000 1.3962
# 5 11.3217 10.4853 14.9326 0.0000 35.8110 0.0000
# 6 0.0000 0.0000 0.0000 1.3962 0.0000 22.2958
#
#
#
# Elastic Compliance Matrix: (Units=1/GPa)
#
#
# Indices 1 2 3 4 5 6 
#
# 1 0.013402 -0.002604 -0.004409 0.000000 -0.001636 0.000000
# 2 -0.002604 0.008531 -0.002832 0.000000 -0.000494 0.000000
# 3 -0.004409 -0.002832 0.011275 0.000000 -0.002478 0.000000
# 4 0.000000 0.000000 0.000000 0.685242 0.000000 -0.042910
# 5 -0.001636 -0.000494 -0.002478 0.000000 0.029620 0.000000
# 6 0.000000 0.000000 0.000000 -0.042910 0.000000 0.047539
#
#
# Mechanical properties :
#
#
# Convention : Reuss Voigt Hill
#
# Bulk Modulus (GPa) = 73.98136 80.43654 77.20895
# Shear Modulus (GPa) = 6.09901 26.53477 16.31689
#
# Velocity S-wave (km/s) = 1.80845 3.77210 2.95798
# Velocity P-wave (km/s) = 6.63564 7.88062 7.28478
#
# Compressibility (1/GPa) = 0.01351692
#
# Stress axis : x y z
#
# Youngs Moduli (GPa) = 74.61618 117.22016 88.69041
#
# Poissons Ratio (x) = 0.30529 0.39105
# Poissons Ratio (y) = 0.19433 0.25117
# Poissons Ratio (z) = 0.32900 0.33196
#
# Static dielectric constant tensor:
#      x y z
#    x 1.673030 0.000000 0.000920 
#    y 0.000000 1.634820 0.000000 
#    z 0.000920 0.000000 1.597110 
# 
# From -- ./inp_files/245569.got.cif
#   From: 2010.05.17/outbox.cif.g08.bks.cpg/sg12_123_cif.got.tgz:245569.got - 2010.06.03 13:09:07.
