data_PCOD9216950
_publ_section_title
;
Structure prediction by ZEFSAII (Michael W. Deem and Ramdas Pophale) SiO2 
 PCOD9216950
Probable space group: C 2/M
;
_chemical_formula_sum "Si O2"
_cell_formula_units_Z 48
_cell_length_a 26.367530
_cell_length_b 8.829206
_cell_length_c 14.991645
_cell_angle_alpha 90.000000
_cell_angle_beta 40.767467
_cell_angle_gamma 90.000000
_cell_volume 2279.015951
_symmetry_space_group_name_H-M "C 2/M"
_symmetry_group_IT_number 12
_symmetry_cell_setting 'monoclinic'
loop_
_space_group_symop_operation_xyz
x,y,z
-x,y,-z
-x,-y,-z
x,-y,z
1/2+x,1/2+y,z
1/2-x,1/2+y,-z
1/2-x,1/2-y,-z
1/2+x,1/2-y,z
loop_
_atom_site_type_symbol
_atom_site_label
_atom_site_fract_x
_atom_site_fract_y
_atom_site_fract_z
Si Si1 0.084798 0.819326 0.849048
Si Si2 0.836982 0.181035 0.746921
Si Si3 0.575758 0.819564 0.529792
Si Si4 0.169043 0.680093 0.576643
Si Si5 0.165742 0.319081 0.906610
Si Si6 0.580896 0.680350 0.183321
O O1 0.103251 0.743296 0.730397
O O2 0.146662 0.760415 0.838847
O O3 0.089931 0.000000 0.833264
O O4 0.000000 0.780022 0.000000
O O5 0.898262 0.263462 0.601475
O O6 0.750573 0.223015 0.831165
O O7 0.855059 0.214516 0.825752
O O8 0.846120 0.000000 0.723093
O O9 0.644819 0.783351 0.507886
O O10 0.499797 0.736714 0.667909
O O11 0.563106 0.000000 0.546813
O O12 0.173409 0.500000 0.579333
O O13 0.250000 0.750000 0.500000
O O14 0.162168 0.500000 0.900642
O O15 0.103652 0.263929 0.062428
O O16 0.578350 0.500000 0.171019
#
# Coordination Sequence:
#
# PCOD9216950 Si02
#       6
#     8   8   8   8   8   8
#     4  11  24  41  62  89 121 158 199 244 296 354
#     4  10  23  41  61  88 121 158 198 243 296 351
#     4  11  24  40  61  90 121 155 198 247 296 349
#     4  11  24  41  62  89 121 157 199 247 297 352
#     4  11  23  40  63  90 121 156 197 246 297 351
#     4  11  23  40  62  88 121 159 199 243 293 352
#
# _framework density 21.061722
#
# number of rings (size 3 to 8) (size 9 to 14) (size 15 to 20)
#    0.000    1.167    0.000    5.500    0.000   14.000 
#    0.000    0.000    0.000    0.000    0.000    0.000 
#    0.000    0.000    0.000    0.000    0.000    0.000 
#
# Total GULP energy -134376.465318 kJ/mol
# GULP energy per Si atom -5599.019388 kJ/mol
# Density = 2.101378 g / cm^3
# Si number density = 21.061722 Si / 1000 Ang^3
#
#
#
# Elastic Constant Matrix: (Units=GPa)
#
#
# Indices 1 2 3 4 5 6 
#
# 1 59.5975 15.2722 -16.6607 0.0002 -0.7776 -0.0001
# 2 15.2722 14.1759 0.7941 -0.0005 -1.2133 -0.0001
# 3 -16.6607 0.7941 58.1232 -0.0002 3.6122 -0.0001
# 4 0.0002 -0.0005 -0.0002 36.7552 -0.0001 2.9945
# 5 -0.7776 -1.2133 3.6122 -0.0001 39.9975 0.0001
# 6 -0.0001 -0.0001 -0.0001 2.9945 0.0001 30.7738
#
#
#
# Elastic Compliance Matrix: (Units=1/GPa)
#
#
# Indices 1 2 3 4 5 6 
#
# 1 0.026460 -0.029050 0.008049 0.000000 -0.001094 0.000000
# 2 -0.029050 0.102692 -0.009944 0.000001 0.003448 0.000000
# 3 0.008049 -0.009944 0.019768 0.000000 -0.001930 0.000000
# 4 0.000000 0.000001 0.000000 0.027424 0.000000 -0.002669
# 5 -0.001094 0.003448 -0.001930 0.000000 0.025259 0.000000
# 6 0.000000 0.000000 0.000000 -0.002669 0.000000 0.032755
#
#
# Mechanical properties :
#
#
# Convention : Reuss Voigt Hill
#
# Bulk Modulus (GPa) = 11.49051 14.52308 13.00679
# Shear Modulus (GPa) = 15.37239 30.33801 22.85520
#
# Velocity S-wave (km/s) = 2.70455 3.79942 3.29774
# Velocity P-wave (km/s) = 3.90131 5.11448 4.54853
#
# Compressibility (1/GPa) = 0.08702833
#
# Stress axis : x y z
#
# Youngs Moduli (GPa) = 37.79354 9.73787 50.58689
#
# Poissons Ratio (x) = 0.28289 -0.40719
# Poissons Ratio (y) = 1.09792 0.50306
# Poissons Ratio (z) = -0.30421 0.09684
#
# Static dielectric constant tensor:
#      x y z
#    x 1.777740 0.000000 -0.015630 
#    y 0.000000 1.697670 0.000000 
#    z -0.015630 0.000000 1.725560 
# 
# From -- ./inp_files/244670.got.cif
#   From: 2010.05.17/outbox.cif.g08.bks.cpg/sg12_123_cif.got.tgz:244670.got - 2010.06.03 13:09:07.
