data_PCOD9216495
_publ_section_title
;
Structure prediction by ZEFSAII (Michael W. Deem and Ramdas Pophale) SiO2 
 PCOD9216495
Probable space group: C 2/M
;
_chemical_formula_sum "Si O2"
_cell_formula_units_Z 48
_cell_length_a 20.434519
_cell_length_b 19.971059
_cell_length_c 15.185277
_cell_angle_alpha 90.000000
_cell_angle_beta 21.359499
_cell_angle_gamma 90.000000
_cell_volume 2257.097380
_symmetry_space_group_name_H-M "C 2/M"
_symmetry_group_IT_number 12
_symmetry_cell_setting 'monoclinic'
loop_
_space_group_symop_operation_xyz
x,y,z
-x,y,-z
-x,-y,-z
x,-y,z
1/2+x,1/2+y,z
1/2-x,1/2+y,-z
1/2-x,1/2-y,-z
1/2+x,1/2-y,z
loop_
_atom_site_type_symbol
_atom_site_label
_atom_site_fract_x
_atom_site_fract_y
_atom_site_fract_z
Si Si1 0.288604 0.831056 0.019970
Si Si2 0.467743 0.617420 0.135870
Si Si3 0.658556 0.225648 0.490688
Si Si4 0.808145 0.293095 0.743105
Si Si5 0.294285 0.423606 0.721367
Si Si6 0.425165 0.628194 0.375679
O O1 0.222135 0.759525 0.141396
O O2 0.312471 0.877277 0.076413
O O3 0.129438 0.861558 0.158408
O O4 0.478645 0.816747 0.736146
O O5 0.323022 0.675679 0.298233
O O6 0.416004 0.586808 0.295859
O O7 0.500000 0.582654 0.000000
O O8 0.651554 0.654526 0.931058
O O9 0.679239 0.248503 0.363243
O O10 0.645427 0.296316 0.556635
O O11 0.000000 0.328877 0.500000
O O12 0.500000 0.420201 0.500000
O O13 0.232635 0.500000 0.804329
O O14 0.309462 0.401551 0.600818
#
# Coordination Sequence:
#
# PCOD9216495 Si02
#       6
#     8   8   8   8   8   8
#     4  11  19  31  54  78 109 142 178 226 271 327
#     4  10  23  33  46  75 111 144 176 220 273 323
#     4  11  20  31  47  78 108 147 178 215 274 328
#     4  11  18  31  48  74 108 138 174 217 266 327
#     4   9  19  35  56  83 110 141 183 228 272 317
#     4  11  18  32  53  75 106 145 181 221 270 324
#
# _framework density 21.266249999999999
#
# number of rings (size 3 to 8) (size 9 to 14) (size 15 to 20)
#    0.000    1.500    5.000    2.500    0.000    0.000 
#    0.000    0.833    0.000    2.500    0.000    3.500 
#    0.000   22.667    0.000    0.000    0.000    0.000 
#
# Total GULP energy -133786.047242 kJ/mol
# GULP energy per Si atom -5574.418635 kJ/mol
# Density = 2.121785 g / cm^3
# Si number density = 21.266250 Si / 1000 Ang^3
#
#
#
# Elastic Constant Matrix: (Units=GPa)
#
#
# Indices 1 2 3 4 5 6 
#
# 1 117.4834 11.9155 27.3511 0.0100 46.4886 -0.0057
# 2 11.9155 57.0375 18.8987 0.0205 7.4569 -0.0136
# 3 27.3511 18.8987 86.0776 0.0226 4.3834 -0.0162
# 4 0.0100 0.0205 0.0226 9.5131 -0.0095 3.8554
# 5 46.4886 7.4569 4.3834 -0.0095 50.5788 0.0060
# 6 -0.0057 -0.0136 -0.0162 3.8554 0.0060 5.5874
#
#
#
# Elastic Compliance Matrix: (Units=1/GPa)
#
#
# Indices 1 2 3 4 5 6 
#
# 1 0.014618 -0.000026 -0.003973 -0.000036 -0.013088 0.000042
# 2 -0.000026 0.019212 -0.004085 -0.000068 -0.002454 0.000085
# 3 -0.003973 -0.004085 0.013620 -0.000035 0.003073 0.000047
# 4 -0.000036 -0.000068 -0.000035 0.145925 0.000085 -0.100691
# 5 -0.013088 -0.002454 0.003073 0.000085 0.031896 -0.000104
# 6 0.000042 0.000085 0.000047 -0.100691 -0.000104 0.248452
#
#
# Mechanical properties :
#
#
# Convention : Reuss Voigt Hill
#
# Bulk Modulus (GPa) = 31.96625 41.88099 36.92362
# Shear Modulus (GPa) = 9.99362 26.63141 18.31251
#
# Velocity S-wave (km/s) = 2.17014 3.54260 2.93765
# Velocity P-wave (km/s) = 4.61989 6.03902 5.37648
#
# Compressibility (1/GPa) = 0.03128299
#
# Stress axis : x y z
#
# Youngs Moduli (GPa) = 68.40696 52.05032 73.42108
#
# Poissons Ratio (x) = 0.00138 0.29168
# Poissons Ratio (y) = 0.00181 0.29990
# Poissons Ratio (z) = 0.27176 0.21261
#
# Static dielectric constant tensor:
#      x y z
#    x 1.933920 -0.000010 0.032850 
#    y -0.000010 1.708930 0.000010 
#    z 0.032850 0.000010 1.785570 
# 
# From -- ./inp_files/89446.got.cif
#   From: 2010.05.17/outbox.cif.g08.bks.cpg/sg12_45_cif.got.tgz:89446.got - 2010.06.03 13:09:07.
