data_PCOD9216604
_publ_section_title
;
Structure prediction by ZEFSAII (Michael W. Deem and Ramdas Pophale) SiO2 
 PCOD9216604
Probable space group: C 2/M
;
_chemical_formula_sum "Si O2"
_cell_formula_units_Z 64
_cell_length_a 29.695855
_cell_length_b 21.797958
_cell_length_c 9.640712
_cell_angle_alpha 90.000000
_cell_angle_beta 151.774951
_cell_angle_gamma 90.000000
_cell_volume 2951.366490
_symmetry_space_group_name_H-M "C 2/M"
_symmetry_group_IT_number 12
_symmetry_cell_setting 'monoclinic'
loop_
_space_group_symop_operation_xyz
x,y,z
-x,y,-z
-x,-y,-z
x,-y,z
1/2+x,1/2+y,z
1/2-x,1/2+y,-z
1/2-x,1/2-y,-z
1/2+x,1/2-y,z
loop_
_atom_site_type_symbol
_atom_site_label
_atom_site_fract_x
_atom_site_fract_y
_atom_site_fract_z
Si Si1 0.140080 0.733170 0.719058
Si Si2 0.763595 0.069875 0.825332
Si Si3 0.145104 0.741664 0.045057
Si Si4 0.002004 0.669729 0.163979
Si Si5 0.794631 0.144548 0.466606
Si Si6 0.584847 0.378561 0.951026
Si Si7 0.628049 0.368929 0.629303
Si Si8 0.642388 0.927116 0.239475
O O1 0.100258 0.683107 0.507271
O O2 0.094714 0.798573 0.560772
O O3 0.250000 0.750000 0.000000
O O4 0.120568 0.717436 0.824717
O O5 0.678624 0.092057 0.492541
O O6 0.743595 0.000000 0.814263
O O7 0.850720 0.072046 0.952140
O O8 0.800407 0.108077 0.057355
O O9 0.251575 0.714112 0.357595
O O10 0.124092 0.814169 0.989482
O O11 0.075572 0.710686 0.965762
O O12 0.000000 0.689425 0.000000
O O13 0.961625 0.601118 0.064081
O O14 0.820734 0.128089 0.380336
O O15 0.712904 0.102964 0.316991
O O16 0.885980 0.133074 0.810603
O O17 0.475792 0.399191 0.643255
O O18 0.645569 0.000000 0.240048
#
# Coordination Sequence:
#
# PCOD9216604 Si02
#       8
#     8   8   8   8   8   8   8   8
#     4  12  25  40  62  94 139 176 211 267 334 405
#     4  10  23  42  65  91 124 173 228 274 328 394
#     4  11  22  40  62  89 134 176 214 270 331 403
#     4  11  26  40  68 102 131 170 223 275 331 399
#     4  10  23  38  62  96 128 170 222 272 338 395
#     4  11  22  37  60  88 129 175 219 270 332 394
#     4  12  23  37  60  94 133 172 219 274 334 399
#     4   9  22  48  72  93 130 175 226 281 328 387
#
# _framework density 21.684871000000001
#
# number of rings (size 3 to 8) (size 9 to 14) (size 15 to 20)
#    0.000    1.250    3.750    1.500    3.500    2.750 
#    0.000    0.000    0.000    9.750    0.000    0.000 
#    0.000    0.000    0.000    0.000    0.000    0.000 
#
# Total GULP energy -178678.181661 kJ/mol
# GULP energy per Si atom -5583.693177 kJ/mol
# Density = 2.163552 g / cm^3
# Si number density = 21.684871 Si / 1000 Ang^3
#
#
#
# Elastic Constant Matrix: (Units=GPa)
#
#
# Indices 1 2 3 4 5 6 
#
# 1 111.5604 19.3980 37.0907 0.0000 -30.8973 0.0000
# 2 19.3980 72.7283 31.8875 0.0000 -10.8989 0.0000
# 3 37.0907 31.8875 111.3258 0.0000 -9.6599 0.0000
# 4 0.0000 0.0000 0.0000 29.0077 0.0000 -5.1008
# 5 -30.8973 -10.8989 -9.6599 0.0000 42.4919 0.0000
# 6 0.0000 0.0000 0.0000 -5.1008 0.0000 13.4207
#
#
#
# Elastic Compliance Matrix: (Units=1/GPa)
#
#
# Indices 1 2 3 4 5 6 
#
# 1 0.012403 -0.000674 -0.003235 0.000000 0.008110 0.000000
# 2 -0.000674 0.016164 -0.004170 0.000000 0.002708 0.000000
# 3 -0.003235 -0.004170 0.011179 0.000000 -0.000881 0.000000
# 4 0.000000 0.000000 0.000000 0.036943 0.000000 0.014041
# 5 0.008110 0.002708 -0.000881 0.000000 0.029925 0.000000
# 6 0.000000 0.000000 0.000000 0.014041 0.000000 0.079848
#
#
# Mechanical properties :
#
#
# Convention : Reuss Voigt Hill
#
# Bulk Modulus (GPa) = 42.39893 52.48521 47.44207
# Shear Modulus (GPa) = 23.75491 30.79996 27.27743
#
# Velocity S-wave (km/s) = 3.31336 3.77283 3.55054
# Velocity P-wave (km/s) = 5.85086 6.57535 6.22366
#
# Compressibility (1/GPa) = 0.02358550
#
# Stress axis : x y z
#
# Youngs Moduli (GPa) = 80.62695 61.86654 89.45599
#
# Poissons Ratio (x) = 0.04171 0.28943
# Poissons Ratio (y) = 0.05435 0.37306
# Poissons Ratio (z) = 0.26086 0.25800
#
# Static dielectric constant tensor:
#      x y z
#    x 1.797840 0.000000 0.049520 
#    y 0.000000 1.826900 0.000000 
#    z 0.049520 0.000000 1.911000 
# 
# From -- ./inp_files/113664.got.cif
#   From: 2010.05.17/outbox.cif.g08.bks.cpg/sg12_57_cif.got.tgz:113664.got - 2010.06.03 13:09:07.
