data_PCOD9216481
_publ_section_title
;
Structure prediction by ZEFSAII (Michael W. Deem and Ramdas Pophale) SiO2 
 PCOD9216481
Probable space group: C 2/M
;
_chemical_formula_sum "Si O2"
_cell_formula_units_Z 30
_cell_length_a 9.439099
_cell_length_b 16.765040
_cell_length_c 10.708046
_cell_angle_alpha 90.000000
_cell_angle_beta 39.124719
_cell_angle_gamma 90.000000
_cell_volume 1069.256720
_symmetry_space_group_name_H-M "C 2/M"
_symmetry_group_IT_number 12
_symmetry_cell_setting 'monoclinic'
loop_
_space_group_symop_operation_xyz
x,y,z
-x,y,-z
-x,-y,-z
x,-y,z
1/2+x,1/2+y,z
1/2-x,1/2+y,-z
1/2-x,1/2-y,-z
1/2+x,1/2-y,z
loop_
_atom_site_type_symbol
_atom_site_label
_atom_site_fract_x
_atom_site_fract_y
_atom_site_fract_z
Si Si1 0.290218 0.591062 0.936937
Si Si2 0.654942 0.654564 0.501213
Si Si3 0.500000 0.221904 0.000000
Si Si4 0.000000 0.000000 0.500000
Si Si5 0.117765 0.652746 0.295881
O O1 0.270143 0.500000 0.901814
O O2 0.242881 0.591884 0.116699
O O3 0.123326 0.660039 0.005374
O O4 0.517863 0.624477 0.717291
O O5 0.500000 0.696045 0.500000
O O6 0.684655 0.570407 0.407221
O O7 0.605156 0.812041 0.621685
O O8 0.310638 0.281216 0.179871
O O9 0.000000 0.618188 0.500000
#
# Coordination Sequence:
#
# PCOD9216481 Si02
#       5
#     8   8   4   2   8
#     4  12  26  48  82 119 157 209 277 336 393 475
#     4  10  22  46  79 116 157 207 271 331 396 467
#     4  12  29  50  79 122 162 214 266 332 417 482
#     4   8  20  44  76 120 154 206 274 334 394 464
#     4  12  29  52  79 119 173 217 259 329 414 493
#
# _framework density 28.056874000000001
#
# number of rings (size 3 to 8) (size 9 to 14) (size 15 to 20)
#    0.800    0.000    1.333    4.400    1.867    5.867 
#    0.000    2.000    0.000    0.800    0.000    0.000 
#    0.000    3.200    0.000    0.000    0.000    0.000 
#
# Total GULP energy -83533.046434 kJ/mol
# GULP energy per Si atom -5568.869762 kJ/mol
# Density = 2.799302 g / cm^3
# Si number density = 28.056874 Si / 1000 Ang^3
#
#
#
# Elastic Constant Matrix: (Units=GPa)
#
#
# Indices 1 2 3 4 5 6 
#
# 1 126.7367 51.6616 56.8466 0.0013 -24.1124 -0.0022
# 2 51.6616 117.1665 60.1715 0.0011 -2.5879 -0.0010
# 3 56.8466 60.1715 257.5106 0.0012 7.6008 -0.0025
# 4 0.0013 0.0011 0.0012 9.9794 -0.0001 1.5292
# 5 -24.1124 -2.5879 7.6008 -0.0001 44.8981 0.0010
# 6 -0.0022 -0.0010 -0.0025 1.5292 0.0010 -18.2264
#
#
#
# Elastic Compliance Matrix: (Units=1/GPa)
#
#
# Indices 1 2 3 4 5 6 
#
# 1 0.011524 -0.004025 -0.001788 -0.000001 0.006260 -0.000001
# 2 -0.004025 0.011144 -0.001679 0.000000 -0.001235 0.000000
# 3 -0.001788 -0.001679 0.004725 0.000000 -0.001857 0.000000
# 4 -0.000001 0.000000 0.000000 0.098935 0.000000 0.008300
# 5 0.006260 -0.001235 -0.001857 0.000000 0.025878 0.000001
# 6 -0.000001 0.000000 0.000000 0.008300 0.000001 -0.054169
#
#
# Mechanical properties :
#
#
# Convention : Reuss Voigt Hill
#
# Bulk Modulus (GPa) = 80.58274 93.19702 86.88988
# Shear Modulus (GPa) = 42.67741 29.51249 36.09495
#
# Velocity S-wave (km/s) = 3.90436 3.24679 3.59066
# Velocity P-wave (km/s) = 7.00778 6.88076 6.94456
#
# Compressibility (1/GPa) = 0.01240961
#
# Stress axis : x y z
#
# Youngs Moduli (GPa) = 86.77560 89.73061 211.62644
#
# Poissons Ratio (x) = 0.36112 0.37846
# Poissons Ratio (y) = 0.34923 0.35536
# Poissons Ratio (z) = 0.15518 0.15068
#
# Static dielectric constant tensor:
#      x y z
#    x 2.318480 0.000000 0.029880 
#    y 0.000000 1.853420 0.000000 
#    z 0.029880 0.000000 2.285960 
# 
# From -- ./inp_files/130762.got.cif
#   From: 2010.05.17/outbox.cif.g08.bks.cpg/sg12_66_cif.got.tgz:130762.got - 2010.06.03 13:09:07.
