data_PCOD9216450
_publ_section_title
;
Structure prediction by ZEFSAII (Michael W. Deem and Ramdas Pophale) SiO2 
 PCOD9216450
Probable space group: C 2/M
;
_chemical_formula_sum "Si O2"
_cell_formula_units_Z 36
_cell_length_a 28.192365
_cell_length_b 13.761172
_cell_length_c 5.165283
_cell_angle_alpha 90.000000
_cell_angle_beta 136.986282
_cell_angle_gamma 90.000000
_cell_volume 1367.023130
_symmetry_space_group_name_H-M "C 2/M"
_symmetry_group_IT_number 12
_symmetry_cell_setting 'monoclinic'
loop_
_space_group_symop_operation_xyz
x,y,z
-x,y,-z
-x,-y,-z
x,-y,z
1/2+x,1/2+y,z
1/2-x,1/2+y,-z
1/2-x,1/2-y,-z
1/2+x,1/2-y,z
loop_
_atom_site_type_symbol
_atom_site_label
_atom_site_fract_x
_atom_site_fract_y
_atom_site_fract_z
Si Si1 0.950449 0.690731 0.550191
Si Si2 0.298453 0.361883 0.460857
Si Si3 0.580268 0.605036 0.398696
Si Si4 0.209634 0.367661 0.594968
Si Si5 0.113426 0.500000 0.492826
O O1 0.906478 0.792253 0.400583
O O2 0.908774 0.589364 0.398236
O O3 0.000000 0.697793 0.500000
O O4 0.000000 0.686203 0.000000
O O5 0.374612 0.393977 0.683070
O O6 0.257581 0.397880 0.547259
O O7 0.301083 0.245928 0.482073
O O8 0.252078 0.388757 0.026698
O O9 0.594279 0.500000 0.586208
O O10 0.500000 0.606471 0.000000
O O11 0.137626 0.417694 0.372192
#
# Coordination Sequence:
#
# PCOD9216450 Si02
#       5
#     8   8   8   8   4
#     4  11  26  46  69 100 139 180 225 282 340 403
#     4  10  22  46  62  99 131 178 220 276 327 399
#     4  10  23  45  71  98 133 179 234 283 337 397
#     4  10  24  39  70  94 137 173 220 268 338 398
#     4  12  24  46  68 110 133 186 218 286 332 432
#
# _framework density 26.334593999999999
#
# number of rings (size 3 to 8) (size 9 to 14) (size 15 to 20)
#    0.000    1.556    2.222    0.667    3.111    7.556 
#    0.000    4.444    0.000    0.000    0.000    0.000 
#    0.000    0.000    0.000    0.000    0.000    0.000 
#
# Total GULP energy -100275.459286 kJ/mol
# GULP energy per Si atom -5570.858849 kJ/mol
# Density = 2.627465 g / cm^3
# Si number density = 26.334594 Si / 1000 Ang^3
#
#
#
# Elastic Constant Matrix: (Units=GPa)
#
#
# Indices 1 2 3 4 5 6 
#
# 1 265.6712 81.4755 40.8515 0.0000 -34.4196 0.0000
# 2 81.4755 305.6064 -1.4322 0.0000 -13.8535 0.0000
# 3 40.8515 -1.4322 65.1899 0.0000 -17.3627 0.0000
# 4 0.0000 0.0000 0.0000 26.8644 0.0000 -7.9326
# 5 -34.4196 -13.8535 -17.3627 0.0000 43.8341 0.0000
# 6 0.0000 0.0000 0.0000 -7.9326 0.0000 266.3109
#
#
#
# Elastic Compliance Matrix: (Units=1/GPa)
#
#
# Indices 1 2 3 4 5 6 
#
# 1 0.004812 -0.001183 -0.002387 0.000000 0.002460 0.000000
# 2 -0.001183 0.003619 0.000982 0.000000 0.000604 0.000000
# 3 -0.002387 0.000982 0.018379 0.000000 0.005716 0.000000
# 4 0.000000 0.000000 0.000000 0.037554 0.000000 0.001119
# 5 0.002460 0.000604 0.005716 0.000000 0.027200 0.000000
# 6 0.000000 0.000000 0.000000 0.001119 0.000000 0.003788
#
#
# Mechanical properties :
#
#
# Convention : Reuss Voigt Hill
#
# Bulk Modulus (GPa) = 46.21968 97.58413 71.90190
# Shear Modulus (GPa) = 46.40752 101.77340 74.09046
#
# Velocity S-wave (km/s) = 4.20244 6.22336 5.30993
# Velocity P-wave (km/s) = 6.41377 9.42211 8.05955
#
# Compressibility (1/GPa) = 0.02163581
#
# Stress axis : x y z
#
# Youngs Moduli (GPa) = 207.79632 276.28357 54.40877
#
# Poissons Ratio (x) = 0.32676 0.12985
# Poissons Ratio (y) = 0.24576 -0.05340
# Poissons Ratio (z) = 0.49592 -0.27118
#
# Static dielectric constant tensor:
#      x y z
#    x 2.017080 0.000000 0.064130 
#    y 0.000000 1.760090 0.000000 
#    z 0.064130 0.000000 2.232580 
# 
# From -- ./inp_files/24167.got.cif
#   From: 2010.05.17/outbox.cif.g08.bks.cpg/sg12_13_cif.got.tgz:24167.got - 2010.06.03 13:09:07.
