data_PCOD9216098
_publ_section_title
;
Structure prediction by ZEFSAII (Michael W. Deem and Ramdas Pophale) SiO2 
 PCOD9216098
Probable space group: C 2/M
;
_chemical_formula_sum "Si O2"
_cell_formula_units_Z 48
_cell_length_a 10.941780
_cell_length_b 25.776808
_cell_length_c 15.146915
_cell_angle_alpha 90.000000
_cell_angle_beta 144.706879
_cell_angle_gamma 90.000000
_cell_volume 2468.246326
_symmetry_space_group_name_H-M "C 2/M"
_symmetry_group_IT_number 12
_symmetry_cell_setting 'monoclinic'
loop_
_space_group_symop_operation_xyz
x,y,z
-x,y,-z
-x,-y,-z
x,-y,z
1/2+x,1/2+y,z
1/2-x,1/2+y,-z
1/2-x,1/2-y,-z
1/2+x,1/2-y,z
loop_
_atom_site_type_symbol
_atom_site_label
_atom_site_fract_x
_atom_site_fract_y
_atom_site_fract_z
Si Si1 0.222770 0.057501 0.682409
Si Si2 0.215724 0.687206 0.075080
Si Si3 0.004098 0.000000 0.852450
Si Si4 0.012676 0.093969 0.291661
Si Si5 0.742285 0.306282 0.112111
Si Si6 0.070454 0.608145 0.345067
Si Si7 0.334851 0.000000 0.193850
O O1 0.157820 0.068070 0.743069
O O2 0.346889 0.103465 0.707607
O O3 0.000000 0.055315 0.500000
O O4 0.319006 0.000000 0.729817
O O5 0.405111 0.647494 0.202333
O O6 0.266808 0.744738 0.142528
O O7 0.207422 0.688870 0.963201
O O8 0.000000 0.671474 0.000000
O O9 0.846657 0.000000 0.840569
O O10 0.964047 0.051713 0.771539
O O11 0.230843 0.000000 0.034933
O O12 0.230449 0.106446 0.471542
O O13 0.907638 0.344580 0.257720
O O14 0.500000 0.319481 0.000000
O O15 0.959884 0.552486 0.287834
#
# Coordination Sequence:
#
# PCOD9216098 Si02
#       7
#     8   8   4   8   8   8   4
#     4   9  17  34  56  84 121 154 186 235 301 354
#     4  10  22  43  65  88 120 162 208 252 301 370
#     4  11  25  40  57  88 123 165 206 244 293 370
#     4  11  22  38  64  93 121 153 206 257 298 356
#     4  10  23  42  64  87 122 165 203 250 313 366
#     4  11  22  38  63  91 123 161 198 252 308 355
#     4  11  25  40  57  82 127 170 201 238 305 369
#
# _framework density 19.447005000000001
#
# number of rings (size 3 to 8) (size 9 to 14) (size 15 to 20)
#    0.000    1.667    1.667    2.500    4.667    2.000 
#    0.000    1.250    0.000    6.000    0.000    0.000 
#    0.000    0.000    0.000    0.000    0.000    0.000 
#
# Total GULP energy -133762.567022 kJ/mol
# GULP energy per Si atom -5573.440293 kJ/mol
# Density = 1.940274 g / cm^3
# Si number density = 19.447005 Si / 1000 Ang^3
#
#
#
# Elastic Constant Matrix: (Units=GPa)
#
#
# Indices 1 2 3 4 5 6 
#
# 1 89.1989 23.3659 35.8996 -0.0001 4.4385 0.0000
# 2 23.3659 128.9959 87.5797 0.0000 14.9665 0.0000
# 3 35.8996 87.5797 104.7659 -0.0003 11.7637 0.0000
# 4 -0.0001 0.0000 -0.0003 -61.6332 -0.0002 -5.5237
# 5 4.4385 14.9665 11.7637 -0.0002 27.0604 -0.0001
# 6 0.0000 0.0000 0.0000 -5.5237 -0.0001 -5.5543
#
#
#
# Elastic Compliance Matrix: (Units=1/GPa)
#
#
# Indices 1 2 3 4 5 6 
#
# 1 0.013147 0.001615 -0.005795 0.000000 -0.000530 0.000000
# 2 0.001615 0.018460 -0.015569 0.000000 -0.003707 0.000000
# 3 -0.005795 -0.015569 0.024677 0.000000 -0.001166 0.000000
# 4 0.000000 0.000000 0.000000 -0.017813 0.000000 0.017715
# 5 -0.000530 -0.003707 -0.001166 0.000000 0.039598 0.000000
# 6 0.000000 0.000000 0.000000 0.017715 0.000000 -0.197659
#
#
# Mechanical properties :
#
#
# Convention : Reuss Voigt Hill
#
# Bulk Modulus (GPa) = 59.57808 68.51678 64.04743
# Shear Modulus (GPa) = -67.11678 3.71562 -31.70058
#
# Velocity S-wave (km/s) = -5.88112 1.38376 -4.04183
# Velocity P-wave (km/s) = 3.92609 6.15322 3.35022
#
# Compressibility (1/GPa) = 0.01678470
#
# Stress axis : x y z
#
# Youngs Moduli (GPa) = 76.06479 54.17137 40.52408
#
# Poissons Ratio (x) = -0.08747 0.23485
# Poissons Ratio (y) = -0.12282 0.63091
# Poissons Ratio (z) = 0.44081 0.84338
#
# Static dielectric constant tensor:
#      x y z
#    x 1.758660 0.000000 0.010480 
#    y 0.000000 1.688920 0.000000 
#    z 0.010480 0.000000 1.669720 
# 
# From -- ./inp_files/209489.got.cif
#   From: 2010.05.17/outbox.cif.g08.bks.cpg/sg12_105_cif.got.tgz:209489.got - 2010.06.03 13:09:07.
