data_PCOD9216724
_publ_section_title
;
Structure prediction by ZEFSAII (Michael W. Deem and Ramdas Pophale) SiO2 
 PCOD9216724
Probable space group: C 2/M
;
_chemical_formula_sum "Si O2"
_cell_formula_units_Z 56
_cell_length_a 30.528807
_cell_length_b 8.846210
_cell_length_c 12.779372
_cell_angle_alpha 90.000000
_cell_angle_beta 74.528305
_cell_angle_gamma 90.000000
_cell_volume 3326.186139
_symmetry_space_group_name_H-M "C 2/M"
_symmetry_group_IT_number 12
_symmetry_cell_setting 'monoclinic'
loop_
_space_group_symop_operation_xyz
x,y,z
-x,y,-z
-x,-y,-z
x,-y,z
1/2+x,1/2+y,z
1/2-x,1/2+y,-z
1/2-x,1/2-y,-z
1/2+x,1/2-y,z
loop_
_atom_site_type_symbol
_atom_site_label
_atom_site_fract_x
_atom_site_fract_y
_atom_site_fract_z
Si Si1 0.190865 0.679409 0.362173
Si Si2 0.945610 0.681052 0.416496
Si Si3 0.297039 0.820070 0.012916
Si Si4 0.138273 0.179815 0.198479
Si Si5 0.295881 0.320321 0.240068
Si Si6 0.645795 0.680574 0.595748
Si Si7 0.950292 0.681129 0.660834
O O1 0.181636 0.500000 0.361054
O O2 0.165157 0.761619 0.283841
O O3 0.244639 0.703906 0.314398
O O4 0.172740 0.741546 0.483411
O O5 0.940211 0.500000 0.408857
O O6 0.906084 0.765669 0.380733
O O7 0.941435 0.714686 0.543443
O O8 0.997119 0.719988 0.351470
O O9 0.302465 0.770696 0.129401
O O10 0.294926 0.000000 0.004004
O O11 0.250000 0.750000 0.000000
O O12 0.337420 0.754972 0.916155
O O13 0.086563 0.233301 0.246979
O O14 0.141372 0.000000 0.189870
O O15 0.300310 0.500000 0.214933
O O16 0.330939 0.279006 0.309147
O O17 0.648746 0.500000 0.581537
O O18 0.945139 0.500000 0.676524
#
# Coordination Sequence:
#
# PCOD9216724 Si02
#       7
#     8   8   8   8   8   8   8
#     4  11  21  35  55  78 112 154 189 224 271 328
#     4   9  18  33  55  80 111 148 184 224 275 332
#     4  12  24  39  60  82 108 146 189 233 276 323
#     4  12  23  35  56  85 115 145 181 229 282 329
#     4  10  23  40  56  78 112 152 190 230 274 328
#     4  11  22  35  54  83 117 149 185 229 278 329
#     4   9  18  34  55  81 111 146 184 226 276 330
#
# _framework density 16.836098
#
# number of rings (size 3 to 8) (size 9 to 14) (size 15 to 20)
#    0.000    1.429    2.857    4.714    0.000    2.286 
#    0.000    1.429    0.000    0.857    0.000    6.000 
#    0.000    0.000    0.000    0.000    0.000    0.000 
#
# Total GULP energy -156466.087869 kJ/mol
# GULP energy per Si atom -5588.074567 kJ/mol
# Density = 1.679778 g / cm^3
# Si number density = 16.836098 Si / 1000 Ang^3
#
#
#
# Elastic Constant Matrix: (Units=GPa)
#
#
# Indices 1 2 3 4 5 6 
#
# 1 117.9545 74.2848 80.6336 0.0000 -9.0012 0.0000
# 2 74.2848 101.7337 70.4408 0.0000 -4.5380 0.0000
# 3 80.6336 70.4408 109.2645 0.0000 -3.6615 0.0000
# 4 0.0000 0.0000 0.0000 28.9216 0.0000 -2.1894
# 5 -9.0012 -4.5380 -3.6615 0.0000 25.8304 0.0000
# 6 0.0000 0.0000 0.0000 -2.1894 0.0000 28.8074
#
#
#
# Elastic Compliance Matrix: (Units=1/GPa)
#
#
# Indices 1 2 3 4 5 6 
#
# 1 0.020633 -0.008001 -0.009922 0.000000 0.004378 0.000000
# 2 -0.008001 0.020916 -0.007586 0.000000 -0.000189 0.000000
# 3 -0.009922 -0.007586 0.021305 0.000000 -0.001770 0.000000
# 4 0.000000 0.000000 0.000000 0.034776 0.000000 0.002643
# 5 0.004378 -0.000189 -0.001770 0.000000 0.039956 0.000000
# 6 0.000000 0.000000 0.000000 0.002643 0.000000 0.034914
#
#
# Mechanical properties :
#
#
# Convention : Reuss Voigt Hill
#
# Bulk Modulus (GPa) = 84.48171 86.63013 85.55592
# Shear Modulus (GPa) = 21.98144 23.61810 22.79977
#
# Velocity S-wave (km/s) = 3.61725 3.74949 3.68396
# Velocity P-wave (km/s) = 8.23006 8.38520 8.30799
#
# Compressibility (1/GPa) = 0.01183688
#
# Stress axis : x y z
#
# Youngs Moduli (GPa) = 48.46505 47.81027 46.93637
#
# Poissons Ratio (x) = 0.38253 0.46570
# Poissons Ratio (y) = 0.38777 0.35606
# Poissons Ratio (z) = 0.48087 0.36269
#
# Static dielectric constant tensor:
#      x y z
#    x 1.565230 0.000000 -0.010570 
#    y 0.000000 1.562880 0.000000 
#    z -0.010570 0.000000 1.540330 
# 
# From -- ./inp_files/186388.got.cif
#   From: 2010.05.17/outbox.cif.g08.bks.cpg/sg12_94_cif.got.tgz:186388.got - 2010.06.03 13:09:07.
