data_PCOD9216379
_publ_section_title
;
Structure prediction by ZEFSAII (Michael W. Deem and Ramdas Pophale) SiO2 
 PCOD9216379
Probable space group: C 2/M
;
_chemical_formula_sum "Si O2"
_cell_formula_units_Z 44
_cell_length_a 14.833402
_cell_length_b 11.216174
_cell_length_c 16.450092
_cell_angle_alpha 90.000000
_cell_angle_beta 123.337419
_cell_angle_gamma 90.000000
_cell_volume 2286.512523
_symmetry_space_group_name_H-M "C 2/M"
_symmetry_group_IT_number 12
_symmetry_cell_setting 'monoclinic'
loop_
_space_group_symop_operation_xyz
x,y,z
-x,y,-z
-x,-y,-z
x,-y,z
1/2+x,1/2+y,z
1/2-x,1/2+y,-z
1/2-x,1/2-y,-z
1/2+x,1/2-y,z
loop_
_atom_site_type_symbol
_atom_site_label
_atom_site_fract_x
_atom_site_fract_y
_atom_site_fract_z
Si Si1 0.101446 0.641847 0.608798
Si Si2 0.666644 0.000000 0.306787
Si Si3 0.719047 0.363421 0.929779
Si Si4 0.879818 0.500000 0.905411
Si Si5 0.539806 0.698916 0.715563
Si Si6 0.089513 0.000000 0.611868
Si Si7 0.304838 0.746665 0.615364
O O1 0.115166 0.500000 0.608044
O O2 0.069326 0.677185 0.684945
O O3 0.211744 0.703593 0.631051
O O4 0.000000 0.677002 0.500000
O O5 0.623747 0.000000 0.193461
O O6 0.643851 0.875399 0.337857
O O7 0.795704 0.000000 0.371711
O O8 0.709252 0.500000 0.961569
O O9 0.812000 0.388132 0.907878
O O10 0.609491 0.328141 0.829434
O O11 0.750000 0.250000 0.000000
O O12 0.000000 0.500000 0.000000
O O13 0.579852 0.611167 0.665370
O O14 0.414120 0.670658 0.666883
O O15 0.000000 0.000000 0.500000
O O16 0.250000 0.750000 0.500000
#
# Coordination Sequence:
#
# PCOD9216379 Si02
#       7
#     8   4   8   4   8   4   8
#     4  11  24  42  58  89 138 174 214 274 329 394
#     4  12  24  44  62  98 130 167 234 271 318 417
#     4  10  23  44  69 100 131 164 223 283 345 404
#     4  10  22  44  72  96 124 174 222 283 343 410
#     4  12  23  42  64  94 132 174 218 277 329 401
#     4  12  20  40  66  89 130 174 211 267 330 387
#     4  12  26  38  65  96 129 180 226 262 334 402
#
# _framework density 19.243279999999999
#
# number of rings (size 3 to 8) (size 9 to 14) (size 15 to 20)
#    0.545    0.182    6.364    1.636    6.364    0.727 
#    0.000    0.000    0.000    0.545    0.000    0.000 
#    0.000    0.000    0.000    0.000    0.000    0.000 
#
# Total GULP energy -122639.856900 kJ/mol
# GULP energy per Si atom -5574.538950 kJ/mol
# Density = 1.919948 g / cm^3
# Si number density = 19.243280 Si / 1000 Ang^3
#
#
#
# Elastic Constant Matrix: (Units=GPa)
#
#
# Indices 1 2 3 4 5 6 
#
# 1 98.6020 7.7809 15.5071 0.0000 17.5696 0.0000
# 2 7.7809 80.3913 22.3439 0.0000 -18.6446 0.0000
# 3 15.5071 22.3439 131.0865 0.0000 3.9633 0.0000
# 4 0.0000 0.0000 0.0000 21.8065 0.0000 5.3284
# 5 17.5696 -18.6446 3.9633 0.0000 32.5138 0.0000
# 6 0.0000 0.0000 0.0000 5.3284 0.0000 43.9550
#
#
#
# Elastic Compliance Matrix: (Units=1/GPa)
#
#
# Indices 1 2 3 4 5 6 
#
# 1 0.011887 -0.002802 -0.000688 0.000000 -0.007946 0.000000
# 2 -0.002802 0.016031 -0.002735 0.000000 0.011040 0.000000
# 3 -0.000688 -0.002735 0.008243 0.000000 -0.002201 0.000000
# 4 0.000000 0.000000 0.000000 0.047258 0.000000 -0.005729
# 5 -0.007946 0.011040 -0.002201 0.000000 0.041649 0.000000
# 6 0.000000 0.000000 0.000000 -0.005729 0.000000 0.023445
#
#
# Mechanical properties :
#
#
# Convention : Reuss Voigt Hill
#
# Bulk Modulus (GPa) = 42.17601 44.59374 43.38488
# Shear Modulus (GPa) = 29.60911 37.28493 33.44702
#
# Velocity S-wave (km/s) = 3.92685 4.40654 4.17359
# Velocity P-wave (km/s) = 6.52112 7.00815 6.76902
#
# Compressibility (1/GPa) = 0.02371016
#
# Stress axis : x y z
#
# Youngs Moduli (GPa) = 84.12475 62.37912 121.31982
#
# Poissons Ratio (x) = 0.17480 0.08351
# Poissons Ratio (y) = 0.23573 0.33179
# Poissons Ratio (z) = 0.05790 0.17060
#
# Static dielectric constant tensor:
#      x y z
#    x 1.654460 0.000000 0.003170 
#    y 0.000000 1.750200 0.000000 
#    z 0.003170 0.000000 1.646870 
# 
# From -- ./inp_files/269024.got.cif
#   From: 2010.05.17/outbox.cif.g08.bks.cpg/sg12_135_cif.got.tgz:269024.got - 2010.06.03 13:09:07.
