data_PCOD9216350
_publ_section_title
;
Structure prediction by ZEFSAII (Michael W. Deem and Ramdas Pophale) SiO2 
 PCOD9216350
Probable space group: C 2/M
;
_chemical_formula_sum "Si O2"
_cell_formula_units_Z 64
_cell_length_a 30.537341
_cell_length_b 14.079335
_cell_length_c 9.480842
_cell_angle_alpha 90.000000
_cell_angle_beta 134.151295
_cell_angle_gamma 90.000000
_cell_volume 2924.717886
_symmetry_space_group_name_H-M "C 2/M"
_symmetry_group_IT_number 12
_symmetry_cell_setting 'monoclinic'
loop_
_space_group_symop_operation_xyz
x,y,z
-x,y,-z
-x,-y,-z
x,-y,z
1/2+x,1/2+y,z
1/2-x,1/2+y,-z
1/2-x,1/2-y,-z
1/2+x,1/2-y,z
loop_
_atom_site_type_symbol
_atom_site_label
_atom_site_fract_x
_atom_site_fract_y
_atom_site_fract_z
Si Si1 0.042447 0.894896 0.231458
Si Si2 0.070069 0.603121 0.701433
Si Si3 0.571520 0.889325 0.143099
Si Si4 0.640233 0.724120 0.119230
Si Si5 0.852074 0.392743 0.403665
Si Si6 0.251142 0.739581 0.171833
Si Si7 0.030209 0.199582 0.718367
Si Si8 0.815745 0.107458 0.528417
O O1 0.112647 0.891687 0.349578
O O2 0.025483 0.812535 0.300746
O O3 0.029991 0.000000 0.267256
O O4 0.000000 0.885643 0.000000
O O5 0.090795 0.500000 0.805325
O O6 0.112629 0.627186 0.663595
O O7 0.059980 0.696655 0.769892
O O8 0.000000 0.589830 0.500000
O O9 0.608758 0.810998 0.136520
O O10 0.599884 0.889060 0.362389
O O11 0.575641 0.000000 0.100362
O O12 0.500000 0.865624 0.000000
O O13 0.684779 0.752197 0.091556
O O14 0.684211 0.671489 0.331391
O O15 0.587663 0.654604 0.933556
O O16 0.828375 0.500000 0.338601
O O17 0.797558 0.323040 0.317281
O O18 0.279853 0.647632 0.312765
O O19 0.250000 0.750000 0.000000
O O20 0.000000 0.171930 0.500000
O O21 0.796106 0.000000 0.514983
#
# Coordination Sequence:
#
# PCOD9216350 Si02
#       8
#     8   8   8   8   8   8   8   8
#     4  10  22  44  70 101 137 180 232 289 357 421
#     4   9  20  36  59  95 136 180 225 272 348 427
#     4  10  24  42  70 110 146 181 231 294 361 433
#     4  12  26  44  71 108 140 188 240 299 351 433
#     4  10  22  44  70  98 142 188 228 289 358 426
#     4  12  28  48  71 104 144 186 249 297 360 423
#     4  11  25  38  69 103 141 184 222 291 360 416
#     4  11  26  48  75 100 136 189 241 293 354 428
#
# _framework density 21.882452000000001
#
# number of rings (size 3 to 8) (size 9 to 14) (size 15 to 20)
#    0.000    1.375    2.500    1.125   10.500    2.250 
#    0.000    0.000    0.000    0.375    0.000    0.000 
#    0.000    0.000    0.000    0.000    0.000    0.000 
#
# Total GULP energy -178476.894555 kJ/mol
# GULP energy per Si atom -5577.402955 kJ/mol
# Density = 2.183265 g / cm^3
# Si number density = 21.882452 Si / 1000 Ang^3
#
#
#
# Elastic Constant Matrix: (Units=GPa)
#
#
# Indices 1 2 3 4 5 6 
#
# 1 101.2617 59.1620 11.4816 0.0000 -11.8336 0.0000
# 2 59.1620 81.3135 25.7219 0.0000 -8.0720 0.0000
# 3 11.4816 25.7219 99.8853 0.0000 -16.5003 0.0000
# 4 0.0000 0.0000 0.0000 35.1974 0.0000 43.6438
# 5 -11.8336 -8.0720 -16.5003 0.0000 40.3747 0.0000
# 6 0.0000 0.0000 0.0000 43.6438 0.0000 156.8446
#
#
#
# Elastic Compliance Matrix: (Units=1/GPa)
#
#
# Indices 1 2 3 4 5 6 
#
# 1 0.017757 -0.013191 0.001909 0.000000 0.003347 0.000000
# 2 -0.013191 0.023258 -0.004658 0.000000 -0.001120 0.000000
# 3 0.001909 -0.004658 0.011721 0.000000 0.004418 0.000000
# 4 0.000000 0.000000 0.000000 0.043378 0.000000 -0.012070
# 5 0.003347 -0.001120 0.004418 0.000000 0.027331 0.000000
# 6 0.000000 0.000000 0.000000 -0.012070 0.000000 0.009734
#
#
# Mechanical properties :
#
#
# Convention : Reuss Voigt Hill
#
# Bulk Modulus (GPa) = 47.94858 52.79905 50.37381
# Shear Modulus (GPa) = 29.06761 58.88969 43.97865
#
# Velocity S-wave (km/s) = 3.64861 5.19329 4.48791
# Velocity P-wave (km/s) = 6.30153 7.75508 7.06578
#
# Compressibility (1/GPa) = 0.02085567
#
# Stress axis : x y z
#
# Youngs Moduli (GPa) = 56.31561 42.99603 85.31355
#
# Poissons Ratio (x) = 0.56717 -0.16284
# Poissons Ratio (y) = 0.74287 0.39739
# Poissons Ratio (z) = -0.10749 0.20027
#
# Static dielectric constant tensor:
#      x y z
#    x 1.757560 0.000000 -0.012970 
#    y 0.000000 1.932960 0.000000 
#    z -0.012970 0.000000 1.964580 
# 
# From -- ./inp_files/112015.got.cif
#   From: 2010.05.17/outbox.cif.g08.bks.cpg/sg12_57_cif.got.tgz:112015.got - 2010.06.03 13:09:07.
