data_PCOD9216199
_publ_section_title
;
Structure prediction by ZEFSAII (Michael W. Deem and Ramdas Pophale) SiO2 
 PCOD9216199
Probable space group: C 2/M
;
_chemical_formula_sum "Si O2"
_cell_formula_units_Z 48
_cell_length_a 26.671214
_cell_length_b 19.737053
_cell_length_c 8.118858
_cell_angle_alpha 90.000000
_cell_angle_beta 32.870177
_cell_angle_gamma 90.000000
_cell_volume 2319.582074
_symmetry_space_group_name_H-M "C 2/M"
_symmetry_group_IT_number 12
_symmetry_cell_setting 'monoclinic'
loop_
_space_group_symop_operation_xyz
x,y,z
-x,y,-z
-x,-y,-z
x,-y,z
1/2+x,1/2+y,z
1/2-x,1/2+y,-z
1/2-x,1/2-y,-z
1/2+x,1/2-y,z
loop_
_atom_site_type_symbol
_atom_site_label
_atom_site_fract_x
_atom_site_fract_y
_atom_site_fract_z
Si Si1 0.581067 0.820249 0.378747
Si Si2 0.562543 0.293051 0.673287
Si Si3 0.255002 0.206937 0.314466
Si Si4 0.477331 0.422114 0.754923
Si Si5 0.235591 0.921242 0.572872
Si Si6 0.596490 0.080470 0.637337
O O1 0.500000 0.855137 0.500000
O O2 0.538824 0.756063 0.589976
O O3 0.611121 0.872864 0.437096
O O4 0.656804 0.789355 0.046590
O O5 0.666297 0.279810 0.446042
O O6 0.538784 0.369502 0.686967
O O7 0.500000 0.275192 0.000000
O O8 0.250000 0.250000 0.500000
O O9 0.251902 0.129021 0.378959
O O10 0.500000 0.416428 0.500000
O O11 0.493656 0.500000 0.761548
O O12 0.368368 0.407182 0.077538
O O13 0.315615 0.908686 0.486046
O O14 0.240572 0.000000 0.513313
O O15 0.592521 0.000000 0.607981
O O16 0.500000 0.096953 0.000000
#
# Coordination Sequence:
#
# PCOD9216199 Si02
#       6
#     8   8   8   8   8   8
#     4  12  26  42  64  94 128 169 220 270 320 381
#     4  12  24  42  66  94 131 171 214 263 319 387
#     4  12  26  42  64  95 131 173 217 268 319 379
#     4  10  23  41  67  98 132 171 211 260 324 392
#     4  10  22  43  68  97 133 170 210 265 327 389
#     4  10  22  43  70  96 129 170 214 269 332 389
#
# _framework density 20.693382
#
# number of rings (size 3 to 8) (size 9 to 14) (size 15 to 20)
#    0.000    1.000    1.667    4.500    4.667    2.000 
#    0.000    0.000    0.000    0.000    0.000    0.000 
#    0.000    0.000    0.000    0.000    0.000    0.000 
#
# Total GULP energy -134149.631532 kJ/mol
# GULP energy per Si atom -5589.567980 kJ/mol
# Density = 2.064628 g / cm^3
# Si number density = 20.693382 Si / 1000 Ang^3
#
#
#
# Elastic Constant Matrix: (Units=GPa)
#
#
# Indices 1 2 3 4 5 6 
#
# 1 51.2071 25.4715 12.9245 0.0000 1.5435 0.0000
# 2 25.4715 58.9987 18.4887 0.0000 9.2208 0.0000
# 3 12.9245 18.4887 90.8047 0.0000 20.7849 0.0000
# 4 0.0000 0.0000 0.0000 23.4257 0.0000 3.7213
# 5 1.5435 9.2208 20.7849 0.0000 39.3398 0.0000
# 6 0.0000 0.0000 0.0000 3.7213 0.0000 49.1906
#
#
#
# Elastic Compliance Matrix: (Units=1/GPa)
#
#
# Indices 1 2 3 4 5 6 
#
# 1 0.025273 -0.010683 -0.002011 0.000000 0.002575 0.000000
# 2 -0.010683 0.022860 -0.002279 0.000000 -0.003735 0.000000
# 3 -0.002011 -0.002279 0.013222 0.000000 -0.006372 0.000000
# 4 0.000000 0.000000 0.000000 0.043207 0.000000 -0.003269
# 5 0.002575 -0.003735 -0.006372 0.000000 0.029561 0.000000
# 6 0.000000 0.000000 0.000000 -0.003269 0.000000 0.020576
#
#
# Mechanical properties :
#
#
# Convention : Reuss Voigt Hill
#
# Bulk Modulus (GPa) = 31.84016 34.97555 33.40786
# Shear Modulus (GPa) = 25.62601 31.99959 28.81280
#
# Velocity S-wave (km/s) = 3.52286 3.93666 3.73549
# Velocity P-wave (km/s) = 5.65398 6.13201 5.89784
#
# Compressibility (1/GPa) = 0.03140687
#
# Stress axis : x y z
#
# Youngs Moduli (GPa) = 39.56856 43.74525 75.63383
#
# Poissons Ratio (x) = 0.46733 0.15213
# Poissons Ratio (y) = 0.42271 0.17237
# Poissons Ratio (z) = 0.07959 0.09970
#
# Static dielectric constant tensor:
#      x y z
#    x 1.705160 0.000000 -0.034940 
#    y 0.000000 1.747370 0.000000 
#    z -0.034940 0.000000 1.760510 
# 
# From -- ./inp_files/106517.got.cif
#   From: 2010.05.17/outbox.cif.g08.bks.cpg/sg12_54_cif.got.tgz:106517.got - 2010.06.03 13:09:07.
