data_PCOD9216463
_publ_section_title
;
Structure prediction by ZEFSAII (Michael W. Deem and Ramdas Pophale) SiO2 
 PCOD9216463
Probable space group: C 2/M
;
_chemical_formula_sum "Si O2"
_cell_formula_units_Z 56
_cell_length_a 14.948662
_cell_length_b 30.849817
_cell_length_c 5.202671
_cell_angle_alpha 90.000000
_cell_angle_beta 95.354351
_cell_angle_gamma 90.000000
_cell_volume 2388.812939
_symmetry_space_group_name_H-M "C 2/M"
_symmetry_group_IT_number 12
_symmetry_cell_setting 'monoclinic'
loop_
_space_group_symop_operation_xyz
x,y,z
-x,y,-z
-x,-y,-z
x,-y,z
1/2+x,1/2+y,z
1/2-x,1/2+y,-z
1/2-x,1/2-y,-z
1/2+x,1/2-y,z
loop_
_atom_site_type_symbol
_atom_site_label
_atom_site_fract_x
_atom_site_fract_y
_atom_site_fract_z
Si Si1 0.923286 0.450003 0.669729
Si Si2 0.406090 0.602791 0.557035
Si Si3 0.397887 0.163295 0.035563
Si Si4 0.865099 0.948571 0.040543
Si Si5 0.333384 0.078515 0.170294
Si Si6 0.236350 0.175171 0.587505
Si Si7 0.827707 0.256552 0.227340
O O1 0.947368 0.500000 0.714777
O O2 0.842363 0.445895 0.444133
O O3 0.000000 0.430172 0.500000
O O4 0.899212 0.432922 0.945685
O O5 0.500000 0.624822 0.500000
O O6 0.413872 0.578406 0.829354
O O7 0.320755 0.635221 0.535653
O O8 0.389868 0.567444 0.330181
O O9 0.317413 0.161272 0.801283
O O10 0.500000 0.150718 0.000000
O O11 0.357677 0.128766 0.227189
O O12 0.403682 0.213205 0.127699
O O13 0.762027 0.934475 0.967259
O O14 0.876649 0.000000 0.015152
O O15 0.158566 0.207389 0.683073
O O16 0.285364 0.210019 0.419608
O O17 0.750000 0.250000 0.000000
#
# Coordination Sequence:
#
# PCOD9216463 Si02
#       7
#     8   8   8   8   8   8   8
#     4  11  23  39  59  91 133 181 238 288 337 405
#     4  12  27  48  75 108 141 184 238 299 374 440
#     4  11  23  40  67 101 137 182 234 283 345 415
#     4  12  26  47  74 104 142 185 237 300 367 439
#     4  12  24  42  65  96 139 184 234 282 353 419
#     4  10  22  46  69  99 140 185 228 294 350 426
#     4   9  21  43  69  96 140 178 230 283 347 413
#
# _framework density 23.442603999999999
#
# number of rings (size 3 to 8) (size 9 to 14) (size 15 to 20)
#    0.000    1.000    1.429    5.143    4.000    3.429 
#    7.714    0.000    0.000    0.000    0.000    0.000 
#    0.000    0.000    0.000    0.000    0.000    0.000 
#
# Total GULP energy -156196.590637 kJ/mol
# GULP energy per Si atom -5578.449666 kJ/mol
# Density = 2.338925 g / cm^3
# Si number density = 23.442604 Si / 1000 Ang^3
#
#
#
# Elastic Constant Matrix: (Units=GPa)
#
#
# Indices 1 2 3 4 5 6 
#
# 1 111.2492 28.4686 8.5221 0.0000 -6.1876 0.0000
# 2 28.4686 123.8911 37.0408 0.0000 6.1636 0.0000
# 3 8.5221 37.0408 99.9248 0.0000 -0.5378 0.0000
# 4 0.0000 0.0000 0.0000 37.9044 0.0000 -1.2477
# 5 -6.1876 6.1636 -0.5378 0.0000 28.8867 0.0000
# 6 0.0000 0.0000 0.0000 -1.2477 0.0000 20.5147
#
#
#
# Elastic Compliance Matrix: (Units=1/GPa)
#
#
# Indices 1 2 3 4 5 6 
#
# 1 0.009739 -0.002388 0.000068 0.000000 0.002597 0.000000
# 2 -0.002388 0.009780 -0.003436 0.000000 -0.002662 0.000000
# 3 0.000068 -0.003436 0.011281 0.000000 0.000958 0.000000
# 4 0.000000 0.000000 0.000000 0.026435 0.000000 0.001608
# 5 0.002597 -0.002662 0.000958 0.000000 0.035760 0.000000
# 6 0.000000 0.000000 0.000000 0.001608 0.000000 0.048843
#
#
# Mechanical properties :
#
#
# Convention : Reuss Voigt Hill
#
# Bulk Modulus (GPa) = 51.84246 53.68091 52.76168
# Shear Modulus (GPa) = 31.29339 34.86338 33.07839
#
# Velocity S-wave (km/s) = 3.65758 3.86058 3.76045
# Velocity P-wave (km/s) = 6.32454 6.54375 6.43508
#
# Compressibility (1/GPa) = 0.01928921
#
# Stress axis : x y z
#
# Youngs Moduli (GPa) = 102.68009 102.24989 88.64831
#
# Poissons Ratio (x) = 0.24413 -0.00606
# Poissons Ratio (y) = 0.24515 0.30460
# Poissons Ratio (z) = -0.00702 0.35133
#
# Static dielectric constant tensor:
#      x y z
#    x 2.006590 0.000000 -0.053860 
#    y 0.000000 1.890590 0.000000 
#    z -0.053860 0.000000 1.936600 
# 
# From -- ./inp_files/13161.got.cif
#   From: 2010.05.17/outbox.cif.g08.bks.cpg/sg12_7_cif.got.tgz:13161.got - 2010.06.03 13:09:07.
