data_PCOD9216085
_publ_section_title
;
Structure prediction by ZEFSAII (Michael W. Deem and Ramdas Pophale) SiO2 
 PCOD9216085
Probable space group: C 2/M
;
_chemical_formula_sum "Si O2"
_cell_formula_units_Z 52
_cell_length_a 8.375891
_cell_length_b 14.590361
_cell_length_c 30.410796
_cell_angle_alpha 90.000000
_cell_angle_beta 37.058375
_cell_angle_gamma 90.000000
_cell_volume 2239.620476
_symmetry_space_group_name_H-M "C 2/M"
_symmetry_group_IT_number 12
_symmetry_cell_setting 'monoclinic'
loop_
_space_group_symop_operation_xyz
x,y,z
-x,y,-z
-x,-y,-z
x,-y,z
1/2+x,1/2+y,z
1/2-x,1/2+y,-z
1/2-x,1/2-y,-z
1/2+x,1/2-y,z
loop_
_atom_site_type_symbol
_atom_site_label
_atom_site_fract_x
_atom_site_fract_y
_atom_site_fract_z
Si Si1 0.519965 0.175808 0.871457
Si Si2 0.887394 0.000000 0.270649
Si Si3 0.448419 0.308028 0.298219
Si Si4 0.020101 0.198557 0.607128
Si Si5 0.244934 0.643007 0.918805
Si Si6 0.992095 0.500000 0.833793
Si Si7 0.258694 0.102845 0.473227
Si Si8 0.202270 0.000000 0.811732
O O1 0.319060 0.257956 0.920991
O O2 0.658794 0.149808 0.886769
O O3 0.374047 0.090455 0.881236
O O4 0.754589 0.202146 0.785437
O O5 0.823952 0.897697 0.302053
O O6 0.774135 0.000000 0.246093
O O7 0.203900 0.000000 0.214750
O O8 0.421741 0.325210 0.355767
O O9 0.295496 0.212486 0.325000
O O10 0.156836 0.127545 0.544531
O O11 0.113946 0.301099 0.571824
O O12 0.511842 0.585384 0.864002
O O13 0.000000 0.604561 0.000000
O O14 0.949721 0.500000 0.790712
O O15 0.000000 0.095385 0.500000
O O16 0.385948 0.000000 0.444418
#
# Coordination Sequence:
#
# PCOD9216085 Si02
#       8
#     8   4   8   8   8   4   8   4
#     4  11  23  45  66 100 144 175 234 298 346 417
#     4  10  24  47  64  98 143 172 232 290 339 424
#     4  11  23  42  67  95 136 171 223 283 340 406
#     4  11  23  41  66 100 126 181 223 270 342 405
#     4  12  24  43  69  99 137 187 238 289 352 421
#     4  10  22  44  71  96 137 182 219 276 367 411
#     4  10  22  43  64  93 138 172 221 279 323 401
#     4  12  23  45  70  99 137 188 225 290 360 409
#
# _framework density 23.218219999999999
#
# number of rings (size 3 to 8) (size 9 to 14) (size 15 to 20)
#    0.000    1.077    4.615    2.538    2.154    1.231 
#    0.000    1.923    1.692    0.000    0.000    0.000 
#    0.000    0.000    0.000    0.000    0.000    0.000 
#
# Total GULP energy -145145.155725 kJ/mol
# GULP energy per Si atom -5582.505989 kJ/mol
# Density = 2.316537 g / cm^3
# Si number density = 23.218220 Si / 1000 Ang^3
#
#
#
# Elastic Constant Matrix: (Units=GPa)
#
#
# Indices 1 2 3 4 5 6 
#
# 1 102.9310 8.8082 3.2863 0.0209 30.1245 0.0029
# 2 8.8082 81.8271 12.9781 -0.0045 -2.5594 -0.0010
# 3 3.2863 12.9781 51.1718 -0.0199 9.9126 0.0124
# 4 0.0209 -0.0045 -0.0199 -137.0884 0.0083 22.5376
# 5 30.1245 -2.5594 9.9126 0.0083 27.3119 -0.0025
# 6 0.0029 -0.0010 0.0124 22.5376 -0.0025 23.9474
#
#
#
# Elastic Compliance Matrix: (Units=1/GPa)
#
#
# Indices 1 2 3 4 5 6 
#
# 1 0.015153 -0.002710 0.003228 0.000000 -0.018139 -0.000005
# 2 -0.002710 0.013384 -0.004348 0.000001 0.005822 0.000003
# 3 0.003228 -0.004348 0.022810 -0.000005 -0.012246 -0.000009
# 4 0.000000 0.000001 -0.000005 -0.006317 0.000004 0.005945
# 5 -0.018139 0.005822 -0.012246 0.000004 0.061611 0.000011
# 6 -0.000005 0.000003 -0.000009 0.005945 0.000011 0.036163
#
#
# Mechanical properties :
#
#
# Convention : Reuss Voigt Hill
#
# Bulk Modulus (GPa) = 22.89083 31.78611 27.33847
# Shear Modulus (GPa) = 30.29807 -3.10866 13.59470
#
# Velocity S-wave (km/s) = 3.61630 -1.15836 2.42237
# Velocity P-wave (km/s) = 5.22659 3.45410 4.42990
#
# Compressibility (1/GPa) = 0.04368561
#
# Stress axis : x y z
#
# Youngs Moduli (GPa) = 65.99472 74.71389 43.84080
#
# Poissons Ratio (x) = 0.20251 -0.14152
# Poissons Ratio (y) = 0.17887 0.19063
# Poissons Ratio (z) = -0.21303 0.32487
#
# Static dielectric constant tensor:
#      x y z
#    x 1.879470 -0.000010 -0.048910 
#    y -0.000010 1.927400 0.000000 
#    z -0.048910 0.000000 1.935160 
# 
# From -- ./inp_files/372526.got.cif
#   From: 2010.05.17/outbox.cif.g08.bks.cpg/sg12_187_cif.got.tgz:372526.got - 2010.06.03 13:09:07.
