data_PCOD9216681
_publ_section_title
;
Structure prediction by ZEFSAII (Michael W. Deem and Ramdas Pophale) SiO2 
 PCOD9216681
Probable space group: C 2/M
;
_chemical_formula_sum "Si O2"
_cell_formula_units_Z 36
_cell_length_a 14.701369
_cell_length_b 10.712227
_cell_length_c 27.662595
_cell_angle_alpha 90.000000
_cell_angle_beta 26.647873
_cell_angle_gamma 90.000000
_cell_volume 1953.883901
_symmetry_space_group_name_H-M "C 2/M"
_symmetry_group_IT_number 12
_symmetry_cell_setting 'monoclinic'
loop_
_space_group_symop_operation_xyz
x,y,z
-x,y,-z
-x,-y,-z
x,-y,z
1/2+x,1/2+y,z
1/2-x,1/2+y,-z
1/2-x,1/2-y,-z
1/2+x,1/2-y,z
loop_
_atom_site_type_symbol
_atom_site_label
_atom_site_fract_x
_atom_site_fract_y
_atom_site_fract_z
Si Si1 0.141239 0.248229 0.782895
Si Si2 0.026986 0.000000 0.273176
Si Si3 0.420450 0.247413 0.377696
Si Si4 0.578581 0.500000 0.135597
Si Si5 0.225491 0.143387 0.380126
Si Si6 0.033625 0.500000 0.890024
O O1 0.360285 0.224046 0.703143
O O2 0.179346 0.280190 0.708697
O O3 0.050057 0.373108 0.850611
O O4 0.004621 0.125092 0.850376
O O5 0.002608 0.000000 0.227231
O O6 0.933434 0.120502 0.343720
O O7 0.267406 0.000000 0.170818
O O8 0.250000 0.250000 0.500000
O O9 0.356760 0.151635 0.366242
O O10 0.821483 0.500000 0.018412
O O11 0.000000 0.190367 0.500000
O O12 0.204098 0.000000 0.373870
#
# Coordination Sequence:
#
# PCOD9216681 Si02
#       6
#     8   4   8   4   8   4
#     4  11  23  40  62  92 121 158 202 249 306 358
#     4  10  23  39  63  87 117 160 205 245 300 358
#     4  11  23  38  59  90 126 156 192 241 299 368
#     4  12  23  41  63  90 119 155 208 271 301 328
#     4  11  22  38  61  86 123 168 196 232 297 374
#     4  10  23  44  63  82 118 168 209 244 303 373
#
# _framework density 18.424842000000002
#
# number of rings (size 3 to 8) (size 9 to 14) (size 15 to 20)
#    0.000    1.111    5.556    1.000    3.111    0.000 
#    0.000    2.222    0.000    1.333    0.000    0.000 
#    0.000    0.000    0.000    0.000    0.000    0.000 
#
# Total GULP energy -100524.162129 kJ/mol
# GULP energy per Si atom -5584.675674 kJ/mol
# Density = 1.838291 g / cm^3
# Si number density = 18.424842 Si / 1000 Ang^3
#
#
#
# Elastic Constant Matrix: (Units=GPa)
#
#
# Indices 1 2 3 4 5 6 
#
# 1 79.3988 17.2224 15.8542 0.0006 8.1670 0.0001
# 2 17.2224 98.1440 27.5540 -0.0001 -9.4417 0.0001
# 3 15.8542 27.5540 81.5615 -0.0009 -5.0280 0.0003
# 4 0.0006 -0.0001 -0.0009 10.9750 -0.0004 -1.1394
# 5 8.1670 -9.4417 -5.0280 -0.0004 19.3558 0.0000
# 6 0.0001 0.0001 0.0003 -1.1394 0.0000 29.3985
#
#
#
# Elastic Compliance Matrix: (Units=1/GPa)
#
#
# Indices 1 2 3 4 5 6 
#
# 1 0.014473 -0.002632 -0.002418 -0.000001 -0.008019 0.000000
# 2 -0.002632 0.012149 -0.003210 0.000000 0.006203 0.000000
# 3 -0.002418 -0.003210 0.014006 0.000001 0.003093 0.000000
# 4 -0.000001 0.000000 0.000001 0.091484 0.000003 0.003546
# 5 -0.008019 0.006203 0.003093 0.000003 0.058877 0.000000
# 6 0.000000 0.000000 0.000000 0.003546 0.000000 0.034153
#
#
# Mechanical properties :
#
#
# Convention : Reuss Voigt Hill
#
# Bulk Modulus (GPa) = 41.48277 42.26284 41.87280
# Shear Modulus (GPa) = 20.02406 25.17746 22.60076
#
# Velocity S-wave (km/s) = 3.30024 3.70062 3.50615
# Velocity P-wave (km/s) = 6.08979 6.42240 6.25831
#
# Compressibility (1/GPa) = 0.02410640
#
# Stress axis : x y z
#
# Youngs Moduli (GPa) = 69.09230 82.31096 71.39809
#
# Poissons Ratio (x) = 0.21667 0.17267
# Poissons Ratio (y) = 0.18187 0.22921
# Poissons Ratio (z) = 0.16710 0.26424
#
# Static dielectric constant tensor:
#      x y z
#    x 1.626700 0.000000 -0.003120 
#    y 0.000000 1.643630 0.000000 
#    z -0.003120 0.000000 1.607800 
# 
# From -- ./inp_files/140097.got.cif
#   From: 2010.05.17/outbox.cif.g08.bks.cpg/sg12_71_cif.got.tgz:140097.got - 2010.06.03 13:09:07.
