data_PCOD9216981
_publ_section_title
;
Structure prediction by ZEFSAII (Michael W. Deem and Ramdas Pophale) SiO2 
 PCOD9216981
Probable space group: C 2/M
;
_chemical_formula_sum "Si O2"
_cell_formula_units_Z 50
_cell_length_a 14.300707
_cell_length_b 12.762439
_cell_length_c 14.012238
_cell_angle_alpha 90.000000
_cell_angle_beta 120.466665
_cell_angle_gamma 90.000000
_cell_volume 2204.285378
_symmetry_space_group_name_H-M "C 2/M"
_symmetry_group_IT_number 12
_symmetry_cell_setting 'monoclinic'
loop_
_space_group_symop_operation_xyz
x,y,z
-x,y,-z
-x,-y,-z
x,-y,z
1/2+x,1/2+y,z
1/2-x,1/2+y,-z
1/2-x,1/2-y,-z
1/2+x,1/2-y,z
loop_
_atom_site_type_symbol
_atom_site_label
_atom_site_fract_x
_atom_site_fract_y
_atom_site_fract_z
Si Si1 0.306437 0.765540 0.898351
Si Si2 0.179703 0.500000 0.098992
Si Si3 0.918844 0.716960 0.145240
Si Si4 0.752352 0.747993 0.666711
Si Si5 0.838337 0.378128 0.537545
Si Si6 0.494936 0.000000 0.840213
Si Si7 0.000000 0.000000 0.500000
Si Si8 0.017525 0.199580 0.637332
O O1 0.205463 0.698490 0.883837
O O2 0.329664 0.743164 0.799493
O O3 0.266056 0.887524 0.882138
O O4 0.403145 0.758414 0.025324
O O5 0.121349 0.500000 0.171051
O O6 0.084853 0.500000 0.971186
O O7 0.982298 0.609208 0.197800
O O8 0.969966 0.801915 0.241787
O O9 0.783084 0.655697 0.608981
O O10 0.741124 0.848074 0.591717
O O11 0.636277 0.724824 0.655564
O O12 0.867155 0.500000 0.552163
O O13 0.937201 0.296420 0.574762
O O14 0.981137 0.092715 0.570810
#
# Coordination Sequence:
#
# PCOD9216981 Si02
#       8
#     8   4   8   8   8   4   2   8
#     4   9  19  37  56  89 127 159 205 252 313 392
#     4   9  18  31  60  89 118 164 202 254 305 361
#     4   9  20  36  58  91 126 161 200 257 323 379
#     4  10  23  41  62  96 126 175 209 263 331 379
#     4  11  25  43  68 101 129 166 227 275 326 379
#     4   9  18  34  56  92 127 151 200 262 314 367
#     4  12  24  46  66  84 130 176 234 260 310 400
#     4  11  24  42  67  95 125 174 213 271 324 378
#
# _framework density 22.683088999999999
#
# number of rings (size 3 to 8) (size 9 to 14) (size 15 to 20)
#    0.000    2.080    1.600    0.000    5.600    3.200 
#    4.320    0.800    0.000    0.000    0.000    1.120 
#    0.000    0.000    0.000    0.000    0.000    0.000 
#
# Total GULP energy -139317.646366 kJ/mol
# GULP energy per Si atom -5572.705855 kJ/mol
# Density = 2.263146 g / cm^3
# Si number density = 22.683089 Si / 1000 Ang^3
#
#
#
# Elastic Constant Matrix: (Units=GPa)
#
#
# Indices 1 2 3 4 5 6 
#
# 1 73.7878 47.5708 25.1439 0.0000 -14.8154 0.0000
# 2 47.5708 155.8764 66.7283 0.0000 -7.3820 0.0000
# 3 25.1439 66.7283 211.6469 0.0000 -26.0939 0.0000
# 4 0.0000 0.0000 0.0000 33.8353 0.0000 -7.9865
# 5 -14.8154 -7.3820 -26.0939 0.0000 32.2890 0.0000
# 6 0.0000 0.0000 0.0000 -7.9865 0.0000 23.3967
#
#
#
# Elastic Compliance Matrix: (Units=1/GPa)
#
#
# Indices 1 2 3 4 5 6 
#
# 1 0.018443 -0.005470 0.000469 0.000000 0.007591 0.000000
# 2 -0.005470 0.009040 -0.002504 0.000000 -0.002467 0.000000
# 3 0.000469 -0.002504 0.006014 0.000000 0.004503 0.000000
# 4 0.000000 0.000000 0.000000 0.032145 0.000000 0.010973
# 5 0.007591 -0.002467 0.004503 0.000000 0.037528 0.000000
# 6 0.000000 0.000000 0.000000 0.010973 0.000000 0.046487
#
#
# Mechanical properties :
#
#
# Convention : Reuss Voigt Hill
#
# Bulk Modulus (GPa) = 54.09230 80.02189 67.05710
# Shear Modulus (GPa) = 29.26902 38.02874 33.64888
#
# Velocity S-wave (km/s) = 3.59604 4.09898 3.85572
# Velocity P-wave (km/s) = 6.41410 7.59980 7.03199
#
# Compressibility (1/GPa) = 0.01848692
#
# Stress axis : x y z
#
# Youngs Moduli (GPa) = 54.22090 110.61994 166.28317
#
# Poissons Ratio (x) = 0.60509 -0.07806
# Poissons Ratio (y) = 0.29659 0.41645
# Poissons Ratio (z) = -0.02545 0.27704
#
# Static dielectric constant tensor:
#      x y z
#    x 1.874350 0.000000 0.026880 
#    y 0.000000 1.798620 0.000000 
#    z 0.026880 0.000000 1.984670 
# 
# From -- ./inp_files/213502.got.cif
#   From: 2010.05.17/outbox.cif.g08.bks.cpg/sg12_107_cif.got.tgz:213502.got - 2010.06.03 13:09:07.
