data_PCOD9216690
_publ_section_title
;
Structure prediction by ZEFSAII (Michael W. Deem and Ramdas Pophale) SiO2 
 PCOD9216690
Probable space group: C 2/M
;
_chemical_formula_sum "Si O2"
_cell_formula_units_Z 64
_cell_length_a 20.445806
_cell_length_b 21.652016
_cell_length_c 11.298380
_cell_angle_alpha 90.000000
_cell_angle_beta 37.377187
_cell_angle_gamma 90.000000
_cell_volume 3036.337212
_symmetry_space_group_name_H-M "C 2/M"
_symmetry_group_IT_number 12
_symmetry_cell_setting 'monoclinic'
loop_
_space_group_symop_operation_xyz
x,y,z
-x,y,-z
-x,-y,-z
x,-y,z
1/2+x,1/2+y,z
1/2-x,1/2+y,-z
1/2-x,1/2-y,-z
1/2+x,1/2-y,z
loop_
_atom_site_type_symbol
_atom_site_label
_atom_site_fract_x
_atom_site_fract_y
_atom_site_fract_z
Si Si1 0.246437 0.069371 0.013577
Si Si2 0.438038 0.806942 0.315147
Si Si3 0.991528 0.124337 0.646675
Si Si4 0.394529 0.819445 0.732049
Si Si5 0.529666 0.301484 0.078465
Si Si6 0.228288 0.100120 0.302486
Si Si7 0.267231 0.747548 0.738460
Si Si8 0.595438 0.068486 0.766646
O O1 0.120537 0.087862 0.186415
O O2 0.272504 0.073240 0.116078
O O3 0.264454 0.000000 0.944347
O O4 0.318073 0.121139 0.847166
O O5 0.552794 0.805934 0.217429
O O6 0.453339 0.759204 0.186743
O O7 0.345173 0.779975 0.531319
O O8 0.414333 0.875955 0.310410
O O9 0.993102 0.167059 0.761313
O O10 0.000000 0.153342 0.500000
O O11 0.101615 0.085465 0.494709
O O12 0.500000 0.830626 0.500000
O O13 0.326391 0.762779 0.777537
O O14 0.500000 0.337324 0.000000
O O15 0.653345 0.281272 0.898681
O O16 0.238337 0.174717 0.277868
O O17 0.295369 0.076481 0.316233
O O18 0.588377 0.000000 0.724145
O O19 0.500000 0.075127 0.000000
#
# Coordination Sequence:
#
# PCOD9216690 Si02
#       8
#     8   8   8   8   8   8   8   8
#     4  11  23  41  65  94 130 175 230 282 333 400
#     4  11  24  39  63  99 132 180 222 273 345 408
#     4  10  24  42  66  99 134 174 223 284 339 400
#     4  10  23  39  63  96 131 174 224 283 339 404
#     4  12  24  39  66  98 139 173 216 277 349 406
#     4  11  23  39  68  98 128 172 220 284 345 396
#     4  11  23  39  66  97 138 168 222 282 346 410
#     4  11  24  43  63  93 135 178 227 278 334 404
#
# _framework density 21.078029000000001
#
# number of rings (size 3 to 8) (size 9 to 14) (size 15 to 20)
#    0.000    1.125    2.500    3.750    5.250    6.500 
#    0.000    1.875    0.000    0.375    0.000    0.000 
#    0.000    0.000    0.000    0.000    0.000    0.000 
#
# Total GULP energy -178903.466924 kJ/mol
# GULP energy per Si atom -5590.733341 kJ/mol
# Density = 2.103005 g / cm^3
# Si number density = 21.078029 Si / 1000 Ang^3
#
#
#
# Elastic Constant Matrix: (Units=GPa)
#
#
# Indices 1 2 3 4 5 6 
#
# 1 90.9871 4.6358 19.9540 0.0000 6.3439 0.0000
# 2 4.6358 97.0580 10.3800 0.0000 15.3907 0.0000
# 3 19.9540 10.3800 85.8182 0.0000 -8.2005 0.0000
# 4 0.0000 0.0000 0.0000 -8.4420 0.0000 19.9858
# 5 6.3439 15.3907 -8.2005 0.0000 32.8071 0.0000
# 6 0.0000 0.0000 0.0000 19.9858 0.0000 13.1009
#
#
#
# Elastic Compliance Matrix: (Units=1/GPa)
#
#
# Indices 1 2 3 4 5 6 
#
# 1 0.011880 0.000272 -0.003101 0.000000 -0.003200 0.000000
# 2 0.000272 0.011445 -0.002014 0.000000 -0.005925 0.000000
# 3 -0.003101 -0.002014 0.013077 0.000000 0.004813 0.000000
# 4 0.000000 0.000000 0.000000 -0.025686 0.000000 0.039186
# 5 -0.003200 -0.005925 0.004813 0.000000 0.035083 0.000000
# 6 0.000000 0.000000 0.000000 0.039186 0.000000 0.016552
#
#
# Mechanical properties :
#
#
# Convention : Reuss Voigt Hill
#
# Bulk Modulus (GPa) = 37.43060 38.20032 37.81546
# Shear Modulus (GPa) = 61.77326 23.41943 42.59635
#
# Velocity S-wave (km/s) = 5.41946 3.33691 4.50031
# Velocity P-wave (km/s) = 7.54701 5.74537 6.70696
#
# Compressibility (1/GPa) = 0.02671611
#
# Stress axis : x y z
#
# Youngs Moduli (GPa) = 84.17605 87.37402 76.47010
#
# Poissons Ratio (x) = -0.02373 0.23712
# Poissons Ratio (y) = -0.02286 0.15398
# Poissons Ratio (z) = 0.26102 0.17594
#
# Static dielectric constant tensor:
#      x y z
#    x 1.810160 0.000000 0.025320 
#    y 0.000000 1.757910 0.000000 
#    z 0.025320 0.000000 1.762360 
# 
# From -- ./inp_files/169662.got.cif
#   From: 2010.05.17/outbox.cif.g08.bks.cpg/sg12_85_cif.got.tgz:169662.got - 2010.06.03 13:09:07.
