data_PCOD9216449
_publ_section_title
;
Structure prediction by ZEFSAII (Michael W. Deem and Ramdas Pophale) SiO2 
 PCOD9216449
Probable space group: C 2/M
;
_chemical_formula_sum "Si O2"
_cell_formula_units_Z 44
_cell_length_a 18.552314
_cell_length_b 7.481185
_cell_length_c 26.876012
_cell_angle_alpha 90.000000
_cell_angle_beta 30.826002
_cell_angle_gamma 90.000000
_cell_volume 1911.481414
_symmetry_space_group_name_H-M "C 2/M"
_symmetry_group_IT_number 12
_symmetry_cell_setting 'monoclinic'
loop_
_space_group_symop_operation_xyz
x,y,z
-x,y,-z
-x,-y,-z
x,-y,z
1/2+x,1/2+y,z
1/2-x,1/2+y,-z
1/2-x,1/2-y,-z
1/2+x,1/2-y,z
loop_
_atom_site_type_symbol
_atom_site_label
_atom_site_fract_x
_atom_site_fract_y
_atom_site_fract_z
Si Si1 0.006818 0.500000 0.660153
Si Si2 0.427864 0.706030 0.295334
Si Si3 0.840692 0.284697 0.602767
Si Si4 0.364863 0.702513 0.696974
Si Si5 0.073254 0.281734 0.905733
Si Si6 0.084155 0.287256 0.101190
O O1 0.988752 0.342992 0.627909
O O2 0.015736 0.341641 0.697358
O O3 0.423939 0.500000 0.314997
O O4 0.270987 0.766405 0.372637
O O5 0.517531 0.710677 0.191103
O O6 0.835841 0.500000 0.608877
O O7 0.799311 0.208021 0.680763
O O8 0.000000 0.226037 0.500000
O O9 0.402230 0.500000 0.686872
O O10 0.236608 0.772911 0.807237
O O11 0.074298 0.500000 0.904653
O O12 0.990884 0.222155 0.905125
O O13 0.000000 0.223766 0.000000
O O14 0.063258 0.500000 0.115837
O O15 0.250000 0.250000 0.000000
#
# Coordination Sequence:
#
# PCOD9216449 Si02
#       6
#     4   8   8   8   8   8
#     4  12  26  44  67 100 141 180 218 284 350 420
#     4  11  24  44  70  99 138 183 232 288 350 412
#     4  10  22  45  78 106 134 182 241 290 345 422
#     4  11  23  43  71 101 136 181 230 286 347 409
#     4   9  20  37  61  93 133 176 225 279 335 400
#     4  11  22  38  61  96 137 179 229 285 339 408
#
# _framework density 23.018794
#
# number of rings (size 3 to 8) (size 9 to 14) (size 15 to 20)
#    0.000    1.455    3.636    1.091    3.818    0.364 
#    1.636    1.364    0.000    0.000    0.000    0.000 
#    0.000    0.000    0.000    0.000    0.000    0.000 
#
# Total GULP energy -122567.895845 kJ/mol
# GULP energy per Si atom -5571.267993 kJ/mol
# Density = 2.296640 g / cm^3
# Si number density = 23.018794 Si / 1000 Ang^3
#
#
#
# Elastic Constant Matrix: (Units=GPa)
#
#
# Indices 1 2 3 4 5 6 
#
# 1 98.9174 26.3935 -7.7261 0.0001 -17.0275 -0.0001
# 2 26.3935 136.5629 -5.4939 0.0002 -9.3264 0.0001
# 3 -7.7261 -5.4939 69.9975 0.0000 -17.9628 0.0000
# 4 0.0001 0.0002 0.0000 10.3084 0.0000 7.5676
# 5 -17.0275 -9.3264 -17.9628 0.0000 21.9136 0.0000
# 6 -0.0001 0.0001 0.0000 7.5676 0.0000 4.5011
#
#
#
# Elastic Compliance Matrix: (Units=1/GPa)
#
#
# Indices 1 2 3 4 5 6 
#
# 1 0.013216 -0.001428 0.004845 0.000001 0.013633 -0.000001
# 2 -0.001428 0.007878 0.001312 0.000000 0.003319 0.000000
# 3 0.004845 0.001312 0.020305 0.000000 0.020967 0.000000
# 4 0.000001 0.000000 0.000000 -0.414116 -0.000001 0.696245
# 5 0.013633 0.003319 0.020967 -0.000001 0.074826 0.000001
# 6 -0.000001 0.000000 0.000000 0.696245 0.000001 -0.948413
#
#
# Mechanical properties :
#
#
# Convention : Reuss Voigt Hill
#
# Bulk Modulus (GPa) = 19.66314 36.86943 28.26629
# Shear Modulus (GPa) = -4.03613 26.83157 11.39772
#
# Velocity S-wave (km/s) = -1.32560 3.41785 2.22761
# Velocity P-wave (km/s) = 2.49355 5.62383 4.35001
#
# Compressibility (1/GPa) = 0.05085657
#
# Stress axis : x y z
#
# Youngs Moduli (GPa) = 75.66791 126.93370 49.24998
#
# Poissons Ratio (x) = 0.18129 -0.23862
# Poissons Ratio (y) = 0.10807 -0.06464
# Poissons Ratio (z) = -0.36661 -0.16659
#
# Static dielectric constant tensor:
#      x y z
#    x 1.846810 0.000000 -0.051620 
#    y 0.000000 1.741460 0.000000 
#    z -0.051620 0.000000 1.949480 
# 
# From -- ./inp_files/377596.got.cif
#   From: 2010.05.17/outbox.cif.g08.bks.cpg/sg12_189_cif.got.tgz:377596.got - 2010.06.03 13:09:07.
