data_PCOD9216633
_publ_section_title
;
Structure prediction by ZEFSAII (Michael W. Deem and Ramdas Pophale) SiO2 
 PCOD9216633
Probable space group: C 2/M
;
_chemical_formula_sum "Si O2"
_cell_formula_units_Z 56
_cell_length_a 27.841179
_cell_length_b 14.348312
_cell_length_c 9.211388
_cell_angle_alpha 90.000000
_cell_angle_beta 61.035657
_cell_angle_gamma 90.000000
_cell_volume 3219.455860
_symmetry_space_group_name_H-M "C 2/M"
_symmetry_group_IT_number 12
_symmetry_cell_setting 'monoclinic'
loop_
_space_group_symop_operation_xyz
x,y,z
-x,y,-z
-x,-y,-z
x,-y,z
1/2+x,1/2+y,z
1/2-x,1/2+y,-z
1/2-x,1/2-y,-z
1/2+x,1/2-y,z
loop_
_atom_site_type_symbol
_atom_site_label
_atom_site_fract_x
_atom_site_fract_y
_atom_site_fract_z
Si Si1 0.004300 0.611707 0.328372
Si Si2 0.221924 0.720313 0.891978
Si Si3 0.173067 0.897234 0.797060
Si Si4 0.297033 0.702302 0.526881
Si Si5 0.612637 0.113054 0.985757
Si Si6 0.560212 0.397689 0.847337
Si Si7 0.405053 0.202366 0.308382
O O1 0.007146 0.500000 0.330179
O O2 0.000000 0.647430 0.500000
O O3 0.948964 0.639849 0.326135
O O4 0.059097 0.640422 0.159679
O O5 0.200862 0.815420 0.845823
O O6 0.268478 0.676575 0.718674
O O7 0.168759 0.653244 0.973260
O O8 0.250000 0.750000 0.000000
O O9 0.182825 0.879023 0.610375
O O10 0.107108 0.891713 0.902962
O O11 0.192333 0.000000 0.809578
O O12 0.250000 0.750000 0.500000
O O13 0.346646 0.776326 0.469335
O O14 0.606513 0.159042 0.834339
O O15 0.614532 0.000000 0.971144
O O16 0.567968 0.500000 0.765403
O O17 0.568383 0.304999 0.743202
O O18 0.500000 0.395294 0.000000
#
# Coordination Sequence:
#
# PCOD9216633 Si02
#       7
#     8   8   8   8   8   8   8
#     4  10  23  39  56  86 121 150 187 235 295 361
#     4  11  23  38  56  81 121 149 191 240 289 349
#     4   9  18  35  57  79 109 146 188 231 278 334
#     4   9  18  37  53  83 109 144 193 233 277 335
#     4  11  22  38  59  86 113 150 198 238 287 347
#     4   9  16  28  52  84 109 134 176 222 266 321
#     4  11  19  35  62  84 113 147 190 235 284 332
#
# _framework density 17.394244
#
# number of rings (size 3 to 8) (size 9 to 14) (size 15 to 20)
#    0.000    2.000    4.286    1.714    2.000    2.286 
#    0.000    0.714    0.000    0.429    0.000    0.000 
#    0.000    0.000    0.000    0.000    0.000    0.000 
#
# Total GULP energy -155869.154076 kJ/mol
# GULP energy per Si atom -5566.755503 kJ/mol
# Density = 1.735465 g / cm^3
# Si number density = 17.394244 Si / 1000 Ang^3
#
#
#
# Elastic Constant Matrix: (Units=GPa)
#
#
# Indices 1 2 3 4 5 6 
#
# 1 107.9113 10.5388 59.3279 0.0000 -11.6940 0.0000
# 2 10.5388 54.8960 10.0561 0.0000 -7.0502 0.0000
# 3 59.3279 10.0561 70.2743 0.0000 -13.4741 0.0000
# 4 0.0000 0.0000 0.0000 11.6004 0.0000 1.3918
# 5 -11.6940 -7.0502 -13.4741 0.0000 33.5571 0.0000
# 6 0.0000 0.0000 0.0000 1.3918 0.0000 26.8494
#
#
#
# Elastic Compliance Matrix: (Units=1/GPa)
#
#
# Indices 1 2 3 4 5 6 
#
# 1 0.017317 -0.000657 -0.014512 0.000000 0.000070 0.000000
# 2 -0.000657 0.019033 -0.001567 0.000000 0.003141 0.000000
# 3 -0.014512 -0.001567 0.027815 0.000000 0.005782 0.000000
# 4 0.000000 0.000000 0.000000 0.086744 0.000000 -0.004497
# 5 0.000070 0.003141 0.005782 0.000000 0.032806 0.000000
# 6 0.000000 0.000000 0.000000 -0.004497 0.000000 0.037478
#
#
# Mechanical properties :
#
#
# Convention : Reuss Voigt Hill
#
# Bulk Modulus (GPa) = 32.58145 43.65857 38.12001
# Shear Modulus (GPa) = 18.87541 24.61196 21.74369
#
# Velocity S-wave (km/s) = 3.29774 3.76566 3.53944
# Velocity P-wave (km/s) = 5.76818 6.63784 6.21823
#
# Compressibility (1/GPa) = 0.03069231
#
# Stress axis : x y z
#
# Youngs Moduli (GPa) = 57.74577 52.54100 35.95234
#
# Poissons Ratio (x) = 0.03453 0.52176
# Poissons Ratio (y) = 0.03795 0.05632
# Poissons Ratio (z) = 0.83803 0.08231
#
# Static dielectric constant tensor:
#      x y z
#    x 1.257860 0.000000 0.190780 
#    y 0.000000 1.622610 0.000000 
#    z 0.190780 0.000000 1.486960 
# 
# From -- ./inp_files/104434.got.cif
#   From: 2010.05.17/outbox.cif.g08.bks.cpg/sg12_53_cif.got.tgz:104434.got - 2010.06.03 13:09:07.
