data_PCOD9216017
_publ_section_title
;
Structure prediction by ZEFSAII (Michael W. Deem and Ramdas Pophale) SiO2 
 PCOD9216017
Probable space group: C 2/M
;
_chemical_formula_sum "Si O2"
_cell_formula_units_Z 40
_cell_length_a 15.999454
_cell_length_b 18.342450
_cell_length_c 9.176927
_cell_angle_alpha 90.000000
_cell_angle_beta 134.206285
_cell_angle_gamma 90.000000
_cell_volume 1930.538455
_symmetry_space_group_name_H-M "C 2/M"
_symmetry_group_IT_number 12
_symmetry_cell_setting 'monoclinic'
loop_
_space_group_symop_operation_xyz
x,y,z
-x,y,-z
-x,-y,-z
x,-y,z
1/2+x,1/2+y,z
1/2-x,1/2+y,-z
1/2-x,1/2-y,-z
1/2+x,1/2-y,z
loop_
_atom_site_type_symbol
_atom_site_label
_atom_site_fract_x
_atom_site_fract_y
_atom_site_fract_z
Si Si1 0.131792 0.582528 0.169805
Si Si2 0.788715 0.417999 0.064522
Si Si3 0.039939 0.282853 0.704066
Si Si4 0.603367 0.653732 0.008664
Si Si5 0.788570 0.326591 0.484917
O O1 0.112277 0.500000 0.195503
O O2 0.217864 0.617895 0.390234
O O3 0.191647 0.583484 0.085273
O O4 0.000000 0.616041 0.000000
O O5 0.826924 0.500000 0.160227
O O6 0.864326 0.346434 0.201066
O O7 0.656772 0.404893 0.960103
O O8 0.075482 0.224307 0.872209
O O9 0.000000 0.248217 0.500000
O O10 0.924016 0.324045 0.612537
O O11 0.500000 0.638596 0.000000
O O12 0.709985 0.661541 0.250356
O O13 0.750000 0.250000 0.500000
#
# Coordination Sequence:
#
# PCOD9216017 Si02
#       5
#     8   8   8   8   8
#     4  10  22  42  70 102 137 174 221 285 349 407
#     4  11  25  44  69 102 141 179 226 284 344 409
#     4  12  25  43  71 104 136 178 229 291 347 401
#     4  12  27  45  68 101 141 187 233 282 340 412
#     4  12  24  40  68 103 137 179 224 285 343 406
#
# _framework density 20.719608999999998
#
# number of rings (size 3 to 8) (size 9 to 14) (size 15 to 20)
#    0.000    0.600    6.000    1.800    2.800    1.600 
#    0.000    0.000    0.000    3.000    0.000    0.000 
#    0.000    0.000    0.000    0.000    0.000    0.000 
#
# Total GULP energy -111401.549393 kJ/mol
# GULP energy per Si atom -5570.077470 kJ/mol
# Density = 2.067245 g / cm^3
# Si number density = 20.719609 Si / 1000 Ang^3
#
#
#
# Elastic Constant Matrix: (Units=GPa)
#
#
# Indices 1 2 3 4 5 6 
#
# 1 147.0014 28.7339 26.6757 0.0000 5.7048 0.0000
# 2 28.7339 56.2781 38.9568 0.0000 -2.4918 0.0000
# 3 26.6757 38.9568 126.1698 0.0000 -15.3942 0.0000
# 4 0.0000 0.0000 0.0000 22.6060 0.0000 3.0427
# 5 5.7048 -2.4918 -15.3942 0.0000 30.6038 0.0000
# 6 0.0000 0.0000 0.0000 3.0427 0.0000 27.4732
#
#
#
# Elastic Compliance Matrix: (Units=1/GPa)
#
#
# Indices 1 2 3 4 5 6 
#
# 1 0.007711 -0.003463 -0.000821 0.000000 -0.002133 0.000000
# 2 -0.003463 0.024246 -0.006855 0.000000 -0.000829 0.000000
# 3 -0.000821 -0.006855 0.010831 0.000000 0.005043 0.000000
# 4 0.000000 0.000000 0.000000 0.044906 0.000000 -0.004973
# 5 -0.002133 -0.000829 0.005043 0.000000 0.035543 0.000000
# 6 0.000000 0.000000 0.000000 -0.004973 0.000000 0.036950
#
#
# Mechanical properties :
#
#
# Convention : Reuss Voigt Hill
#
# Bulk Modulus (GPa) = 48.75809 57.57579 53.16694
# Shear Modulus (GPa) = 26.41284 31.80879 29.11081
#
# Velocity S-wave (km/s) = 3.57427 3.92242 3.75238
# Velocity P-wave (km/s) = 6.37317 6.95429 6.67006
#
# Compressibility (1/GPa) = 0.02050942
#
# Stress axis : x y z
#
# Youngs Moduli (GPa) = 129.67862 41.24468 92.32397
#
# Poissons Ratio (x) = 0.14283 0.07583
# Poissons Ratio (y) = 0.44909 0.63289
# Poissons Ratio (z) = 0.10651 0.28274
#
# Static dielectric constant tensor:
#      x y z
#    x 1.776450 0.000000 0.097010 
#    y 0.000000 1.742890 0.000000 
#    z 0.097010 0.000000 1.541070 
# 
# From -- ./inp_files/63800.got.cif
#   From: 2010.05.17/outbox.cif.g08.bks.cpg/sg12_32_cif.got.tgz:63800.got - 2010.06.03 13:09:07.
