data_PCOD9216672
_publ_section_title
;
Structure prediction by ZEFSAII (Michael W. Deem and Ramdas Pophale) SiO2 
 PCOD9216672
Probable space group: C 2/M
;
_chemical_formula_sum "Si O2"
_cell_formula_units_Z 58
_cell_length_a 21.397371
_cell_length_b 19.502399
_cell_length_c 9.730172
_cell_angle_alpha 90.000000
_cell_angle_beta 137.542633
_cell_angle_gamma 90.000000
_cell_volume 2740.939155
_symmetry_space_group_name_H-M "C 2/M"
_symmetry_group_IT_number 12
_symmetry_cell_setting 'monoclinic'
loop_
_space_group_symop_operation_xyz
x,y,z
-x,y,-z
-x,-y,-z
x,-y,z
1/2+x,1/2+y,z
1/2-x,1/2+y,-z
1/2-x,1/2-y,-z
1/2+x,1/2-y,z
loop_
_atom_site_type_symbol
_atom_site_label
_atom_site_fract_x
_atom_site_fract_y
_atom_site_fract_z
Si Si1 0.586687 0.380402 0.223115
Si Si2 0.609875 0.078273 0.709432
Si Si3 0.487642 0.310449 0.639728
Si Si4 0.899710 0.606590 0.990181
Si Si5 0.368399 0.737381 0.914774
Si Si6 0.162730 0.691512 0.584989
Si Si7 0.292886 0.075283 0.551160
Si Si8 0.000000 0.500000 0.000000
O O1 0.561810 0.365498 0.340719
O O2 0.603736 0.307444 0.172660
O O3 0.682516 0.419285 0.362476
O O4 0.500000 0.411569 0.000000
O O5 0.500000 0.083968 0.500000
O O6 0.660127 0.136235 0.702921
O O7 0.638274 0.000000 0.724929
O O8 0.625611 0.093986 0.894425
O O9 0.500000 0.328451 0.500000
O O10 0.424511 0.241769 0.546055
O O11 0.584725 0.296303 0.874604
O O12 0.907482 0.686475 0.973151
O O13 0.825039 0.578060 0.760855
O O14 0.987744 0.560529 0.096750
O O15 0.257300 0.735236 0.742360
O O16 0.166982 0.642114 0.459293
O O17 0.322461 0.000000 0.547025
#
# Coordination Sequence:
#
# PCOD9216672 Si02
#       8
#     8   8   8   8   8   8   8   2
#     4   9  21  41  61  88 117 150 200 249 306 350
#     4  11  24  40  58  87 129 168 201 244 299 367
#     4  11  22  37  59  89 117 155 193 245 303 353
#     4  12  24  39  57  87 122 159 206 237 293 354
#     4  10  23  39  62  87 118 158 201 253 296 357
#     4  11  23  40  61  90 121 159 200 246 309 354
#     4  11  23  39  63  88 116 157 201 248 293 358
#     4  12  28  36  58  92 122 168 198 242 298 364
#
# _framework density 21.160629
#
# number of rings (size 3 to 8) (size 9 to 14) (size 15 to 20)
#    0.000    1.241    1.379    4.138    6.759    5.793 
#    0.000    0.000    0.000    0.414    0.000    0.000 
#    0.000    0.000    0.000    0.000    0.000    0.000 
#
# Total GULP energy -161881.912024 kJ/mol
# GULP energy per Si atom -5582.134897 kJ/mol
# Density = 2.111247 g / cm^3
# Si number density = 21.160629 Si / 1000 Ang^3
#
#
#
# Elastic Constant Matrix: (Units=GPa)
#
#
# Indices 1 2 3 4 5 6 
#
# 1 78.7838 14.8998 49.3495 0.0000 -19.6217 0.0000
# 2 14.8998 77.1810 10.9684 0.0000 -1.1211 0.0000
# 3 49.3495 10.9684 87.2286 0.0000 -14.7166 0.0000
# 4 0.0000 0.0000 0.0000 19.3881 0.0000 -2.1456
# 5 -19.6217 -1.1211 -14.7166 0.0000 47.4828 0.0000
# 6 0.0000 0.0000 0.0000 -2.1456 0.0000 19.0198
#
#
#
# Elastic Compliance Matrix: (Units=1/GPa)
#
#
# Indices 1 2 3 4 5 6 
#
# 1 0.021282 -0.002493 -0.010818 0.000000 0.005382 0.000000
# 2 -0.002493 0.013486 -0.000428 0.000000 -0.000844 0.000000
# 3 -0.010818 -0.000428 0.017814 0.000000 0.001040 0.000000
# 4 0.000000 0.000000 0.000000 0.052230 0.000000 0.005892
# 5 0.005382 -0.000844 0.001040 0.000000 0.023587 0.000000
# 6 0.000000 0.000000 0.000000 0.005892 0.000000 0.053242
#
#
# Mechanical properties :
#
#
# Convention : Reuss Voigt Hill
#
# Bulk Modulus (GPa) = 39.83513 43.73652 41.78583
# Shear Modulus (GPa) = 22.98989 28.37652 25.68320
#
# Velocity S-wave (km/s) = 3.29970 3.66595 3.48764
# Velocity P-wave (km/s) = 5.77784 6.21551 6.00066
#
# Compressibility (1/GPa) = 0.02510347
#
# Stress axis : x y z
#
# Youngs Moduli (GPa) = 46.98903 74.14905 56.13549
#
# Poissons Ratio (x) = 0.18484 0.60730
# Poissons Ratio (y) = 0.11713 0.02402
# Poissons Ratio (z) = 0.50835 0.03173
#
# Static dielectric constant tensor:
#      x y z
#    x 1.769000 0.000000 0.028320 
#    y 0.000000 1.760160 0.000000 
#    z 0.028320 0.000000 1.790000 
# 
# From -- ./inp_files/99292.got.cif
#   From: 2010.05.17/outbox.cif.g08.bks.cpg/sg12_50_cif.got.tgz:99292.got - 2010.06.03 13:09:07.
