data_PCOD9216496
_publ_section_title
;
Structure prediction by ZEFSAII (Michael W. Deem and Ramdas Pophale) SiO2 
 PCOD9216496
Probable space group: C 2/M
;
_chemical_formula_sum "Si O2"
_cell_formula_units_Z 56
_cell_length_a 7.724651
_cell_length_b 22.363965
_cell_length_c 17.715158
_cell_angle_alpha 90.000000
_cell_angle_beta 133.270564
_cell_angle_gamma 90.000000
_cell_volume 2228.325583
_symmetry_space_group_name_H-M "C 2/M"
_symmetry_group_IT_number 12
_symmetry_cell_setting 'monoclinic'
loop_
_space_group_symop_operation_xyz
x,y,z
-x,y,-z
-x,-y,-z
x,-y,z
1/2+x,1/2+y,z
1/2-x,1/2+y,-z
1/2-x,1/2-y,-z
1/2+x,1/2-y,z
loop_
_atom_site_type_symbol
_atom_site_label
_atom_site_fract_x
_atom_site_fract_y
_atom_site_fract_z
Si Si1 0.385971 0.344458 0.286915
Si Si2 0.489085 0.230784 0.770060
Si Si3 0.484432 0.934192 0.810861
Si Si4 0.735772 0.070177 0.423852
Si Si5 0.015616 0.934035 0.116286
Si Si6 0.014163 0.193684 0.092035
Si Si7 0.260981 0.068821 0.354874
O O1 0.495014 0.294588 0.264808
O O2 0.259176 0.303129 0.311779
O O3 0.156523 0.382168 0.188228
O O4 0.593286 0.392352 0.358482
O O5 0.701249 0.188717 0.805334
O O6 0.540858 0.249624 0.872389
O O7 0.367373 0.930270 0.692222
O O8 0.766393 0.931581 0.879588
O O9 0.426665 0.000000 0.824711
O O10 0.524135 0.093080 0.414720
O O11 0.000000 0.096870 0.500000
O O12 0.760341 0.000000 0.451807
O O13 0.890060 0.869721 0.071318
O O14 0.130072 0.932657 0.234057
O O15 0.900810 0.000000 0.073974
O O16 0.000000 0.205744 0.000000
O O17 0.272542 0.000000 0.383308
#
# Coordination Sequence:
#
# PCOD9216496 Si02
#       7
#     8   8   8   8   8   8   8
#     4  11  19  33  51  74 105 125 178 213 250 295
#     4  10  23  34  50  76  97 132 172 226 263 288
#     4   9  17  30  53  78 103 135 165 204 252 300
#     4   8  15  29  50  81 115 136 158 198 255 315
#     4   9  17  32  51  75 102 130 169 204 246 309
#     4  11  20  36  53  72 101 131 170 214 264 317
#     4   9  17  30  53  78 103 135 165 204 252 300
#
# _framework density 25.130979
#
# number of rings (size 3 to 8) (size 9 to 14) (size 15 to 20)
#    0.000    2.429    2.857    2.571    0.000    0.286 
#    0.000    0.714    0.000    3.429    0.000   14.000 
#    0.000    0.000    0.000    0.000    0.000    0.000 
#
# Total GULP energy -156275.059812 kJ/mol
# GULP energy per Si atom -5581.252136 kJ/mol
# Density = 2.507378 g / cm^3
# Si number density = 25.130979 Si / 1000 Ang^3
#
#
#
# Elastic Constant Matrix: (Units=GPa)
#
#
# Indices 1 2 3 4 5 6 
#
# 1 135.2831 48.3334 18.3799 0.0000 13.9908 0.0000
# 2 48.3334 156.3402 4.8079 0.0000 -0.3684 0.0000
# 3 18.3799 4.8079 61.3330 0.0000 6.3589 0.0000
# 4 0.0000 0.0000 0.0000 0.7646 0.0000 4.6042
# 5 13.9908 -0.3684 6.3589 0.0000 25.9820 0.0000
# 6 0.0000 0.0000 0.0000 4.6042 0.0000 38.4454
#
#
#
# Elastic Compliance Matrix: (Units=1/GPa)
#
#
# Indices 1 2 3 4 5 6 
#
# 1 0.009119 -0.002767 -0.002055 0.000000 -0.004447 0.000000
# 2 -0.002767 0.007252 0.000098 0.000000 0.001569 0.000000
# 3 -0.002055 0.000098 0.017235 0.000000 -0.003110 0.000000
# 4 0.000000 0.000000 0.000000 4.689751 0.000000 -0.561638
# 5 -0.004447 0.001569 -0.003110 0.000000 0.041666 0.000000
# 6 0.000000 0.000000 0.000000 -0.561638 0.000000 0.093272
#
#
# Mechanical properties :
#
#
# Convention : Reuss Voigt Hill
#
# Bulk Modulus (GPa) = 41.39147 55.11098 48.25123
# Shear Modulus (GPa) = 1.02547 31.80074 16.41311
#
# Velocity S-wave (km/s) = 0.63948 3.56111 2.55836
# Velocity P-wave (km/s) = 4.12932 6.23584 5.28853
#
# Compressibility (1/GPa) = 0.02415957
#
# Stress axis : x y z
#
# Youngs Moduli (GPa) = 109.65598 137.88728 58.02136
#
# Poissons Ratio (x) = 0.38148 0.11923
# Poissons Ratio (y) = 0.30337 -0.00568
# Poissons Ratio (z) = 0.22534 -0.01350
#
# Static dielectric constant tensor:
#      x y z
#    x 2.065940 0.000000 -0.002670 
#    y 0.000000 2.002680 0.000000 
#    z -0.002670 0.000000 2.076230 
# 
# From -- ./inp_files/257669.got.cif
#   From: 2010.05.17/outbox.cif.g08.bks.cpg/sg12_129_cif.got.tgz:257669.got - 2010.06.03 13:09:07.
