data_PCOD9216704
_publ_section_title
;
Structure prediction by ZEFSAII (Michael W. Deem and Ramdas Pophale) SiO2 
 PCOD9216704
Probable space group: C 2/M
;
_chemical_formula_sum "Si O2"
_cell_formula_units_Z 64
_cell_length_a 25.669297
_cell_length_b 16.806395
_cell_length_c 12.580655
_cell_angle_alpha 90.000000
_cell_angle_beta 37.939611
_cell_angle_gamma 90.000000
_cell_volume 3336.931216
_symmetry_space_group_name_H-M "C 2/M"
_symmetry_group_IT_number 12
_symmetry_cell_setting 'monoclinic'
loop_
_space_group_symop_operation_xyz
x,y,z
-x,y,-z
-x,-y,-z
x,-y,z
1/2+x,1/2+y,z
1/2-x,1/2+y,-z
1/2-x,1/2-y,-z
1/2+x,1/2-y,z
loop_
_atom_site_type_symbol
_atom_site_label
_atom_site_fract_x
_atom_site_fract_y
_atom_site_fract_z
Si Si1 0.860182 0.214104 0.374899
Si Si2 0.669241 0.345526 0.980122
Si Si3 0.062318 0.741345 0.308951
Si Si4 0.494092 0.409050 0.880839
Si Si5 0.063643 0.643627 0.629925
Si Si6 0.805176 0.275461 0.241267
Si Si7 0.061194 0.586204 0.002298
Si Si8 0.151154 0.589113 0.277233
O O1 0.879223 0.304113 0.382789
O O2 0.839492 0.221037 0.283243
O O3 0.779900 0.187555 0.573206
O O4 0.938197 0.155704 0.266796
O O5 0.708987 0.277548 0.839731
O O6 0.747538 0.400776 0.886216
O O7 0.625480 0.302935 0.151579
O O8 0.596223 0.387049 0.026434
O O9 0.110181 0.663026 0.278696
O O10 0.000000 0.775582 0.500000
O O11 0.997977 0.707518 0.325565
O O12 0.515120 0.500000 0.817685
O O13 0.500000 0.404676 0.000000
O O14 0.116588 0.600602 0.453208
O O15 0.001200 0.589083 0.797275
O O16 0.873481 0.341922 0.102308
O O17 0.103724 0.500000 0.926935
O O18 0.000000 0.596265 0.000000
O O19 0.127057 0.500000 0.278658
#
# Coordination Sequence:
#
# PCOD9216704 Si02
#       8
#     8   8   8   8   8   8   8   8
#     4  11  21  38  60  91 125 157 204 239 290 360
#     4  12  21  41  65  89 121 162 205 245 303 363
#     4  10  23  39  66  87 110 158 208 257 299 362
#     4  11  23  38  62  94 126 162 202 244 293 354
#     4  11  20  38  63  87 118 160 197 244 303 364
#     4  11  22  36  62  88 119 166 201 236 291 368
#     4  11  22  35  55  86 124 159 196 242 298 363
#     4  11  25  42  60  92 123 151 203 265 312 346
#
# _framework density 19.179299
#
# number of rings (size 3 to 8) (size 9 to 14) (size 15 to 20)
#    0.000    1.000    6.250    1.125    0.000    3.250 
#    0.000    0.000    0.000    3.000    0.000    0.000 
#    0.000    0.000    0.000    0.000    0.000    0.000 
#
# Total GULP energy -178637.975057 kJ/mol
# GULP energy per Si atom -5582.436721 kJ/mol
# Density = 1.913565 g / cm^3
# Si number density = 19.179299 Si / 1000 Ang^3
#
#
#
# Elastic Constant Matrix: (Units=GPa)
#
#
# Indices 1 2 3 4 5 6 
#
# 1 40.3643 3.8393 19.6850 0.0000 -0.5411 0.0000
# 2 3.8393 74.0629 31.8130 0.0000 0.5820 0.0000
# 3 19.6850 31.8130 102.2703 0.0000 -1.1013 0.0000
# 4 0.0000 0.0000 0.0000 13.2295 0.0000 0.0563
# 5 -0.5411 0.5820 -1.1013 0.0000 30.6829 0.0000
# 6 0.0000 0.0000 0.0000 0.0563 0.0000 23.6523
#
#
#
# Elastic Compliance Matrix: (Units=1/GPa)
#
#
# Indices 1 2 3 4 5 6 
#
# 1 0.027404 0.000972 -0.005574 0.000000 0.000265 0.000000
# 2 0.000972 0.015626 -0.005053 0.000000 -0.000461 0.000000
# 3 -0.005574 -0.005053 0.012427 0.000000 0.000444 0.000000
# 4 0.000000 0.000000 0.000000 0.075590 0.000000 -0.000180
# 5 0.000265 -0.000461 0.000444 0.000000 0.032621 0.000000
# 6 0.000000 0.000000 0.000000 -0.000180 0.000000 0.042280
#
#
# Mechanical properties :
#
#
# Convention : Reuss Voigt Hill
#
# Bulk Modulus (GPa) = 27.66501 36.37469 32.01985
# Shear Modulus (GPa) = 21.06985 24.27028 22.67006
#
# Velocity S-wave (km/s) = 3.31807 3.56116 3.44176
# Velocity P-wave (km/s) = 5.39770 5.99299 5.70312
#
# Compressibility (1/GPa) = 0.03614675
#
# Stress axis : x y z
#
# Youngs Moduli (GPa) = 36.49114 63.99761 80.46736
#
# Poissons Ratio (x) = -0.06218 0.44853
# Poissons Ratio (y) = -0.03546 0.40657
# Poissons Ratio (z) = 0.20341 0.32335
#
# Static dielectric constant tensor:
#      x y z
#    x 1.680400 0.000000 0.006350 
#    y 0.000000 1.683080 0.000000 
#    z 0.006350 0.000000 1.683170 
# 
# From -- ./inp_files/183767.got.cif
#   From: 2010.05.17/outbox.cif.g08.bks.cpg/sg12_92_cif.got.tgz:183767.got - 2010.06.03 13:09:07.
