data_PCOD9216148
_publ_section_title
;
Structure prediction by ZEFSAII (Michael W. Deem and Ramdas Pophale) SiO2 
 PCOD9216148
Probable space group: C 2/M
;
_chemical_formula_sum "Si O2"
_cell_formula_units_Z 42
_cell_length_a 14.652896
_cell_length_b 10.477374
_cell_length_c 12.549666
_cell_angle_alpha 90.000000
_cell_angle_beta 71.340856
_cell_angle_gamma 90.000000
_cell_volume 1825.404774
_symmetry_space_group_name_H-M "C 2/M"
_symmetry_group_IT_number 12
_symmetry_cell_setting 'monoclinic'
loop_
_space_group_symop_operation_xyz
x,y,z
-x,y,-z
-x,-y,-z
x,-y,z
1/2+x,1/2+y,z
1/2-x,1/2+y,-z
1/2-x,1/2-y,-z
1/2+x,1/2-y,z
loop_
_atom_site_type_symbol
_atom_site_label
_atom_site_fract_x
_atom_site_fract_y
_atom_site_fract_z
Si Si1 0.216855 0.500000 0.324888
Si Si2 0.411408 0.500000 0.391510
Si Si3 0.500000 0.500000 0.000000
Si Si4 0.096259 0.738234 0.919659
Si Si5 0.299074 0.262240 0.800096
Si Si6 0.594034 0.000000 0.581902
Si Si7 0.487522 0.240335 0.275074
Si Si8 0.792829 0.000000 0.643893
O O1 0.316057 0.500000 0.353646
O O2 0.213616 0.627148 0.255138
O O3 0.132823 0.500000 0.446593
O O4 0.467993 0.373087 0.340473
O O5 0.375939 0.500000 0.524841
O O6 0.579788 0.386286 0.953662
O O7 0.205494 0.703632 0.905279
O O8 0.084709 0.725801 0.796604
O O9 0.000000 0.669297 0.000000
O O10 0.404582 0.250378 0.812303
O O11 0.302914 0.374811 0.711843
O O12 0.532924 0.124237 0.637810
O O13 0.691109 0.000000 0.618683
#
# Coordination Sequence:
#
# PCOD9216148 Si02
#       8
#     4   4   2   8   8   4   8   4
#     4  11  22  41  68  94 132 183 223 251 307 396
#     4  11  22  41  68  94 132 183 223 251 307 396
#     4   8  20  40  72  86 116 170 204 274 316 388
#     4  10  22  43  67  88 126 161 218 270 321 376
#     4  12  24  41  68  98 131 170 217 267 325 386
#     4  11  23  41  64  97 139 175 207 265 330 381
#     4  12  24  41  68  98 131 170 217 267 325 386
#     4  11  23  41  64  97 139 175 207 265 330 381
#
# _framework density 23.008595
#
# number of rings (size 3 to 8) (size 9 to 14) (size 15 to 20)
#    0.571    0.381    3.810    3.429    0.000    8.381 
#    0.000    1.905    0.000    0.000    0.000    0.000 
#    0.000    0.000    0.000    0.000    0.000    0.000 
#
# Total GULP energy -117155.660011 kJ/mol
# GULP energy per Si atom -5578.840953 kJ/mol
# Density = 2.295623 g / cm^3
# Si number density = 23.008595 Si / 1000 Ang^3
#
#
#
# Elastic Constant Matrix: (Units=GPa)
#
#
# Indices 1 2 3 4 5 6 
#
# 1 111.4271 4.9181 24.0126 0.0000 -28.1974 0.0000
# 2 4.9181 132.9578 23.7479 0.0000 -5.9719 0.0000
# 3 24.0126 23.7479 77.8711 0.0000 -40.5369 0.0000
# 4 0.0000 0.0000 0.0000 200.5529 0.0000 -54.8965
# 5 -28.1974 -5.9719 -40.5369 0.0000 49.6213 0.0000
# 6 0.0000 0.0000 0.0000 -54.8965 0.0000 -192.0250
#
#
#
# Elastic Compliance Matrix: (Units=1/GPa)
#
#
# Indices 1 2 3 4 5 6 
#
# 1 0.010485 -0.000094 -0.000189 0.000000 0.005792 0.000000
# 2 -0.000094 0.008047 -0.003391 0.000000 -0.001855 0.000000
# 3 -0.000189 -0.003391 0.023777 0.000000 0.018909 0.000000
# 4 0.000000 0.000000 0.000000 0.004624 0.000000 -0.001322
# 5 0.005792 -0.001855 0.018909 0.000000 0.038668 0.000000
# 6 0.000000 0.000000 0.000000 -0.001322 0.000000 -0.004830
#
#
# Mechanical properties :
#
#
# Convention : Reuss Voigt Hill
#
# Bulk Modulus (GPa) = 28.60275 47.51258 38.05766
# Shear Modulus (GPa) = 50.11352 29.60167 39.85759
#
# Velocity S-wave (km/s) = 4.67200 3.59074 4.16660
# Velocity P-wave (km/s) = 6.44685 6.15516 6.30269
#
# Compressibility (1/GPa) = 0.03496168
#
# Stress axis : x y z
#
# Youngs Moduli (GPa) = 95.37256 124.27061 42.05693
#
# Poissons Ratio (x) = 0.01166 0.00797
# Poissons Ratio (y) = 0.00895 0.14260
# Poissons Ratio (z) = 0.01806 0.42135
#
# Static dielectric constant tensor:
#      x y z
#    x 1.900710 0.000000 -0.039920 
#    y 0.000000 1.746680 0.000000 
#    z -0.039920 0.000000 1.892920 
# 
# From -- ./inp_files/212495.got.cif
#   From: 2010.05.17/outbox.cif.g08.bks.cpg/sg12_107_cif.got.tgz:212495.got - 2010.06.03 13:09:07.
