data_PCOD9216662
_publ_section_title
;
Structure prediction by ZEFSAII (Michael W. Deem and Ramdas Pophale) SiO2 
 PCOD9216662
Probable space group: C 2/M
;
_chemical_formula_sum "Si O2"
_cell_formula_units_Z 52
_cell_length_a 8.764926
_cell_length_b 24.047727
_cell_length_c 23.894411
_cell_angle_alpha 90.000000
_cell_angle_beta 148.037626
_cell_angle_gamma 90.000000
_cell_volume 2666.070164
_symmetry_space_group_name_H-M "C 2/M"
_symmetry_group_IT_number 12
_symmetry_cell_setting 'monoclinic'
loop_
_space_group_symop_operation_xyz
x,y,z
-x,y,-z
-x,-y,-z
x,-y,z
1/2+x,1/2+y,z
1/2-x,1/2+y,-z
1/2-x,1/2-y,-z
1/2+x,1/2-y,z
loop_
_atom_site_type_symbol
_atom_site_label
_atom_site_fract_x
_atom_site_fract_y
_atom_site_fract_z
Si Si1 0.303295 0.293436 0.567132
Si Si2 0.300718 0.500000 0.992198
Si Si3 0.669256 0.378374 0.612311
Si Si4 0.421749 0.500000 0.796841
Si Si5 0.763191 0.707817 0.878343
Si Si6 0.230696 0.500000 0.373819
Si Si7 0.333064 0.209482 0.245446
Si Si8 0.636347 0.088391 0.105111
O O1 0.250000 0.250000 0.500000
O O2 0.474588 0.345639 0.596134
O O3 0.486229 0.258298 0.668384
O O4 0.000000 0.309195 0.500000
O O5 0.475850 0.500000 0.105864
O O6 0.500000 0.500000 0.000000
O O7 0.087926 0.553007 0.928525
O O8 0.500000 0.376948 0.500000
O O9 0.740237 0.441879 0.649572
O O10 0.961838 0.343386 0.696355
O O11 0.570570 0.553208 0.813089
O O12 0.076980 0.500000 0.690197
O O13 0.757305 0.763820 0.841219
O O14 0.450986 0.697582 0.807839
O O15 0.828592 0.651498 0.864220
O O16 0.000000 0.713146 0.000000
O O17 0.500000 0.500000 0.500000
O O18 0.500000 0.090968 0.000000
#
# Coordination Sequence:
#
# PCOD9216662 Si02
#       8
#     8   4   8   4   8   4   8   8
#     4  12  20  38  64  93 120 151 198 257 303 360
#     4   9  17  34  62  90 115 149 203 251 294 345
#     4  11  22  40  65  92 121 154 203 253 299 366
#     4   9  16  37  62  82 113 159 202 241 288 358
#     4  11  23  38  54  87 127 160 199 249 302 357
#     4  10  23  39  60  90 120 162 201 242 300 361
#     4  12  21  37  62  88 120 162 205 242 304 362
#     4   8  17  35  59  83 113 156 202 245 292 352
#
# _framework density 19.504363000000001
#
# number of rings (size 3 to 8) (size 9 to 14) (size 15 to 20)
#    0.000    1.538    4.615    2.308    0.000    0.000 
#    2.769    4.231    0.000    0.000    0.000    0.000 
#    0.000    0.000    0.000    0.000    0.000    0.000 
#
# Total GULP energy -145208.298823 kJ/mol
# GULP energy per Si atom -5584.934570 kJ/mol
# Density = 1.945997 g / cm^3
# Si number density = 19.504363 Si / 1000 Ang^3
#
#
#
# Elastic Constant Matrix: (Units=GPa)
#
#
# Indices 1 2 3 4 5 6 
#
# 1 75.5649 26.1548 -0.3926 0.0004 25.4901 0.0024
# 2 26.1548 140.0985 15.1513 0.0000 6.8050 -0.0001
# 3 -0.3926 15.1513 52.8451 0.0045 15.3322 0.0067
# 4 0.0004 0.0000 0.0045 6.1961 0.0021 3.2329
# 5 25.4901 6.8050 15.3322 0.0021 34.2221 0.0040
# 6 0.0024 -0.0001 0.0067 3.2329 0.0040 12.6843
#
#
#
# Elastic Compliance Matrix: (Units=1/GPa)
#
#
# Indices 1 2 3 4 5 6 
#
# 1 0.020315 -0.003626 0.006174 0.000001 -0.017176 -0.000002
# 2 -0.003626 0.008024 -0.003044 0.000001 0.002469 0.000001
# 3 0.006174 -0.003044 0.024138 -0.000009 -0.014808 -0.000007
# 4 0.000001 0.000001 -0.000009 0.186147 -0.000003 -0.047445
# 5 -0.017176 0.002469 -0.014808 -0.000003 0.048158 -0.000003
# 6 -0.000002 0.000001 -0.000007 -0.047445 -0.000003 0.090931
#
#
# Mechanical properties :
#
#
# Convention : Reuss Voigt Hill
#
# Bulk Modulus (GPa) = 19.42300 38.92617 29.17459
# Shear Modulus (GPa) = 12.63054 25.79349 19.21202
#
# Velocity S-wave (km/s) = 2.54751 3.64049 3.14189
# Velocity P-wave (km/s) = 4.31659 6.13774 5.30589
#
# Compressibility (1/GPa) = 0.05148535
#
# Stress axis : x y z
#
# Youngs Moduli (GPa) = 49.22506 124.62591 41.42845
#
# Poissons Ratio (x) = 0.45189 -0.25578
# Poissons Ratio (y) = 0.17849 0.12610
# Poissons Ratio (z) = -0.30392 0.37934
#
# Static dielectric constant tensor:
#      x y z
#    x 1.667920 0.000000 -0.023450 
#    y 0.000000 1.704720 0.000000 
#    z -0.023450 0.000000 1.706100 
# 
# From -- ./inp_files/357065.got.cif
#   From: 2010.05.17/outbox.cif.g08.bks.cpg/sg12_179_cif.got.tgz:357065.got - 2010.06.03 13:09:07.
