data_PCOD9216162
_publ_section_title
;
Structure prediction by ZEFSAII (Michael W. Deem and Ramdas Pophale) SiO2 
 PCOD9216162
Probable space group: C 2/M
;
_chemical_formula_sum "Si O2"
_cell_formula_units_Z 56
_cell_length_a 8.859848
_cell_length_b 13.712548
_cell_length_c 22.576802
_cell_angle_alpha 90.000000
_cell_angle_beta 111.372253
_cell_angle_gamma 90.000000
_cell_volume 2554.259032
_symmetry_space_group_name_H-M "C 2/M"
_symmetry_group_IT_number 12
_symmetry_cell_setting 'monoclinic'
loop_
_space_group_symop_operation_xyz
x,y,z
-x,y,-z
-x,-y,-z
x,-y,z
1/2+x,1/2+y,z
1/2-x,1/2+y,-z
1/2-x,1/2-y,-z
1/2+x,1/2-y,z
loop_
_atom_site_type_symbol
_atom_site_label
_atom_site_fract_x
_atom_site_fract_y
_atom_site_fract_z
Si Si1 0.884075 0.390838 0.288841
Si Si2 0.756499 0.387330 0.682367
Si Si3 0.663321 0.884722 0.586310
Si Si4 0.137404 0.799160 0.897110
Si Si5 0.655922 0.888884 0.979375
Si Si6 0.198160 0.263904 0.194285
Si Si7 0.029215 0.799260 0.437701
O O1 0.857354 0.500000 0.262642
O O2 0.788025 0.379174 0.336843
O O3 0.833400 0.313198 0.233392
O O4 0.075053 0.381526 0.329230
O O5 0.712905 0.500000 0.684444
O O6 0.799962 0.338420 0.751123
O O7 0.611646 0.336221 0.626601
O O8 0.503508 0.816871 0.561441
O O9 0.801617 0.834446 0.565906
O O10 0.642187 0.000000 0.569943
O O11 0.160031 0.691038 0.928312
O O12 0.258627 0.816306 0.860407
O O13 0.961894 0.797915 0.842565
O O14 0.185602 0.870552 0.957103
O O15 0.647411 0.000000 0.957349
O O16 0.500000 0.870284 0.000000
O O17 0.000000 0.839361 0.500000
#
# Coordination Sequence:
#
# PCOD9216162 Si02
#       7
#     8   8   8   8   8   8   8
#     4  10  23  43  67  96 133 176 221 281 351 415
#     4  11  25  44  69  97 133 182 231 286 355 420
#     4  11  25  45  71 103 138 181 234 290 355 426
#     4  11  24  40  66 100 130 173 218 274 331 393
#     4  10  22  43  67  94 133 175 220 265 320 398
#     4  12  23  41  66  97 135 169 222 280 339 404
#     4  12  26  47  73 102 141 187 236 296 358 426
#
# _framework density 21.924166
#
# number of rings (size 3 to 8) (size 9 to 14) (size 15 to 20)
#    0.000    1.000    4.286    1.714    2.000    3.714 
#    0.000    2.857    0.000    0.000    0.000    0.000 
#    0.000    0.000    0.000    0.000    0.000    0.000 
#
# Total GULP energy -156413.201093 kJ/mol
# GULP energy per Si atom -5586.185753 kJ/mol
# Density = 2.187427 g / cm^3
# Si number density = 21.924166 Si / 1000 Ang^3
#
#
#
# Elastic Constant Matrix: (Units=GPa)
#
#
# Indices 1 2 3 4 5 6 
#
# 1 68.2480 32.2973 22.5441 0.0000 -4.1875 0.0000
# 2 32.2973 120.8949 25.5992 0.0000 1.3339 0.0000
# 3 22.5441 25.5992 94.6126 0.0000 1.2181 0.0000
# 4 0.0000 0.0000 0.0000 3.7649 0.0000 -2.0984
# 5 -4.1875 1.3339 1.2181 0.0000 40.6370 0.0000
# 6 0.0000 0.0000 0.0000 -2.0984 0.0000 25.1114
#
#
#
# Elastic Compliance Matrix: (Units=1/GPa)
#
#
# Indices 1 2 3 4 5 6 
#
# 1 0.017759 -0.004100 -0.003149 0.000000 0.002059 0.000000
# 2 -0.004100 0.009723 -0.001645 0.000000 -0.000692 0.000000
# 3 -0.003149 -0.001645 0.011773 0.000000 -0.000623 0.000000
# 4 0.000000 0.000000 0.000000 0.278586 0.000000 0.023280
# 5 0.002059 -0.000692 -0.000623 0.000000 0.024862 0.000000
# 6 0.000000 0.000000 0.000000 0.023280 0.000000 0.041768
#
#
# Mechanical properties :
#
#
# Convention : Reuss Voigt Hill
#
# Bulk Modulus (GPa) = 46.58263 49.40407 47.99335
# Shear Modulus (GPa) = 12.21258 27.45698 19.83478
#
# Velocity S-wave (km/s) = 2.36272 3.54271 3.01109
# Velocity P-wave (km/s) = 5.36065 6.27036 5.83327
#
# Compressibility (1/GPa) = 0.02146723
#
# Stress axis : x y z
#
# Youngs Moduli (GPa) = 56.30837 102.84884 84.94201
#
# Poissons Ratio (x) = 0.42172 0.26746
# Poissons Ratio (y) = 0.23089 0.13971
# Poissons Ratio (z) = 0.17730 0.16916
#
# Static dielectric constant tensor:
#      x y z
#    x 1.843880 0.000000 0.009690 
#    y 0.000000 1.777740 0.000000 
#    z 0.009690 0.000000 1.803830 
# 
# From -- ./inp_files/333003.got.cif
#   From: 2010.05.17/outbox.cif.g08.bks.cpg/sg12_167_cif.got.tgz:333003.got - 2010.06.03 13:09:07.
