data_PCOD9216598
_publ_section_title
;
Structure prediction by ZEFSAII (Michael W. Deem and Ramdas Pophale) SiO2 
 PCOD9216598
Probable space group: C 2/M
;
_chemical_formula_sum "Si O2"
_cell_formula_units_Z 40
_cell_length_a 15.876347
_cell_length_b 11.959765
_cell_length_c 13.981349
_cell_angle_alpha 90.000000
_cell_angle_beta 41.325806
_cell_angle_gamma 90.000000
_cell_volume 1753.032191
_symmetry_space_group_name_H-M "C 2/M"
_symmetry_group_IT_number 12
_symmetry_cell_setting 'monoclinic'
loop_
_space_group_symop_operation_xyz
x,y,z
-x,y,-z
-x,-y,-z
x,-y,z
1/2+x,1/2+y,z
1/2-x,1/2+y,-z
1/2-x,1/2-y,-z
1/2+x,1/2-y,z
loop_
_atom_site_type_symbol
_atom_site_label
_atom_site_fract_x
_atom_site_fract_y
_atom_site_fract_z
Si Si1 0.075366 0.727034 0.194857
Si Si2 0.570122 0.000000 0.091464
Si Si3 0.228818 0.761779 0.245181
Si Si4 0.585799 0.370906 0.799854
Si Si5 0.302196 0.000000 0.226845
Si Si6 0.366139 0.128901 0.509645
O O1 0.106532 0.610956 0.116692
O O2 0.185549 0.763838 0.173341
O O3 0.031957 0.818906 0.155572
O O4 0.950844 0.699421 0.365718
O O5 0.416733 0.000000 0.205455
O O6 0.632866 0.000000 0.933536
O O7 0.365807 0.706964 0.153698
O O8 0.225878 0.884327 0.294825
O O9 0.135209 0.678792 0.382113
O O10 0.568200 0.500000 0.841882
O O11 0.712564 0.367393 0.623034
O O12 0.406681 0.000000 0.472303
#
# Coordination Sequence:
#
# PCOD9216598 Si02
#       6
#     8   4   8   8   4   8
#     4  12  21  37  65  95 118 163 206 243 313 364
#     4  11  24  40  73  81 115 173 207 257 290 363
#     4  10  23  38  62  87 127 158 198 260 294 364
#     4   9  21  37  56  91 129 160 190 246 311 358
#     4  11  24  48  57  89 125 157 217 254 301 349
#     4   9  19  37  61  92 126 156 199 250 300 370
#
# _framework density 22.817606999999999
#
# number of rings (size 3 to 8) (size 9 to 14) (size 15 to 20)
#    1.200    0.600    3.000    1.200    4.200    1.600 
#    1.800    1.000    0.000    1.200    0.000    0.000 
#    0.000    0.000    0.000    0.000    0.000    0.000 
#
# Total GULP energy -111719.985231 kJ/mol
# GULP energy per Si atom -5585.999262 kJ/mol
# Density = 2.276567 g / cm^3
# Si number density = 22.817607 Si / 1000 Ang^3
#
#
#
# Elastic Constant Matrix: (Units=GPa)
#
#
# Indices 1 2 3 4 5 6 
#
# 1 139.7955 78.4128 10.3633 0.0000 4.0043 0.0000
# 2 78.4128 137.9578 -9.1015 0.0000 -3.9790 0.0000
# 3 10.3633 -9.1015 65.1454 0.0000 -2.3494 0.0000
# 4 0.0000 0.0000 0.0000 -9.4022 0.0000 9.0132
# 5 4.0043 -3.9790 -2.3494 0.0000 20.0106 0.0000
# 6 0.0000 0.0000 0.0000 9.0132 0.0000 32.9142
#
#
#
# Elastic Compliance Matrix: (Units=1/GPa)
#
#
# Indices 1 2 3 4 5 6 
#
# 1 0.011225 -0.006682 -0.002860 0.000000 -0.003911 0.000000
# 2 -0.006682 0.011343 0.002789 0.000000 0.003920 0.000000
# 3 -0.002860 0.002789 0.016305 0.000000 0.003041 0.000000
# 4 0.000000 0.000000 0.000000 -0.084243 0.000000 0.023069
# 5 -0.003911 0.003920 0.003041 0.000000 0.051893 0.000000
# 6 0.000000 0.000000 0.000000 0.023069 0.000000 0.024065
#
#
# Mechanical properties :
#
#
# Convention : Reuss Voigt Hill
#
# Bulk Modulus (GPa) = 39.42040 55.80530 47.61285
# Shear Modulus (GPa) = 95.14964 26.25280 60.70122
#
# Velocity S-wave (km/s) = 6.46457 3.39566 5.16339
# Velocity P-wave (km/s) = 8.54603 6.31539 7.51395
#
# Compressibility (1/GPa) = 0.02536758
#
# Stress axis : x y z
#
# Youngs Moduli (GPa) = 89.08528 88.15678 61.33224
#
# Poissons Ratio (x) = 0.58904 0.17542
# Poissons Ratio (y) = 0.59524 -0.17106
# Poissons Ratio (z) = 0.25481 -0.24588
#
# Static dielectric constant tensor:
#      x y z
#    x 1.862630 0.000000 -0.023580 
#    y 0.000000 1.788120 0.000000 
#    z -0.023580 0.000000 1.874070 
# 
# From -- ./inp_files/212394.got.cif
#   From: 2010.05.17/outbox.cif.g08.bks.cpg/sg12_107_cif.got.tgz:212394.got - 2010.06.03 13:09:07.
