data_PCOD9216770
_publ_section_title
;
Structure prediction by ZEFSAII (Michael W. Deem and Ramdas Pophale) SiO2 
 PCOD9216770
Probable space group: C 2/M
;
_chemical_formula_sum "Si O2"
_cell_formula_units_Z 32
_cell_length_a 9.369008
_cell_length_b 22.298390
_cell_length_c 11.453740
_cell_angle_alpha 90.000000
_cell_angle_beta 142.785336
_cell_angle_gamma 90.000000
_cell_volume 1447.199293
_symmetry_space_group_name_H-M "C 2/M"
_symmetry_group_IT_number 12
_symmetry_cell_setting 'monoclinic'
loop_
_space_group_symop_operation_xyz
x,y,z
-x,y,-z
-x,-y,-z
x,-y,z
1/2+x,1/2+y,z
1/2-x,1/2+y,-z
1/2-x,1/2-y,-z
1/2+x,1/2-y,z
loop_
_atom_site_type_symbol
_atom_site_label
_atom_site_fract_x
_atom_site_fract_y
_atom_site_fract_z
Si Si1 0.726827 0.433891 0.786773
Si Si2 0.887100 0.106733 0.034454
Si Si3 0.778771 0.795263 0.656041
Si Si4 0.862256 0.660587 0.685291
O O1 0.662002 0.500000 0.700172
O O2 0.605375 0.423112 0.832774
O O3 0.728380 0.381082 0.691776
O O4 0.000000 0.435951 0.000000
O O5 0.068454 0.161791 0.165025
O O6 0.618367 0.129142 0.836687
O O7 0.000000 0.070810 0.000000
O O8 0.500000 0.790110 0.500000
O O9 0.890067 0.729366 0.744001
O O10 0.776695 0.825620 0.525686
#
# Coordination Sequence:
#
# PCOD9216770 Si02
#       4
#     8   8   8   8
#     4   9  21  42  67  91 121 168 215 255 304 367
#     4  11  22  39  62  92 128 162 206 256 315 368
#     4  11  23  38  62  93 130 164 201 255 320 373
#     4  10  23  40  62  91 127 164 207 258 305 375
#
# _framework density 22.111675999999999
#
# number of rings (size 3 to 8) (size 9 to 14) (size 15 to 20)
#    0.000    1.750    2.500    0.750    7.000    3.500 
#    0.000    2.500    0.000    1.500    0.000    0.000 
#    0.000    0.000    0.000    0.000    0.000    0.000 
#
# Total GULP energy -89167.406947 kJ/mol
# GULP energy per Si atom -5572.962934 kJ/mol
# Density = 2.206135 g / cm^3
# Si number density = 22.111676 Si / 1000 Ang^3
#
#
#
# Elastic Constant Matrix: (Units=GPa)
#
#
# Indices 1 2 3 4 5 6 
#
# 1 177.7250 63.2998 27.3653 0.0000 -14.4051 0.0000
# 2 63.2998 122.0275 44.3085 0.0000 -28.2500 0.0000
# 3 27.3653 44.3085 69.4710 0.0000 2.4634 0.0000
# 4 0.0000 0.0000 0.0000 20.1668 0.0000 -15.4090
# 5 -14.4051 -28.2500 2.4634 0.0000 40.4494 0.0000
# 6 0.0000 0.0000 0.0000 -15.4090 0.0000 9.0511
#
#
#
# Elastic Compliance Matrix: (Units=1/GPa)
#
#
# Indices 1 2 3 4 5 6 
#
# 1 0.006920 -0.003327 -0.000610 0.000000 0.000178 0.000000
# 2 -0.003327 0.015540 -0.008963 0.000000 0.010214 0.000000
# 3 -0.000610 -0.008963 0.020626 0.000000 -0.007733 0.000000
# 4 0.000000 0.000000 0.000000 -0.164851 0.000000 -0.280650
# 5 0.000178 0.010214 -0.007733 0.000000 0.032390 0.000000
# 6 0.000000 0.000000 0.000000 -0.280650 0.000000 -0.367305
#
#
# Mechanical properties :
#
#
# Convention : Reuss Voigt Hill
#
# Bulk Modulus (GPa) = 57.85287 71.01897 64.43592
# Shear Modulus (GPa) = -11.76140 29.55016 8.89438
#
# Velocity S-wave (km/s) = -2.30882 3.65965 2.00779
# Velocity P-wave (km/s) = 4.37187 7.07428 5.88042
#
# Compressibility (1/GPa) = 0.01728523
#
# Stress axis : x y z
#
# Youngs Moduli (GPa) = 144.50936 64.35161 48.48330
#
# Poissons Ratio (x) = 0.21408 0.02959
# Poissons Ratio (y) = 0.48075 0.43455
# Poissons Ratio (z) = 0.08820 0.57678
#
# Static dielectric constant tensor:
#      x y z
#    x 1.934530 0.000000 -0.058410 
#    y 0.000000 1.811070 0.000000 
#    z -0.058410 0.000000 1.822460 
# 
# From -- ./inp_files/37515.got.cif
#   From: 2010.05.17/outbox.cif.g08.bks.cpg/sg12_19_cif.got.tgz:37515.got - 2010.06.03 13:09:07.
