data_PCOD9216003
_publ_section_title
;
Structure prediction by ZEFSAII (Michael W. Deem and Ramdas Pophale) SiO2 
 PCOD9216003
Probable space group: C 2/M
;
_chemical_formula_sum "Si O2"
_cell_formula_units_Z 40
_cell_length_a 11.953572
_cell_length_b 14.343700
_cell_length_c 11.217720
_cell_angle_alpha 90.000000
_cell_angle_beta 68.388356
_cell_angle_gamma 90.000000
_cell_volume 1788.162959
_symmetry_space_group_name_H-M "C 2/M"
_symmetry_group_IT_number 12
_symmetry_cell_setting 'monoclinic'
loop_
_space_group_symop_operation_xyz
x,y,z
-x,y,-z
-x,-y,-z
x,-y,z
1/2+x,1/2+y,z
1/2-x,1/2+y,-z
1/2-x,1/2-y,-z
1/2+x,1/2-y,z
loop_
_atom_site_type_symbol
_atom_site_label
_atom_site_fract_x
_atom_site_fract_y
_atom_site_fract_z
Si Si1 0.417003 0.104066 0.702253
Si Si2 0.978429 0.110932 0.144499
Si Si3 0.689690 0.109198 0.685729
Si Si4 0.797169 0.213948 0.856072
Si Si5 0.725591 0.390500 0.590610
O O1 0.555535 0.110237 0.684780
O O2 0.356420 0.192900 0.783289
O O3 0.360907 0.110416 0.591551
O O4 0.375788 0.000000 0.759824
O O5 0.868192 0.145197 0.272455
O O6 0.099512 0.137338 0.164984
O O7 0.961204 0.000000 0.139934
O O8 0.000000 0.147195 0.000000
O O9 0.704982 0.167774 0.799604
O O10 0.773233 0.148015 0.544502
O O11 0.718571 0.000000 0.697253
O O12 0.750000 0.250000 0.000000
O O13 0.695489 0.500000 0.587323
#
# Coordination Sequence:
#
# PCOD9216003 Si02
#       5
#     8   8   8   8   8
#     4  10  23  43  67  96 134 178 219 271 336 402
#     4  10  22  42  69  97 132 175 222 278 340 397
#     4  10  23  45  70  99 134 173 222 281 340 398
#     4  12  27  41  65  94 135 175 232 281 330 400
#     4   9  19  41  71  99 131 172 220 275 338 405
#
# _framework density 22.369323999999999
#
# number of rings (size 3 to 8) (size 9 to 14) (size 15 to 20)
#    0.000    1.800    0.000    2.400    5.600    7.200 
#    3.600    5.000    0.000    0.000    0.000    0.000 
#    0.000    0.000    0.000    0.000    0.000    0.000 
#
# Total GULP energy -111520.940144 kJ/mol
# GULP energy per Si atom -5576.047007 kJ/mol
# Density = 2.231841 g / cm^3
# Si number density = 22.369324 Si / 1000 Ang^3
#
#
#
# Elastic Constant Matrix: (Units=GPa)
#
#
# Indices 1 2 3 4 5 6 
#
# 1 93.8847 8.9458 44.0334 0.0000 6.9017 0.0000
# 2 8.9458 59.5689 44.6966 0.0000 6.1574 0.0000
# 3 44.0334 44.6966 142.4871 0.0000 18.7830 0.0000
# 4 0.0000 0.0000 0.0000 19.1325 0.0000 9.8694
# 5 6.9017 6.1574 18.7830 0.0000 21.8545 0.0000
# 6 0.0000 0.0000 0.0000 9.8694 0.0000 42.3973
#
#
#
# Elastic Compliance Matrix: (Units=1/GPa)
#
#
# Indices 1 2 3 4 5 6 
#
# 1 0.012548 0.001345 -0.004204 0.000000 -0.000729 0.000000
# 2 0.001345 0.022101 -0.007299 0.000000 -0.000379 0.000000
# 3 -0.004204 -0.007299 0.011459 0.000000 -0.006465 0.000000
# 4 0.000000 0.000000 0.000000 0.059400 0.000000 -0.013827
# 5 -0.000729 -0.000379 -0.006465 0.000000 0.051650 0.000000
# 6 0.000000 0.000000 0.000000 -0.013827 0.000000 0.026805
#
#
# Mechanical properties :
#
#
# Convention : Reuss Voigt Hill
#
# Bulk Modulus (GPa) = 38.76912 54.58806 46.67859
# Shear Modulus (GPa) = 23.48794 29.89451 26.69123
#
# Velocity S-wave (km/s) = 3.24390 3.65966 3.45803
# Velocity P-wave (km/s) = 5.60352 6.50488 6.07096
#
# Compressibility (1/GPa) = 0.02579372
#
# Stress axis : x y z
#
# Youngs Moduli (GPa) = 79.69142 45.24733 87.26821
#
# Poissons Ratio (x) = -0.06086 0.36685
# Poissons Ratio (y) = -0.10719 0.63693
# Poissons Ratio (z) = 0.33500 0.33024
#
# Static dielectric constant tensor:
#      x y z
#    x 1.824790 0.000000 0.007420 
#    y 0.000000 1.812850 0.000000 
#    z 0.007420 0.000000 1.832770 
# 
# From -- ./inp_files/98291.got.cif
#   From: 2010.05.17/outbox.cif.g08.bks.cpg/sg12_50_cif.got.tgz:98291.got - 2010.06.03 13:09:07.
