data_PCOD9216658
_publ_section_title
;
Structure prediction by ZEFSAII (Michael W. Deem and Ramdas Pophale) SiO2 
 PCOD9216658
Probable space group: C 2/M
;
_chemical_formula_sum "Si O2"
_cell_formula_units_Z 40
_cell_length_a 18.555126
_cell_length_b 7.742806
_cell_length_c 12.286421
_cell_angle_alpha 90.000000
_cell_angle_beta 100.545106
_cell_angle_gamma 90.000000
_cell_volume 1735.362845
_symmetry_space_group_name_H-M "C 2/M"
_symmetry_group_IT_number 12
_symmetry_cell_setting 'monoclinic'
loop_
_space_group_symop_operation_xyz
x,y,z
-x,y,-z
-x,-y,-z
x,-y,z
1/2+x,1/2+y,z
1/2-x,1/2+y,-z
1/2-x,1/2-y,-z
1/2+x,1/2-y,z
loop_
_atom_site_type_symbol
_atom_site_label
_atom_site_fract_x
_atom_site_fract_y
_atom_site_fract_z
Si Si1 0.582345 0.705807 0.500325
Si Si2 0.228179 0.192996 0.152867
Si Si3 0.519451 0.000000 0.828771
Si Si4 0.889123 0.797598 0.247440
Si Si5 0.621267 0.000000 0.070150
Si Si6 0.797943 0.305308 0.617256
O O1 0.500000 0.762782 0.500000
O O2 0.582197 0.500000 0.478374
O O3 0.622767 0.732862 0.626684
O O4 0.621079 0.795663 0.410698
O O5 0.312863 0.250698 0.168127
O O6 0.173164 0.332797 0.088452
O O7 0.210978 0.194110 0.277670
O O8 0.218963 0.000000 0.106348
O O9 0.546499 0.170874 0.773188
O O10 0.435105 0.000000 0.842932
O O11 0.569582 0.000000 0.951308
O O12 0.906943 0.000000 0.237926
O O13 0.777776 0.500000 0.643215
O O14 0.750000 0.250000 0.500000
#
# Coordination Sequence:
#
# PCOD9216658 Si02
#       6
#     8   8   4   8   4   8
#     4  10  23  39  59  95 137 180 223 265 325 402
#     4  12  24  44  71 102 138 184 232 282 340 411
#     4  11  28  50  74  99 139 172 224 303 362 403
#     4  11  23  44  71 103 141 179 230 284 341 411
#     4  11  28  52  71 104 133 173 235 291 354 427
#     4  12  23  37  61  95 138 177 224 272 320 394
#
# _framework density 23.049932999999999
#
# number of rings (size 3 to 8) (size 9 to 14) (size 15 to 20)
#    0.000    0.800    5.000    1.800    4.200    2.800 
#    0.000    2.000    0.000    0.000    0.000    0.000 
#    0.000    0.000    0.000    0.000    0.000    0.000 
#
# Total GULP energy -112027.138173 kJ/mol
# GULP energy per Si atom -5601.356909 kJ/mol
# Density = 2.299747 g / cm^3
# Si number density = 23.049933 Si / 1000 Ang^3
#
#
#
# Elastic Constant Matrix: (Units=GPa)
#
#
# Indices 1 2 3 4 5 6 
#
# 1 98.8583 25.3146 9.2270 0.0000 1.5444 0.0000
# 2 25.3146 148.1945 21.8433 0.0000 0.5363 0.0000
# 3 9.2270 21.8433 68.5915 0.0000 -5.3915 0.0000
# 4 0.0000 0.0000 0.0000 23.7047 0.0000 -3.1121
# 5 1.5444 0.5363 -5.3915 0.0000 40.6435 0.0000
# 6 0.0000 0.0000 0.0000 -3.1121 0.0000 20.6542
#
#
#
# Elastic Compliance Matrix: (Units=1/GPa)
#
#
# Indices 1 2 3 4 5 6 
#
# 1 0.010640 -0.001678 -0.000937 0.000000 -0.000506 0.000000
# 2 -0.001678 0.007351 -0.002140 0.000000 -0.000317 0.000000
# 3 -0.000937 -0.002140 0.015554 0.000000 0.002127 0.000000
# 4 0.000000 0.000000 0.000000 0.043037 0.000000 0.006485
# 5 -0.000506 -0.000317 0.002127 0.000000 0.024910 0.000000
# 6 0.000000 0.000000 0.000000 0.006485 0.000000 0.049393
#
#
# Mechanical properties :
#
#
# Convention : Reuss Voigt Hill
#
# Bulk Modulus (GPa) = 41.60470 47.60158 44.60314
# Shear Modulus (GPa) = 29.68993 34.28442 31.98718
#
# Velocity S-wave (km/s) = 3.59286 3.86086 3.72927
# Velocity P-wave (km/s) = 5.94143 6.36957 6.15922
#
# Compressibility (1/GPa) = 0.02403575
#
# Stress axis : x y z
#
# Youngs Moduli (GPa) = 93.98093 136.03446 64.29271
#
# Poissons Ratio (x) = 0.22822 0.06024
# Poissons Ratio (y) = 0.15767 0.13760
# Poissons Ratio (z) = 0.08805 0.29114
#
# Static dielectric constant tensor:
#      x y z
#    x 1.891900 0.000000 0.008820 
#    y 0.000000 1.833460 0.000000 
#    z 0.008820 0.000000 1.888720 
# 
# From -- ./inp_files/162667.got.cif
#   From: 2010.05.17/outbox.cif.g08.bks.cpg/sg12_82_cif.got.tgz:162667.got - 2010.06.03 13:09:07.
