data_PCOD9216962
_publ_section_title
;
Structure prediction by ZEFSAII (Michael W. Deem and Ramdas Pophale) SiO2 
 PCOD9216962
Probable space group: C 2/M
;
_chemical_formula_sum "Si O2"
_cell_formula_units_Z 36
_cell_length_a 5.006103
_cell_length_b 28.209169
_cell_length_c 12.303816
_cell_angle_alpha 90.000000
_cell_angle_beta 68.078030
_cell_angle_gamma 90.000000
_cell_volume 1611.885757
_symmetry_space_group_name_H-M "C 2/M"
_symmetry_group_IT_number 12
_symmetry_cell_setting 'monoclinic'
loop_
_space_group_symop_operation_xyz
x,y,z
-x,y,-z
-x,-y,-z
x,-y,z
1/2+x,1/2+y,z
1/2-x,1/2+y,-z
1/2-x,1/2-y,-z
1/2+x,1/2-y,z
loop_
_atom_site_type_symbol
_atom_site_label
_atom_site_fract_x
_atom_site_fract_y
_atom_site_fract_z
Si Si1 0.718225 0.861016 0.297757
Si Si2 0.296051 0.500000 0.380586
Si Si3 0.648971 0.594409 0.374178
Si Si4 0.224405 0.500000 0.126879
Si Si5 0.500000 0.215670 0.500000
Si Si6 0.669685 0.104001 0.078663
O O1 0.483396 0.903339 0.353405
O O2 0.609653 0.817579 0.385096
O O3 0.681170 0.858733 0.174950
O O4 0.035587 0.876523 0.286926
O O5 0.495333 0.544557 0.382885
O O6 0.275615 0.500000 0.250280
O O7 0.000000 0.500000 0.500000
O O8 0.500000 0.619253 0.500000
O O9 0.064137 0.550198 0.126802
O O10 0.500000 0.500000 0.000000
O O11 0.250000 0.250000 0.500000
O O12 0.500000 0.120247 0.000000
O O13 0.000000 0.096735 0.000000
#
# Coordination Sequence:
#
# PCOD9216962 Si02
#       6
#     8   4   8   4   4   8
#     4  12  24  44  71  99 137 176 228 284 358 426
#     4  12  25  41  61 102 147 195 250 296 340 397
#     4  12  23  40  62  97 141 183 226 278 339 408
#     4  10  23  41  61  94 140 196 250 282 324 387
#     4  12  26  48  76 107 136 167 218 296 386 458
#     4  11  24  43  66  96 138 191 243 285 325 396
#
# _framework density 22.334088000000001
#
# number of rings (size 3 to 8) (size 9 to 14) (size 15 to 20)
#    0.000    0.444    4.444    4.667    3.111    1.778 
#    0.000    0.000    0.000    4.000    0.000    0.000 
#    0.000    0.000    0.000    0.000    0.000    0.000 
#
# Total GULP energy -100509.976651 kJ/mol
# GULP energy per Si atom -5583.887592 kJ/mol
# Density = 2.228325 g / cm^3
# Si number density = 22.334088 Si / 1000 Ang^3
#
#
#
# Elastic Constant Matrix: (Units=GPa)
#
#
# Indices 1 2 3 4 5 6 
#
# 1 122.7769 41.4109 28.8218 0.0000 22.2906 0.0000
# 2 41.4109 118.2093 50.0400 0.0000 15.6462 0.0000
# 3 28.8218 50.0400 145.8180 0.0000 42.0070 0.0000
# 4 0.0000 0.0000 0.0000 33.5868 0.0000 14.8342
# 5 22.2906 15.6462 42.0070 0.0000 52.8166 0.0000
# 6 0.0000 0.0000 0.0000 14.8342 0.0000 23.0319
#
#
#
# Elastic Compliance Matrix: (Units=1/GPa)
#
#
# Indices 1 2 3 4 5 6 
#
# 1 0.009737 -0.002998 0.000042 0.000000 -0.003255 0.000000
# 2 -0.002998 0.010824 -0.003324 0.000000 0.000703 0.000000
# 3 0.000042 -0.003324 0.010004 0.000000 -0.006989 0.000000
# 4 0.000000 0.000000 0.000000 0.041610 0.000000 -0.026800
# 5 -0.003255 0.000703 -0.006989 0.000000 0.025658 0.000000
# 6 0.000000 0.000000 0.000000 -0.026800 0.000000 0.060679
#
#
# Mechanical properties :
#
#
# Convention : Reuss Voigt Hill
#
# Bulk Modulus (GPa) = 55.54351 69.70552 62.62451
# Shear Modulus (GPa) = 28.23668 39.65582 33.94625
#
# Velocity S-wave (km/s) = 3.55954 4.21833 3.90286
# Velocity P-wave (km/s) = 6.46662 7.41646 6.95776
#
# Compressibility (1/GPa) = 0.01800391
#
# Stress axis : x y z
#
# Youngs Moduli (GPa) = 102.69998 92.38672 99.96127
#
# Poissons Ratio (x) = 0.27698 -0.00418
# Poissons Ratio (y) = 0.30790 0.33231
# Poissons Ratio (z) = -0.00429 0.30713
#
# Static dielectric constant tensor:
#      x y z
#    x 1.818090 0.000000 -0.038240 
#    y 0.000000 1.815450 0.000000 
#    z -0.038240 0.000000 1.960610 
# 
# From -- ./inp_files/115845.got.cif
#   From: 2010.05.17/outbox.cif.g08.bks.cpg/sg12_58_cif.got.tgz:115845.got - 2010.06.03 13:09:07.
