data_PCOD9216977
_publ_section_title
;
Structure prediction by ZEFSAII (Michael W. Deem and Ramdas Pophale) SiO2 
 PCOD9216977
Probable space group: C 2/M
;
_chemical_formula_sum "Si O2"
_cell_formula_units_Z 48
_cell_length_a 18.814828
_cell_length_b 26.969021
_cell_length_c 9.392803
_cell_angle_alpha 90.000000
_cell_angle_beta 150.037199
_cell_angle_gamma 90.000000
_cell_volume 2380.355981
_symmetry_space_group_name_H-M "C 2/M"
_symmetry_group_IT_number 12
_symmetry_cell_setting 'monoclinic'
loop_
_space_group_symop_operation_xyz
x,y,z
-x,y,-z
-x,-y,-z
x,-y,z
1/2+x,1/2+y,z
1/2-x,1/2+y,-z
1/2-x,1/2-y,-z
1/2+x,1/2-y,z
loop_
_atom_site_type_symbol
_atom_site_label
_atom_site_fract_x
_atom_site_fract_y
_atom_site_fract_z
Si Si1 0.704349 0.056523 0.185545
Si Si2 0.866673 0.334457 0.864846
Si Si3 0.447318 0.305241 0.753592
Si Si4 0.496027 0.421489 0.156982
Si Si5 0.355258 0.441372 0.180602
Si Si6 0.600701 0.230362 0.805297
O O1 0.640315 0.105368 0.146923
O O2 0.865237 0.055434 0.527419
O O3 0.723914 0.071708 0.053117
O O4 0.645676 0.000000 0.098218
O O5 0.723031 0.309502 0.554130
O O6 0.878024 0.313487 0.044253
O O7 0.000000 0.320527 0.000000
O O8 0.494653 0.362284 0.821570
O O9 0.519150 0.272970 0.754637
O O10 0.500000 0.288424 0.000000
O O11 0.361501 0.433580 0.023066
O O12 0.500000 0.437156 0.000000
O O13 0.500000 0.417843 0.500000
O O14 0.364526 0.500000 0.217704
O O15 0.500000 0.215646 0.500000
O O16 0.750000 0.250000 0.000000
#
# Coordination Sequence:
#
# PCOD9216977 Si02
#       6
#     8   8   8   8   8   8
#     4   9  19  36  57  85 120 166 216 258 310 377
#     4  11  25  43  65  94 131 174 215 265 325 382
#     4  10  23  41  62  92 132 171 209 263 319 384
#     4   9  17  29  52  87 125 160 204 262 318 370
#     4   8  14  25  45  71 107 151 196 251 304 354
#     4  12  26  43  68  99 126 168 211 268 326 387
#
# _framework density 20.165050999999998
#
# number of rings (size 3 to 8) (size 9 to 14) (size 15 to 20)
#    0.000    2.167    1.667    2.000    4.667    3.667 
#    0.000    0.000    0.000    0.500    0.000    0.000 
#    0.000    0.000    0.000    0.000    0.000    0.000 
#
# Total GULP energy -133712.303054 kJ/mol
# GULP energy per Si atom -5571.345961 kJ/mol
# Density = 2.011915 g / cm^3
# Si number density = 20.165051 Si / 1000 Ang^3
#
#
#
# Elastic Constant Matrix: (Units=GPa)
#
#
# Indices 1 2 3 4 5 6 
#
# 1 132.4522 33.5497 59.9925 0.0000 -4.7897 0.0000
# 2 33.5497 110.9422 27.5804 0.0000 8.2499 0.0000
# 3 59.9925 27.5804 90.4292 0.0000 -7.5074 0.0000
# 4 0.0000 0.0000 0.0000 16.2926 0.0000 -0.3506
# 5 -4.7897 8.2499 -7.5074 0.0000 38.8188 0.0000
# 6 0.0000 0.0000 0.0000 -0.3506 0.0000 9.7619
#
#
#
# Elastic Compliance Matrix: (Units=1/GPa)
#
#
# Indices 1 2 3 4 5 6 
#
# 1 0.011070 -0.001689 -0.006795 0.000000 0.000411 0.000000
# 2 -0.001689 0.010296 -0.002255 0.000000 -0.002833 0.000000
# 3 -0.006795 -0.002255 0.016489 0.000000 0.002830 0.000000
# 4 0.000000 0.000000 0.000000 0.061425 0.000000 0.002206
# 5 0.000411 -0.002833 0.002830 0.000000 0.026961 0.000000
# 6 0.000000 0.000000 0.000000 0.002206 0.000000 0.102519
#
#
# Mechanical properties :
#
#
# Convention : Reuss Voigt Hill
#
# Bulk Modulus (GPa) = 61.06009 64.00765 62.53387
# Shear Modulus (GPa) = 19.55448 27.15470 23.35459
#
# Velocity S-wave (km/s) = 3.11741 3.67362 3.40688
# Velocity P-wave (km/s) = 6.58055 7.05725 6.82306
#
# Compressibility (1/GPa) = 0.01637731
#
# Stress axis : x y z
#
# Youngs Moduli (GPa) = 90.33201 97.12845 60.64686
#
# Poissons Ratio (x) = 0.16405 0.41209
# Poissons Ratio (y) = 0.15257 0.13674
# Poissons Ratio (z) = 0.61380 0.21900
#
# Static dielectric constant tensor:
#      x y z
#    x 1.792370 0.000000 -0.005800 
#    y 0.000000 1.731410 0.000000 
#    z -0.005800 0.000000 1.716150 
# 
# From -- ./inp_files/80863.got.cif
#   From: 2010.05.17/outbox.cif.g08.bks.cpg/sg12_41_cif.got.tgz:80863.got - 2010.06.03 13:09:07.
