data_PCOD9216485
_publ_section_title
;
Structure prediction by ZEFSAII (Michael W. Deem and Ramdas Pophale) SiO2 
 PCOD9216485
Probable space group: C 2/M
;
_chemical_formula_sum "Si O2"
_cell_formula_units_Z 48
_cell_length_a 8.712895
_cell_length_b 21.790379
_cell_length_c 12.660118
_cell_angle_alpha 90.000000
_cell_angle_beta 121.730022
_cell_angle_gamma 90.000000
_cell_volume 2044.360786
_symmetry_space_group_name_H-M "C 2/M"
_symmetry_group_IT_number 12
_symmetry_cell_setting 'monoclinic'
loop_
_space_group_symop_operation_xyz
x,y,z
-x,y,-z
-x,-y,-z
x,-y,z
1/2+x,1/2+y,z
1/2-x,1/2+y,-z
1/2-x,1/2-y,-z
1/2+x,1/2-y,z
loop_
_atom_site_type_symbol
_atom_site_label
_atom_site_fract_x
_atom_site_fract_y
_atom_site_fract_z
Si Si1 0.312817 0.683096 0.555022
Si Si2 0.109505 0.000000 0.661000
Si Si3 0.411078 0.629744 0.076872
Si Si4 0.840098 0.617755 0.696030
Si Si5 0.598664 0.500000 0.912827
Si Si6 0.795051 0.355350 0.269207
Si Si7 0.296811 0.714260 0.207630
O O1 0.250000 0.750000 0.500000
O O2 0.283527 0.639483 0.446358
O O3 0.185448 0.659375 0.601439
O O4 0.514156 0.692895 0.670352
O O5 0.237534 0.059726 0.704867
O O6 0.036907 0.000000 0.760588
O O7 0.000000 0.000000 0.500000
O O8 0.303500 0.566112 0.040395
O O9 0.603142 0.610959 0.198882
O O10 0.311756 0.685049 0.097614
O O11 0.500000 0.649464 0.000000
O O12 0.848822 0.675576 0.779251
O O13 0.041458 0.609055 0.724512
O O14 0.500000 0.500000 0.000000
O O15 0.779688 0.286759 0.213306
#
# Coordination Sequence:
#
# PCOD9216485 Si02
#       7
#     8   4   8   8   4   8   8
#     4  11  20  35  58  89 127 172 207 245 306 400
#     4  12  26  43  65 103 137 173 213 273 335 388
#     4  10  23  43  67  86 117 169 219 266 320 386
#     4  12  23  37  60  94 135 165 206 270 322 383
#     4  10  22  47  74  86 117 180 237 257 304 409
#     4  11  23  37  60  97 127 160 215 262 329 384
#     4  11  20  37  62  91 125 164 212 258 317 390
#
# _framework density 23.479220999999999
#
# number of rings (size 3 to 8) (size 9 to 14) (size 15 to 20)
#    0.000    1.000    5.000    3.000    2.333    1.333 
#    0.000    2.500    0.000    2.000    0.000    0.000 
#    0.000    0.000    0.000    0.000    0.000    0.000 
#
# Total GULP energy -133619.387312 kJ/mol
# GULP energy per Si atom -5567.474471 kJ/mol
# Density = 2.342578 g / cm^3
# Si number density = 23.479221 Si / 1000 Ang^3
#
#
#
# Elastic Constant Matrix: (Units=GPa)
#
#
# Indices 1 2 3 4 5 6 
#
# 1 85.2792 33.0438 17.6457 0.0000 -22.4988 0.0000
# 2 33.0438 96.6862 26.2234 0.0000 -20.4527 0.0000
# 3 17.6457 26.2234 78.3670 0.0000 -39.8912 0.0000
# 4 0.0000 0.0000 0.0000 2.6755 0.0000 -25.6252
# 5 -22.4988 -20.4527 -39.8912 0.0000 46.9674 0.0000
# 6 0.0000 0.0000 0.0000 -25.6252 0.0000 35.8788
#
#
#
# Elastic Compliance Matrix: (Units=1/GPa)
#
#
# Indices 1 2 3 4 5 6 
#
# 1 0.014703 -0.004023 0.001284 0.000000 0.006382 0.000000
# 2 -0.004023 0.012726 -0.002665 0.000000 0.001351 0.000000
# 3 0.001284 -0.002665 0.023052 0.000000 0.019033 0.000000
# 4 0.000000 0.000000 0.000000 -0.063994 0.000000 -0.045706
# 5 0.006382 0.001351 0.019033 0.000000 0.041103 0.000000
# 6 0.000000 0.000000 0.000000 -0.045706 0.000000 -0.004772
#
#
# Mechanical properties :
#
#
# Convention : Reuss Voigt Hill
#
# Bulk Modulus (GPa) = 25.20575 46.01757 35.61166
# Shear Modulus (GPa) = 106.72405 29.33230 68.02818
#
# Velocity S-wave (km/s) = 6.74932 3.53836 5.38857
# Velocity P-wave (km/s) = 8.45556 6.02786 7.34274
#
# Compressibility (1/GPa) = 0.03967349
#
# Stress axis : x y z
#
# Youngs Moduli (GPa) = 68.01271 78.57716 43.38101
#
# Poissons Ratio (x) = 0.31614 -0.05571
# Poissons Ratio (y) = 0.27363 0.11560
# Poissons Ratio (z) = -0.08735 0.20939
#
# Static dielectric constant tensor:
#      x y z
#    x 1.913890 0.000000 0.004230 
#    y 0.000000 1.841990 0.000000 
#    z 0.004230 0.000000 2.170570 
# 
# From -- ./inp_files/122463.got.cif
#   From: 2010.05.17/outbox.cif.g08.bks.cpg/sg12_62_cif.got.tgz:122463.got - 2010.06.03 13:09:07.
