data_PCOD9216902
_publ_section_title
;
Structure prediction by ZEFSAII (Michael W. Deem and Ramdas Pophale) SiO2 
 PCOD9216902
Probable space group: C 2/M
;
_chemical_formula_sum "Si O2"
_cell_formula_units_Z 48
_cell_length_a 19.618763
_cell_length_b 7.625499
_cell_length_c 21.050922
_cell_angle_alpha 90.000000
_cell_angle_beta 143.681080
_cell_angle_gamma 90.000000
_cell_volume 1865.252149
_symmetry_space_group_name_H-M "C 2/M"
_symmetry_group_IT_number 12
_symmetry_cell_setting 'monoclinic'
loop_
_space_group_symop_operation_xyz
x,y,z
-x,y,-z
-x,-y,-z
x,-y,z
1/2+x,1/2+y,z
1/2-x,1/2+y,-z
1/2-x,1/2-y,-z
1/2+x,1/2-y,z
loop_
_atom_site_type_symbol
_atom_site_label
_atom_site_fract_x
_atom_site_fract_y
_atom_site_fract_z
Si Si1 0.903328 0.300253 0.973791
Si Si2 0.442284 0.785627 0.554628
Si Si3 0.830639 0.713412 0.337013
Si Si4 0.575094 0.797873 0.322134
Si Si5 0.692195 0.288891 0.888379
Si Si6 0.907783 0.797820 0.802765
O O1 0.884805 0.500000 0.939448
O O2 0.976348 0.302764 0.094299
O O3 0.780955 0.220665 0.900778
O O4 0.000000 0.218544 0.000000
O O5 0.574781 0.728695 0.642587
O O6 0.377124 0.734474 0.441643
O O7 0.393980 0.723087 0.585450
O O8 0.441927 0.000000 0.556382
O O9 0.828673 0.500000 0.334580
O O10 0.699035 0.770777 0.235917
O O11 0.435733 0.785309 0.213996
O O12 0.621933 0.710327 0.293834
O O13 0.609485 0.000000 0.345007
O O14 0.684046 0.500000 0.876722
O O15 0.750000 0.250000 0.000000
O O16 0.929105 0.000000 0.833509
#
# Coordination Sequence:
#
# PCOD9216902 Si02
#       6
#     8   8   8   8   8   8
#     4  10  23  41  58  79 110 148 183 221 278 335
#     4   8  16  33  56  80 109 144 183 225 275 329
#     4   8  16  33  55  81 110 141 181 230 276 324
#     4  11  22  35  56  83 112 148 187 227 275 327
#     4  11  22  38  59  81 111 149 184 224 271 327
#     4  11  22  35  56  84 113 144 184 233 277 323
#
# _framework density 25.733788000000001
#
# number of rings (size 3 to 8) (size 9 to 14) (size 15 to 20)
#    0.000    2.167    1.667    2.500    2.333    1.667 
#    0.000    0.000    0.000    3.000    0.000    9.333 
#    0.000    0.000    0.000    0.000    0.000    0.000 
#
# Total GULP energy -134222.085317 kJ/mol
# GULP energy per Si atom -5592.586888 kJ/mol
# Density = 2.567522 g / cm^3
# Si number density = 25.733788 Si / 1000 Ang^3
#
#
#
# Elastic Constant Matrix: (Units=GPa)
#
#
# Indices 1 2 3 4 5 6 
#
# 1 127.1136 10.0810 -2.5029 0.0000 -0.1760 0.0000
# 2 10.0810 86.0748 6.2733 0.0000 -7.0553 0.0000
# 3 -2.5029 6.2733 48.3449 0.0000 -2.0186 0.0000
# 4 0.0000 0.0000 0.0000 11.2648 0.0000 -5.8591
# 5 -0.1760 -7.0553 -2.0186 0.0000 54.1453 0.0000
# 6 0.0000 0.0000 0.0000 -5.8591 0.0000 18.2687
#
#
#
# Elastic Compliance Matrix: (Units=1/GPa)
#
#
# Indices 1 2 3 4 5 6 
#
# 1 0.007955 -0.000977 0.000535 0.000000 -0.000082 0.000000
# 2 -0.000977 0.011967 -0.001541 0.000000 0.001499 0.000000
# 3 0.000535 -0.001541 0.020937 0.000000 0.000581 0.000000
# 4 0.000000 0.000000 0.000000 0.106545 0.000000 0.034171
# 5 -0.000082 0.001499 0.000581 0.000000 0.018686 0.000000
# 6 0.000000 0.000000 0.000000 0.034171 0.000000 0.065698
#
#
# Mechanical properties :
#
#
# Convention : Reuss Voigt Hill
#
# Bulk Modulus (GPa) = 27.10549 32.13735 29.62142
# Shear Modulus (GPa) = 20.15714 33.24788 26.70251
#
# Velocity S-wave (km/s) = 2.80178 3.59833 3.22474
# Velocity P-wave (km/s) = 4.58503 5.45706 5.03994
#
# Compressibility (1/GPa) = 0.03689290
#
# Stress axis : x y z
#
# Youngs Moduli (GPa) = 125.70838 83.56019 47.76315
#
# Poissons Ratio (x) = 0.08167 -0.02557
# Poissons Ratio (y) = 0.12286 0.07360
# Poissons Ratio (z) = -0.06729 0.12876
#
# Static dielectric constant tensor:
#      x y z
#    x 2.048820 0.000000 -0.046650 
#    y 0.000000 1.945550 0.000000 
#    z -0.046650 0.000000 2.085570 
# 
# From -- ./inp_files/314478.got.cif
#   From: 2010.05.17/outbox.cif.g08.bks.cpg/sg12_158_cif.got.tgz:314478.got - 2010.06.03 13:09:07.
