data_PCOD9216166
_publ_section_title
;
Structure prediction by ZEFSAII (Michael W. Deem and Ramdas Pophale) SiO2 
 PCOD9216166
Probable space group: C 2/M
;
_chemical_formula_sum "Si O2"
_cell_formula_units_Z 56
_cell_length_a 9.051732
_cell_length_b 13.867546
_cell_length_c 25.007766
_cell_angle_alpha 90.000000
_cell_angle_beta 50.976320
_cell_angle_gamma 90.000000
_cell_volume 2438.728104
_symmetry_space_group_name_H-M "C 2/M"
_symmetry_group_IT_number 12
_symmetry_cell_setting 'monoclinic'
loop_
_space_group_symop_operation_xyz
x,y,z
-x,y,-z
-x,-y,-z
x,-y,z
1/2+x,1/2+y,z
1/2-x,1/2+y,-z
1/2-x,1/2-y,-z
1/2+x,1/2-y,z
loop_
_atom_site_type_symbol
_atom_site_label
_atom_site_fract_x
_atom_site_fract_y
_atom_site_fract_z
Si Si1 0.204444 0.234798 0.572054
Si Si2 0.371630 0.394371 0.976249
Si Si3 0.153318 0.112145 0.379246
Si Si4 0.769687 0.890627 0.336839
Si Si5 0.508091 0.801615 0.108008
Si Si6 0.103688 0.774158 0.200359
Si Si7 0.919201 0.397388 0.728769
O O1 0.250000 0.250000 0.500000
O O2 0.283117 0.333753 0.580853
O O3 0.296865 0.159094 0.593289
O O4 0.994512 0.182452 0.617270
O O5 0.381502 0.500000 0.948173
O O6 0.159949 0.369893 0.044698
O O7 0.500000 0.395852 0.000000
O O8 0.448496 0.305509 0.924483
O O9 0.360599 0.107790 0.304232
O O10 0.088640 0.000000 0.400137
O O11 0.604817 0.893396 0.329756
O O12 0.939776 0.832829 0.268466
O O13 0.830691 0.000000 0.333639
O O14 0.293259 0.833385 0.144074
O O15 0.544423 0.788850 0.162748
O O16 0.178343 0.694770 0.225349
O O17 0.837295 0.500000 0.764692
#
# Coordination Sequence:
#
# PCOD9216166 Si02
#       7
#     8   8   8   8   8   8   8
#     4  12  26  45  72 103 140 186 235 291 358 430
#     4  10  22  43  67  94 135 184 229 276 335 404
#     4  11  25  46  72 103 139 182 234 291 355 427
#     4  11  25  45  70 103 141 182 232 294 360 428
#     4  11  24  40  66 102 136 176 229 283 336 409
#     4  12  23  41  67 101 139 175 226 285 354 409
#     4  10  23  43  69  99 137 181 226 283 353 422
#
# _framework density 22.962788
#
# number of rings (size 3 to 8) (size 9 to 14) (size 15 to 20)
#    0.000    1.000    4.286    1.714    2.000    4.000 
#    0.000    1.429    0.000    6.857    0.000    0.000 
#    0.000    0.000    0.000    0.000    0.000    0.000 
#
# Total GULP energy -156132.310719 kJ/mol
# GULP energy per Si atom -5576.153954 kJ/mol
# Density = 2.291052 g / cm^3
# Si number density = 22.962788 Si / 1000 Ang^3
#
#
#
# Elastic Constant Matrix: (Units=GPa)
#
#
# Indices 1 2 3 4 5 6 
#
# 1 80.1040 10.8858 -0.6539 0.0000 -9.0960 -0.0001
# 2 10.8858 127.8584 19.7507 0.0001 4.1236 0.0000
# 3 -0.6539 19.7507 57.2652 0.0000 9.6976 -0.0001
# 4 0.0000 0.0001 0.0000 24.4720 0.0000 23.2366
# 5 -9.0960 4.1236 9.6976 0.0000 38.5837 0.0001
# 6 -0.0001 0.0000 -0.0001 23.2366 0.0001 40.8938
#
#
#
# Elastic Compliance Matrix: (Units=1/GPa)
#
#
# Indices 1 2 3 4 5 6 
#
# 1 0.013011 -0.001215 0.000027 0.000000 0.003190 0.000000
# 2 -0.001215 0.008376 -0.002823 0.000000 -0.000472 0.000000
# 3 0.000027 -0.002823 0.019202 0.000000 -0.004518 0.000000
# 4 0.000000 0.000000 0.000000 0.088743 0.000000 -0.050425
# 5 0.003190 -0.000472 -0.004518 0.000000 0.027856 0.000000
# 6 0.000000 0.000000 0.000000 -0.050425 0.000000 0.053106
#
#
# Mechanical properties :
#
#
# Convention : Reuss Voigt Hill
#
# Bulk Modulus (GPa) = 30.70484 36.13256 33.41870
# Shear Modulus (GPa) = 21.81782 36.47289 29.14536
#
# Velocity S-wave (km/s) = 3.08577 3.98973 3.56651
# Velocity P-wave (km/s) = 5.10848 6.08222 5.61649
#
# Compressibility (1/GPa) = 0.03256815
#
# Stress axis : x y z
#
# Youngs Moduli (GPa) = 76.85593 119.39085 52.07900
#
# Poissons Ratio (x) = 0.14505 -0.00142
# Poissons Ratio (y) = 0.09337 0.14701
# Poissons Ratio (z) = -0.00210 0.33701
#
# Static dielectric constant tensor:
#      x y z
#    x 1.923620 0.000000 -0.043000 
#    y 0.000000 1.905370 0.000000 
#    z -0.043000 0.000000 1.904360 
# 
# From -- ./inp_files/332836.got.cif
#   From: 2010.05.17/outbox.cif.g08.bks.cpg/sg12_167_cif.got.tgz:332836.got - 2010.06.03 13:09:07.
