data_PCOD9216602
_publ_section_title
;
Structure prediction by ZEFSAII (Michael W. Deem and Ramdas Pophale) SiO2 
 PCOD9216602
Probable space group: C 2/M
;
_chemical_formula_sum "Si O2"
_cell_formula_units_Z 58
_cell_length_a 19.825024
_cell_length_b 18.414620
_cell_length_c 11.880833
_cell_angle_alpha 90.000000
_cell_angle_beta 143.997744
_cell_angle_gamma 90.000000
_cell_volume 2549.562103
_symmetry_space_group_name_H-M "C 2/M"
_symmetry_group_IT_number 12
_symmetry_cell_setting 'monoclinic'
loop_
_space_group_symop_operation_xyz
x,y,z
-x,y,-z
-x,-y,-z
x,-y,z
1/2+x,1/2+y,z
1/2-x,1/2+y,-z
1/2-x,1/2-y,-z
1/2+x,1/2-y,z
loop_
_atom_site_type_symbol
_atom_site_label
_atom_site_fract_x
_atom_site_fract_y
_atom_site_fract_z
Si Si1 0.746551 0.583287 0.433766
Si Si2 0.000000 0.500000 0.500000
Si Si3 0.702331 0.827802 0.974892
Si Si4 0.115146 0.689704 0.224639
Si Si5 0.320902 0.121744 0.294185
Si Si6 0.512119 0.418981 0.882062
Si Si7 0.330074 0.290590 0.350913
Si Si8 0.990733 0.778954 0.227777
O O1 0.781798 0.500000 0.482938
O O2 0.837564 0.631078 0.623931
O O3 0.739671 0.606802 0.292920
O O4 0.623626 0.585812 0.331343
O O5 0.920894 0.564315 0.450303
O O6 0.700527 0.884608 0.870693
O O7 0.578694 0.796558 0.849368
O O8 0.750000 0.750000 0.000000
O O9 0.788493 0.843179 0.194439
O O10 0.219410 0.708757 0.282976
O O11 0.081681 0.759099 0.253882
O O12 0.000000 0.669421 0.000000
O O13 0.349149 0.207084 0.339963
O O14 0.556758 0.500000 0.913207
O O15 0.573263 0.349560 0.908233
O O16 0.500000 0.415019 0.000000
O O17 0.445965 0.305404 0.574899
#
# Coordination Sequence:
#
# PCOD9216602 Si02
#       8
#     8   2   8   8   8   8   8   8
#     4  11  23  42  65  96 136 172 216 274 339 413
#     4  12  24  40  68  96 132 182 218 272 332 406
#     4  10  25  40  63  96 131 168 225 273 321 385
#     4  12  23  38  67 100 133 172 218 278 342 399
#     4  11  23  41  63  93 131 171 219 263 325 386
#     4  10  23  38  62  94 126 166 215 272 340 391
#     4  11  22  42  65  98 132 167 219 279 333 388
#     4  12  21  37  67  92 128 170 215 274 323 395
#
# _framework density 22.749003999999999
#
# number of rings (size 3 to 8) (size 9 to 14) (size 15 to 20)
#    0.000    0.966    4.828    2.483    3.862    1.931 
#    0.000    0.000    3.034    0.000    0.000    3.862 
#    0.000    0.000    0.000    0.000    0.000    0.000 
#
# Total GULP energy -161499.349508 kJ/mol
# GULP energy per Si atom -5568.943086 kJ/mol
# Density = 2.269723 g / cm^3
# Si number density = 22.749004 Si / 1000 Ang^3
#
#
#
# Elastic Constant Matrix: (Units=GPa)
#
#
# Indices 1 2 3 4 5 6 
#
# 1 67.4637 9.6659 12.9322 0.0000 -4.0765 0.0000
# 2 9.6659 107.9823 31.4374 0.0000 -13.5477 0.0000
# 3 12.9322 31.4374 130.8695 0.0000 -19.6310 0.0000
# 4 0.0000 0.0000 0.0000 -7.6656 0.0000 -1.1664
# 5 -4.0765 -13.5477 -19.6310 0.0000 32.9965 0.0000
# 6 0.0000 0.0000 0.0000 -1.1664 0.0000 27.3810
#
#
#
# Elastic Compliance Matrix: (Units=1/GPa)
#
#
# Indices 1 2 3 4 5 6 
#
# 1 0.015227 -0.000923 -0.001161 0.000000 0.000811 0.000000
# 2 -0.000923 0.010277 -0.001934 0.000000 0.002955 0.000000
# 3 -0.001161 -0.001934 0.008872 0.000000 0.004340 0.000000
# 4 0.000000 0.000000 0.000000 -0.129612 0.000000 -0.005521
# 5 0.000811 0.002955 0.004340 0.000000 0.034202 0.000000
# 6 0.000000 0.000000 0.000000 -0.005521 0.000000 0.036287
#
#
# Mechanical properties :
#
#
# Convention : Reuss Voigt Hill
#
# Bulk Modulus (GPa) = 37.96758 46.04293 42.00526
# Shear Modulus (GPa) = -630.39962 27.36105 -301.51929
#
# Velocity S-wave (km/s) = -16.66471 3.47181 -11.52517
# Velocity P-wave (km/s) = 18.80312 6.02949 12.59370
#
# Compressibility (1/GPa) = 0.02633826
#
# Stress axis : x y z
#
# Youngs Moduli (GPa) = 65.67423 97.30204 112.71794
#
# Poissons Ratio (x) = 0.08982 0.13089
# Poissons Ratio (y) = 0.06063 0.21804
# Poissons Ratio (z) = 0.07626 0.18822
#
# Static dielectric constant tensor:
#      x y z
#    x 2.153040 0.000000 0.169040 
#    y 0.000000 1.874260 0.000000 
#    z 0.169040 0.000000 2.107650 
# 
# From -- ./inp_files/168990.got.cif
#   From: 2010.05.17/outbox.cif.g08.bks.cpg/sg12_85_cif.got.tgz:168990.got - 2010.06.03 13:09:07.
