data_PCOD9216892
_publ_section_title
;
Structure prediction by ZEFSAII (Michael W. Deem and Ramdas Pophale) SiO2 
 PCOD9216892
Probable space group: C 2/M
;
_chemical_formula_sum "Si O2"
_cell_formula_units_Z 56
_cell_length_a 19.613241
_cell_length_b 8.607179
_cell_length_c 20.038879
_cell_angle_alpha 90.000000
_cell_angle_beta 65.311119
_cell_angle_gamma 90.000000
_cell_volume 3073.627394
_symmetry_space_group_name_H-M "C 2/M"
_symmetry_group_IT_number 12
_symmetry_cell_setting 'monoclinic'
loop_
_space_group_symop_operation_xyz
x,y,z
-x,y,-z
-x,-y,-z
x,-y,z
1/2+x,1/2+y,z
1/2-x,1/2+y,-z
1/2-x,1/2-y,-z
1/2+x,1/2-y,z
loop_
_atom_site_type_symbol
_atom_site_label
_atom_site_fract_x
_atom_site_fract_y
_atom_site_fract_z
Si Si1 0.925843 0.688593 0.072376
Si Si2 0.788241 0.322889 0.677809
Si Si3 0.338340 0.172975 0.811077
Si Si4 0.550733 0.190314 0.416669
Si Si5 0.220128 0.677702 0.944856
Si Si6 0.120024 0.185752 0.764222
Si Si7 0.494632 0.815328 0.293361
O O1 0.925020 0.500000 0.076267
O O2 0.853829 0.746498 0.059579
O O3 0.915090 0.747798 0.152598
O O4 0.000000 0.733376 0.000000
O O5 0.779544 0.500000 0.655337
O O6 0.815283 0.332275 0.743332
O O7 0.862729 0.253044 0.612873
O O8 0.704854 0.252914 0.714974
O O9 0.288162 0.300365 0.866088
O O10 0.426578 0.202014 0.777926
O O11 0.322369 0.000000 0.845866
O O12 0.500000 0.234906 0.500000
O O13 0.512526 0.236856 0.361921
O O14 0.554826 0.000000 0.412687
O O15 0.202385 0.500000 0.965118
O O16 0.250000 0.750000 0.000000
O O17 0.068605 0.228471 0.722263
O O18 0.125201 0.000000 0.770557
O O19 0.477600 0.000000 0.302398
#
# Coordination Sequence:
#
# PCOD9216892 Si02
#       7
#     8   8   8   8   8   8   8
#     4  10  23  41  56  73 102 141 180 219 267 314
#     4   8  15  29  50  75 101 133 171 212 257 301
#     4   9  17  34  54  70  96 135 175 215 258 305
#     4   8  14  29  55  82 105 136 180 219 251 302
#     4  11  23  36  53  76 102 132 171 219 266 312
#     4  11  21  34  54  78 108 141 175 219 266 317
#     4   9  19  33  53  79 107 138 175 218 261 308
#
# _framework density 18.219514
#
# number of rings (size 3 to 8) (size 9 to 14) (size 15 to 20)
#    0.000    2.571    1.429    2.571    2.000    1.429 
#    0.000    0.714    0.000    0.429    0.000    0.000 
#    0.000    0.000    0.000    0.000    0.000    0.000 
#
# Total GULP energy -155913.017593 kJ/mol
# GULP energy per Si atom -5568.322057 kJ/mol
# Density = 1.817805 g / cm^3
# Si number density = 18.219514 Si / 1000 Ang^3
#
#
#
# Elastic Constant Matrix: (Units=GPa)
#
#
# Indices 1 2 3 4 5 6 
#
# 1 125.5133 19.7969 58.6365 0.0000 -10.9941 0.0001
# 2 19.7969 11.6583 16.9431 0.0001 -3.5212 0.0002
# 3 58.6365 16.9431 110.0570 0.0000 -14.1874 0.0000
# 4 0.0000 0.0001 0.0000 13.6040 0.0000 4.5644
# 5 -10.9941 -3.5212 -14.1874 0.0000 21.0675 0.0000
# 6 0.0001 0.0002 0.0000 4.5644 0.0000 20.8789
#
#
#
# Elastic Compliance Matrix: (Units=1/GPa)
#
#
# Indices 1 2 3 4 5 6 
#
# 1 0.012304 -0.014466 -0.004175 0.000000 0.001192 0.000000
# 2 -0.014466 0.128653 -0.011279 0.000000 0.006358 -0.000001
# 3 -0.004175 -0.011279 0.013713 0.000000 0.005171 0.000000
# 4 0.000000 0.000000 0.000000 0.079326 0.000000 -0.017342
# 5 0.001192 0.006358 0.005171 0.000000 0.052634 0.000000
# 6 0.000000 -0.000001 0.000000 -0.017342 0.000000 0.051687
#
#
# Mechanical properties :
#
#
# Convention : Reuss Voigt Hill
#
# Bulk Modulus (GPa) = 10.54508 48.66461 29.60485
# Shear Modulus (GPa) = 11.63425 21.23354 16.43389
#
# Velocity S-wave (km/s) = 2.52972 3.41754 3.00658
# Velocity P-wave (km/s) = 3.78589 6.50699 5.32325
#
# Compressibility (1/GPa) = 0.09483095
#
# Stress axis : x y z
#
# Youngs Moduli (GPa) = 81.27745 7.77284 72.92168
#
# Poissons Ratio (x) = 0.11244 0.30441
# Poissons Ratio (y) = 1.17575 0.82249
# Poissons Ratio (z) = 0.33929 0.08767
#
# Static dielectric constant tensor:
#      x y z
#    x 1.636540 0.000000 -0.020410 
#    y 0.000000 1.642210 0.000000 
#    z -0.020410 0.000000 1.701380 
# 
# From -- ./inp_files/319032.got.cif
#   From: 2010.05.17/outbox.cif.g08.bks.cpg/sg12_160_cif.got.tgz:319032.got - 2010.06.03 13:09:07.
