data_PCOD9216477
_publ_section_title
;
Structure prediction by ZEFSAII (Michael W. Deem and Ramdas Pophale) SiO2 
 PCOD9216477
Probable space group: C 2/M
;
_chemical_formula_sum "Si O2"
_cell_formula_units_Z 64
_cell_length_a 8.545869
_cell_length_b 20.088886
_cell_length_c 16.887370
_cell_angle_alpha 90.000000
_cell_angle_beta 88.062916
_cell_angle_gamma 90.000000
_cell_volume 2897.516079
_symmetry_space_group_name_H-M "C 2/M"
_symmetry_group_IT_number 12
_symmetry_cell_setting 'monoclinic'
loop_
_space_group_symop_operation_xyz
x,y,z
-x,y,-z
-x,-y,-z
x,-y,z
1/2+x,1/2+y,z
1/2-x,1/2+y,-z
1/2-x,1/2-y,-z
1/2+x,1/2-y,z
loop_
_atom_site_type_symbol
_atom_site_label
_atom_site_fract_x
_atom_site_fract_y
_atom_site_fract_z
Si Si1 0.791432 0.928215 0.764417
Si Si2 0.154353 0.807660 0.042269
Si Si3 0.066818 0.598590 0.914622
Si Si4 0.680874 0.323181 0.516997
Si Si5 0.646546 0.927651 0.593761
Si Si6 0.792459 0.423250 0.641594
Si Si7 0.008041 0.795149 0.211339
Si Si8 0.350304 0.836403 0.788951
O O1 0.663131 0.931031 0.837322
O O2 0.698863 0.924315 0.683995
O O3 0.905002 0.863565 0.764259
O O4 0.877846 0.000000 0.765601
O O5 0.287916 0.860181 0.054415
O O6 0.086649 0.781945 0.125526
O O7 0.250000 0.750000 0.000000
O O8 0.000000 0.832390 0.000000
O O9 0.929238 0.637301 0.869035
O O10 0.000000 0.569879 0.000000
O O11 0.500000 0.319958 0.500000
O O12 0.750000 0.250000 0.500000
O O13 0.770403 0.370322 0.454580
O O14 0.698148 0.363132 0.600409
O O15 0.460051 0.923794 0.594963
O O16 0.697419 0.000000 0.561516
O O17 0.731169 0.500000 0.640535
O O18 0.829346 0.398481 0.729677
O O19 0.045231 0.723851 0.251670
O O20 0.825150 0.807337 0.202133
#
# Coordination Sequence:
#
# PCOD9216477 Si02
#       8
#     8   8   8   8   8   8   8   8
#     4  10  23  43  66  97 134 183 233 282 352 419
#     4  11  20  35  59  90 129 172 230 291 363 424
#     4  11  22  39  66  99 137 179 237 299 353 416
#     4  12  28  47  76 114 147 183 229 291 345 412
#     4  10  22  46  74  99 141 188 232 279 340 420
#     4  11  26  47  73 104 146 189 233 283 348 427
#     4  11  24  38  62  93 132 178 229 293 347 420
#     4  12  25  41  65 103 140 184 236 291 360 419
#
# _framework density 22.087885
#
# number of rings (size 3 to 8) (size 9 to 14) (size 15 to 20)
#    0.000    1.000    1.250    6.375    3.500    2.750 
#    0.000    0.000    0.000   12.750    0.000    0.000 
#    0.000    0.000    0.000    0.000    0.000    0.000 
#
# Total GULP energy -178449.266699 kJ/mol
# GULP energy per Si atom -5576.539584 kJ/mol
# Density = 2.203761 g / cm^3
# Si number density = 22.087885 Si / 1000 Ang^3
#
#
#
# Elastic Constant Matrix: (Units=GPa)
#
#
# Indices 1 2 3 4 5 6 
#
# 1 137.0331 58.5573 29.6113 0.0000 21.9140 0.0000
# 2 58.5573 160.5242 48.3719 0.0000 21.6269 0.0000
# 3 29.6113 48.3719 91.0091 0.0000 16.4037 0.0000
# 4 0.0000 0.0000 0.0000 36.3715 0.0000 20.0019
# 5 21.9140 21.6269 16.4037 0.0000 40.0299 0.0000
# 6 0.0000 0.0000 0.0000 20.0019 0.0000 15.1691
#
#
#
# Elastic Compliance Matrix: (Units=1/GPa)
#
#
# Indices 1 2 3 4 5 6 
#
# 1 0.009136 -0.002597 -0.001019 0.000000 -0.003181 0.000000
# 2 -0.002597 0.008412 -0.003307 0.000000 -0.001768 0.000000
# 3 -0.001019 -0.003307 0.013664 0.000000 -0.003255 0.000000
# 4 0.000000 0.000000 0.000000 0.100030 0.000000 -0.131899
# 5 -0.003181 -0.001768 -0.003255 0.000000 0.029011 0.000000
# 6 0.000000 0.000000 0.000000 -0.131899 0.000000 0.239846
#
#
# Mechanical properties :
#
#
# Convention : Reuss Voigt Hill
#
# Bulk Modulus (GPa) = 57.58663 73.51639 65.55151
# Shear Modulus (GPa) = 11.91230 35.11583 23.51406
#
# Velocity S-wave (km/s) = 2.32483 3.99158 3.26631
# Velocity P-wave (km/s) = 5.77362 7.38915 6.63077
#
# Compressibility (1/GPa) = 0.01736514
#
# Stress axis : x y z
#
# Youngs Moduli (GPa) = 109.45484 118.88128 73.18562
#
# Poissons Ratio (x) = 0.30876 0.07457
# Poissons Ratio (y) = 0.28428 0.24205
# Poissons Ratio (z) = 0.11152 0.39317
#
# Static dielectric constant tensor:
#      x y z
#    x 1.779210 0.000000 0.002990 
#    y 0.000000 2.895720 0.000000 
#    z 0.002990 0.000000 1.882920 
# 
# From -- ./inp_files/258112.got.cif
#   From: 2010.05.17/outbox.cif.g08.bks.cpg/sg12_130_cif.got.tgz:258112.got - 2010.06.03 13:09:07.
