data_PCOD9216016
_publ_section_title
;
Structure prediction by ZEFSAII (Michael W. Deem and Ramdas Pophale) SiO2 
 PCOD9216016
Probable space group: C 2/M
;
_chemical_formula_sum "Si O2"
_cell_formula_units_Z 58
_cell_length_a 13.835675
_cell_length_b 12.463100
_cell_length_c 16.388058
_cell_angle_alpha 90.000000
_cell_angle_beta 107.881741
_cell_angle_gamma 90.000000
_cell_volume 2689.369537
_symmetry_space_group_name_H-M "C 2/M"
_symmetry_group_IT_number 12
_symmetry_cell_setting 'monoclinic'
loop_
_space_group_symop_operation_xyz
x,y,z
-x,y,-z
-x,-y,-z
x,-y,z
1/2+x,1/2+y,z
1/2-x,1/2+y,-z
1/2-x,1/2-y,-z
1/2+x,1/2-y,z
loop_
_atom_site_type_symbol
_atom_site_label
_atom_site_fract_x
_atom_site_fract_y
_atom_site_fract_z
Si Si1 0.721210 0.762590 0.124380
Si Si2 0.008618 0.318172 0.126602
Si Si3 0.224971 0.713227 0.402510
Si Si4 0.372986 0.626358 0.047022
Si Si5 0.000000 0.500000 0.000000
Si Si6 0.499047 0.819361 0.315871
Si Si7 0.714244 0.879825 0.708781
Si Si8 0.437619 0.624320 0.401901
O O1 0.627947 0.825571 0.140111
O O2 0.796717 0.845564 0.101257
O O3 0.771510 0.692406 0.207662
O O4 0.679507 0.679999 0.045535
O O5 0.989276 0.337143 0.216579
O O6 0.970750 0.199779 0.091924
O O7 0.960464 0.405617 0.054006
O O8 0.250000 0.750000 0.500000
O O9 0.115327 0.657398 0.369662
O O10 0.225393 0.819866 0.346705
O O11 0.319141 0.645731 0.390665
O O12 0.391398 0.500000 0.043316
O O13 0.407307 0.879506 0.337912
O O14 0.476676 0.697240 0.338132
O O15 0.750422 0.000000 0.730720
O O16 0.500000 0.654986 0.500000
O O17 0.455084 0.500000 0.390180
#
# Coordination Sequence:
#
# PCOD9216016 Si02
#       8
#     8   8   8   8   2   8   8   8
#     4  11  23  44  66 102 133 180 231 276 345 410
#     4  12  25  45  69 102 135 186 233 289 353 413
#     4  11  23  44  70  97 137 177 222 282 339 407
#     4  11  25  43  69 100 138 176 226 285 347 411
#     4  12  28  48  74  96 146 186 246 290 360 446
#     4  11  24  44  65  98 138 175 224 285 337 407
#     4  11  25  43  67 100 136 179 228 282 343 410
#     4  10  22  42  70 102 135 178 226 276 345 418
#
# _framework density 21.566393000000001
#
# number of rings (size 3 to 8) (size 9 to 14) (size 15 to 20)
#    0.000    0.966    5.517    0.414    1.931    3.862 
#    0.000    0.690    0.000    0.000    0.000    0.000 
#    0.000    0.000    0.000    0.000    0.000    0.000 
#
# Total GULP energy -161851.345942 kJ/mol
# GULP energy per Si atom -5581.080895 kJ/mol
# Density = 2.151731 g / cm^3
# Si number density = 21.566393 Si / 1000 Ang^3
#
#
#
# Elastic Constant Matrix: (Units=GPa)
#
#
# Indices 1 2 3 4 5 6 
#
# 1 79.2225 -24.8558 -12.9630 0.0000 -4.1100 0.0000
# 2 -24.8558 74.0234 -1.6079 0.0000 -7.0990 0.0000
# 3 -12.9630 -1.6079 74.5675 0.0000 -10.9583 0.0000
# 4 0.0000 0.0000 0.0000 8.2851 0.0000 -4.3126
# 5 -4.1100 -7.0990 -10.9583 0.0000 35.8536 0.0000
# 6 0.0000 0.0000 0.0000 -4.3126 0.0000 8.4405
#
#
#
# Elastic Compliance Matrix: (Units=1/GPa)
#
#
# Indices 1 2 3 4 5 6 
#
# 1 0.015090 0.005506 0.003305 0.000000 0.003830 0.000000
# 2 0.005506 0.015818 0.001938 0.000000 0.004356 0.000000
# 3 0.003305 0.001938 0.014804 0.000000 0.005287 0.000000
# 4 0.000000 0.000000 0.000000 0.164428 0.000000 0.084012
# 5 0.003830 0.004356 0.005287 0.000000 0.030809 0.000000
# 6 0.000000 0.000000 0.000000 0.084012 0.000000 0.161400
#
#
# Mechanical properties :
#
#
# Convention : Reuss Voigt Hill
#
# Bulk Modulus (GPa) = 14.87884 16.55111 15.71498
# Shear Modulus (GPa) = 12.39916 28.33185 20.36550
#
# Velocity S-wave (km/s) = 2.40037 3.62844 3.07631
# Velocity P-wave (km/s) = 3.82053 5.02446 4.46328
#
# Compressibility (1/GPa) = 0.06720953
#
# Stress axis : x y z
#
# Youngs Moduli (GPa) = 66.27079 63.21975 67.54934
#
# Poissons Ratio (x) = -0.34808 -0.22324
# Poissons Ratio (y) = -0.36488 -0.13093
# Poissons Ratio (z) = -0.21901 -0.12254
#
# Static dielectric constant tensor:
#      x y z
#    x 1.821840 0.000000 0.038190 
#    y 0.000000 1.772670 0.000000 
#    z 0.038190 0.000000 1.792410 
# 
# From -- ./inp_files/268795.got.cif
#   From: 2010.05.17/outbox.cif.g08.bks.cpg/sg12_135_cif.got.tgz:268795.got - 2010.06.03 13:09:07.
