data_PCOD9216794
_publ_section_title
;
Structure prediction by ZEFSAII (Michael W. Deem and Ramdas Pophale) SiO2 
 PCOD9216794
Probable space group: C 2/M
;
_chemical_formula_sum "Si O2"
_cell_formula_units_Z 44
_cell_length_a 22.238852
_cell_length_b 16.087432
_cell_length_c 6.389505
_cell_angle_alpha 90.000000
_cell_angle_beta 58.622927
_cell_angle_gamma 90.000000
_cell_volume 1951.648966
_symmetry_space_group_name_H-M "C 2/M"
_symmetry_group_IT_number 12
_symmetry_cell_setting 'monoclinic'
loop_
_space_group_symop_operation_xyz
x,y,z
-x,y,-z
-x,-y,-z
x,-y,z
1/2+x,1/2+y,z
1/2-x,1/2+y,-z
1/2-x,1/2-y,-z
1/2+x,1/2-y,z
loop_
_atom_site_type_symbol
_atom_site_label
_atom_site_fract_x
_atom_site_fract_y
_atom_site_fract_z
Si Si1 0.678045 0.598160 0.626665
Si Si2 0.784943 0.593653 0.095075
Si Si3 0.561372 0.661800 0.542629
Si Si4 0.811481 0.187519 0.973009
Si Si5 0.000000 0.714097 0.000000
Si Si6 0.939977 0.599675 0.777785
O O1 0.685796 0.500000 0.671988
O O2 0.746769 0.629257 0.370315
O O3 0.609651 0.602253 0.598842
O O4 0.669997 0.667267 0.822355
O O5 0.797837 0.500000 0.134932
O O6 0.724676 0.601221 0.032404
O O7 0.859421 0.619686 0.864472
O O8 0.500000 0.627616 0.500000
O O9 0.617910 0.702142 0.282971
O O10 0.530190 0.727751 0.762751
O O11 0.750000 0.250000 0.000000
O O12 0.948089 0.650840 0.976477
O O13 0.948463 0.500000 0.792760
O O14 0.000000 0.623359 0.500000
#
# Coordination Sequence:
#
# PCOD9216794 Si02
#       6
#     8   8   8   8   4   8
#     4  10  23  45  71  99 133 177 225 275 340 404
#     4   9  21  40  63  94 134 173 218 273 328 395
#     4  11  26  45  66  99 134 174 225 282 338 395
#     4  11  25  39  68 100 136 172 221 274 334 397
#     4  12  25  40  67  90 138 178 224 276 335 400
#     4  10  23  40  63  95 133 179 227 273 329 396
#
# _framework density 22.545038000000002
#
# number of rings (size 3 to 8) (size 9 to 14) (size 15 to 20)
#    0.000    1.636    0.000    2.455   10.182    2.545 
#    0.000    8.636    0.000    0.000    0.000    0.000 
#    0.000    0.000    0.000    0.000    0.000    0.000 
#
# Total GULP energy -122487.793334 kJ/mol
# GULP energy per Si atom -5567.626970 kJ/mol
# Density = 2.249372 g / cm^3
# Si number density = 22.545038 Si / 1000 Ang^3
#
#
#
# Elastic Constant Matrix: (Units=GPa)
#
#
# Indices 1 2 3 4 5 6 
#
# 1 108.9929 18.0446 65.8597 0.0000 -11.1608 0.0000
# 2 18.0446 74.6839 39.2300 0.0000 2.4394 0.0000
# 3 65.8597 39.2300 131.8112 0.0000 -8.1092 0.0000
# 4 0.0000 0.0000 0.0000 10.3362 0.0000 12.7764
# 5 -11.1608 2.4394 -8.1092 0.0000 38.9977 0.0000
# 6 0.0000 0.0000 0.0000 12.7764 0.0000 29.6202
#
#
#
# Elastic Compliance Matrix: (Units=1/GPa)
#
#
# Indices 1 2 3 4 5 6 
#
# 1 0.013375 0.000142 -0.006574 0.000000 0.002452 0.000000
# 2 0.000142 0.016028 -0.004964 0.000000 -0.001994 0.000000
# 3 -0.006574 -0.004964 0.012411 0.000000 0.001010 0.000000
# 4 0.000000 0.000000 0.000000 0.207243 0.000000 -0.089392
# 5 0.002452 -0.001994 0.001010 0.000000 0.026679 0.000000
# 6 0.000000 0.000000 0.000000 -0.089392 0.000000 0.072319
#
#
# Mechanical properties :
#
#
# Convention : Reuss Voigt Hill
#
# Bulk Modulus (GPa) = 52.57261 62.41740 57.49501
# Shear Modulus (GPa) = 13.25599 28.61439 20.93519
#
# Velocity S-wave (km/s) = 2.42746 3.56646 3.05059
# Velocity P-wave (km/s) = 5.58805 6.68620 6.16164
#
# Compressibility (1/GPa) = 0.01902131
#
# Stress axis : x y z
#
# Youngs Moduli (GPa) = 74.76628 62.39065 80.57470
#
# Poissons Ratio (x) = -0.00884 0.52971
# Poissons Ratio (y) = -0.01059 0.39995
# Poissons Ratio (z) = 0.49152 0.30969
#
# Static dielectric constant tensor:
#      x y z
#    x 1.872330 0.000000 0.003380 
#    y 0.000000 1.965250 0.000000 
#    z 0.003380 0.000000 1.853590 
# 
# From -- ./inp_files/24935.got.cif
#   From: 2010.05.17/outbox.cif.g08.bks.cpg/sg12_13_cif.got.tgz:24935.got - 2010.06.03 13:09:07.
