data_PCOD9216297
_publ_section_title
;
Structure prediction by ZEFSAII (Michael W. Deem and Ramdas Pophale) SiO2 
 PCOD9216297
Probable space group: C 2/M
;
_chemical_formula_sum "Si O2"
_cell_formula_units_Z 64
_cell_length_a 28.258987
_cell_length_b 12.391864
_cell_length_c 17.359128
_cell_angle_alpha 90.000000
_cell_angle_beta 28.217316
_cell_angle_gamma 90.000000
_cell_volume 2874.182237
_symmetry_space_group_name_H-M "C 2/M"
_symmetry_group_IT_number 12
_symmetry_cell_setting 'monoclinic'
loop_
_space_group_symop_operation_xyz
x,y,z
-x,y,-z
-x,-y,-z
x,-y,z
1/2+x,1/2+y,z
1/2-x,1/2+y,-z
1/2-x,1/2-y,-z
1/2+x,1/2-y,z
loop_
_atom_site_type_symbol
_atom_site_label
_atom_site_fract_x
_atom_site_fract_y
_atom_site_fract_z
Si Si1 0.700209 0.119461 0.269291
Si Si2 0.095311 0.729911 0.563519
Si Si3 0.239053 0.623267 0.586164
Si Si4 0.976631 0.118432 0.619982
Si Si5 0.429799 0.875017 0.910535
Si Si6 0.625506 0.669614 0.743850
Si Si7 0.730354 0.307356 0.107938
Si Si8 0.407680 0.333300 0.032040
O O1 0.651542 0.153435 0.420972
O O2 0.686584 0.216438 0.228933
O O3 0.664935 0.000000 0.296788
O O4 0.820636 0.117707 0.106090
O O5 0.178506 0.808668 0.482812
O O6 0.019254 0.802273 0.622581
O O7 0.027051 0.666983 0.723527
O O8 0.224929 0.500000 0.632221
O O9 0.283905 0.623288 0.435238
O O10 0.142664 0.700733 0.721435
O O11 0.857706 0.112393 0.787747
O O12 0.000000 0.154644 0.500000
O O13 0.022169 0.000000 0.566502
O O14 0.408862 0.794892 0.012190
O O15 0.441078 0.000000 0.914700
O O16 0.330272 0.858399 0.000593
O O17 0.521856 0.634406 0.853442
O O18 0.617985 0.638699 0.843460
O O19 0.750000 0.250000 0.000000
#
# Coordination Sequence:
#
# PCOD9216297 Si02
#       8
#     8   8   8   8   8   8   8   8
#     4  11  25  43  68  94 129 175 209 260 327 379
#     4  12  22  46  64  94 136 163 218 267 310 395
#     4  11  24  42  67  95 129 173 214 264 323 375
#     4  11  23  41  67  92 124 172 216 261 317 372
#     4  11  24  41  67  94 128 173 208 264 331 378
#     4  10  22  44  65  92 129 163 216 270 311 379
#     4  11  23  45  63  94 134 162 215 269 310 387
#     4  10  22  44  64  90 133 161 214 267 311 391
#
# _framework density 22.267202999999999
#
# number of rings (size 3 to 8) (size 9 to 14) (size 15 to 20)
#    0.000    1.125    5.000    1.125    0.000    3.000 
#    0.000    3.125    0.000    0.000    0.000    0.000 
#    0.000    0.000    0.000    0.000    0.000    0.000 
#
# Total GULP energy -178720.266214 kJ/mol
# GULP energy per Si atom -5585.008319 kJ/mol
# Density = 2.221652 g / cm^3
# Si number density = 22.267203 Si / 1000 Ang^3
#
#
#
# Elastic Constant Matrix: (Units=GPa)
#
#
# Indices 1 2 3 4 5 6 
#
# 1 44.9310 18.4140 6.5047 0.0000 -9.4120 0.0000
# 2 18.4140 138.9096 11.7264 0.0000 -1.4435 0.0000
# 3 6.5047 11.7264 68.1695 0.0000 -5.4904 0.0000
# 4 0.0000 0.0000 0.0000 10.6534 0.0000 -1.5362
# 5 -9.4120 -1.4435 -5.4904 0.0000 43.0437 0.0000
# 6 0.0000 0.0000 0.0000 -1.5362 0.0000 7.2779
#
#
#
# Elastic Compliance Matrix: (Units=1/GPa)
#
#
# Indices 1 2 3 4 5 6 
#
# 1 0.024816 -0.003116 -0.001418 0.000000 0.005141 0.000000
# 2 -0.003116 0.007697 -0.001072 0.000000 -0.000560 0.000000
# 3 -0.001418 -0.001072 0.015116 0.000000 0.001582 0.000000
# 4 0.000000 0.000000 0.000000 0.096813 0.000000 0.020435
# 5 0.005141 -0.000560 0.001582 0.000000 0.024539 0.000000
# 6 0.000000 0.000000 0.000000 0.020435 0.000000 0.141715
#
#
# Mechanical properties :
#
#
# Convention : Reuss Voigt Hill
#
# Bulk Modulus (GPa) = 27.45981 36.14449 31.80215
# Shear Modulus (GPa) = 14.96793 26.55268 20.76031
#
# Velocity S-wave (km/s) = 2.59549 3.45694 3.05671
# Velocity P-wave (km/s) = 4.61961 5.67462 5.17408
#
# Compressibility (1/GPa) = 0.03641686
#
# Stress axis : x y z
#
# Youngs Moduli (GPa) = 40.29709 129.92574 66.15338
#
# Poissons Ratio (x) = 0.40491 0.09379
# Poissons Ratio (y) = 0.12559 0.07090
# Poissons Ratio (z) = 0.05713 0.13924
#
# Static dielectric constant tensor:
#      x y z
#    x 1.809260 0.000000 -0.033060 
#    y 0.000000 1.794970 0.000000 
#    z -0.033060 0.000000 2.000270 
# 
# From -- ./inp_files/296452.got.cif
#   From: 2010.05.17/outbox.cif.g08.bks.cpg/sg12_149_cif.got.tgz:296452.got - 2010.06.03 13:09:07.
