data_PCOD9216441
_publ_section_title
;
Structure prediction by ZEFSAII (Michael W. Deem and Ramdas Pophale) SiO2 
 PCOD9216441
Probable space group: C 2/M
;
_chemical_formula_sum "Si O2"
_cell_formula_units_Z 40
_cell_length_a 9.041390
_cell_length_b 28.853070
_cell_length_c 14.762178
_cell_angle_alpha 90.000000
_cell_angle_beta 145.266574
_cell_angle_gamma 90.000000
_cell_volume 2194.163115
_symmetry_space_group_name_H-M "C 2/M"
_symmetry_group_IT_number 12
_symmetry_cell_setting 'monoclinic'
loop_
_space_group_symop_operation_xyz
x,y,z
-x,y,-z
-x,-y,-z
x,-y,z
1/2+x,1/2+y,z
1/2-x,1/2+y,-z
1/2-x,1/2-y,-z
1/2+x,1/2-y,z
loop_
_atom_site_type_symbol
_atom_site_label
_atom_site_fract_x
_atom_site_fract_y
_atom_site_fract_z
Si Si1 0.987592 0.860401 0.250671
Si Si2 0.500000 0.077812 0.500000
Si Si3 0.183979 0.500000 0.732019
Si Si4 0.313430 0.000000 0.050543
Si Si5 0.511689 0.284921 0.899707
Si Si6 0.000000 0.426285 0.000000
Si Si7 0.011424 0.222782 0.608484
O O1 0.252538 0.889314 0.391383
O O2 0.966983 0.820271 0.314396
O O3 0.969037 0.832157 0.147091
O O4 0.749110 0.894813 0.141985
O O5 0.568242 0.044342 0.619680
O O6 0.128724 0.500000 0.812459
O O7 0.498947 0.500000 0.881243
O O8 0.432323 0.042957 0.054219
O O9 0.251892 0.257617 0.740909
O O10 0.500000 0.294573 0.000000
O O11 0.750000 0.250000 0.000000
O O12 0.750000 0.250000 0.500000
O O13 0.000000 0.206469 0.500000
#
# Coordination Sequence:
#
# PCOD9216441 Si02
#       7
#     8   4   4   4   8   4   8
#     4  12  24  39  66  96 138 164 224 271 313 383
#     4  11  24  42  66 104 130 168 206 272 332 383
#     4  10  22  45  74  95 132 169 209 256 338 412
#     4  10  22  45  74  95 132 169 207 262 334 406
#     4  12  23  41  64  89 124 177 227 264 313 371
#     4  11  24  42  66 104 130 164 210 278 326 371
#     4  12  23  41  62  87 126 175 219 264 319 366
#
# _framework density 18.230186
#
# number of rings (size 3 to 8) (size 9 to 14) (size 15 to 20)
#    0.000    0.600    6.000    2.400    0.000    3.200 
#    0.000    1.000    0.000    0.000    0.000    0.000 
#    0.000    0.000    0.000    0.000    0.000    0.000 
#
# Total GULP energy -111792.664399 kJ/mol
# GULP energy per Si atom -5589.633220 kJ/mol
# Density = 1.818869 g / cm^3
# Si number density = 18.230186 Si / 1000 Ang^3
#
#
#
# Elastic Constant Matrix: (Units=GPa)
#
#
# Indices 1 2 3 4 5 6 
#
# 1 154.5452 62.2300 64.0175 0.0000 -15.7062 0.0000
# 2 62.2300 113.1183 49.2342 0.0000 8.0114 0.0000
# 3 64.0175 49.2342 113.8994 0.0000 15.3105 0.0000
# 4 0.0000 0.0000 0.0000 36.3804 0.0000 27.9971
# 5 -15.7062 8.0114 15.3105 0.0000 58.6520 0.0000
# 6 0.0000 0.0000 0.0000 27.9971 0.0000 34.1503
#
#
#
# Elastic Compliance Matrix: (Units=1/GPa)
#
#
# Indices 1 2 3 4 5 6 
#
# 1 0.010564 -0.004046 -0.004812 0.000000 0.004638 0.000000
# 2 -0.004046 0.012442 -0.002830 0.000000 -0.002044 0.000000
# 3 -0.004812 -0.002830 0.013295 0.000000 -0.004373 0.000000
# 4 0.000000 0.000000 0.000000 0.074472 0.000000 -0.061053
# 5 0.004638 -0.002044 -0.004373 0.000000 0.019712 0.000000
# 6 0.000000 0.000000 0.000000 -0.061053 0.000000 0.079335
#
#
# Mechanical properties :
#
#
# Convention : Reuss Voigt Hill
#
# Bulk Modulus (GPa) = 77.35911 81.39181 79.37546
# Shear Modulus (GPa) = 21.05212 39.57528 30.31370
#
# Velocity S-wave (km/s) = 3.40191 4.66431 4.08220
# Velocity P-wave (km/s) = 7.61298 8.58786 8.11507
#
# Compressibility (1/GPa) = 0.01292673
#
# Stress axis : x y z
#
# Youngs Moduli (GPa) = 94.65683 80.37061 75.21373
#
# Poissons Ratio (x) = 0.32516 0.36196
# Poissons Ratio (y) = 0.38296 0.21283
# Poissons Ratio (z) = 0.45553 0.22742
#
# Static dielectric constant tensor:
#      x y z
#    x 1.649010 0.000000 0.005310 
#    y 0.000000 1.552140 0.000000 
#    z 0.005310 0.000000 1.613430 
# 
# From -- ./inp_files/123974.got.cif
#   From: 2010.05.17/outbox.cif.g08.bks.cpg/sg12_62_cif.got.tgz:123974.got - 2010.06.03 13:09:07.
