data_PCOD9216637
_publ_section_title
;
Structure prediction by ZEFSAII (Michael W. Deem and Ramdas Pophale) SiO2 
 PCOD9216637
Probable space group: C 2/M
;
_chemical_formula_sum "Si O2"
_cell_formula_units_Z 56
_cell_length_a 24.434738
_cell_length_b 8.789665
_cell_length_c 14.858675
_cell_angle_alpha 90.000000
_cell_angle_beta 69.660268
_cell_angle_gamma 90.000000
_cell_volume 2992.264520
_symmetry_space_group_name_H-M "C 2/M"
_symmetry_group_IT_number 12
_symmetry_cell_setting 'monoclinic'
loop_
_space_group_symop_operation_xyz
x,y,z
-x,y,-z
-x,-y,-z
x,-y,z
1/2+x,1/2+y,z
1/2-x,1/2+y,-z
1/2-x,1/2-y,-z
1/2+x,1/2-y,z
loop_
_atom_site_type_symbol
_atom_site_label
_atom_site_fract_x
_atom_site_fract_y
_atom_site_fract_z
Si Si1 0.104088 0.180991 0.733377
Si Si2 0.309763 0.182729 0.177444
Si Si3 0.867014 0.817867 0.966949
Si Si4 0.507929 0.822186 0.103334
Si Si5 0.426473 0.817332 0.634974
Si Si6 0.559088 0.183238 0.582199
Si Si7 0.681076 0.317072 0.194517
O O1 0.160401 0.246384 0.752074
O O2 0.097945 0.236568 0.634594
O O3 0.047748 0.248867 0.817221
O O4 0.103419 0.000000 0.739503
O O5 0.242966 0.231878 0.199758
O O6 0.312594 0.000000 0.180838
O O7 0.346001 0.237962 0.069864
O O8 0.932487 0.763981 0.907485
O O9 0.826481 0.773422 0.905749
O O10 0.865723 0.000000 0.979385
O O11 0.512254 0.000000 0.126289
O O12 0.500000 0.813441 0.000000
O O13 0.424347 0.779154 0.530006
O O14 0.490880 0.772293 0.633066
O O15 0.373706 0.745717 0.719383
O O16 0.423431 0.000000 0.643704
O O17 0.562651 0.000000 0.590149
O O18 0.679303 0.500000 0.198592
#
# Coordination Sequence:
#
# PCOD9216637 Si02
#       7
#     8   8   8   8   8   8   8
#     4  12  24  37  57  86 116 149 190 237 284 331
#     4  11  23  40  57  77 112 157 195 231 279 338
#     4  11  22  37  58  86 115 146 189 240 285 330
#     4  11  22  36  56  81 113 152 187 223 277 338
#     4   9  19  37  63  90 115 145 186 231 277 335
#     4   9  19  38  62  89 118 148 182 226 282 343
#     4  10  23  39  57  83 115 149 189 236 285 334
#
# _framework density 18.714922999999999
#
# number of rings (size 3 to 8) (size 9 to 14) (size 15 to 20)
#    0.000    1.571    1.429    4.714    0.000    6.286 
#    0.000    2.143    0.000    0.000    0.000    0.000 
#    0.000    0.000    0.000    0.000    0.000    0.000 
#
# Total GULP energy -156525.174747 kJ/mol
# GULP energy per Si atom -5590.184812 kJ/mol
# Density = 1.867233 g / cm^3
# Si number density = 18.714923 Si / 1000 Ang^3
#
#
#
# Elastic Constant Matrix: (Units=GPa)
#
#
# Indices 1 2 3 4 5 6 
#
# 1 109.6758 21.8293 33.7923 0.0000 29.7483 0.0000
# 2 21.8293 51.1633 19.2046 0.0000 16.5363 0.0000
# 3 33.7923 19.2046 46.7989 0.0000 21.3904 0.0000
# 4 0.0000 0.0000 0.0000 21.4511 0.0000 0.6123
# 5 29.7483 16.5363 21.3904 0.0000 30.6492 0.0000
# 6 0.0000 0.0000 0.0000 0.6123 0.0000 27.9800
#
#
#
# Elastic Compliance Matrix: (Units=1/GPa)
#
#
# Indices 1 2 3 4 5 6 
#
# 1 0.013280 -0.000870 -0.005221 0.000000 -0.008777 0.000000
# 2 -0.000870 0.024810 -0.005610 0.000000 -0.008626 0.000000
# 3 -0.005221 -0.005610 0.034861 0.000000 -0.016235 0.000000
# 4 0.000000 0.000000 0.000000 0.046647 0.000000 -0.001021
# 5 -0.008777 -0.008626 -0.016235 0.000000 0.057131 0.000000
# 6 0.000000 0.000000 0.000000 -0.001021 0.000000 0.035762
#
#
# Mechanical properties :
#
#
# Convention : Reuss Voigt Hill
#
# Bulk Modulus (GPa) = 20.18179 39.69894 29.94037
# Shear Modulus (GPa) = 19.80906 24.87017 22.33961
#
# Velocity S-wave (km/s) = 3.25693 3.64936 3.45871
# Velocity P-wave (km/s) = 4.99507 6.24624 5.65536
#
# Compressibility (1/GPa) = 0.04954961
#
# Stress axis : x y z
#
# Youngs Moduli (GPa) = 75.30078 40.30583 28.68550
#
# Poissons Ratio (x) = 0.03505 0.14976
# Poissons Ratio (y) = 0.06549 0.16094
# Poissons Ratio (z) = 0.39312 0.22613
#
# Static dielectric constant tensor:
#      x y z
#    x 1.646380 0.000000 0.021650 
#    y 0.000000 1.623970 0.000000 
#    z 0.021650 0.000000 1.630200 
# 
# From -- ./inp_files/237383.got.cif
#   From: 2010.05.17/outbox.cif.g08.bks.cpg/sg12_119_cif.got.tgz:237383.got - 2010.06.03 13:09:07.
