data_PCOD9216037
_publ_section_title
;
Structure prediction by ZEFSAII (Michael W. Deem and Ramdas Pophale) SiO2 
 PCOD9216037
Probable space group: C 2/M
;
_chemical_formula_sum "Si O2"
_cell_formula_units_Z 60
_cell_length_a 17.460315
_cell_length_b 30.334523
_cell_length_c 5.178814
_cell_angle_alpha 90.000000
_cell_angle_beta 78.425366
_cell_angle_gamma 90.000000
_cell_volume 2687.180163
_symmetry_space_group_name_H-M "C 2/M"
_symmetry_group_IT_number 12
_symmetry_cell_setting 'monoclinic'
loop_
_space_group_symop_operation_xyz
x,y,z
-x,y,-z
-x,-y,-z
x,-y,z
1/2+x,1/2+y,z
1/2-x,1/2+y,-z
1/2-x,1/2-y,-z
1/2+x,1/2-y,z
loop_
_atom_site_type_symbol
_atom_site_label
_atom_site_fract_x
_atom_site_fract_y
_atom_site_fract_z
Si Si1 0.000000 0.233889 0.500000
Si Si2 0.089011 0.740656 0.843439
Si Si3 0.672709 0.451033 0.504888
Si Si4 0.084000 0.072674 0.062777
Si Si5 0.116333 0.176261 0.072312
Si Si6 0.298715 0.174400 0.963776
Si Si7 0.188142 0.617081 0.565616
Si Si8 0.551893 0.950575 0.718900
O O1 0.931106 0.266675 0.441320
O O2 0.948370 0.200517 0.709156
O O3 0.152158 0.717150 0.978244
O O4 0.109951 0.792677 0.825487
O O5 0.000000 0.732903 0.000000
O O6 0.705491 0.500000 0.433603
O O7 0.604799 0.442867 0.337568
O O8 0.732850 0.410775 0.446297
O O9 0.643032 0.448464 0.818032
O O10 0.095272 0.125584 0.049232
O O11 0.000000 0.061941 0.000000
O O12 0.206735 0.180120 0.090588
O O13 0.330226 0.140301 0.152792
O O14 0.305277 0.152198 0.675066
O O15 0.120484 0.581482 0.584043
O O16 0.500000 0.954059 0.500000
O O17 0.580834 0.000000 0.768710
O O18 0.500000 0.935266 0.000000
#
# Coordination Sequence:
#
# PCOD9216037 Si02
#       8
#     4   8   8   8   8   8   8   8
#     4  10  24  42  74  98 141 190 239 298 354 420
#     4  10  25  45  67 105 140 190 234 292 360 421
#     4  12  26  47  70  99 141 183 231 293 359 424
#     4  12  26  43  71 101 138 183 236 294 346 418
#     4  11  24  45  68 104 138 189 242 289 353 422
#     4  12  27  43  73 100 147 185 239 293 348 433
#     4  12  25  46  68 105 140 189 233 294 360 421
#     4  10  22  42  71 103 136 182 240 295 355 433
#
# _framework density 22.328239
#
# number of rings (size 3 to 8) (size 9 to 14) (size 15 to 20)
#    0.000    0.800    2.667    3.600    9.333    3.733 
#    0.000    4.000    0.000    0.000    0.000    0.000 
#    0.000    0.000    0.000    0.000    0.000    0.000 
#
# Total GULP energy -167186.570589 kJ/mol
# GULP energy per Si atom -5572.885686 kJ/mol
# Density = 2.227742 g / cm^3
# Si number density = 22.328239 Si / 1000 Ang^3
#
#
#
# Elastic Constant Matrix: (Units=GPa)
#
#
# Indices 1 2 3 4 5 6 
#
# 1 89.1035 20.2685 14.4661 0.0000 11.1609 0.0000
# 2 20.2685 76.0562 6.8496 0.0000 6.3161 0.0000
# 3 14.4661 6.8496 65.3260 0.0000 16.5142 0.0000
# 4 0.0000 0.0000 0.0000 36.1613 0.0000 -0.0462
# 5 11.1609 6.3161 16.5142 0.0000 33.7238 0.0000
# 6 0.0000 0.0000 0.0000 -0.0462 0.0000 35.0843
#
#
#
# Elastic Compliance Matrix: (Units=1/GPa)
#
#
# Indices 1 2 3 4 5 6 
#
# 1 0.012524 -0.002951 -0.001776 0.000000 -0.002722 0.000000
# 2 -0.002951 0.014096 -0.000461 0.000000 -0.001437 0.000000
# 3 -0.001776 -0.000461 0.017780 0.000000 -0.008033 0.000000
# 4 0.000000 0.000000 0.000000 0.027654 0.000000 0.000036
# 5 -0.002722 -0.001437 -0.008033 0.000000 0.034756 0.000000
# 6 0.000000 0.000000 0.000000 0.000036 0.000000 0.028503
#
#
# Mechanical properties :
#
#
# Convention : Reuss Voigt Hill
#
# Bulk Modulus (GPa) = 29.39181 34.85045 32.12113
# Shear Modulus (GPa) = 31.84117 33.58732 32.71425
#
# Velocity S-wave (km/s) = 3.78040 3.88268 3.83188
# Velocity P-wave (km/s) = 5.67868 5.97849 5.83051
#
# Compressibility (1/GPa) = 0.03402309
#
# Stress axis : x y z
#
# Youngs Moduli (GPa) = 79.84955 70.94415 56.24293
#
# Poissons Ratio (x) = 0.20939 0.09986
# Poissons Ratio (y) = 0.23567 0.02593
# Poissons Ratio (z) = 0.14178 0.03271
#
# Static dielectric constant tensor:
#      x y z
#    x 1.813430 0.000000 0.141110 
#    y 0.000000 1.917930 0.000000 
#    z 0.141110 0.000000 2.036210 
# 
# From -- ./inp_files/18294.got.cif
#   From: 2010.05.17/outbox.cif.g08.bks.cpg/sg12_10_cif.got.tgz:18294.got - 2010.06.03 13:09:07.
