data_PCOD9216022
_publ_section_title
;
Structure prediction by ZEFSAII (Michael W. Deem and Ramdas Pophale) SiO2 
 PCOD9216022
Probable space group: C 2/M
;
_chemical_formula_sum "Si O2"
_cell_formula_units_Z 54
_cell_length_a 19.627030
_cell_length_b 17.410770
_cell_length_c 19.636754
_cell_angle_alpha 90.000000
_cell_angle_beta 22.036485
_cell_angle_gamma 90.000000
_cell_volume 2517.685876
_symmetry_space_group_name_H-M "C 2/M"
_symmetry_group_IT_number 12
_symmetry_cell_setting 'monoclinic'
loop_
_space_group_symop_operation_xyz
x,y,z
-x,y,-z
-x,-y,-z
x,-y,z
1/2+x,1/2+y,z
1/2-x,1/2+y,-z
1/2-x,1/2-y,-z
1/2+x,1/2-y,z
loop_
_atom_site_type_symbol
_atom_site_label
_atom_site_fract_x
_atom_site_fract_y
_atom_site_fract_z
Si Si1 0.938497 0.140796 0.451150
Si Si2 0.953050 0.588644 0.223718
Si Si3 0.500000 0.319078 0.000000
Si Si4 0.056637 0.413027 0.604164
Si Si5 0.898403 0.703535 0.654976
Si Si6 0.500000 0.500000 0.500000
Si Si7 0.682365 0.667574 0.092443
Si Si8 0.535069 0.590490 0.827122
O O1 0.723403 0.128880 0.642686
O O2 0.985319 0.220630 0.442773
O O3 0.028692 0.155447 0.292938
O O4 0.005750 0.068474 0.434079
O O5 0.955941 0.500000 0.198137
O O6 0.937283 0.589830 0.320178
O O7 0.141010 0.630522 0.035978
O O8 0.690783 0.275941 0.832010
O O9 0.516791 0.369761 0.916723
O O10 0.005734 0.500000 0.631034
O O11 0.259449 0.396354 0.389726
O O12 0.920411 0.350874 0.699720
O O13 0.000000 0.658747 0.500000
O O14 0.603720 0.622639 0.100294
O O15 0.750000 0.750000 0.000000
O O16 0.506290 0.500000 0.860134
#
# Coordination Sequence:
#
# PCOD9216022 Si02
#       8
#     8   8   4   8   8   2   8   8
#     4  12  27  50  75 103 149 192 256 317 374 453
#     4  11  24  44  76 105 137 190 247 311 381 442
#     4  12  25  44  68 103 146 184 236 286 381 454
#     4  10  22  42  70 105 140 184 238 293 374 456
#     4  12  26  45  68  97 143 188 235 302 364 447
#     4  12  28  52  78 112 146 212 250 312 394 436
#     4  12  27  45  76 114 143 190 251 316 379 451
#     4  11  23  41  68 102 142 188 232 292 364 445
#
# _framework density 21.448267000000001
#
# number of rings (size 3 to 8) (size 9 to 14) (size 15 to 20)
#    0.000    0.593    4.444    3.333    4.148    5.037 
#    0.000    0.741    0.000    0.000    0.000    0.000 
#    0.000    0.000    0.000    0.000    0.000    0.000 
#
# Total GULP energy -150644.746428 kJ/mol
# GULP energy per Si atom -5579.435053 kJ/mol
# Density = 2.139945 g / cm^3
# Si number density = 21.448267 Si / 1000 Ang^3
#
#
#
# Elastic Constant Matrix: (Units=GPa)
#
#
# Indices 1 2 3 4 5 6 
#
# 1 80.9619 31.7767 11.9048 -0.0057 -15.0288 0.0048
# 2 31.7767 83.3969 11.3211 -0.0208 -35.6268 0.0247
# 3 11.9048 11.3211 69.8584 0.0232 -34.9617 -0.0099
# 4 -0.0057 -0.0208 0.0232 -22.7845 -0.0049 15.9554
# 5 -15.0288 -35.6268 -34.9617 -0.0049 50.8275 0.0044
# 6 0.0048 0.0247 -0.0099 15.9554 0.0044 4.6831
#
#
#
# Elastic Compliance Matrix: (Units=1/GPa)
#
#
# Indices 1 2 3 4 5 6 
#
# 1 0.014738 -0.005853 -0.002189 0.000002 -0.001250 0.000004
# 2 -0.005853 0.020629 0.006138 -0.000026 0.016951 -0.000016
# 3 -0.002189 0.006138 0.023671 0.000005 0.019937 -0.000015
# 4 0.000002 -0.000026 0.000005 -0.012962 -0.000020 0.044164
# 5 -0.001250 0.016951 0.019937 -0.000020 0.044900 -0.000022
# 6 0.000004 -0.000016 -0.000015 0.044164 -0.000022 0.063067
#
#
# Mechanical properties :
#
#
# Convention : Reuss Voigt Hill
#
# Bulk Modulus (GPa) = 18.10594 38.24693 28.17643
# Shear Modulus (GPa) = 28.36730 18.49286 23.43008
#
# Velocity S-wave (km/s) = 3.64069 2.93952 3.30873
# Velocity P-wave (km/s) = 5.11203 5.42143 5.26900
#
# Compressibility (1/GPa) = 0.05523051
#
# Stress axis : x y z
#
# Youngs Moduli (GPa) = 67.85007 48.47555 42.24648
#
# Poissons Ratio (x) = 0.28371 0.09246
# Poissons Ratio (y) = 0.39710 -0.25929
# Poissons Ratio (z) = 0.14850 -0.29752
#
# Static dielectric constant tensor:
#      x y z
#    x 1.798940 0.000000 0.066270 
#    y 0.000000 1.756090 0.000010 
#    z 0.066270 0.000010 1.836100 
# 
# From -- ./inp_files/322686.got.cif
#   From: 2010.05.17/outbox.cif.g08.bks.cpg/sg12_162_cif.got.tgz:322686.got - 2010.06.03 13:09:07.
