data_PCOD9216446
_publ_section_title
;
Structure prediction by ZEFSAII (Michael W. Deem and Ramdas Pophale) SiO2 
 PCOD9216446
Probable space group: C 2/M
;
_chemical_formula_sum "Si O2"
_cell_formula_units_Z 64
_cell_length_a 9.467350
_cell_length_b 26.661221
_cell_length_c 17.199864
_cell_angle_alpha 90.000000
_cell_angle_beta 137.550534
_cell_angle_gamma 90.000000
_cell_volume 2930.207937
_symmetry_space_group_name_H-M "C 2/M"
_symmetry_group_IT_number 12
_symmetry_cell_setting 'monoclinic'
loop_
_space_group_symop_operation_xyz
x,y,z
-x,y,-z
-x,-y,-z
x,-y,z
1/2+x,1/2+y,z
1/2-x,1/2+y,-z
1/2-x,1/2-y,-z
1/2+x,1/2-y,z
loop_
_atom_site_type_symbol
_atom_site_label
_atom_site_fract_x
_atom_site_fract_y
_atom_site_fract_z
Si Si1 0.849741 0.059607 0.513329
Si Si2 0.905538 0.559641 0.264109
Si Si3 0.565691 0.216099 0.896698
Si Si4 0.232070 0.710232 0.799143
Si Si5 0.513718 0.268343 0.414893
Si Si6 0.577960 0.102948 0.902210
Si Si7 0.097181 0.870606 0.724801
Si Si8 0.005772 0.115519 0.143444
O O1 0.615226 0.074755 0.394759
O O2 0.000000 0.068943 0.500000
O O3 0.938961 0.090592 0.620801
O O4 0.853482 0.000000 0.530126
O O5 0.912835 0.500000 0.255330
O O6 0.908219 0.586053 0.181145
O O7 0.697411 0.576586 0.223156
O O8 0.371746 0.240096 0.861205
O O9 0.567564 0.212248 0.803189
O O10 0.612508 0.160408 0.938844
O O11 0.750000 0.250000 0.000000
O O12 0.387731 0.662233 0.862232
O O13 0.120303 0.720799 0.671662
O O14 0.500000 0.279131 0.500000
O O15 0.750000 0.250000 0.500000
O O16 0.436620 0.318644 0.337510
O O17 0.327090 0.101873 0.817304
O O18 0.798699 0.085026 0.029880
O O19 0.042209 0.862041 0.791837
#
# Coordination Sequence:
#
# PCOD9216446 Si02
#       8
#     8   8   8   8   8   8   8   8
#     4  10  22  45  76 104 132 174 233 294 356 426
#     4  11  26  49  77 105 139 186 241 303 367 430
#     4  12  24  39  67  95 135 182 233 278 337 412
#     4  12  25  43  62  97 138 186 234 284 344 424
#     4  12  27  43  64  96 140 187 238 294 355 421
#     4  12  25  44  71 102 144 188 239 289 351 436
#     4  12  26  44  71 103 141 186 238 296 360 426
#     4  12  27  44  67 105 146 186 234 295 360 428
#
# _framework density 21.841453999999999
#
# number of rings (size 3 to 8) (size 9 to 14) (size 15 to 20)
#    0.000    0.375    5.000    3.750    1.750    3.000 
#    0.000    1.250    0.000    2.250    0.000    0.000 
#    0.000    0.000    0.000    0.000    0.000    0.000 
#
# Total GULP energy -178422.232195 kJ/mol
# GULP energy per Si atom -5575.694756 kJ/mol
# Density = 2.179174 g / cm^3
# Si number density = 21.841454 Si / 1000 Ang^3
#
#
#
# Elastic Constant Matrix: (Units=GPa)
#
#
# Indices 1 2 3 4 5 6 
#
# 1 94.6715 10.4500 36.6570 0.0000 7.2428 0.0000
# 2 10.4500 41.9596 34.7598 0.0000 1.1701 0.0000
# 3 36.6570 34.7598 150.6661 0.0001 21.2819 0.0000
# 4 0.0000 0.0000 0.0001 14.7021 0.0000 3.0922
# 5 7.2428 1.1701 21.2819 0.0000 40.1065 0.0000
# 6 0.0000 0.0000 0.0000 3.0922 0.0000 24.2631
#
#
#
# Elastic Compliance Matrix: (Units=1/GPa)
#
#
# Indices 1 2 3 4 5 6 
#
# 1 0.011697 -0.000767 -0.002566 0.000000 -0.000728 0.000000
# 2 -0.000767 0.029845 -0.007130 0.000000 0.003051 0.000000
# 3 -0.002566 -0.007130 0.009526 0.000000 -0.004383 0.000000
# 4 0.000000 0.000000 0.000000 0.069891 0.000000 -0.008907
# 5 -0.000728 0.003051 -0.004383 0.000000 0.027302 0.000000
# 6 0.000000 0.000000 0.000000 -0.008907 0.000000 0.042350
#
#
# Mechanical properties :
#
#
# Convention : Reuss Voigt Hill
#
# Bulk Modulus (GPa) = 33.17690 50.11453 41.64572
# Shear Modulus (GPa) = 22.56495 29.50971 26.03733
#
# Velocity S-wave (km/s) = 3.21771 3.67970 3.45643
# Velocity P-wave (km/s) = 5.38774 6.40688 5.91928
#
# Compressibility (1/GPa) = 0.03014145
#
# Stress axis : x y z
#
# Youngs Moduli (GPa) = 85.49354 33.50672 104.98114
#
# Poissons Ratio (x) = 0.02570 0.26938
# Poissons Ratio (y) = 0.06558 0.74849
# Poissons Ratio (z) = 0.21937 0.23890
#
# Static dielectric constant tensor:
#      x y z
#    x 1.780130 0.000000 0.035850 
#    y 0.000000 1.794360 0.000000 
#    z 0.035850 0.000000 1.854980 
# 
# From -- ./inp_files/260384.got.cif
#   From: 2010.05.17/outbox.cif.g08.bks.cpg/sg12_131_cif.got.tgz:260384.got - 2010.06.03 13:09:07.
