data_PCOD9216365
_publ_section_title
;
Structure prediction by ZEFSAII (Michael W. Deem and Ramdas Pophale) SiO2 
 PCOD9216365
Probable space group: C 2/M
;
_chemical_formula_sum "Si O2"
_cell_formula_units_Z 36
_cell_length_a 10.441184
_cell_length_b 7.581566
_cell_length_c 18.601035
_cell_angle_alpha 90.000000
_cell_angle_beta 89.489706
_cell_angle_gamma 90.000000
_cell_volume 1472.409308
_symmetry_space_group_name_H-M "C 2/M"
_symmetry_group_IT_number 12
_symmetry_cell_setting 'monoclinic'
loop_
_space_group_symop_operation_xyz
x,y,z
-x,y,-z
-x,-y,-z
x,-y,z
1/2+x,1/2+y,z
1/2-x,1/2+y,-z
1/2-x,1/2-y,-z
1/2+x,1/2-y,z
loop_
_atom_site_type_symbol
_atom_site_label
_atom_site_fract_x
_atom_site_fract_y
_atom_site_fract_z
Si Si1 0.754467 0.298580 0.672485
Si Si2 0.134989 0.500000 0.753942
Si Si3 0.495970 0.712372 0.417439
Si Si4 0.766906 0.290029 0.083576
Si Si5 0.011751 0.200088 0.170273
O O1 0.733440 0.500000 0.695895
O O2 0.638637 0.242462 0.619072
O O3 0.885307 0.286105 0.627665
O O4 0.740638 0.156301 0.734838
O O5 0.028488 0.344472 0.771716
O O6 0.500000 0.772432 0.500000
O O7 0.506773 0.500000 0.417024
O O8 0.787042 0.500000 0.097176
O O9 0.892845 0.202482 0.114703
O O10 0.637082 0.243462 0.125398
O O11 0.750000 0.250000 0.000000
O O12 0.022315 0.000000 0.196813
#
# Coordination Sequence:
#
# PCOD9216365 Si02
#       5
#     8   4   8   8   8
#     4  11  25  44  68 103 133 182 229 276 340 405
#     4  12  26  48  67  94 144 184 224 276 338 408
#     4  10  22  44  71 103 138 174 230 288 341 400
#     4  11  24  44  72 106 136 172 226 279 341 407
#     4  11  26  46  68 103 134 178 225 277 338 404
#
# _framework density 24.449722999999999
#
# number of rings (size 3 to 8) (size 9 to 14) (size 15 to 20)
#    0.000    1.111    2.222    2.667    4.667    4.889 
#    0.000    0.000    0.000    0.000    0.000    0.000 
#    0.000    0.000    0.000    0.000    0.000    0.000 
#
# Total GULP energy -100466.957968 kJ/mol
# GULP energy per Si atom -5581.497665 kJ/mol
# Density = 2.439407 g / cm^3
# Si number density = 24.449723 Si / 1000 Ang^3
#
#
#
# Elastic Constant Matrix: (Units=GPa)
#
#
# Indices 1 2 3 4 5 6 
#
# 1 187.9618 35.3279 75.3171 0.0000 -6.0953 0.0000
# 2 35.3279 129.6064 39.0378 0.0000 -7.0167 0.0000
# 3 75.3171 39.0378 111.4514 0.0000 -16.2968 0.0000
# 4 0.0000 0.0000 0.0000 25.5961 0.0000 -12.3655
# 5 -6.0953 -7.0167 -16.2968 0.0000 50.1081 0.0000
# 6 0.0000 0.0000 0.0000 -12.3655 0.0000 41.3887
#
#
#
# Elastic Compliance Matrix: (Units=1/GPa)
#
#
# Indices 1 2 3 4 5 6 
#
# 1 0.007361 -0.000577 -0.004886 0.000000 -0.000774 0.000000
# 2 -0.000577 0.008674 -0.002605 0.000000 0.000297 0.000000
# 3 -0.004886 -0.002605 0.013698 0.000000 0.003496 0.000000
# 4 0.000000 0.000000 0.000000 0.045658 0.000000 0.013641
# 5 -0.000774 0.000297 0.003496 0.000000 0.021041 0.000000
# 6 0.000000 0.000000 0.000000 0.013641 0.000000 0.028237
#
#
# Mechanical properties :
#
#
# Convention : Reuss Voigt Hill
#
# Bulk Modulus (GPa) = 73.54131 80.93167 77.23649
# Shear Modulus (GPa) = 34.40290 42.04104 38.22197
#
# Velocity S-wave (km/s) = 3.75519 4.15117 3.95813
# Velocity P-wave (km/s) = 6.99613 7.49329 7.24897
#
# Compressibility (1/GPa) = 0.01359780
#
# Stress axis : x y z
#
# Youngs Moduli (GPa) = 135.84532 115.29292 73.00412
#
# Poissons Ratio (x) = 0.06650 0.35669
# Poissons Ratio (y) = 0.07836 0.19016
# Poissons Ratio (z) = 0.66372 0.30031
#
# Static dielectric constant tensor:
#      x y z
#    x 1.949690 0.000000 0.050780 
#    y 0.000000 1.899360 0.000000 
#    z 0.050780 0.000000 1.877470 
# 
# From -- ./inp_files/331709.got.cif
#   From: 2010.05.17/outbox.cif.g08.bks.cpg/sg12_166_cif.got.tgz:331709.got - 2010.06.03 13:09:07.
