data_PCOD9216382
_publ_section_title
;
Structure prediction by ZEFSAII (Michael W. Deem and Ramdas Pophale) SiO2 
 PCOD9216382
Probable space group: C 2/M
;
_chemical_formula_sum "Si O2"
_cell_formula_units_Z 48
_cell_length_a 29.830531
_cell_length_b 11.105030
_cell_length_c 14.044310
_cell_angle_alpha 90.000000
_cell_angle_beta 29.095649
_cell_angle_gamma 90.000000
_cell_volume 2262.339269
_symmetry_space_group_name_H-M "C 2/M"
_symmetry_group_IT_number 12
_symmetry_cell_setting 'monoclinic'
loop_
_space_group_symop_operation_xyz
x,y,z
-x,y,-z
-x,-y,-z
x,-y,z
1/2+x,1/2+y,z
1/2-x,1/2+y,-z
1/2-x,1/2-y,-z
1/2+x,1/2-y,z
loop_
_atom_site_type_symbol
_atom_site_label
_atom_site_fract_x
_atom_site_fract_y
_atom_site_fract_z
Si Si1 0.352417 0.500000 0.534679
Si Si2 0.865072 0.857937 0.870598
Si Si3 0.160834 0.702896 0.246035
Si Si4 0.483206 0.500000 0.920119
Si Si5 0.948901 0.757869 0.389463
Si Si6 0.914719 0.500000 0.736342
Si Si7 0.868172 0.500000 0.047660
Si Si8 0.467515 0.771058 0.950835
O O1 0.417531 0.500000 0.317912
O O2 0.386951 0.376354 0.516120
O O3 0.242586 0.500000 0.742015
O O4 0.866995 0.826904 0.754370
O O5 0.948895 0.792332 0.767045
O O6 0.872816 0.000000 0.873006
O O7 0.764839 0.810440 0.087843
O O8 0.093069 0.667932 0.456624
O O9 0.145268 0.612957 0.187271
O O10 0.436303 0.630862 0.989456
O O11 0.500000 0.500000 0.000000
O O12 0.949480 0.716567 0.279803
O O13 0.912237 0.500000 0.857536
O O14 0.000000 0.500000 0.500000
O O15 0.901315 0.379410 0.041898
O O16 0.500000 0.780989 0.000000
#
# Coordination Sequence:
#
# PCOD9216382 Si02
#       8
#     4   8   8   4   8   4   4   8
#     4  10  24  38  65  98 132 170 224 281 338 400
#     4  11  23  41  63  91 128 173 217 269 319 395
#     4  11  25  38  63  93 131 171 226 262 326 396
#     4   8  18  44  70  91 127 174 215 269 342 408
#     4  11  23  42  65  95 130 174 224 275 336 400
#     4  12  24  44  60  94 140 183 214 266 343 398
#     4  12  25  40  72 101 138 174 229 289 341 400
#     4  10  22  44  72  97 130 175 225 280 350 405
#
# _framework density 21.216978000000001
#
# number of rings (size 3 to 8) (size 9 to 14) (size 15 to 20)
#    0.000    1.333    1.667    3.750    8.167    0.667 
#    0.000    7.500    0.000    4.000    0.000    0.000 
#    0.000    0.000    0.000    0.000    0.000    0.000 
#
# Total GULP energy -133744.415399 kJ/mol
# GULP energy per Si atom -5572.683975 kJ/mol
# Density = 2.116869 g / cm^3
# Si number density = 21.216978 Si / 1000 Ang^3
#
#
#
# Elastic Constant Matrix: (Units=GPa)
#
#
# Indices 1 2 3 4 5 6 
#
# 1 124.9885 43.6492 89.2903 0.0000 18.7057 0.0000
# 2 43.6492 106.5682 45.0790 0.0000 -9.4261 0.0000
# 3 89.2903 45.0790 100.0035 0.0000 -3.4143 0.0000
# 4 0.0000 0.0000 0.0000 13.5672 0.0000 3.8238
# 5 18.7057 -9.4261 -3.4143 0.0000 44.5733 0.0000
# 6 0.0000 0.0000 0.0000 3.8238 0.0000 35.9013
#
#
#
# Elastic Compliance Matrix: (Units=1/GPa)
#
#
# Indices 1 2 3 4 5 6 
#
# 1 0.029414 -0.002516 -0.025635 0.000000 -0.014840 0.000000
# 2 -0.002516 0.012001 -0.003048 0.000000 0.003360 0.000000
# 3 -0.025635 -0.003048 0.034699 0.000000 0.012771 0.000000
# 4 0.000000 0.000000 0.000000 0.075988 0.000000 -0.008093
# 5 -0.014840 0.003360 0.012771 0.000000 0.030352 0.000000
# 6 0.000000 0.000000 0.000000 -0.008093 0.000000 0.028716
#
#
# Mechanical properties :
#
#
# Convention : Reuss Voigt Hill
#
# Bulk Modulus (GPa) = 72.91800 76.39971 74.65885
# Shear Modulus (GPa) = 17.97653 29.04448 23.51051
#
# Velocity S-wave (km/s) = 2.91395 3.70391 3.33242
# Velocity P-wave (km/s) = 6.76490 7.37421 7.07611
#
# Compressibility (1/GPa) = 0.01371404
#
# Stress axis : x y z
#
# Youngs Moduli (GPa) = 33.99749 83.32653 28.81950
#
# Poissons Ratio (x) = 0.20968 0.73879
# Poissons Ratio (y) = 0.08555 0.08785
# Poissons Ratio (z) = 0.87153 0.25400
#
# Static dielectric constant tensor:
#      x y z
#    x 1.756790 0.000000 0.042030 
#    y 0.000000 1.903530 0.000000 
#    z 0.042030 0.000000 1.794950 
# 
# From -- ./inp_files/250781.got.cif
#   From: 2010.05.17/outbox.cif.g08.bks.cpg/sg12_126_cif.got.tgz:250781.got - 2010.06.03 13:09:07.
