data_PCOD9216860
_publ_section_title
;
Structure prediction by ZEFSAII (Michael W. Deem and Ramdas Pophale) SiO2 
 PCOD9216860
Probable space group: C 2/M
;
_chemical_formula_sum "Si O2"
_cell_formula_units_Z 20
_cell_length_a 9.919833
_cell_length_b 18.559997
_cell_length_c 5.248420
_cell_angle_alpha 90.000000
_cell_angle_beta 112.450765
_cell_angle_gamma 90.000000
_cell_volume 893.059891
_symmetry_space_group_name_H-M "C 2/M"
_symmetry_group_IT_number 12
_symmetry_cell_setting 'monoclinic'
loop_
_space_group_symop_operation_xyz
x,y,z
-x,y,-z
-x,-y,-z
x,-y,z
1/2+x,1/2+y,z
1/2-x,1/2+y,-z
1/2-x,1/2-y,-z
1/2+x,1/2-y,z
loop_
_atom_site_type_symbol
_atom_site_label
_atom_site_fract_x
_atom_site_fract_y
_atom_site_fract_z
Si Si1 0.599107 0.500000 0.315349
Si Si2 0.661376 0.772188 0.179747
Si Si3 0.125643 0.418411 0.391476
O O1 0.500000 0.500000 0.500000
O O2 0.711459 0.432453 0.382850
O O3 0.500000 0.500000 0.000000
O O4 0.750000 0.750000 0.500000
O O5 0.644384 0.858393 0.193742
O O6 0.500000 0.742595 0.000000
O O7 0.750000 0.750000 0.000000
O O8 0.086362 0.500000 0.282169
O O9 0.000000 0.395299 0.500000
#
# Coordination Sequence:
#
# PCOD9216860 Si02
#       3
#     4   8   8
#     4  10  23  40  67 112 150 180 233 310 386 426
#     4  12  27  48  74 106 150 201 250 304 371 445
#     4   9  22  48  75 106 145 194 250 302 371 450
#
# _framework density 22.394912999999999
#
# number of rings (size 3 to 8) (size 9 to 14) (size 15 to 20)
#    1.200    0.400    0.000    3.600    0.000   12.000 
#    0.000    0.000    0.000    0.000    0.000    0.000 
#    0.000    0.000    0.000    0.000    0.000    0.000 
#
# Total GULP energy -55759.758503 kJ/mol
# GULP energy per Si atom -5575.975850 kJ/mol
# Density = 2.234394 g / cm^3
# Si number density = 22.394913 Si / 1000 Ang^3
#
#
#
# Elastic Constant Matrix: (Units=GPa)
#
#
# Indices 1 2 3 4 5 6 
#
# 1 248.1264 47.5577 109.7231 0.0000 -5.1650 0.0000
# 2 47.5577 86.7315 18.1513 0.0000 -32.7114 0.0000
# 3 109.7231 18.1513 217.2445 0.0000 8.6418 0.0000
# 4 0.0000 0.0000 0.0000 34.4668 0.0000 -10.3337
# 5 -5.1650 -32.7114 8.6418 0.0000 49.3262 0.0000
# 6 0.0000 0.0000 0.0000 -10.3337 0.0000 34.6180
#
#
#
# Elastic Compliance Matrix: (Units=1/GPa)
#
#
# Indices 1 2 3 4 5 6 
#
# 1 0.005729 -0.002928 -0.002614 0.000000 -0.000884 0.000000
# 2 -0.002928 0.017523 -0.000439 0.000000 0.011391 0.000000
# 3 -0.002614 -0.000439 0.006024 0.000000 -0.001620 0.000000
# 4 0.000000 0.000000 0.000000 0.031865 0.000000 0.009512
# 5 -0.000884 0.011391 -0.001620 0.000000 0.028019 0.000000
# 6 0.000000 0.000000 0.000000 0.009512 0.000000 0.031726
#
#
# Mechanical properties :
#
#
# Convention : Reuss Voigt Hill
#
# Bulk Modulus (GPa) = 57.74845 100.32963 79.03904
# Shear Modulus (GPa) = 36.07047 48.79356 42.43202
#
# Velocity S-wave (km/s) = 4.01765 4.67280 4.35756
# Velocity P-wave (km/s) = 6.88218 8.60296 7.79023
#
# Compressibility (1/GPa) = 0.01731648
#
# Stress axis : x y z
#
# Youngs Moduli (GPa) = 174.56032 57.06761 165.99576
#
# Poissons Ratio (x) = 0.16707 0.43385
# Poissons Ratio (y) = 0.51103 0.07281
# Poissons Ratio (z) = 0.45623 0.02503
#
# Static dielectric constant tensor:
#      x y z
#    x 1.506130 0.000000 0.085430 
#    y 0.000000 1.862560 0.000000 
#    z 0.085430 0.000000 1.778510 
# 
# From -- ./inp_files/2231.got.cif
#   From: 2010.05.17/outbox.cif.g08.bks.cpg/sg12_2_cif.got.tgz:2231.got - 2010.06.03 13:09:07.
