data_PCOD9216226
_publ_section_title
;
Structure prediction by ZEFSAII (Michael W. Deem and Ramdas Pophale) SiO2 
 PCOD9216226
Probable space group: C 2/M
;
_chemical_formula_sum "Si O2"
_cell_formula_units_Z 52
_cell_length_a 8.488197
_cell_length_b 14.481702
_cell_length_c 31.608793
_cell_angle_alpha 90.000000
_cell_angle_beta 39.976079
_cell_angle_gamma 90.000000
_cell_volume 2496.285695
_symmetry_space_group_name_H-M "C 2/M"
_symmetry_group_IT_number 12
_symmetry_cell_setting 'monoclinic'
loop_
_space_group_symop_operation_xyz
x,y,z
-x,y,-z
-x,-y,-z
x,-y,z
1/2+x,1/2+y,z
1/2-x,1/2+y,-z
1/2-x,1/2-y,-z
1/2+x,1/2-y,z
loop_
_atom_site_type_symbol
_atom_site_label
_atom_site_fract_x
_atom_site_fract_y
_atom_site_fract_z
Si Si1 0.269933 0.500000 0.881003
Si Si2 0.057312 0.500000 0.835459
Si Si3 0.481460 0.500000 0.933862
Si Si4 0.157963 0.172644 0.263041
Si Si5 0.505028 0.694388 0.057290
Si Si6 0.643657 0.261757 0.356922
Si Si7 0.530224 0.692097 0.147359
Si Si8 0.767984 0.110932 0.578925
O O1 0.061083 0.500000 0.886664
O O2 0.305313 0.500000 0.926851
O O3 0.400837 0.596276 0.845740
O O4 0.211523 0.586744 0.786156
O O5 0.783406 0.500000 0.871296
O O6 0.425739 0.592304 0.970428
O O7 0.124969 0.171153 0.320175
O O8 0.342553 0.255013 0.214389
O O9 0.894565 0.203899 0.300820
O O10 0.423785 0.678409 0.122645
O O11 0.275813 0.749590 0.086875
O O12 0.750000 0.750000 0.000000
O O13 0.437090 0.180806 0.398865
O O14 0.658333 0.331094 0.393934
O O15 0.000000 0.108805 0.500000
O O16 0.698653 0.000000 0.600072
#
# Coordination Sequence:
#
# PCOD9216226 Si02
#       8
#     4   4   4   8   8   8   8   8
#     4  10  24  39  64  91 122 165 214 254 320 418
#     4  12  22  40  66  95 130 170 214 265 334 418
#     4  10  24  43  65  92 122 165 213 264 344 398
#     4  11  23  39  62  94 130 169 212 270 334 400
#     4  11  23  41  63  88 119 158 214 269 321 402
#     4  10  23  41  63 100 135 171 224 280 325 398
#     4  11  22  42  61  89 124 166 206 260 339 392
#     4  10  22  43  69  96 135 185 228 275 338 397
#
# _framework density 20.830949
#
# number of rings (size 3 to 8) (size 9 to 14) (size 15 to 20)
#    0.000    1.385    1.538    3.692    4.308    0.615 
#    5.538    4.615    0.000    4.615    0.000    0.000 
#    0.000    0.000    0.000    0.000    0.000    0.000 
#
# Total GULP energy -144765.590747 kJ/mol
# GULP energy per Si atom -5567.907336 kJ/mol
# Density = 2.078354 g / cm^3
# Si number density = 20.830949 Si / 1000 Ang^3
#
#
#
# Elastic Constant Matrix: (Units=GPa)
#
#
# Indices 1 2 3 4 5 6 
#
# 1 108.9828 43.1706 39.2135 -0.0002 -1.5920 0.0055
# 2 43.1706 179.9166 42.5363 -0.0002 -8.1987 -0.0002
# 3 39.2135 42.5363 74.7705 0.0028 -9.0537 0.0016
# 4 -0.0002 -0.0002 0.0028 66.7925 -0.0019 -13.0413
# 5 -1.5920 -8.1987 -9.0537 -0.0019 31.5332 0.0018
# 6 0.0055 -0.0002 0.0016 -13.0413 0.0018 26.9690
#
#
#
# Elastic Compliance Matrix: (Units=1/GPa)
#
#
# Indices 1 2 3 4 5 6 
#
# 1 0.011737 -0.001599 -0.005412 0.000000 -0.001377 -0.000002
# 2 -0.001599 0.006652 -0.002845 0.000000 0.000832 0.000001
# 3 -0.005412 -0.002845 0.018346 -0.000001 0.004255 -0.000001
# 4 0.000000 0.000000 -0.000001 0.016533 0.000000 0.007995
# 5 -0.001377 0.000832 0.004255 0.000000 0.033081 -0.000002
# 6 -0.000002 0.000001 -0.000001 0.007995 -0.000002 0.040946
#
#
# Mechanical properties :
#
#
# Convention : Reuss Voigt Hill
#
# Bulk Modulus (GPa) = 58.74639 68.16787 63.45713
# Shear Modulus (GPa) = 32.74788 40.97558 36.86173
#
# Velocity S-wave (km/s) = 3.96925 4.43996 4.21118
# Velocity P-wave (km/s) = 7.01921 7.68633 7.36033
#
# Compressibility (1/GPa) = 0.01702232
#
# Stress axis : x y z
#
# Youngs Moduli (GPa) = 85.20385 150.32113 54.50689
#
# Poissons Ratio (x) = 0.24042 0.29500
# Poissons Ratio (y) = 0.13627 0.15507
# Poissons Ratio (z) = 0.46114 0.42766
#
# Static dielectric constant tensor:
#      x y z
#    x 1.884480 -0.000740 0.047730 
#    y -0.000740 0.891570 -0.000190 
#    z 0.047730 -0.000190 1.721890 
# 
# From -- ./inp_files/372519.got.cif
#   From: 2010.05.17/outbox.cif.g08.bks.cpg/sg12_187_cif.got.tgz:372519.got - 2010.06.03 13:09:07.
