data_PCOD9216824
_publ_section_title
;
Structure prediction by ZEFSAII (Michael W. Deem and Ramdas Pophale) SiO2 
 PCOD9216824
Probable space group: C 2/M
;
_chemical_formula_sum "Si O2"
_cell_formula_units_Z 48
_cell_length_a 25.929551
_cell_length_b 14.540958
_cell_length_c 5.794721
_cell_angle_alpha 90.000000
_cell_angle_beta 90.000026
_cell_angle_gamma 90.000000
_cell_volume 2184.844573
_symmetry_space_group_name_H-M "C 2/M"
_symmetry_group_IT_number 12
_symmetry_cell_setting 'monoclinic'
loop_
_space_group_symop_operation_xyz
x,y,z
-x,y,-z
-x,-y,-z
x,-y,z
1/2+x,1/2+y,z
1/2-x,1/2+y,-z
1/2-x,1/2-y,-z
1/2+x,1/2-y,z
loop_
_atom_site_type_symbol
_atom_site_label
_atom_site_fract_x
_atom_site_fract_y
_atom_site_fract_z
Si Si1 0.145666 0.894912 0.596602
Si Si2 0.939043 0.101037 0.043475
Si Si3 0.278827 0.750000 0.250000
Si Si4 0.939043 0.398963 0.456525
Si Si5 0.384566 0.750000 0.750000
Si Si6 0.854334 0.394912 0.096602
O O1 0.184445 0.840409 0.763143
O O2 0.146521 0.830266 0.374551
O O3 0.160682 0.000000 0.558803
O O4 0.087578 0.895007 0.703885
O O5 0.918961 0.192603 0.925346
O O6 0.920585 0.000000 0.950557
O O7 0.000000 0.100212 0.000000
O O8 0.250000 0.750000 0.500000
O O9 0.315555 0.840409 0.263143
O O10 0.250000 0.750000 0.000000
O O11 0.920585 0.500000 0.549443
O O12 0.918961 0.307397 0.574654
O O13 0.912422 0.395007 0.203885
O O14 0.000000 0.399788 0.500000
O O15 0.353479 0.830266 0.874551
O O16 0.839318 0.500000 0.058803
#
# Coordination Sequence:
#
# PCOD9216824 Si02
#       6
#     8   8   8   8   8   8
#     4  11  25  46  70 103 145 188 239 306 373 444
#     4  10  23  40  65 102 140 184 237 292 362 446
#     4  12  27  49  76 110 142 188 249 305 370 444
#     4  10  23  40  65 102 140 184 237 292 362 446
#     4  12  21  39  68 100 140 194 231 289 360 440
#     4  11  25  46  70 103 145 188 239 306 373 444
#
# _framework density 21.969525000000001
#
# number of rings (size 3 to 8) (size 9 to 14) (size 15 to 20)
#    0.000    1.000    3.333    2.000    4.667    1.333 
#    0.000    5.000    0.000    0.000    0.000    0.000 
#    0.000    0.000    0.000    0.000    0.000    0.000 
#
# Total GULP energy -133736.509291 kJ/mol
# GULP energy per Si atom -5572.354554 kJ/mol
# Density = 2.191952 g / cm^3
# Si number density = 21.969525 Si / 1000 Ang^3
#
#
#
# Elastic Constant Matrix: (Units=GPa)
#
#
# Indices 1 2 3 4 5 6 
#
# 1 89.9945 38.9611 36.3659 0.0000 0.0000 0.0000
# 2 38.9611 231.0469 53.3420 0.0000 0.0000 0.0000
# 3 36.3659 53.3420 81.4530 0.0000 0.0000 0.0000
# 4 0.0000 0.0000 0.0000 38.4942 0.0000 0.0000
# 5 0.0000 0.0000 0.0000 0.0000 20.0509 0.0000
# 6 0.0000 0.0000 0.0000 0.0000 0.0000 9.4082
#
#
#
# Elastic Compliance Matrix: (Units=1/GPa)
#
#
# Indices 1 2 3 4 5 6 
#
# 1 0.013776 -0.001064 -0.005454 0.000000 0.000000 0.000000
# 2 -0.001064 0.005181 -0.002918 0.000000 0.000000 0.000000
# 3 -0.005454 -0.002918 0.016623 0.000000 0.000000 0.000000
# 4 0.000000 0.000000 0.000000 0.025978 0.000000 0.000000
# 5 0.000000 0.000000 0.000000 0.000000 0.049873 0.000000
# 6 0.000000 0.000000 0.000000 0.000000 0.000000 0.106291
#
#
# Mechanical properties :
#
#
# Convention : Reuss Voigt Hill
#
# Bulk Modulus (GPa) = 59.84906 73.31471 66.58189
# Shear Modulus (GPa) = 20.64722 31.84570 26.24646
#
# Velocity S-wave (km/s) = 3.06896 3.81141 3.46016
# Velocity P-wave (km/s) = 6.31340 7.26723 6.80704
#
# Compressibility (1/GPa) = 0.01670870
#
# Stress axis : x y z
#
# Youngs Moduli (GPa) = 72.58877 193.00417 60.15775
#
# Poissons Ratio (x) = 0.20534 0.32809
# Poissons Ratio (y) = 0.07723 0.17555
# Poissons Ratio (z) = 0.39589 0.56320
#
# Static dielectric constant tensor:
#      x y z
#    x 1.874550 0.000000 0.000000 
#    y 0.000000 1.769120 0.000000 
#    z 0.000000 0.000000 1.917180 
# 
# From -- ./inp_files/28149.got.cif
#   From: 2010.05.17/outbox.cif.g08.bks.cpg/sg12_15_cif.got.tgz:28149.got - 2010.06.03 13:09:07.
