data_PCOD9216459
_publ_section_title
;
Structure prediction by ZEFSAII (Michael W. Deem and Ramdas Pophale) SiO2 
 PCOD9216459
Probable space group: C 2/M
;
_chemical_formula_sum "Si O2"
_cell_formula_units_Z 42
_cell_length_a 8.016382
_cell_length_b 23.586428
_cell_length_c 13.578636
_cell_angle_alpha 90.000000
_cell_angle_beta 50.302799
_cell_angle_gamma 90.000000
_cell_volume 1975.451035
_symmetry_space_group_name_H-M "C 2/M"
_symmetry_group_IT_number 12
_symmetry_cell_setting 'monoclinic'
loop_
_space_group_symop_operation_xyz
x,y,z
-x,y,-z
-x,-y,-z
x,-y,z
1/2+x,1/2+y,z
1/2-x,1/2+y,-z
1/2-x,1/2-y,-z
1/2+x,1/2-y,z
loop_
_atom_site_type_symbol
_atom_site_label
_atom_site_fract_x
_atom_site_fract_y
_atom_site_fract_z
Si Si1 0.500000 0.107794 0.000000
Si Si2 0.500000 0.500000 0.000000
Si Si3 0.147820 0.204455 0.113939
Si Si4 0.664039 0.804782 0.241313
Si Si5 0.500000 0.859035 0.500000
Si Si6 0.416463 0.080029 0.822162
Si Si7 0.286758 0.435697 0.521374
O O1 0.704767 0.150154 0.923948
O O2 0.499188 0.071045 0.901663
O O3 0.314842 0.549209 0.097770
O O4 0.114962 0.241540 0.224798
O O5 0.919238 0.187921 0.156644
O O6 0.250000 0.250000 0.000000
O O7 0.561053 0.821256 0.383824
O O8 0.593852 0.851977 0.189010
O O9 0.698767 0.898361 0.463656
O O10 0.587683 0.062169 0.674242
O O11 0.500000 0.414329 0.500000
O O12 0.335253 0.500000 0.470004
#
# Coordination Sequence:
#
# PCOD9216459 Si02
#       7
#     4   2   8   8   4   8   8
#     4  12  24  38  66  96 132 170 220 260 336 394
#     4  12  24  44  62  94 140 168 212 282 340 398
#     4  12  21  39  65  93 128 177 209 268 324 402
#     4  11  23  42  64  95 129 170 226 263 334 392
#     4  10  25  42  68  96 126 176 220 279 344 378
#     4  11  24  42  64  99 131 173 215 279 332 398
#     4  10  22  46  67  92 128 174 230 276 324 400
#
# _framework density 21.260967000000001
#
# number of rings (size 3 to 8) (size 9 to 14) (size 15 to 20)
#    0.000    0.952    4.762    1.429    2.667    1.143 
#    0.000    0.000    0.000    0.000    0.000    0.000 
#    0.000    0.000    0.000    0.000    0.000    0.000 
#
# Total GULP energy -117080.488681 kJ/mol
# GULP energy per Si atom -5575.261366 kJ/mol
# Density = 2.121258 g / cm^3
# Si number density = 21.260967 Si / 1000 Ang^3
#
#
#
# Elastic Constant Matrix: (Units=GPa)
#
#
# Indices 1 2 3 4 5 6 
#
# 1 73.3489 -5.4633 10.7082 0.0000 5.9810 0.0000
# 2 -5.4633 47.3815 0.8070 0.0000 12.4065 0.0000
# 3 10.7082 0.8070 70.0047 0.0000 11.8715 0.0000
# 4 0.0000 0.0000 0.0000 -10.6793 0.0000 -27.1889
# 5 5.9810 12.4065 11.8715 0.0000 45.4964 0.0000
# 6 0.0000 0.0000 0.0000 -27.1889 0.0000 -21.6771
#
#
#
# Elastic Compliance Matrix: (Units=1/GPa)
#
#
# Indices 1 2 3 4 5 6 
#
# 1 0.014231 0.002191 -0.001866 0.000000 -0.001981 0.000000
# 2 0.002191 0.023111 0.000540 0.000000 -0.006731 0.000000
# 3 -0.001866 0.000540 0.015221 0.000000 -0.003874 0.000000
# 4 0.000000 0.000000 0.000000 0.042693 0.000000 -0.053549
# 5 -0.001981 -0.006731 -0.003874 0.000000 0.025087 0.000000
# 6 0.000000 0.000000 0.000000 -0.053549 0.000000 0.021033
#
#
# Mechanical properties :
#
#
# Convention : Reuss Voigt Hill
#
# Bulk Modulus (GPa) = 18.41843 22.53766 20.47804
# Shear Modulus (GPa) = 31.69720 14.94021 23.31871
#
# Velocity S-wave (km/s) = 3.86536 2.65374 3.31537
# Velocity P-wave (km/s) = 5.34819 4.47362 4.93034
#
# Compressibility (1/GPa) = 0.05429344
#
# Stress axis : x y z
#
# Youngs Moduli (GPa) = 70.27061 43.26888 65.69943
#
# Poissons Ratio (x) = -0.09482 0.12260
# Poissons Ratio (y) = -0.15400 -0.03547
# Poissons Ratio (z) = 0.13113 -0.02336
#
# Static dielectric constant tensor:
#      x y z
#    x 1.774220 0.000000 0.020210 
#    y 0.000000 1.806650 0.000000 
#    z 0.020210 0.000000 1.768520 
# 
# From -- ./inp_files/199613.got.cif
#   From: 2010.05.17/outbox.cif.g08.bks.cpg/sg12_100_cif.got.tgz:199613.got - 2010.06.03 13:09:07.
