data_PCOD9216564
_publ_section_title
;
Structure prediction by ZEFSAII (Michael W. Deem and Ramdas Pophale) SiO2 
 PCOD9216564
Probable space group: C 2/M
;
_chemical_formula_sum "Si O2"
_cell_formula_units_Z 52
_cell_length_a 17.435893
_cell_length_b 20.307894
_cell_length_c 13.218742
_cell_angle_alpha 90.000000
_cell_angle_beta 146.465713
_cell_angle_gamma 90.000000
_cell_volume 2585.717673
_symmetry_space_group_name_H-M "C 2/M"
_symmetry_group_IT_number 12
_symmetry_cell_setting 'monoclinic'
loop_
_space_group_symop_operation_xyz
x,y,z
-x,y,-z
-x,-y,-z
x,-y,z
1/2+x,1/2+y,z
1/2-x,1/2+y,-z
1/2-x,1/2-y,-z
1/2+x,1/2-y,z
loop_
_atom_site_type_symbol
_atom_site_label
_atom_site_fract_x
_atom_site_fract_y
_atom_site_fract_z
Si Si1 0.815862 0.629792 0.726213
Si Si2 0.260936 0.577354 0.954581
Si Si3 0.248392 0.500000 0.610207
Si Si4 0.406632 0.922659 0.039254
Si Si5 0.346585 0.874656 0.371795
Si Si6 0.122574 0.217596 0.217405
Si Si7 0.073484 0.108566 0.319584
O O1 0.853197 0.705028 0.743758
O O2 0.664993 0.611735 0.520907
O O3 0.928166 0.585931 0.788605
O O4 0.841734 0.614985 0.872352
O O5 0.235388 0.500000 0.910920
O O6 0.153319 0.601670 0.920779
O O7 0.243827 0.610503 0.827737
O O8 0.416333 0.587659 0.164441
O O9 0.156640 0.440862 0.564213
O O10 0.351524 0.557293 0.673638
O O11 0.373532 0.000000 0.992849
O O12 0.500000 0.859449 0.500000
O O13 0.266350 0.816034 0.339810
O O14 0.078300 0.179279 0.269666
O O15 0.000000 0.207662 0.000000
#
# Coordination Sequence:
#
# PCOD9216564 Si02
#       7
#     8   8   4   8   8   8   8
#     4  11  23  45  64  88 125 171 218 256 315 374
#     4  11  23  39  61  99 131 158 203 263 325 372
#     4  10  23  37  70  98 124 171 199 257 318 391
#     4  10  24  40  67  93 121 164 216 272 311 368
#     4  11  24  40  64  98 132 165 207 262 319 378
#     4  11  22  44  65  91 128 171 210 256 313 388
#     4  11  24  38  66  96 127 165 210 256 317 382
#
# _framework density 20.110471
#
# number of rings (size 3 to 8) (size 9 to 14) (size 15 to 20)
#    0.000    1.231    4.615    1.615    6.462    1.231 
#    2.769    3.077    0.000    0.000    0.000    0.000 
#    0.000    0.000    0.000    0.000    0.000    0.000 
#
# Total GULP energy -144790.809621 kJ/mol
# GULP energy per Si atom -5568.877293 kJ/mol
# Density = 2.006470 g / cm^3
# Si number density = 20.110471 Si / 1000 Ang^3
#
#
#
# Elastic Constant Matrix: (Units=GPa)
#
#
# Indices 1 2 3 4 5 6 
#
# 1 38.6285 -0.1273 -24.3734 0.0000 6.7603 0.0000
# 2 -0.1273 63.0138 -22.8334 0.0000 -1.9032 0.0000
# 3 -24.3734 -22.8334 71.1126 0.0000 0.2019 0.0000
# 4 0.0000 0.0000 0.0000 -5.3710 0.0000 12.6620
# 5 6.7603 -1.9032 0.2019 0.0000 24.6849 0.0000
# 6 0.0000 0.0000 0.0000 12.6620 0.0000 2.0298
#
#
#
# Elastic Compliance Matrix: (Units=1/GPa)
#
#
# Indices 1 2 3 4 5 6 
#
# 1 0.036513 0.004894 0.014114 0.000000 -0.009738 0.000000
# 2 0.004894 0.018659 0.007668 0.000000 0.000036 0.000000
# 3 0.014114 0.007668 0.021372 0.000000 -0.003449 0.000000
# 4 0.000000 0.000000 0.000000 -0.011854 0.000000 0.073948
# 5 -0.009738 0.000036 -0.003449 0.000000 0.043208 0.000000
# 6 0.000000 0.000000 0.000000 0.073948 0.000000 0.031368
#
#
# Mechanical properties :
#
#
# Convention : Reuss Voigt Hill
#
# Bulk Modulus (GPa) = 7.69847 8.67630 8.18738
# Shear Modulus (GPa) = 38.69598 18.94134 28.81866
#
# Velocity S-wave (km/s) = 4.39130 3.07231 3.78963
# Velocity P-wave (km/s) = 5.43578 4.11207 4.81959
#
# Compressibility (1/GPa) = 0.12989597
#
# Stress axis : x y z
#
# Youngs Moduli (GPa) = 27.38735 53.59277 46.79107
#
# Poissons Ratio (x) = -0.26227 -0.66039
# Poissons Ratio (y) = -0.13403 -0.35882
# Poissons Ratio (z) = -0.38654 -0.41098
#
# Static dielectric constant tensor:
#      x y z
#    x 1.714210 0.000000 -0.020410 
#    y 0.000000 1.686160 0.000000 
#    z -0.020410 0.000000 1.730040 
# 
# From -- ./inp_files/227449.got.cif
#   From: 2010.05.17/outbox.cif.g08.bks.cpg/sg12_114_cif.got.tgz:227449.got - 2010.06.03 13:09:07.
