data_PCOD9216831
_publ_section_title
;
Structure prediction by ZEFSAII (Michael W. Deem and Ramdas Pophale) SiO2 
 PCOD9216831
Probable space group: C 2/M
;
_chemical_formula_sum "Si O2"
_cell_formula_units_Z 36
_cell_length_a 22.233001
_cell_length_b 11.099913
_cell_length_c 12.243622
_cell_angle_alpha 90.000000
_cell_angle_beta 147.063967
_cell_angle_gamma 90.000000
_cell_volume 1642.815551
_symmetry_space_group_name_H-M "C 2/M"
_symmetry_group_IT_number 12
_symmetry_cell_setting 'monoclinic'
loop_
_space_group_symop_operation_xyz
x,y,z
-x,y,-z
-x,-y,-z
x,-y,z
1/2+x,1/2+y,z
1/2-x,1/2+y,-z
1/2-x,1/2-y,-z
1/2+x,1/2-y,z
loop_
_atom_site_type_symbol
_atom_site_label
_atom_site_fract_x
_atom_site_fract_y
_atom_site_fract_z
Si Si1 0.327822 0.500000 0.998339
Si Si2 0.664525 0.500000 0.740019
Si Si3 0.710974 0.263399 0.563720
Si Si4 0.931129 0.000000 0.630143
Si Si5 0.509254 0.855691 0.383778
Si Si6 0.687455 0.763402 0.069136
O O1 0.358424 0.500000 0.169767
O O2 0.449793 0.500000 0.130708
O O3 0.270367 0.627776 0.891587
O O4 0.572557 0.500000 0.507795
O O5 0.732385 0.376052 0.828013
O O6 0.750000 0.250000 0.500000
O O7 0.640583 0.384919 0.451508
O O8 0.623351 0.174655 0.492435
O O9 0.817952 0.266661 0.807187
O O10 0.500000 0.820160 0.500000
O O11 0.489927 0.000000 0.350833
O O12 0.416277 0.788065 0.168420
#
# Coordination Sequence:
#
# PCOD9216831 Si02
#       6
#     4   4   8   4   8   8
#     4  12  23  37  67 103 133 174 218 293 340 400
#     4  10  23  40  65  94 140 177 223 269 349 420
#     4  11  27  46  68  97 139 185 229 282 341 414
#     4  10  23  43  63  96 129 179 233 275 339 407
#     4  11  26  45  71 102 139 180 231 285 346 413
#     4  11  25  42  66 100 136 178 227 279 342 411
#
# _framework density 21.913599000000001
#
# number of rings (size 3 to 8) (size 9 to 14) (size 15 to 20)
#    0.000    1.111    3.333    1.000   12.444    0.889 
#    0.000    2.222    0.000    0.000    0.000    0.000 
#    0.000    0.000    0.000    0.000    0.000    0.000 
#
# Total GULP energy -100273.967796 kJ/mol
# GULP energy per Si atom -5570.775989 kJ/mol
# Density = 2.186372 g / cm^3
# Si number density = 21.913599 Si / 1000 Ang^3
#
#
#
# Elastic Constant Matrix: (Units=GPa)
#
#
# Indices 1 2 3 4 5 6 
#
# 1 118.6163 32.6728 61.3663 0.0000 -43.9683 0.0000
# 2 32.6728 157.6182 31.6268 0.0000 -3.7594 0.0000
# 3 61.3663 31.6268 131.4697 0.0000 -29.4137 0.0000
# 4 0.0000 0.0000 0.0000 -84.8576 0.0000 -164.6593
# 5 -43.9683 -3.7594 -29.4137 0.0000 28.0598 0.0000
# 6 0.0000 0.0000 0.0000 -164.6593 0.0000 -279.7463
#
#
#
# Elastic Compliance Matrix: (Units=1/GPa)
#
#
# Indices 1 2 3 4 5 6 
#
# 1 0.022732 -0.003433 -0.002506 0.000000 0.032533 0.000000
# 2 -0.003433 0.007208 -0.001462 0.000000 -0.005946 0.000000
# 3 -0.002506 -0.001462 0.010719 0.000000 0.007114 0.000000
# 4 0.000000 0.000000 0.000000 0.082910 0.000000 -0.048801
# 5 0.032533 -0.005946 0.007114 0.000000 0.093276 0.000000
# 6 0.000000 0.000000 0.000000 -0.048801 0.000000 0.025150
#
#
# Mechanical properties :
#
#
# Convention : Reuss Voigt Hill
#
# Bulk Modulus (GPa) = 38.67494 73.22621 55.95058
# Shear Modulus (GPa) = 18.83838 -48.50627 -14.83394
#
# Velocity S-wave (km/s) = 2.93519 -4.70991 -2.60461
# Velocity P-wave (km/s) = 5.40132 1.97755 4.06724
#
# Compressibility (1/GPa) = 0.02585653
#
# Stress axis : x y z
#
# Youngs Moduli (GPa) = 43.99094 138.74241 93.28988
#
# Poissons Ratio (x) = 0.47634 0.23380
# Poissons Ratio (y) = 0.15103 0.13636
# Poissons Ratio (z) = 0.11025 0.20280
#
# Static dielectric constant tensor:
#      x y z
#    x 1.896120 0.000000 -0.004630 
#    y 0.000000 1.464740 0.000000 
#    z -0.004630 0.000000 1.842940 
# 
# From -- ./inp_files/174187.got.cif
#   From: 2010.05.17/outbox.cif.g08.bks.cpg/sg12_88_cif.got.tgz:174187.got - 2010.06.03 13:09:07.
