data_PCOD9216356
_publ_section_title
;
Structure prediction by ZEFSAII (Michael W. Deem and Ramdas Pophale) SiO2 
 PCOD9216356
Probable space group: C 2/M
;
_chemical_formula_sum "Si O2"
_cell_formula_units_Z 52
_cell_length_a 15.813941
_cell_length_b 8.523085
_cell_length_c 27.556112
_cell_angle_alpha 90.000000
_cell_angle_beta 42.264310
_cell_angle_gamma 90.000000
_cell_volume 2497.931499
_symmetry_space_group_name_H-M "C 2/M"
_symmetry_group_IT_number 12
_symmetry_cell_setting 'monoclinic'
loop_
_space_group_symop_operation_xyz
x,y,z
-x,y,-z
-x,-y,-z
x,-y,z
1/2+x,1/2+y,z
1/2-x,1/2+y,-z
1/2-x,1/2-y,-z
1/2+x,1/2-y,z
loop_
_atom_site_type_symbol
_atom_site_label
_atom_site_fract_x
_atom_site_fract_y
_atom_site_fract_z
Si Si1 0.603604 0.190876 0.417675
Si Si2 0.677326 0.236728 0.831620
Si Si3 0.156151 0.000000 0.076592
Si Si4 0.555832 0.815744 0.327709
Si Si5 0.484129 0.175447 0.831327
Si Si6 0.391399 0.686368 0.315262
Si Si7 0.148977 0.500000 0.928017
Si Si8 0.992615 0.000000 0.946311
O O1 0.500000 0.246649 0.500000
O O2 0.573920 0.240720 0.375270
O O3 0.745095 0.231253 0.373301
O O4 0.599455 0.000000 0.418868
O O5 0.810111 0.297783 0.756305
O O6 0.604577 0.165195 0.816227
O O7 0.573817 0.358241 0.892504
O O8 0.694365 0.139448 0.873762
O O9 0.093194 0.166019 0.120860
O O10 0.139565 0.000000 0.025587
O O11 0.290389 0.000000 0.044870
O O12 0.452592 0.721797 0.341146
O O13 0.522604 0.000000 0.342466
O O14 0.533125 0.214720 0.756799
O O15 0.424280 0.000000 0.857965
O O16 0.402792 0.500000 0.299107
O O17 0.000000 0.500000 0.000000
O O18 0.000000 0.000000 0.000000
#
# Coordination Sequence:
#
# PCOD9216356 Si02
#       8
#     8   8   4   8   8   8   4   4
#     4   9  20  39  63  90 131 182 226 275 338 402
#     4  11  22  40  67  94 129 171 220 275 334 395
#     4  10  24  44  72  96 138 177 223 279 338 400
#     4  11  22  39  65  98 129 171 227 280 332 400
#     4  11  21  40  69 101 130 172 226 284 331 392
#     4  11  22  37  62  96 135 172 225 277 336 396
#     4  12  26  46  64  98 137 175 218 280 340 404
#     4  10  22  44  70  96 128 176 220 271 337 406
#
# _framework density 20.817224
#
# number of rings (size 3 to 8) (size 9 to 14) (size 15 to 20)
#    0.000    1.385    3.846    1.846    1.077    0.615 
#    1.385    8.462    0.000    3.231    0.000    0.000 
#    0.000    0.000    0.000    0.000    0.000    0.000 
#
# Total GULP energy -145024.862567 kJ/mol
# GULP energy per Si atom -5577.879330 kJ/mol
# Density = 2.076984 g / cm^3
# Si number density = 20.817224 Si / 1000 Ang^3
#
#
#
# Elastic Constant Matrix: (Units=GPa)
#
#
# Indices 1 2 3 4 5 6 
#
# 1 191.7507 25.0991 67.8572 -0.0001 4.4574 0.0000
# 2 25.0991 82.1800 12.6203 -0.0001 -5.6681 0.0001
# 3 67.8572 12.6203 91.0280 0.0000 16.6886 0.0000
# 4 -0.0001 -0.0001 0.0000 14.2992 0.0000 8.6480
# 5 4.4574 -5.6681 16.6886 0.0000 26.3063 -0.0001
# 6 0.0000 0.0001 0.0000 8.6480 -0.0001 30.3381
#
#
#
# Elastic Compliance Matrix: (Units=1/GPa)
#
#
# Indices 1 2 3 4 5 6 
#
# 1 0.007339 -0.001223 -0.005686 0.000000 0.002100 0.000000
# 2 -0.001223 0.013076 -0.001647 0.000000 0.004069 0.000000
# 3 -0.005686 -0.001647 0.017360 0.000000 -0.010405 0.000000
# 4 0.000000 0.000000 0.000000 0.084502 0.000000 -0.024088
# 5 0.002100 0.004069 -0.010405 0.000000 0.045135 0.000000
# 6 0.000000 0.000000 0.000000 -0.024088 0.000000 0.039828
#
#
# Mechanical properties :
#
#
# Convention : Reuss Voigt Hill
#
# Bulk Modulus (GPa) = 48.39848 64.01241 56.20545
# Shear Modulus (GPa) = 21.62261 31.48086 26.55174
#
# Velocity S-wave (km/s) = 3.22637 3.89299 3.57525
# Velocity P-wave (km/s) = 6.09746 7.14308 6.64088
#
# Compressibility (1/GPa) = 0.02066181
#
# Stress axis : x y z
#
# Youngs Moduli (GPa) = 136.26597 76.47818 57.60306
#
# Poissons Ratio (x) = 0.09355 0.32753
# Poissons Ratio (y) = 0.16669 0.09487
# Poissons Ratio (z) = 0.77481 0.12596
#
# Static dielectric constant tensor:
#      x y z
#    x 1.771610 0.000000 0.004720 
#    y 0.000000 1.783690 0.000000 
#    z 0.004720 0.000000 1.701380 
# 
# From -- ./inp_files/375355.got.cif
#   From: 2010.05.17/outbox.cif.g08.bks.cpg/sg12_188_cif.got.tgz:375355.got - 2010.06.03 13:09:07.
