data_PCOD9216339
_publ_section_title
;
Structure prediction by ZEFSAII (Michael W. Deem and Ramdas Pophale) SiO2 
 PCOD9216339
Probable space group: C 2/M
;
_chemical_formula_sum "Si O2"
_cell_formula_units_Z 52
_cell_length_a 11.853526
_cell_length_b 22.909293
_cell_length_c 12.402778
_cell_angle_alpha 90.000000
_cell_angle_beta 52.517203
_cell_angle_gamma 90.000000
_cell_volume 2672.667261
_symmetry_space_group_name_H-M "C 2/M"
_symmetry_group_IT_number 12
_symmetry_cell_setting 'monoclinic'
loop_
_space_group_symop_operation_xyz
x,y,z
-x,y,-z
-x,-y,-z
x,-y,z
1/2+x,1/2+y,z
1/2-x,1/2+y,-z
1/2-x,1/2-y,-z
1/2+x,1/2-y,z
loop_
_atom_site_type_symbol
_atom_site_label
_atom_site_fract_x
_atom_site_fract_y
_atom_site_fract_z
Si Si1 0.370462 0.568106 0.790535
Si Si2 0.095945 0.069149 0.848262
Si Si3 0.846812 0.328080 0.035605
Si Si4 0.119737 0.264927 0.211921
Si Si5 0.856772 0.364005 0.631156
Si Si6 0.500000 0.381591 0.500000
Si Si7 0.845809 0.194844 0.419737
O O1 0.328616 0.500000 0.825043
O O2 0.505598 0.577779 0.791178
O O3 0.248161 0.613662 0.896216
O O4 0.421169 0.581902 0.639093
O O5 0.253094 0.095296 0.760045
O O6 0.108868 0.000000 0.855787
O O7 0.000000 0.094571 0.000000
O O8 0.759190 0.275207 0.142490
O O9 0.865708 0.305418 0.902010
O O10 0.000000 0.336036 0.000000
O O11 0.100405 0.307128 0.324977
O O12 0.988233 0.219983 0.280796
O O13 0.752199 0.344971 0.596882
O O14 0.000000 0.391108 0.500000
O O15 0.608227 0.339742 0.500650
O O16 0.750000 0.250000 0.500000
#
# Coordination Sequence:
#
# PCOD9216339 Si02
#       7
#     8   8   8   8   8   4   8
#     4  11  24  43  66  94 125 173 227 270 323 390
#     4  10  22  44  69  90 124 173 223 271 323 391
#     4  11  24  40  63  92 129 169 215 271 322 394
#     4  11  23  40  62  93 129 170 212 263 331 402
#     4  12  23  37  63  97 129 164 210 273 326 389
#     4  12  23  42  68  94 132 174 217 270 322 398
#     4  12  23  39  64  95 128 172 208 259 323 398
#
# _framework density 19.456219000000001
#
# number of rings (size 3 to 8) (size 9 to 14) (size 15 to 20)
#    0.000    0.769    4.615    3.000    2.154    3.692 
#    0.000    0.000    0.000    0.000    0.000    0.000 
#    0.000    0.000    0.000    0.000    0.000    0.000 
#
# Total GULP energy -145264.086366 kJ/mol
# GULP energy per Si atom -5587.080245 kJ/mol
# Density = 1.941194 g / cm^3
# Si number density = 19.456219 Si / 1000 Ang^3
#
#
#
# Elastic Constant Matrix: (Units=GPa)
#
#
# Indices 1 2 3 4 5 6 
#
# 1 82.5902 41.5939 40.0488 0.0000 -18.4335 0.0000
# 2 41.5939 88.6964 35.5053 0.0000 -10.7902 0.0000
# 3 40.0488 35.5053 112.7657 0.0000 -16.5461 0.0000
# 4 0.0000 0.0000 0.0000 30.9027 0.0000 1.1116
# 5 -18.4335 -10.7902 -16.5461 0.0000 41.1741 0.0000
# 6 0.0000 0.0000 0.0000 1.1116 0.0000 22.1764
#
#
#
# Elastic Compliance Matrix: (Units=1/GPa)
#
#
# Indices 1 2 3 4 5 6 
#
# 1 0.018291 -0.006480 -0.003723 0.000000 0.004995 0.000000
# 2 -0.006480 0.015331 -0.002510 0.000000 0.000108 0.000000
# 3 -0.003723 -0.002510 0.011306 0.000000 0.002219 0.000000
# 4 0.000000 0.000000 0.000000 0.032418 0.000000 -0.001625
# 5 0.004995 0.000108 0.002219 0.000000 0.027443 0.000000
# 6 0.000000 0.000000 0.000000 -0.001625 0.000000 0.045174
#
#
# Mechanical properties :
#
#
# Convention : Reuss Voigt Hill
#
# Bulk Modulus (GPa) = 51.27457 57.59425 54.43441
# Shear Modulus (GPa) = 27.48902 29.97759 28.73331
#
# Velocity S-wave (km/s) = 3.76289 3.92953 3.84711
# Velocity P-wave (km/s) = 6.72979 7.08904 6.91175
#
# Compressibility (1/GPa) = 0.01950284
#
# Stress axis : x y z
#
# Youngs Moduli (GPa) = 54.67034 65.22753 88.44803
#
# Poissons Ratio (x) = 0.42266 0.32930
# Poissons Ratio (y) = 0.35425 0.22200
# Poissons Ratio (z) = 0.20355 0.16372
#
# Static dielectric constant tensor:
#      x y z
#    x 1.730320 0.000000 0.415750 
#    y 0.000000 1.679210 0.000000 
#    z 0.415750 0.000000 3.951930 
# 
# From -- ./inp_files/135846.got.cif
#   From: 2010.05.17/outbox.cif.g08.bks.cpg/sg12_68_cif.got.tgz:135846.got - 2010.06.03 13:09:07.
