data_PCOD9216511
_publ_section_title
;
Structure prediction by ZEFSAII (Michael W. Deem and Ramdas Pophale) SiO2 
 PCOD9216511
Probable space group: C 2/M
;
_chemical_formula_sum "Si O2"
_cell_formula_units_Z 42
_cell_length_a 12.007267
_cell_length_b 30.034076
_cell_length_c 6.360342
_cell_angle_alpha 90.000000
_cell_angle_beta 70.699950
_cell_angle_gamma 90.000000
_cell_volume 2164.807033
_symmetry_space_group_name_H-M "C 2/M"
_symmetry_group_IT_number 12
_symmetry_cell_setting 'monoclinic'
loop_
_space_group_symop_operation_xyz
x,y,z
-x,y,-z
-x,-y,-z
x,-y,z
1/2+x,1/2+y,z
1/2-x,1/2+y,-z
1/2-x,1/2-y,-z
1/2+x,1/2-y,z
loop_
_atom_site_type_symbol
_atom_site_label
_atom_site_fract_x
_atom_site_fract_y
_atom_site_fract_z
Si Si1 0.292196 0.367368 0.414502
Si Si2 0.000000 0.500000 0.000000
Si Si3 0.876971 0.297719 0.708082
Si Si4 0.623174 0.699026 0.298431
Si Si5 0.500000 0.840672 0.000000
Si Si6 0.500000 0.654830 0.000000
Si Si7 0.584858 0.080496 0.649235
O O1 0.207926 0.335145 0.330983
O O2 0.312530 0.340561 0.618756
O O3 0.220012 0.412526 0.494674
O O4 0.415434 0.371829 0.212726
O O5 0.940346 0.539102 0.186322
O O6 0.822976 0.248290 0.724549
O O7 0.000000 0.298580 0.500000
O O8 0.909701 0.310096 0.926975
O O9 0.500000 0.703367 0.500000
O O10 0.586026 0.684910 0.088589
O O11 0.554978 0.874236 0.794973
O O12 0.500000 0.077695 0.500000
#
# Coordination Sequence:
#
# PCOD9216511 Si02
#       7
#     8   2   8   8   4   4   8
#     4  11  21  37  57  81 121 160 207 250 290 351
#     4  10  26  40  74  96 118 146 170 248 334 392
#     4  11  20  34  54  83 119 164 210 262 295 335
#     4   9  21  36  50  78 121 166 222 253 284 325
#     4  11  19  33  58  90 117 162 195 249 314 356
#     4  10  23  36  51  79 113 176 209 244 282 331
#     4  11  22  42  63  96 123 142 190 244 317 377
#
# _framework density 19.401266
#
# number of rings (size 3 to 8) (size 9 to 14) (size 15 to 20)
#    0.000    1.524    3.810    1.429    2.667    0.762 
#    0.000    0.000    0.000    0.571    0.000    7.333 
#    0.000    0.000    0.000    0.000    0.000    0.000 
#
# Total GULP energy -117000.892881 kJ/mol
# GULP energy per Si atom -5571.471090 kJ/mol
# Density = 1.935711 g / cm^3
# Si number density = 19.401266 Si / 1000 Ang^3
#
#
#
# Elastic Constant Matrix: (Units=GPa)
#
#
# Indices 1 2 3 4 5 6 
#
# 1 66.1911 35.4289 32.0722 0.0000 0.9640 0.0000
# 2 35.4289 104.4600 46.4356 0.0000 -7.9979 0.0000
# 3 32.0722 46.4356 100.6538 0.0000 -5.1089 0.0000
# 4 0.0000 0.0000 0.0000 4.9696 0.0000 0.4785
# 5 0.9640 -7.9979 -5.1089 0.0000 48.0003 0.0000
# 6 0.0000 0.0000 0.0000 0.4785 0.0000 -1.2883
#
#
#
# Elastic Compliance Matrix: (Units=1/GPa)
#
#
# Indices 1 2 3 4 5 6 
#
# 1 0.019799 -0.005033 -0.004072 0.000000 -0.001670 0.000000
# 2 -0.005033 0.013420 -0.004493 0.000000 0.001859 0.000000
# 3 -0.004072 -0.004493 0.013343 0.000000 0.000753 0.000000
# 4 0.000000 0.000000 0.000000 0.194277 0.000000 0.072158
# 5 -0.001670 0.001859 0.000753 0.000000 0.021257 0.000000
# 6 0.000000 0.000000 0.000000 0.072158 0.000000 -0.749433
#
#
# Mechanical properties :
#
#
# Convention : Reuss Voigt Hill
#
# Bulk Modulus (GPa) = 51.63426 55.46426 53.54926
# Shear Modulus (GPa) = -11.02080 20.82754 4.90337
#
# Velocity S-wave (km/s) = -2.38596 3.28001 1.59149
# Velocity P-wave (km/s) = 4.36821 6.55703 5.57117
#
# Compressibility (1/GPa) = 0.01936699
#
# Stress axis : x y z
#
# Youngs Moduli (GPa) = 50.50816 74.51790 74.94340
#
# Poissons Ratio (x) = 0.37504 0.30513
# Poissons Ratio (y) = 0.25420 0.33672
# Poissons Ratio (z) = 0.20565 0.33481
#
# Static dielectric constant tensor:
#      x y z
#    x 1.741970 0.000000 -0.043670 
#    y 0.000000 1.626010 0.000000 
#    z -0.043670 0.000000 1.759830 
# 
# From -- ./inp_files/8446.got.cif
#   From: 2010.05.17/outbox.cif.g08.bks.cpg/sg12_5_cif.got.tgz:8446.got - 2010.06.03 13:09:07.
