data_PCOD9216906
_publ_section_title
;
Structure prediction by ZEFSAII (Michael W. Deem and Ramdas Pophale) SiO2 
 PCOD9216906
Probable space group: C 2/M
;
_chemical_formula_sum "Si O2"
_cell_formula_units_Z 64
_cell_length_a 10.642179
_cell_length_b 14.171860
_cell_length_c 29.237591
_cell_angle_alpha 90.000000
_cell_angle_beta 50.897055
_cell_angle_gamma 90.000000
_cell_volume 3421.909739
_symmetry_space_group_name_H-M "C 2/M"
_symmetry_group_IT_number 12
_symmetry_cell_setting 'monoclinic'
loop_
_space_group_symop_operation_xyz
x,y,z
-x,y,-z
-x,-y,-z
x,-y,z
1/2+x,1/2+y,z
1/2-x,1/2+y,-z
1/2-x,1/2-y,-z
1/2+x,1/2-y,z
loop_
_atom_site_type_symbol
_atom_site_label
_atom_site_fract_x
_atom_site_fract_y
_atom_site_fract_z
Si Si1 0.192086 0.889719 0.951163
Si Si2 0.740881 0.749636 0.858572
Si Si3 0.030592 0.386714 0.636301
Si Si4 0.973328 0.390583 0.952178
Si Si5 0.295161 0.106125 0.766773
Si Si6 0.005254 0.893499 0.760969
Si Si7 0.749999 0.112885 0.371232
Si Si8 0.191401 0.240955 0.461265
O O1 0.260580 0.814122 0.899445
O O2 0.290058 0.879117 0.976148
O O3 0.213948 0.000000 0.931607
O O4 0.000000 0.873970 0.000000
O O5 0.584977 0.815513 0.901025
O O6 0.732294 0.675187 0.819679
O O7 0.884173 0.820228 0.811521
O O8 0.038858 0.500000 0.633434
O O9 0.201091 0.340209 0.586766
O O10 0.955404 0.361047 0.702959
O O11 0.900996 0.358076 0.626724
O O12 0.019502 0.500000 0.931709
O O13 0.000000 0.376435 0.000000
O O14 0.159714 0.100385 0.758745
O O15 0.321489 0.000000 0.778831
O O16 0.083451 0.865833 0.694261
O O17 0.935734 0.000000 0.773461
O O18 0.733643 0.165202 0.422770
O O19 0.742709 0.000000 0.377882
O O20 0.250000 0.250000 0.500000
O O21 0.000000 0.224070 0.500000
#
# Coordination Sequence:
#
# PCOD9216906 Si02
#       8
#     8   8   8   8   8   8   8   8
#     4  10  23  41  58  80 115 155 192 231 280 342
#     4  12  20  32  58  89 115 142 183 234 292 337
#     4   9  19  38  59  80 114 156 191 230 281 336
#     4  10  23  41  58  80 115 154 190 235 286 334
#     4   9  19  35  56  82 112 148 188 227 275 339
#     4   9  19  35  56  83 112 146 189 231 271 334
#     4   9  19  38  60  80 112 157 195 226 276 343
#     4  12  23  36  57  90 118 146 192 243 287 332
#
# _framework density 18.703005999999998
#
# number of rings (size 3 to 8) (size 9 to 14) (size 15 to 20)
#    0.000    2.000    1.250    4.125    0.000    4.000 
#    0.000    2.500    0.000    0.000    0.000    0.000 
#    0.000    0.000    0.000    0.000    0.000    0.000 
#
# Total GULP energy -178499.737932 kJ/mol
# GULP energy per Si atom -5578.116810 kJ/mol
# Density = 1.866044 g / cm^3
# Si number density = 18.703006 Si / 1000 Ang^3
#
#
#
# Elastic Constant Matrix: (Units=GPa)
#
#
# Indices 1 2 3 4 5 6 
#
# 1 93.7816 38.8877 60.6156 0.0000 0.8841 0.0000
# 2 38.8877 93.1018 66.8918 0.0000 0.3780 0.0000
# 3 60.6156 66.8918 120.1446 0.0000 -1.2702 0.0000
# 4 0.0000 0.0000 0.0000 40.5482 0.0000 1.8937
# 5 0.8841 0.3780 -1.2702 0.0000 27.7263 0.0000
# 6 0.0000 0.0000 0.0000 1.8937 0.0000 17.9560
#
#
#
# Elastic Compliance Matrix: (Units=1/GPa)
#
#
# Indices 1 2 3 4 5 6 
#
# 1 0.015961 -0.001453 -0.007253 0.000000 -0.000821 0.000000
# 2 -0.001453 0.018048 -0.009322 0.000000 -0.000627 0.000000
# 3 -0.007253 -0.009322 0.017185 0.000000 0.001146 0.000000
# 4 0.000000 0.000000 0.000000 0.024784 0.000000 -0.002614
# 5 -0.000821 -0.000627 0.001146 0.000000 0.036154 0.000000
# 6 0.000000 0.000000 0.000000 -0.002614 0.000000 0.055967
#
#
# Mechanical properties :
#
#
# Convention : Reuss Voigt Hill
#
# Bulk Modulus (GPa) = 66.05475 71.09091 68.57283
# Shear Modulus (GPa) = 23.90057 26.62163 25.26110
#
# Velocity S-wave (km/s) = 3.57865 3.77687 3.67910
# Velocity P-wave (km/s) = 7.24362 7.55729 7.40212
#
# Compressibility (1/GPa) = 0.01513896
#
# Stress axis : x y z
#
# Youngs Moduli (GPa) = 62.65350 55.40775 58.19116
#
# Poissons Ratio (x) = 0.08048 0.42203
# Poissons Ratio (y) = 0.09101 0.54247
# Poissons Ratio (z) = 0.45440 0.51652
#
# Static dielectric constant tensor:
#      x y z
#    x 1.634920 0.000000 0.000700 
#    y 0.000000 1.646640 0.000000 
#    z 0.000700 0.000000 1.654120 
# 
# From -- ./inp_files/374072.got.cif
#   From: 2010.05.17/outbox.cif.g08.bks.cpg/sg12_188_cif.got.tgz:374072.got - 2010.06.03 13:09:07.
