data_PCOD9216238
_publ_section_title
;
Structure prediction by ZEFSAII (Michael W. Deem and Ramdas Pophale) SiO2 
 PCOD9216238
Probable space group: C 2/M
;
_chemical_formula_sum "Si O2"
_cell_formula_units_Z 44
_cell_length_a 7.692974
_cell_length_b 27.923184
_cell_length_c 10.471393
_cell_angle_alpha 90.000000
_cell_angle_beta 51.623380
_cell_angle_gamma 90.000000
_cell_volume 1763.397761
_symmetry_space_group_name_H-M "C 2/M"
_symmetry_group_IT_number 12
_symmetry_cell_setting 'monoclinic'
loop_
_space_group_symop_operation_xyz
x,y,z
-x,y,-z
-x,-y,-z
x,-y,z
1/2+x,1/2+y,z
1/2-x,1/2+y,-z
1/2-x,1/2-y,-z
1/2+x,1/2-y,z
loop_
_atom_site_type_symbol
_atom_site_label
_atom_site_fract_x
_atom_site_fract_y
_atom_site_fract_z
Si Si1 0.927861 0.189759 0.178496
Si Si2 0.262972 0.124392 0.377960
Si Si3 0.449394 0.775778 0.332312
Si Si4 0.341559 0.589208 0.314283
Si Si5 0.399444 0.947533 0.833133
Si Si6 0.111777 0.000000 0.174336
O O1 0.663721 0.201711 0.303517
O O2 0.038361 0.234034 0.200261
O O3 0.969636 0.138370 0.222453
O O4 0.000000 0.187223 0.000000
O O5 0.335838 0.178495 0.319438
O O6 0.315915 0.106655 0.498382
O O7 0.407965 0.089504 0.225285
O O8 0.000000 0.121523 0.500000
O O9 0.250000 0.750000 0.500000
O O10 0.239343 0.570324 0.226031
O O11 0.471750 0.542999 0.305177
O O12 0.501429 0.000000 0.756344
O O13 0.239627 0.959252 0.024212
#
# Coordination Sequence:
#
# PCOD9216238 Si02
#       6
#     8   8   8   8   8   4
#     4  12  26  44  74 106 138 181 233 289 351 411
#     4  12  27  44  64  99 141 186 229 282 339 418
#     4  12  25  47  69 102 142 185 234 283 347 410
#     4  12  22  42  75 101 132 176 231 286 344 405
#     4  10  22  43  70 101 131 171 226 285 340 405
#     4  10  23  44  73 106 133 172 227 298 345 410
#
# _framework density 24.951827000000002
#
# number of rings (size 3 to 8) (size 9 to 14) (size 15 to 20)
#    0.545    0.000    4.545    4.909    1.273    1.091 
#    0.000    1.818    0.000    0.000    0.000    0.000 
#    0.000    0.000    0.000    0.000    0.000    0.000 
#
# Total GULP energy -122511.505287 kJ/mol
# GULP energy per Si atom -5568.704786 kJ/mol
# Density = 2.489504 g / cm^3
# Si number density = 24.951827 Si / 1000 Ang^3
#
#
#
# Elastic Constant Matrix: (Units=GPa)
#
#
# Indices 1 2 3 4 5 6 
#
# 1 52.0354 29.0620 -18.3635 0.0000 -22.5943 0.0000
# 2 29.0620 247.1853 43.6410 0.0000 -6.6424 0.0000
# 3 -18.3635 43.6410 78.8875 0.0000 9.5481 0.0000
# 4 0.0000 0.0000 0.0000 43.2733 0.0000 11.7635
# 5 -22.5943 -6.6424 9.5481 0.0000 26.8738 0.0000
# 6 0.0000 0.0000 0.0000 11.7635 0.0000 70.2915
#
#
#
# Elastic Compliance Matrix: (Units=1/GPa)
#
#
# Indices 1 2 3 4 5 6 
#
# 1 0.036300 -0.004969 0.007998 0.000000 0.026450 0.000000
# 2 -0.004969 0.005278 -0.003896 0.000000 -0.001489 0.000000
# 3 0.007998 -0.003896 0.016715 0.000000 -0.000178 0.000000
# 4 0.000000 0.000000 0.000000 0.024210 0.000000 -0.004052
# 5 0.026450 -0.001489 -0.000178 0.000000 0.059144 0.000000
# 6 0.000000 0.000000 0.000000 -0.004052 0.000000 0.014905
#
#
# Mechanical properties :
#
#
# Convention : Reuss Voigt Hill
#
# Bulk Modulus (GPa) = 17.68118 54.08747 35.88432
# Shear Modulus (GPa) = 28.22639 49.67230 38.94934
#
# Velocity S-wave (km/s) = 3.36703 4.46660 3.95521
# Velocity P-wave (km/s) = 4.71353 6.95158 5.93893
#
# Compressibility (1/GPa) = 0.05655732
#
# Stress axis : x y z
#
# Youngs Moduli (GPa) = 27.54807 189.47946 59.82723
#
# Poissons Ratio (x) = 0.94154 -0.47847
# Poissons Ratio (y) = 0.13689 0.23309
# Poissons Ratio (z) = -0.22032 0.73823
#
# Static dielectric constant tensor:
#      x y z
#    x 2.157560 0.000000 0.050400 
#    y 0.000000 1.960150 0.000000 
#    z 0.050400 0.000000 1.957960 
# 
# From -- ./inp_files/124074.got.cif
#   From: 2010.05.17/outbox.cif.g08.bks.cpg/sg12_63_cif.got.tgz:124074.got - 2010.06.03 13:09:07.
