data_PCOD9216571
_publ_section_title
;
Structure prediction by ZEFSAII (Michael W. Deem and Ramdas Pophale) SiO2 
 PCOD9216571
Probable space group: C 2/M
;
_chemical_formula_sum "Si O2"
_cell_formula_units_Z 56
_cell_length_a 15.332177
_cell_length_b 24.426975
_cell_length_c 14.441289
_cell_angle_alpha 90.000000
_cell_angle_beta 29.388001
_cell_angle_gamma 90.000000
_cell_volume 2654.082222
_symmetry_space_group_name_H-M "C 2/M"
_symmetry_group_IT_number 12
_symmetry_cell_setting 'monoclinic'
loop_
_space_group_symop_operation_xyz
x,y,z
-x,y,-z
-x,-y,-z
x,-y,z
1/2+x,1/2+y,z
1/2-x,1/2+y,-z
1/2-x,1/2-y,-z
1/2+x,1/2-y,z
loop_
_atom_site_type_symbol
_atom_site_label
_atom_site_fract_x
_atom_site_fract_y
_atom_site_fract_z
Si Si1 0.529963 0.322466 0.118331
Si Si2 0.853578 0.711879 0.061258
Si Si3 0.967538 0.811418 0.388781
Si Si4 0.501007 0.940321 0.102259
Si Si5 0.383362 0.858864 0.851828
Si Si6 0.631783 0.192732 0.465178
Si Si7 0.913006 0.060288 0.479138
O O1 0.496699 0.300641 0.253221
O O2 0.329835 0.331844 0.267919
O O3 0.627112 0.276289 0.968711
O O4 0.689711 0.365440 0.983933
O O5 0.654181 0.694952 0.270425
O O6 0.883951 0.687390 0.931423
O O7 0.000000 0.695750 0.000000
O O8 0.850895 0.758702 0.528910
O O9 0.932408 0.877075 0.423453
O O10 0.586532 0.910324 0.109568
O O11 0.296558 0.944148 0.316726
O O12 0.585270 0.000000 0.012907
O O13 0.500000 0.915414 0.000000
O O14 0.533104 0.839641 0.640522
O O15 0.500000 0.187449 0.500000
O O16 0.000000 0.061922 0.500000
O O17 0.970467 0.000000 0.384005
#
# Coordination Sequence:
#
# PCOD9216571 Si02
#       7
#     8   8   8   8   8   8   8
#     4  11  23  38  58  89 125 162 207 260 317 380
#     4  11  22  37  58  86 125 169 205 250 314 381
#     4  11  21  40  58  87 123 168 212 256 315 381
#     4  10  23  43  66  91 125 172 215 254 307 374
#     4  11  23  41  58  92 131 157 209 265 312 373
#     4  12  24  39  62  91 123 169 211 256 320 387
#     4  10  23  38  56  87 124 163 216 264 304 367
#
# _framework density 21.099571000000001
#
# number of rings (size 3 to 8) (size 9 to 14) (size 15 to 20)
#    0.000    1.143    2.857    3.857    8.000    0.000 
#    0.000    0.000    0.000    0.857    0.000    1.000 
#    0.000    0.000    0.000    0.000    0.000    0.000 
#
# Total GULP energy -156014.014815 kJ/mol
# GULP energy per Si atom -5571.929101 kJ/mol
# Density = 2.105155 g / cm^3
# Si number density = 21.099571 Si / 1000 Ang^3
#
#
#
# Elastic Constant Matrix: (Units=GPa)
#
#
# Indices 1 2 3 4 5 6 
#
# 1 98.7368 50.8689 28.5791 0.0157 -19.8813 -0.0049
# 2 50.8689 124.1506 37.0697 -0.0036 -1.1026 0.0044
# 3 28.5791 37.0697 82.1407 0.0324 -25.2080 -0.0232
# 4 0.0157 -0.0036 0.0324 10.0367 -0.0144 4.5862
# 5 -19.8813 -1.1026 -25.2080 -0.0144 46.2481 0.0161
# 6 -0.0049 0.0044 -0.0232 4.5862 0.0161 50.2875
#
#
#
# Elastic Compliance Matrix: (Units=1/GPa)
#
#
# Indices 1 2 3 4 5 6 
#
# 1 0.014372 -0.005620 -0.000732 -0.000015 0.005646 0.000001
# 2 -0.005620 0.011751 -0.004807 0.000024 -0.004756 -0.000004
# 3 -0.000732 -0.004807 0.017372 -0.000048 0.009040 0.000010
# 4 -0.000015 0.000024 -0.000048 0.103967 0.000004 -0.009482
# 5 0.005646 -0.004756 0.009040 0.000004 0.028863 -0.000004
# 6 0.000001 -0.000004 0.000010 -0.009482 -0.000004 0.020750
#
#
# Mechanical properties :
#
#
# Convention : Reuss Voigt Hill
#
# Bulk Modulus (GPa) = 47.22021 59.78482 53.50252
# Shear Modulus (GPa) = 22.07970 33.88182 27.98076
#
# Velocity S-wave (km/s) = 3.23840 4.01160 3.64556
# Velocity P-wave (km/s) = 6.03418 7.06069 6.56752
#
# Compressibility (1/GPa) = 0.02117737
#
# Stress axis : x y z
#
# Youngs Moduli (GPa) = 69.58017 85.10190 57.56231
#
# Poissons Ratio (x) = 0.47828 0.04211
# Poissons Ratio (y) = 0.39105 0.27671
# Poissons Ratio (z) = 0.05090 0.40910
#
# Static dielectric constant tensor:
#      x y z
#    x 1.789880 0.000040 -0.019640 
#    y 0.000040 1.876740 0.000030 
#    z -0.019640 0.000030 1.834600 
# 
# From -- ./inp_files/218685.got.cif
#   From: 2010.05.17/outbox.cif.g08.bks.cpg/sg12_110_cif.got.tgz:218685.got - 2010.06.03 13:09:07.
