data_PCOD9216550
_publ_section_title
;
Structure prediction by ZEFSAII (Michael W. Deem and Ramdas Pophale) SiO2 
 PCOD9216550
Probable space group: C 2/M
;
_chemical_formula_sum "Si O2"
_cell_formula_units_Z 48
_cell_length_a 14.379205
_cell_length_b 11.082596
_cell_length_c 21.483350
_cell_angle_alpha 90.000000
_cell_angle_beta 36.997525
_cell_angle_gamma 90.000000
_cell_volume 2060.233807
_symmetry_space_group_name_H-M "C 2/M"
_symmetry_group_IT_number 12
_symmetry_cell_setting 'monoclinic'
loop_
_space_group_symop_operation_xyz
x,y,z
-x,y,-z
-x,-y,-z
x,-y,z
1/2+x,1/2+y,z
1/2-x,1/2+y,-z
1/2-x,1/2-y,-z
1/2+x,1/2-y,z
loop_
_atom_site_type_symbol
_atom_site_label
_atom_site_fract_x
_atom_site_fract_y
_atom_site_fract_z
Si Si1 0.601641 0.500000 0.007037
Si Si2 0.516741 0.634401 0.732737
Si Si3 0.184215 0.745808 0.465075
Si Si4 0.613138 0.221770 0.307137
Si Si5 0.926574 0.500000 0.182738
Si Si6 0.575755 0.000000 0.233951
Si Si7 0.185175 0.000000 0.396891
Si Si8 0.975305 0.764266 0.143208
O O1 0.562217 0.374031 0.062738
O O2 0.500000 0.500000 0.000000
O O3 0.772794 0.500000 0.889573
O O4 0.477788 0.500000 0.773218
O O5 0.702005 0.648308 0.626188
O O6 0.430797 0.667370 0.714893
O O7 0.476085 0.723195 0.810843
O O8 0.250000 0.750000 0.500000
O O9 0.002711 0.721502 0.572246
O O10 0.217446 0.873096 0.414796
O O11 0.791488 0.214781 0.231288
O O12 0.573919 0.111572 0.281952
O O13 0.741277 0.500000 0.293979
O O14 0.992737 0.622252 0.117837
O O15 0.952206 0.500000 0.244523
O O16 0.000000 0.000000 0.500000
#
# Coordination Sequence:
#
# PCOD9216550 Si02
#       8
#     4   8   8   8   4   4   4   8
#     4  12  26  50  75  99 133 179 235 292 374 423
#     4  11  24  42  62 101 142 179 230 282 334 413
#     4  10  23  37  61  94 140 184 228 264 333 404
#     4  11  24  41  68  97 135 189 226 280 342 407
#     4  12  24  44  68 108 139 175 236 280 340 412
#     4  12  24  48  73  91 137 180 232 292 351 419
#     4  12  22  40  65  96 144 185 219 275 326 405
#     4  12  24  45  73 101 135 180 228 291 350 414
#
# _framework density 23.298325999999999
#
# number of rings (size 3 to 8) (size 9 to 14) (size 15 to 20)
#    0.000    0.667    5.833    2.000    7.000    0.667 
#    0.000    1.250    0.000    0.000    0.000    0.000 
#    0.000    0.000    0.000    0.000    0.000    0.000 
#
# Total GULP energy -134055.018938 kJ/mol
# GULP energy per Si atom -5585.625789 kJ/mol
# Density = 2.324530 g / cm^3
# Si number density = 23.298326 Si / 1000 Ang^3
#
#
#
# Elastic Constant Matrix: (Units=GPa)
#
#
# Indices 1 2 3 4 5 6 
#
# 1 65.8661 7.6489 0.8985 0.0000 10.0140 0.0000
# 2 7.6489 163.7783 43.9444 0.0000 8.7949 0.0000
# 3 0.8985 43.9444 104.5737 0.0000 3.2445 0.0000
# 4 0.0000 0.0000 0.0000 24.8541 0.0000 7.1108
# 5 10.0140 8.7949 3.2445 0.0000 28.0212 0.0000
# 6 0.0000 0.0000 0.0000 7.1108 0.0000 29.2285
#
#
#
# Elastic Compliance Matrix: (Units=1/GPa)
#
#
# Indices 1 2 3 4 5 6 
#
# 1 0.016093 -0.000518 0.000254 0.000000 -0.005618 0.000000
# 2 -0.000518 0.006993 -0.002882 0.000000 -0.001676 0.000000
# 3 0.000254 -0.002882 0.010785 0.000000 -0.000435 0.000000
# 4 0.000000 0.000000 0.000000 0.043245 0.000000 -0.010521
# 5 -0.005618 -0.001676 -0.000435 0.000000 0.038271 0.000000
# 6 0.000000 0.000000 0.000000 -0.010521 0.000000 0.036773
#
#
# Mechanical properties :
#
#
# Convention : Reuss Voigt Hill
#
# Bulk Modulus (GPa) = 36.26018 48.80021 42.53019
# Shear Modulus (GPa) = 29.82461 35.20251 32.51356
#
# Velocity S-wave (km/s) = 3.58176 3.89131 3.73973
# Velocity P-wave (km/s) = 5.71861 6.41724 6.07797
#
# Compressibility (1/GPa) = 0.02757846
#
# Stress axis : x y z
#
# Youngs Moduli (GPa) = 62.13828 142.99207 92.71987
#
# Poissons Ratio (x) = 0.07407 -0.02352
# Poissons Ratio (y) = 0.03219 0.26725
# Poissons Ratio (z) = -0.01576 0.41215
#
# Static dielectric constant tensor:
#      x y z
#    x 1.785040 0.000000 0.106990 
#    y 0.000000 1.919050 0.000000 
#    z 0.106990 0.000000 1.741310 
# 
# From -- ./inp_files/310247.got.cif
#   From: 2010.05.17/outbox.cif.g08.bks.cpg/sg12_156_cif.got.tgz:310247.got - 2010.06.03 13:09:07.
