data_PCOD9216609
_publ_section_title
;
Structure prediction by ZEFSAII (Michael W. Deem and Ramdas Pophale) SiO2 
 PCOD9216609
Probable space group: C 2/M
;
_chemical_formula_sum "Si O2"
_cell_formula_units_Z 56
_cell_length_a 29.385293
_cell_length_b 22.518193
_cell_length_c 9.003268
_cell_angle_alpha 90.000000
_cell_angle_beta 28.154365
_cell_angle_gamma 90.000000
_cell_volume 2811.036463
_symmetry_space_group_name_H-M "C 2/M"
_symmetry_group_IT_number 12
_symmetry_cell_setting 'monoclinic'
loop_
_space_group_symop_operation_xyz
x,y,z
-x,y,-z
-x,-y,-z
x,-y,z
1/2+x,1/2+y,z
1/2-x,1/2+y,-z
1/2-x,1/2-y,-z
1/2+x,1/2-y,z
loop_
_atom_site_type_symbol
_atom_site_label
_atom_site_fract_x
_atom_site_fract_y
_atom_site_fract_z
Si Si1 0.499633 0.796025 0.676744
Si Si2 0.053943 0.163032 0.101049
Si Si3 0.666060 0.378193 0.228052
Si Si4 0.312023 0.213166 0.666610
Si Si5 0.189648 0.065214 0.863948
Si Si6 0.347472 0.136746 0.273988
Si Si7 0.700227 0.658846 0.430633
O O1 0.500000 0.806934 0.500000
O O2 0.443826 0.732733 0.860666
O O3 0.602539 0.787062 0.459159
O O4 0.450827 0.851464 0.903174
O O5 0.945372 0.140160 0.433363
O O6 0.121450 0.118829 0.002640
O O7 0.097862 0.158662 0.809661
O O8 0.704477 0.388017 0.284424
O O9 0.723682 0.323894 0.985937
O O10 0.683542 0.429881 0.059319
O O11 0.344182 0.181570 0.421893
O O12 0.286261 0.278784 0.689753
O O13 0.296655 0.078699 0.491122
O O14 0.157344 0.000000 0.907333
O O15 0.277464 0.152733 0.338149
#
# Coordination Sequence:
#
# PCOD9216609 Si02
#       7
#     8   8   8   8   8   8   8
#     4  12  23  35  59  98 135 161 198 250 311 391
#     4  11  23  35  58  91 127 165 204 246 314 375
#     4  11  22  35  58  89 120 165 207 252 308 364
#     4  11  22  36  57  87 134 168 196 244 309 383
#     4  10  24  45  64  85 119 167 224 268 307 363
#     4  10  23  38  63  89 125 167 208 250 318 370
#     4  11  21  36  54  87 128 163 198 249 300 378
#
# _framework density 19.921476999999999
#
# number of rings (size 3 to 8) (size 9 to 14) (size 15 to 20)
#    0.000    1.143    2.857    3.857    6.000    1.143 
#    0.000    2.857    0.000   11.571    0.000    0.000 
#    0.000    0.000    0.000    0.000    0.000    0.000 
#
# Total GULP energy -156219.039345 kJ/mol
# GULP energy per Si atom -5579.251405 kJ/mol
# Density = 1.987613 g / cm^3
# Si number density = 19.921477 Si / 1000 Ang^3
#
#
#
# Elastic Constant Matrix: (Units=GPa)
#
#
# Indices 1 2 3 4 5 6 
#
# 1 92.4178 14.4833 10.0227 0.0000 21.7737 0.0000
# 2 14.4833 55.7289 22.9938 0.0000 -3.5102 0.0000
# 3 10.0227 22.9938 76.9440 0.0000 18.6464 0.0000
# 4 0.0000 0.0000 0.0000 0.1565 0.0000 -0.9850
# 5 21.7737 -3.5102 18.6464 0.0000 37.5064 0.0000
# 6 0.0000 0.0000 0.0000 -0.9850 0.0000 8.8923
#
#
#
# Elastic Compliance Matrix: (Units=1/GPa)
#
#
# Indices 1 2 3 4 5 6 
#
# 1 0.013574 -0.004924 0.001961 0.000000 -0.009316 0.000000
# 2 -0.004924 0.023358 -0.008597 0.000000 0.009318 0.000000
# 3 0.001961 -0.008597 0.017943 -0.000001 -0.010863 0.000000
# 4 0.000000 0.000000 -0.000001 21.081648 0.000001 2.335205
# 5 -0.009316 0.009318 -0.010863 0.000001 0.038343 0.000000
# 6 0.000000 0.000000 0.000000 2.335205 0.000000 0.371127
#
#
# Mechanical properties :
#
#
# Convention : Reuss Voigt Hill
#
# Bulk Modulus (GPa) = 31.49118 35.56560 33.52839
# Shear Modulus (GPa) = 0.23170 21.15042 10.69106
#
# Velocity S-wave (km/s) = 0.34141 3.26189 2.31911
# Velocity P-wave (km/s) = 3.99967 5.66377 4.90284
#
# Compressibility (1/GPa) = 0.03175492
#
# Stress axis : x y z
#
# Youngs Moduli (GPa) = 73.66916 42.81248 55.73290
#
# Poissons Ratio (x) = 0.21079 -0.10928
# Poissons Ratio (y) = 0.36272 0.47914
# Poissons Ratio (z) = -0.14445 0.36806
#
# Static dielectric constant tensor:
#      x y z
#    x 1.751240 0.000000 -0.002630 
#    y 0.000000 1.689320 0.000000 
#    z -0.002630 0.000000 1.761660 
# 
# From -- ./inp_files/113357.got.cif
#   From: 2010.05.17/outbox.cif.g08.bks.cpg/sg12_57_cif.got.tgz:113357.got - 2010.06.03 13:09:07.
