data_PCOD9216540
_publ_section_title
;
Structure prediction by ZEFSAII (Michael W. Deem and Ramdas Pophale) SiO2 
 PCOD9216540
Probable space group: C 2/M
;
_chemical_formula_sum "Si O2"
_cell_formula_units_Z 32
_cell_length_a 16.605290
_cell_length_b 17.349925
_cell_length_c 8.237561
_cell_angle_alpha 90.000000
_cell_angle_beta 31.981014
_cell_angle_gamma 90.000000
_cell_volume 1256.961647
_symmetry_space_group_name_H-M "C 2/M"
_symmetry_group_IT_number 12
_symmetry_cell_setting 'monoclinic'
loop_
_space_group_symop_operation_xyz
x,y,z
-x,y,-z
-x,-y,-z
x,-y,z
1/2+x,1/2+y,z
1/2-x,1/2+y,-z
1/2-x,1/2-y,-z
1/2+x,1/2-y,z
loop_
_atom_site_type_symbol
_atom_site_label
_atom_site_fract_x
_atom_site_fract_y
_atom_site_fract_z
Si Si1 0.806796 0.328024 0.229864
Si Si2 0.217576 0.590553 0.050256
Si Si3 0.943296 0.167909 0.871609
Si Si4 0.312939 0.912393 0.541802
O O1 0.622769 0.326375 0.556073
O O2 0.857198 0.356133 0.321466
O O3 0.843644 0.386717 0.020679
O O4 0.872144 0.246221 0.064135
O O5 0.257776 0.500000 0.978517
O O6 0.128664 0.601640 0.374037
O O7 0.361368 0.646268 0.841914
O O8 0.867297 0.101741 0.114404
O O9 0.343224 0.000000 0.443205
#
# Coordination Sequence:
#
# PCOD9216540 Si02
#       4
#     8   8   8   8
#     4  12  21  39  59  87 119 154 188 240 292 344
#     4   9  21  37  59  89 115 147 197 247 287 333
#     4  10  23  37  59  85 121 150 192 238 290 344
#     4   9  21  37  59  89 115 147 197 247 287 333
#
# _framework density 25.458216
#
# number of rings (size 3 to 8) (size 9 to 14) (size 15 to 20)
#    1.500    0.500    0.000    3.750    0.000    6.000 
#    0.000    0.000    0.000    9.000    0.000    0.000 
#    0.000    0.000    0.000    0.000    0.000    0.000 
#
# Total GULP energy -89391.266045 kJ/mol
# GULP energy per Si atom -5586.954128 kJ/mol
# Density = 2.540027 g / cm^3
# Si number density = 25.458216 Si / 1000 Ang^3
#
#
#
# Elastic Constant Matrix: (Units=GPa)
#
#
# Indices 1 2 3 4 5 6 
#
# 1 167.4879 63.1513 47.0358 -0.0004 32.8148 0.0000
# 2 63.1513 137.3939 54.8572 -0.0003 26.6188 0.0001
# 3 47.0358 54.8572 155.0496 -0.0011 2.6336 0.0000
# 4 -0.0004 -0.0003 -0.0011 -102.9172 0.0005 -18.4945
# 5 32.8148 26.6188 2.6336 0.0005 54.7070 0.0000
# 6 0.0000 0.0001 0.0000 -18.4945 0.0000 -8.9207
#
#
#
# Elastic Compliance Matrix: (Units=1/GPa)
#
#
# Indices 1 2 3 4 5 6 
#
# 1 0.007992 -0.002374 -0.001524 0.000000 -0.003565 0.000000
# 2 -0.002374 0.010147 -0.002812 0.000000 -0.003378 0.000000
# 3 -0.001524 -0.002812 0.007875 0.000000 0.001903 0.000000
# 4 0.000000 0.000000 0.000000 -0.015486 0.000000 0.032106
# 5 -0.003565 -0.003378 0.001903 0.000000 0.021970 -0.000001
# 6 0.000000 0.000000 0.000000 0.032106 -0.000001 -0.178662
#
#
# Mechanical properties :
#
#
# Convention : Reuss Voigt Hill
#
# Bulk Modulus (GPa) = 79.41235 87.78003 83.59619
# Shear Modulus (GPa) = -38.89660 8.23298 -15.33181
#
# Velocity S-wave (km/s) = -3.91303 1.80026 -2.45671
# Velocity P-wave (km/s) = 3.29321 6.23507 4.98605
#
# Compressibility (1/GPa) = 0.01259250
#
# Stress axis : x y z
#
# Youngs Moduli (GPa) = 125.11974 98.55169 126.99131
#
# Poissons Ratio (x) = 0.23400 0.19353
# Poissons Ratio (y) = 0.29708 0.35715
# Poissons Ratio (z) = 0.19068 0.27717
#
# Static dielectric constant tensor:
#      x y z
#    x 2.112410 0.000000 -0.027820 
#    y 0.000000 1.903740 0.000000 
#    z -0.027820 0.000000 2.014400 
# 
# From -- ./inp_files/96704.got.cif
#   From: 2010.05.17/outbox.cif.g08.bks.cpg/sg12_49_cif.got.tgz:96704.got - 2010.06.03 13:09:07.
