data_PCOD9216247
_publ_section_title
;
Structure prediction by ZEFSAII (Michael W. Deem and Ramdas Pophale) SiO2 
 PCOD9216247
Probable space group: C 2/M
;
_chemical_formula_sum "Si O2"
_cell_formula_units_Z 64
_cell_length_a 15.144369
_cell_length_b 24.388589
_cell_length_c 13.043398
_cell_angle_alpha 90.000000
_cell_angle_beta 137.912628
_cell_angle_gamma 90.000000
_cell_volume 3229.043505
_symmetry_space_group_name_H-M "C 2/M"
_symmetry_group_IT_number 12
_symmetry_cell_setting 'monoclinic'
loop_
_space_group_symop_operation_xyz
x,y,z
-x,y,-z
-x,-y,-z
x,-y,z
1/2+x,1/2+y,z
1/2-x,1/2+y,-z
1/2-x,1/2-y,-z
1/2+x,1/2-y,z
loop_
_atom_site_type_symbol
_atom_site_label
_atom_site_fract_x
_atom_site_fract_y
_atom_site_fract_z
Si Si1 0.625487 0.365660 0.042717
Si Si2 0.249517 0.368779 0.464007
Si Si3 0.924727 0.776490 0.532349
Si Si4 0.493659 0.862070 0.116756
Si Si5 0.353784 0.844946 0.403469
Si Si6 0.245571 0.934220 0.966053
Si Si7 0.502109 0.563450 0.623470
Si Si8 0.905602 0.242459 0.118554
O O1 0.747889 0.351886 0.222576
O O2 0.500000 0.384060 0.000000
O O3 0.676293 0.411784 0.008685
O O4 0.580562 0.311073 0.941394
O O5 0.303583 0.309820 0.474280
O O6 0.198150 0.370054 0.535446
O O7 0.378573 0.405394 0.563288
O O8 0.129531 0.381635 0.285089
O O9 0.872562 0.719238 0.444050
O O10 0.000000 0.803819 0.500000
O O11 0.025526 0.767295 0.712530
O O12 0.464387 0.798756 0.122953
O O13 0.500000 0.866017 0.000000
O O14 0.377943 0.900334 0.060790
O O15 0.500000 0.865842 0.500000
O O16 0.142181 0.918061 0.787863
O O17 0.266094 0.000000 0.984513
O O18 0.500000 0.567756 0.500000
O O19 0.489910 0.500000 0.641984
O O20 0.750000 0.250000 0.000000
#
# Coordination Sequence:
#
# PCOD9216247 Si02
#       8
#     8   8   8   8   8   8   8   8
#     4  12  25  41  69  97 131 175 219 276 328 389
#     4  12  24  40  65  96 133 168 222 265 323 395
#     4  11  24  38  62  94 130 178 210 263 319 389
#     4  12  27  40  65 102 135 176 214 269 334 401
#     4  11  23  42  60  88 132 177 212 256 322 382
#     4  11  25  48  69  95 132 173 226 282 330 386
#     4  10  22  43  70  95 124 166 216 274 330 383
#     4  12  23  41  65  96 143 173 218 263 328 401
#
# _framework density 19.820112000000002
#
# number of rings (size 3 to 8) (size 9 to 14) (size 15 to 20)
#    0.000    0.625    2.500    6.375    5.250    1.000 
#    0.000    0.625    0.000    1.500    0.000    0.000 
#    0.000    0.000    0.000    0.000    0.000    0.000 
#
# Total GULP energy -179019.193470 kJ/mol
# GULP energy per Si atom -5594.349796 kJ/mol
# Density = 1.977500 g / cm^3
# Si number density = 19.820112 Si / 1000 Ang^3
#
#
#
# Elastic Constant Matrix: (Units=GPa)
#
#
# Indices 1 2 3 4 5 6 
#
# 1 108.6861 21.1327 17.5181 0.0000 3.3894 0.0000
# 2 21.1327 52.6049 18.4814 0.0000 6.2607 0.0000
# 3 17.5181 18.4814 142.9689 0.0000 2.3635 0.0000
# 4 0.0000 0.0000 0.0000 26.9108 0.0000 45.1487
# 5 3.3894 6.2607 2.3635 0.0000 40.2373 0.0000
# 6 0.0000 0.0000 0.0000 45.1487 0.0000 121.9658
#
#
#
# Elastic Compliance Matrix: (Units=1/GPa)
#
#
# Indices 1 2 3 4 5 6 
#
# 1 0.010057 -0.003753 -0.000744 0.000000 -0.000220 0.000000
# 2 -0.003753 0.021671 -0.002293 0.000000 -0.002921 0.000000
# 3 -0.000744 -0.002293 0.007382 0.000000 -0.000014 0.000000
# 4 0.000000 0.000000 0.000000 0.098060 0.000000 -0.036299
# 5 -0.000220 -0.002921 -0.000014 0.000000 0.025326 0.000000
# 6 0.000000 0.000000 0.000000 -0.036299 0.000000 0.021636
#
#
# Mechanical properties :
#
#
# Convention : Reuss Voigt Hill
#
# Bulk Modulus (GPa) = 39.16834 46.50270 42.83552
# Shear Modulus (GPa) = 24.24577 54.29795 39.27186
#
# Velocity S-wave (km/s) = 3.50135 5.23974 4.45614
# Velocity P-wave (km/s) = 6.01255 7.75370 6.93796
#
# Compressibility (1/GPa) = 0.02553082
#
# Stress axis : x y z
#
# Youngs Moduli (GPa) = 99.43124 46.14559 135.45897
#
# Poissons Ratio (x) = 0.17318 0.10072
# Poissons Ratio (y) = 0.37315 0.31063
# Poissons Ratio (z) = 0.07393 0.10582
#
# Static dielectric constant tensor:
#      x y z
#    x 1.685390 0.000000 -0.013770 
#    y 0.000000 1.693750 0.000000 
#    z -0.013770 0.000000 1.674030 
# 
# From -- ./inp_files/149787.got.cif
#   From: 2010.05.17/outbox.cif.g08.bks.cpg/sg12_75_cif.got.tgz:149787.got - 2010.06.03 13:09:07.
