data_PCOD9216793
_publ_section_title
;
Structure prediction by ZEFSAII (Michael W. Deem and Ramdas Pophale) SiO2 
 PCOD9216793
Probable space group: C 2/M
;
_chemical_formula_sum "Si O2"
_cell_formula_units_Z 56
_cell_length_a 17.845350
_cell_length_b 15.978616
_cell_length_c 15.368175
_cell_angle_alpha 90.000000
_cell_angle_beta 146.822799
_cell_angle_gamma 90.000000
_cell_volume 2398.040964
_symmetry_space_group_name_H-M "C 2/M"
_symmetry_group_IT_number 12
_symmetry_cell_setting 'monoclinic'
loop_
_space_group_symop_operation_xyz
x,y,z
-x,y,-z
-x,-y,-z
x,-y,z
1/2+x,1/2+y,z
1/2-x,1/2+y,-z
1/2-x,1/2-y,-z
1/2+x,1/2-y,z
loop_
_atom_site_type_symbol
_atom_site_label
_atom_site_fract_x
_atom_site_fract_y
_atom_site_fract_z
Si Si1 0.550906 0.500000 0.407270
Si Si2 0.227224 0.000000 0.751486
Si Si3 0.384447 0.763167 0.738008
Si Si4 0.969399 0.092870 0.867772
Si Si5 0.403854 0.680055 0.577756
Si Si6 0.899028 0.707474 0.328412
Si Si7 0.170880 0.668660 0.073921
Si Si8 0.758745 0.400160 0.048406
O O1 0.663149 0.500000 0.593196
O O2 0.404014 0.500000 0.311236
O O3 0.566349 0.584972 0.369246
O O4 0.310006 0.083681 0.854061
O O5 0.365274 0.667854 0.750248
O O6 0.414704 0.746375 0.665734
O O7 0.514397 0.804167 0.909221
O O8 0.771327 0.648471 0.968318
O O9 0.918434 0.000000 0.797718
O O10 0.110632 0.109226 0.951624
O O11 0.000000 0.094057 0.000000
O O12 0.511904 0.712047 0.613892
O O13 0.253007 0.685076 0.392270
O O14 0.753310 0.754937 0.199041
O O15 0.865649 0.640484 0.220509
O O16 0.000000 0.669756 0.500000
O O17 0.780809 0.500000 0.056192
#
# Coordination Sequence:
#
# PCOD9216793 Si02
#       8
#     4   4   8   8   8   8   8   8
#     4  11  24  43  63 101 139 175 213 274 340 404
#     4  11  24  39  71 103 132 171 224 274 335 393
#     4  11  25  43  67  98 131 178 224 272 333 395
#     4  10  23  40  63  95 128 167 220 273 328 388
#     4  11  25  43  65  97 138 175 220 268 339 404
#     4  12  24  40  66  97 133 175 219 274 330 395
#     4  12  22  43  69 100 131 171 228 277 321 399
#     4  11  23  42  69  97 130 173 225 276 329 391
#
# _framework density 23.352395000000001
#
# number of rings (size 3 to 8) (size 9 to 14) (size 15 to 20)
#    0.000    0.857    5.000    2.143    3.000    2.000 
#    0.000    1.429    0.000    0.000    0.000    0.000 
#    0.000    0.000    0.000    0.000    0.000    0.000 
#
# Total GULP energy -156678.714840 kJ/mol
# GULP energy per Si atom -5595.668387 kJ/mol
# Density = 2.329924 g / cm^3
# Si number density = 23.352395 Si / 1000 Ang^3
#
#
#
# Elastic Constant Matrix: (Units=GPa)
#
#
# Indices 1 2 3 4 5 6 
#
# 1 51.9719 26.2194 39.4642 0.0000 -11.7279 0.0000
# 2 26.2194 105.2523 37.1896 0.0000 4.8090 0.0000
# 3 39.4642 37.1896 165.0443 0.0000 -7.7979 0.0000
# 4 0.0000 0.0000 0.0000 42.1260 0.0000 -9.7147
# 5 -11.7279 4.8090 -7.7979 0.0000 39.7019 0.0000
# 6 0.0000 0.0000 0.0000 -9.7147 0.0000 29.7625
#
#
#
# Elastic Compliance Matrix: (Units=1/GPa)
#
#
# Indices 1 2 3 4 5 6 
#
# 1 0.027546 -0.005457 -0.004988 0.000000 0.007818 0.000000
# 2 -0.005457 0.011522 -0.001447 0.000000 -0.003292 0.000000
# 3 -0.004988 -0.001447 0.007587 0.000000 0.000192 0.000000
# 4 0.000000 0.000000 0.000000 0.025671 0.000000 0.008379
# 5 0.007818 -0.003292 0.000192 0.000000 0.027934 0.000000
# 6 0.000000 0.000000 0.000000 0.008379 0.000000 0.036334
#
#
# Mechanical properties :
#
#
# Convention : Reuss Voigt Hill
#
# Bulk Modulus (GPa) = 43.72237 58.66833 51.19535
# Shear Modulus (GPa) = 29.76199 36.94442 33.35321
#
# Velocity S-wave (km/s) = 3.57385 3.98180 3.78333
# Velocity P-wave (km/s) = 5.98276 6.80568 6.40744
#
# Compressibility (1/GPa) = 0.02287159
#
# Stress axis : x y z
#
# Youngs Moduli (GPa) = 36.30348 86.79043 131.80979
#
# Poissons Ratio (x) = 0.47360 0.65740
# Poissons Ratio (y) = 0.19810 0.19073
# Poissons Ratio (z) = 0.18106 0.12559
#
# Static dielectric constant tensor:
#      x y z
#    x 1.944700 0.000000 -0.038840 
#    y 0.000000 1.835010 0.000000 
#    z -0.038840 0.000000 1.889420 
# 
# From -- ./inp_files/284616.got.cif
#   From: 2010.05.17/outbox.cif.g08.bks.cpg/sg12_143_cif.got.tgz:284616.got - 2010.06.03 13:09:07.
