data_PCOD9216943
_publ_section_title
;
Structure prediction by ZEFSAII (Michael W. Deem and Ramdas Pophale) SiO2 
 PCOD9216943
Probable space group: C 2/M
;
_chemical_formula_sum "Si O2"
_cell_formula_units_Z 48
_cell_length_a 29.399831
_cell_length_b 7.842024
_cell_length_c 8.460054
_cell_angle_alpha 90.000000
_cell_angle_beta 90.856997
_cell_angle_gamma 90.000000
_cell_volume 1950.282632
_symmetry_space_group_name_H-M "C 2/M"
_symmetry_group_IT_number 12
_symmetry_cell_setting 'monoclinic'
loop_
_space_group_symop_operation_xyz
x,y,z
-x,y,-z
-x,-y,-z
x,-y,z
1/2+x,1/2+y,z
1/2-x,1/2+y,-z
1/2-x,1/2-y,-z
1/2+x,1/2-y,z
loop_
_atom_site_type_symbol
_atom_site_label
_atom_site_fract_x
_atom_site_fract_y
_atom_site_fract_z
Si Si1 0.056985 0.802111 0.849594
Si Si2 0.273062 0.295329 0.166361
Si Si3 0.191021 0.698512 0.360559
Si Si4 0.391154 0.302766 0.840524
Si Si5 0.025910 0.302310 0.347029
Si Si6 0.359725 0.800643 0.336104
O O1 0.093846 0.787505 0.711578
O O2 0.011056 0.711659 0.794711
O O3 0.045931 0.000000 0.879289
O O4 0.082936 0.731511 0.004661
O O5 0.276678 0.500000 0.176825
O O6 0.238660 0.229622 0.301507
O O7 0.322638 0.218725 0.195495
O O8 0.250000 0.250000 0.000000
O O9 0.198952 0.500000 0.396813
O O10 0.154520 0.712413 0.217328
O O11 0.166007 0.774200 0.512008
O O12 0.379727 0.500000 0.872319
O O13 0.428330 0.289673 0.702988
O O14 0.037375 0.500000 0.377515
O O15 0.000000 0.233146 0.500000
O O16 0.370025 0.000000 0.363717
#
# Coordination Sequence:
#
# PCOD9216943 Si02
#       6
#     8   8   8   8   8   8
#     4  11  24  41  61  89 122 156 198 245 294 350
#     4  11  23  40  62  89 121 158 199 245 297 351
#     4  10  23  41  61  87 120 157 198 244 295 352
#     4  11  24  40  61  89 120 155 197 244 293 350
#     4  11  24  41  62  89 120 155 197 244 295 352
#     4  11  23  40  62  89 120 156 199 245 295 352
#
# _framework density 24.611816000000001
#
# number of rings (size 3 to 8) (size 9 to 14) (size 15 to 20)
#    0.000    1.167    0.000    5.500    0.000   15.333 
#    0.000    0.000    0.000    0.000    0.000    0.000 
#    0.000    0.000    0.000    0.000    0.000    0.000 
#
# Total GULP energy -134453.803968 kJ/mol
# GULP energy per Si atom -5602.241832 kJ/mol
# Density = 2.455580 g / cm^3
# Si number density = 24.611816 Si / 1000 Ang^3
#
#
#
# Elastic Constant Matrix: (Units=GPa)
#
#
# Indices 1 2 3 4 5 6 
#
# 1 118.2421 -3.4754 0.8891 0.0000 -1.0113 0.0000
# 2 -3.4754 50.2270 -6.3877 0.0000 -1.5535 0.0000
# 3 0.8891 -6.3877 68.5628 0.0000 0.0509 0.0000
# 4 0.0000 0.0000 0.0000 17.2695 0.0000 -12.8079
# 5 -1.0113 -1.5535 0.0509 0.0000 45.0502 0.0000
# 6 0.0000 0.0000 0.0000 -12.8079 0.0000 -32.3167
#
#
#
# Elastic Compliance Matrix: (Units=1/GPa)
#
#
# Indices 1 2 3 4 5 6 
#
# 1 0.008477 0.000586 -0.000055 0.000000 0.000211 0.000000
# 2 0.000586 0.020210 0.001875 0.000000 0.000708 0.000000
# 3 -0.000055 0.001875 0.014761 0.000000 0.000047 0.000000
# 4 0.000000 0.000000 0.000000 0.044752 0.000000 -0.017736
# 5 0.000211 0.000708 0.000047 0.000000 0.022227 0.000000
# 6 0.000000 0.000000 0.000000 -0.017736 0.000000 -0.023914
#
#
# Mechanical properties :
#
#
# Convention : Reuss Voigt Hill
#
# Bulk Modulus (GPa) = 20.72182 24.34264 22.53223
# Shear Modulus (GPa) = 51.13165 22.40100 36.76632
#
# Velocity S-wave (km/s) = 4.56293 3.02018 3.86923
# Velocity P-wave (km/s) = 6.01649 4.69831 5.39779
#
# Compressibility (1/GPa) = 0.04825831
#
# Stress axis : x y z
#
# Youngs Moduli (GPa) = 117.97091 49.47925 67.74829
#
# Poissons Ratio (x) = -0.02899 0.00376
# Poissons Ratio (y) = -0.06913 -0.12702
# Poissons Ratio (z) = 0.00655 -0.09276
#
# Static dielectric constant tensor:
#      x y z
#    x 1.881360 0.000000 -0.017730 
#    y 0.000000 1.872690 0.000000 
#    z -0.017730 0.000000 2.039090 
# 
# From -- ./inp_files/108576.got.cif
#   From: 2010.05.17/outbox.cif.g08.bks.cpg/sg12_55_cif.got.tgz:108576.got - 2010.06.03 13:09:07.
