data_PCOD9216697
_publ_section_title
;
Structure prediction by ZEFSAII (Michael W. Deem and Ramdas Pophale) SiO2 
 PCOD9216697
Probable space group: C 2/M
;
_chemical_formula_sum "Si O2"
_cell_formula_units_Z 48
_cell_length_a 24.635655
_cell_length_b 9.795952
_cell_length_c 17.166182
_cell_angle_alpha 90.000000
_cell_angle_beta 35.306609
_cell_angle_gamma 90.000000
_cell_volume 2394.286220
_symmetry_space_group_name_H-M "C 2/M"
_symmetry_group_IT_number 12
_symmetry_cell_setting 'monoclinic'
loop_
_space_group_symop_operation_xyz
x,y,z
-x,y,-z
-x,-y,-z
x,-y,z
1/2+x,1/2+y,z
1/2-x,1/2+y,-z
1/2-x,1/2-y,-z
1/2+x,1/2-y,z
loop_
_atom_site_type_symbol
_atom_site_label
_atom_site_fract_x
_atom_site_fract_y
_atom_site_fract_z
Si Si1 0.704948 0.650381 0.946340
Si Si2 0.511731 0.342499 0.757748
Si Si3 0.142963 0.848315 0.258611
Si Si4 0.280710 0.782924 0.694811
Si Si5 0.520360 0.846064 0.600482
Si Si6 0.802823 0.836958 0.371308
O O1 0.731236 0.500000 0.945844
O O2 0.775887 0.771966 0.885644
O O3 0.721031 0.647493 0.833469
O O4 0.596620 0.675821 0.092000
O O5 0.523437 0.500000 0.716027
O O6 0.535264 0.232427 0.664320
O O7 0.586565 0.326710 0.739354
O O8 0.182787 0.848942 0.300165
O O9 0.053992 0.749538 0.356541
O O10 0.122221 0.000000 0.256144
O O11 0.379156 0.853302 0.558543
O O12 0.224529 0.776864 0.680669
O O13 0.483742 0.000000 0.652188
O O14 0.750000 0.750000 0.500000
O O15 0.777768 0.000000 0.402543
#
# Coordination Sequence:
#
# PCOD9216697 Si02
#       6
#     8   8   8   8   8   8
#     4   9  20  41  63  89 125 162 206 251 304 369
#     4  10  23  40  63  94 127 164 204 253 305 360
#     4  10  24  41  63  92 124 161 205 260 312 362
#     4  10  23  39  65  89 124 159 207 248 307 360
#     4  12  23  38  65  93 124 165 207 255 304 367
#     4  11  22  39  64  94 125 161 203 251 305 362
#
# _framework density 20.047727999999999
#
# number of rings (size 3 to 8) (size 9 to 14) (size 15 to 20)
#    1.000    0.667    1.667    3.000    0.000    5.333 
#    0.000    2.500    0.000    1.000    0.000    0.000 
#    0.000    0.000    0.000    0.000    0.000    0.000 
#
# Total GULP energy -133726.311761 kJ/mol
# GULP energy per Si atom -5571.929657 kJ/mol
# Density = 2.000210 g / cm^3
# Si number density = 20.047728 Si / 1000 Ang^3
#
#
#
# Elastic Constant Matrix: (Units=GPa)
#
#
# Indices 1 2 3 4 5 6 
#
# 1 111.1646 39.2327 2.9412 0.0001 -3.3381 -0.0001
# 2 39.2327 124.4472 26.7553 0.0000 -7.0943 0.0000
# 3 2.9412 26.7553 70.2700 -0.0001 -2.7889 0.0000
# 4 0.0001 0.0000 -0.0001 11.7992 0.0001 -5.7347
# 5 -3.3381 -7.0943 -2.7889 0.0001 35.7147 0.0000
# 6 -0.0001 0.0000 0.0000 -5.7347 0.0000 20.3648
#
#
#
# Elastic Compliance Matrix: (Units=1/GPa)
#
#
# Indices 1 2 3 4 5 6 
#
# 1 0.010174 -0.003375 0.000873 0.000000 0.000349 0.000000
# 2 -0.003375 0.009951 -0.003593 0.000000 0.001381 0.000000
# 3 0.000873 -0.003593 0.015585 0.000000 0.000585 0.000000
# 4 0.000000 0.000000 0.000000 0.098191 0.000000 0.027651
# 5 0.000349 0.001381 0.000585 0.000000 0.028352 0.000000
# 6 0.000000 0.000000 0.000000 0.027651 0.000000 0.056891
#
#
# Mechanical properties :
#
#
# Convention : Reuss Voigt Hill
#
# Bulk Modulus (GPa) = 42.51578 49.30448 45.91013
# Shear Modulus (GPa) = 20.90528 29.37258 25.13893
#
# Velocity S-wave (km/s) = 3.23271 3.83186 3.54496
# Velocity P-wave (km/s) = 5.93188 6.65015 6.30125
#
# Compressibility (1/GPa) = 0.02352068
#
# Stress axis : x y z
#
# Youngs Moduli (GPa) = 98.28708 100.49510 64.16261
#
# Poissons Ratio (x) = 0.33921 -0.05602
# Poissons Ratio (y) = 0.33175 0.23052
# Poissons Ratio (z) = -0.08582 0.36105
#
# Static dielectric constant tensor:
#      x y z
#    x 1.748380 0.000000 0.017180 
#    y 0.000000 1.717860 0.000000 
#    z 0.017180 0.000000 1.698840 
# 
# From -- ./inp_files/329007.got.cif
#   From: 2010.05.17/outbox.cif.g08.bks.cpg/sg12_165_cif.got.tgz:329007.got - 2010.06.03 13:09:07.
