data_PCOD9216234
_publ_section_title
;
Structure prediction by ZEFSAII (Michael W. Deem and Ramdas Pophale) SiO2 
 PCOD9216234
Probable space group: C 2/M
;
_chemical_formula_sum "Si O2"
_cell_formula_units_Z 58
_cell_length_a 5.094401
_cell_length_b 20.203174
_cell_length_c 28.938597
_cell_angle_alpha 90.000000
_cell_angle_beta 64.443263
_cell_angle_gamma 90.000000
_cell_volume 2687.033386
_symmetry_space_group_name_H-M "C 2/M"
_symmetry_group_IT_number 12
_symmetry_cell_setting 'monoclinic'
loop_
_space_group_symop_operation_xyz
x,y,z
-x,y,-z
-x,-y,-z
x,-y,z
1/2+x,1/2+y,z
1/2-x,1/2+y,-z
1/2-x,1/2-y,-z
1/2+x,1/2-y,z
loop_
_atom_site_type_symbol
_atom_site_label
_atom_site_fract_x
_atom_site_fract_y
_atom_site_fract_z
Si Si1 0.465826 0.160849 0.750888
Si Si2 0.837159 0.791309 0.134441
Si Si3 0.300220 0.243786 0.348629
Si Si4 0.749421 0.078192 0.553000
Si Si5 0.162916 0.137160 0.030798
Si Si6 0.887623 0.116032 0.386668
Si Si7 0.467331 0.576109 0.277485
Si Si8 0.500000 0.500000 0.000000
O O1 0.263715 0.182093 0.808309
O O2 0.572727 0.223671 0.712091
O O3 0.747544 0.121995 0.748494
O O4 0.290512 0.110184 0.731495
O O5 0.549070 0.770177 0.128772
O O6 0.022110 0.841029 0.089307
O O7 0.534118 0.202488 0.361893
O O8 0.496212 0.307807 0.367873
O O9 0.434051 0.109507 0.568249
O O10 0.000000 0.105336 0.500000
O O11 0.882696 0.088009 0.593914
O O12 0.714501 0.000000 0.546945
O O13 0.500000 0.152117 0.000000
O O14 0.000000 0.171443 0.000000
O O15 0.887728 0.059171 0.973517
O O16 0.900693 0.078189 0.337403
O O17 0.512033 0.500000 0.260022
#
# Coordination Sequence:
#
# PCOD9216234 Si02
#       8
#     8   8   8   8   8   8   8   2
#     4  12  24  45  65  96 135 181 220 269 340 406
#     4  12  26  43  69 101 137 175 229 286 341 396
#     4  12  21  40  65  93 120 173 219 262 313 396
#     4  11  24  43  66  98 138 174 217 276 338 397
#     4  10  22  43  69  99 133 182 226 282 336 404
#     4  12  23  40  70  98 127 171 221 273 326 396
#     4  12  25  42  65 100 133 169 223 282 327 400
#     4   8  22  44  70  96 138 180 238 270 338 416
#
# _framework density 21.585144
#
# number of rings (size 3 to 8) (size 9 to 14) (size 15 to 20)
#    0.414    0.138    2.759    6.414    0.000    2.759 
#    2.483    0.000    0.000    8.276    0.000    0.000 
#    0.000    0.000    0.000    0.000    0.000    0.000 
#
# Total GULP energy -161444.586231 kJ/mol
# GULP energy per Si atom -5567.054698 kJ/mol
# Density = 2.153602 g / cm^3
# Si number density = 21.585144 Si / 1000 Ang^3
#
#
#
# Elastic Constant Matrix: (Units=GPa)
#
#
# Indices 1 2 3 4 5 6 
#
# 1 145.3215 17.8300 28.3518 0.0000 -8.6816 0.0000
# 2 17.8300 82.0233 7.4712 0.0000 -9.8016 0.0000
# 3 28.3518 7.4712 74.2472 0.0000 -21.1587 0.0000
# 4 0.0000 0.0000 0.0000 8.4497 0.0000 -5.4268
# 5 -8.6816 -9.8016 -21.1587 0.0000 33.0890 0.0000
# 6 0.0000 0.0000 0.0000 -5.4268 0.0000 11.7957
#
#
#
# Elastic Compliance Matrix: (Units=1/GPa)
#
#
# Indices 1 2 3 4 5 6 
#
# 1 0.007592 -0.001421 -0.002823 0.000000 -0.000234 0.000000
# 2 -0.001421 0.012909 0.000278 0.000000 0.003629 0.000000
# 3 -0.002823 0.000278 0.017524 0.000000 0.010548 0.000000
# 4 0.000000 0.000000 0.000000 0.167982 0.000000 0.077282
# 5 -0.000234 0.003629 0.010548 0.000000 0.037980 0.000000
# 6 0.000000 0.000000 0.000000 0.077282 0.000000 0.120331
#
#
# Mechanical properties :
#
#
# Convention : Reuss Voigt Hill
#
# Bulk Modulus (GPa) = 33.23037 45.43309 39.33173
# Shear Modulus (GPa) = 13.07933 27.19615 20.13774
#
# Velocity S-wave (km/s) = 2.46426 3.55342 3.05773
# Velocity P-wave (km/s) = 4.85028 6.15872 5.54324
#
# Compressibility (1/GPa) = 0.03009295
#
# Stress axis : x y z
#
# Youngs Moduli (GPa) = 131.71012 77.46580 57.06361
#
# Poissons Ratio (x) = 0.11010 0.16109
# Poissons Ratio (y) = 0.18719 -0.01585
# Poissons Ratio (z) = 0.37181 -0.02152
#
# Static dielectric constant tensor:
#      x y z
#    x 1.924100 0.000000 0.024310 
#    y 0.000000 1.803460 0.000000 
#    z 0.024310 0.000000 1.805310 
# 
# From -- ./inp_files/355105.got.cif
#   From: 2010.05.17/outbox.cif.g08.bks.cpg/sg12_178_cif.got.tgz:355105.got - 2010.06.03 13:09:07.
