data_PCOD9216603
_publ_section_title
;
Structure prediction by ZEFSAII (Michael W. Deem and Ramdas Pophale) SiO2 
 PCOD9216603
Probable space group: C 2/M
;
_chemical_formula_sum "Si O2"
_cell_formula_units_Z 52
_cell_length_a 22.979167
_cell_length_b 13.203198
_cell_length_c 22.180213
_cell_angle_alpha 90.000000
_cell_angle_beta 23.985596
_cell_angle_gamma 90.000000
_cell_volume 2735.565536
_symmetry_space_group_name_H-M "C 2/M"
_symmetry_group_IT_number 12
_symmetry_cell_setting 'monoclinic'
loop_
_space_group_symop_operation_xyz
x,y,z
-x,y,-z
-x,-y,-z
x,-y,z
1/2+x,1/2+y,z
1/2-x,1/2+y,-z
1/2-x,1/2-y,-z
1/2+x,1/2-y,z
loop_
_atom_site_type_symbol
_atom_site_label
_atom_site_fract_x
_atom_site_fract_y
_atom_site_fract_z
Si Si1 0.104936 0.720882 0.072236
Si Si2 0.599674 0.677243 0.463621
Si Si3 0.325995 0.886539 0.873799
Si Si4 0.649620 0.337453 0.621981
Si Si5 0.918169 0.000000 0.419404
Si Si6 0.072781 0.620399 0.866388
Si Si7 0.599673 0.110863 0.530926
O O1 0.162960 0.639471 0.065680
O O2 0.990723 0.787711 0.216996
O O3 0.025812 0.668805 0.091847
O O4 0.230495 0.797962 0.935645
O O5 0.500000 0.663897 0.500000
O O6 0.565378 0.590382 0.544918
O O7 0.767423 0.664095 0.288383
O O8 0.580341 0.790158 0.508652
O O9 0.481541 0.884054 0.696047
O O10 0.266912 0.000000 0.921604
O O11 0.750000 0.250000 0.500000
O O12 0.610351 0.413083 0.606021
O O13 0.745498 0.384843 0.584185
O O14 0.083766 0.500000 0.844722
O O15 0.000000 0.636392 0.000000
O O16 0.581312 0.000000 0.518549
#
# Coordination Sequence:
#
# PCOD9216603 Si02
#       7
#     8   8   8   8   4   8   8
#     4  11  22  41  63  92 135 175 214 269 340 401
#     4  12  26  44  68  98 141 180 226 277 334 399
#     4  10  23  38  62  95 132 166 213 278 341 396
#     4  12  21  37  65 100 128 167 222 276 350 398
#     4  12  23  38  69 104 137 164 219 286 341 402
#     4  11  25  44  67  95 131 182 224 266 327 407
#     4  11  23  42  68  98 129 177 227 285 337 403
#
# _framework density 19.008866999999999
#
# number of rings (size 3 to 8) (size 9 to 14) (size 15 to 20)
#    0.000    0.769    6.154    0.692    3.231    0.308 
#    0.000    0.000    0.000    0.923    0.000    0.000 
#    0.000    0.000    0.000    0.000    0.000    0.000 
#
# Total GULP energy -144751.880471 kJ/mol
# GULP energy per Si atom -5567.380018 kJ/mol
# Density = 1.896560 g / cm^3
# Si number density = 19.008867 Si / 1000 Ang^3
#
#
#
# Elastic Constant Matrix: (Units=GPa)
#
#
# Indices 1 2 3 4 5 6 
#
# 1 124.2142 50.6315 12.1836 -0.0005 6.8284 0.0001
# 2 50.6315 144.2088 23.9617 0.0030 22.6000 -0.0023
# 3 12.1836 23.9617 24.1956 0.0061 -4.7179 -0.0042
# 4 -0.0005 0.0030 0.0061 24.7044 -0.0014 3.7181
# 5 6.8284 22.6000 -4.7179 -0.0014 15.0793 0.0008
# 6 0.0001 -0.0023 -0.0042 3.7181 0.0008 12.5135
#
#
#
# Elastic Compliance Matrix: (Units=1/GPa)
#
#
# Indices 1 2 3 4 5 6 
#
# 1 0.009460 -0.002901 -0.002000 0.000001 -0.000562 -0.000002
# 2 -0.002901 0.015606 -0.019488 0.000002 -0.028174 -0.000002
# 3 -0.002000 -0.019488 0.071895 -0.000016 0.052608 0.000022
# 4 0.000001 0.000002 -0.000016 0.042373 -0.000003 -0.012590
# 5 -0.000562 -0.028174 0.052608 -0.000003 0.125256 0.000006
# 6 -0.000002 -0.000002 0.000022 -0.012590 0.000006 0.083655
#
#
# Mechanical properties :
#
#
# Convention : Reuss Voigt Hill
#
# Bulk Modulus (GPa) = 20.75449 51.79693 36.27571
# Shear Modulus (GPa) = 12.10404 24.18221 18.14313
#
# Velocity S-wave (km/s) = 2.52614 3.57060 3.09278
# Velocity P-wave (km/s) = 4.41028 6.65634 5.64612
#
# Compressibility (1/GPa) = 0.04818234
#
# Stress axis : x y z
#
# Youngs Moduli (GPa) = 105.70606 64.07599 13.90921
#
# Poissons Ratio (x) = 0.18589 0.02782
# Poissons Ratio (y) = 0.30666 0.27107
# Poissons Ratio (z) = 0.21143 1.24874
#
# Static dielectric constant tensor:
#      x y z
#    x 1.630620 0.000000 -0.008770 
#    y 0.000000 1.686980 0.000000 
#    z -0.008770 0.000000 1.623740 
# 
# From -- ./inp_files/321505.got.cif
#   From: 2010.05.17/outbox.cif.g08.bks.cpg/sg12_161_cif.got.tgz:321505.got - 2010.06.03 13:09:07.
