data_PCOD9216057
_publ_section_title
;
Structure prediction by ZEFSAII (Michael W. Deem and Ramdas Pophale) SiO2 
 PCOD9216057
Probable space group: C 2/M
;
_chemical_formula_sum "Si O2"
_cell_formula_units_Z 32
_cell_length_a 8.929887
_cell_length_b 19.440364
_cell_length_c 8.126207
_cell_angle_alpha 90.000000
_cell_angle_beta 98.263445
_cell_angle_gamma 90.000000
_cell_volume 1396.065149
_symmetry_space_group_name_H-M "C 2/M"
_symmetry_group_IT_number 12
_symmetry_cell_setting 'monoclinic'
loop_
_space_group_symop_operation_xyz
x,y,z
-x,y,-z
-x,-y,-z
x,-y,z
1/2+x,1/2+y,z
1/2-x,1/2+y,-z
1/2-x,1/2-y,-z
1/2+x,1/2-y,z
loop_
_atom_site_type_symbol
_atom_site_label
_atom_site_fract_x
_atom_site_fract_y
_atom_site_fract_z
Si Si1 0.828846 0.581657 0.906151
Si Si2 0.824757 0.425440 0.514943
Si Si3 0.696422 0.704992 0.336271
Si Si4 0.389855 0.705160 0.128034
O O1 0.800090 0.500000 0.936839
O O2 0.821938 0.591994 0.707553
O O3 0.699345 0.635764 0.939456
O O4 0.000000 0.596149 0.000000
O O5 0.751688 0.500000 0.480881
O O6 0.757608 0.370178 0.382815
O O7 0.000000 0.429850 0.500000
O O8 0.750000 0.750000 0.500000
O O9 0.516991 0.696746 0.289717
O O10 0.774237 0.741046 0.190508
O O11 0.500000 0.730022 0.000000
#
# Coordination Sequence:
#
# PCOD9216057 Si02
#       4
#     8   8   8   8
#     4  10  24  47  74 106 145 186 234 290 356 433
#     4  10  22  42  73 104 135 186 238 291 355 423
#     4  12  25  47  70 102 144 185 236 302 352 417
#     4  12  28  45  70 103 143 193 236 291 361 424
#
# _framework density 22.921568000000001
#
# number of rings (size 3 to 8) (size 9 to 14) (size 15 to 20)
#    0.000    1.000    2.500    3.000    3.500    2.500 
#    0.000    2.500    0.000    0.750    0.000    0.000 
#    0.000    0.000    0.000    0.000    0.000    0.000 
#
# Total GULP energy -89407.656280 kJ/mol
# GULP energy per Si atom -5587.978517 kJ/mol
# Density = 2.286940 g / cm^3
# Si number density = 22.921568 Si / 1000 Ang^3
#
#
#
# Elastic Constant Matrix: (Units=GPa)
#
#
# Indices 1 2 3 4 5 6 
#
# 1 145.2676 78.9415 46.1791 0.0000 33.2892 0.0000
# 2 78.9415 132.5196 61.2945 0.0000 20.9651 0.0000
# 3 46.1791 61.2945 73.9748 0.0000 -1.7877 0.0000
# 4 0.0000 0.0000 0.0000 79.6025 0.0000 27.2511
# 5 33.2892 20.9651 -1.7877 0.0000 56.2259 0.0000
# 6 0.0000 0.0000 0.0000 27.2511 0.0000 53.5832
#
#
#
# Elastic Compliance Matrix: (Units=1/GPa)
#
#
# Indices 1 2 3 4 5 6 
#
# 1 0.011709 -0.004334 -0.003850 0.000000 -0.005439 0.000000
# 2 -0.004334 0.015347 -0.010095 0.000000 -0.003478 0.000000
# 3 -0.003850 -0.010095 0.024451 0.000000 0.006821 0.000000
# 4 0.000000 0.000000 0.000000 0.015211 0.000000 -0.007736
# 5 -0.005439 -0.003478 0.006821 0.000000 0.022519 0.000000
# 6 0.000000 0.000000 0.000000 -0.007736 0.000000 0.022597
#
#
# Mechanical properties :
#
#
# Convention : Reuss Voigt Hill
#
# Bulk Modulus (GPa) = 66.89184 80.51026 73.70105
# Shear Modulus (GPa) = 32.59982 48.90544 40.75263
#
# Velocity S-wave (km/s) = 3.77534 4.62410 4.22111
# Velocity P-wave (km/s) = 6.94626 7.98187 7.48200
#
# Compressibility (1/GPa) = 0.01494951
#
# Stress axis : x y z
#
# Youngs Moduli (GPa) = 85.40238 65.15836 40.89831
#
# Poissons Ratio (x) = 0.28240 0.15746
# Poissons Ratio (y) = 0.37013 0.41287
# Poissons Ratio (z) = 0.32879 0.65777
#
# Static dielectric constant tensor:
#      x y z
#    x 1.855520 0.000000 0.031110 
#    y 0.000000 1.930890 0.000000 
#    z 0.031110 0.000000 2.012800 
# 
# From -- ./inp_files/37753.got.cif
#   From: 2010.05.17/outbox.cif.g08.bks.cpg/sg12_19_cif.got.tgz:37753.got - 2010.06.03 13:09:07.
