data_PCOD9216118
_publ_section_title
;
Structure prediction by ZEFSAII (Michael W. Deem and Ramdas Pophale) SiO2 
 PCOD9216118
Probable space group: C 2/M
;
_chemical_formula_sum "Si O2"
_cell_formula_units_Z 28
_cell_length_a 22.254339
_cell_length_b 13.787632
_cell_length_c 19.281476
_cell_angle_alpha 90.000000
_cell_angle_beta 12.136829
_cell_angle_gamma 90.000000
_cell_volume 1243.868645
_symmetry_space_group_name_H-M "C 2/M"
_symmetry_group_IT_number 12
_symmetry_cell_setting 'monoclinic'
loop_
_space_group_symop_operation_xyz
x,y,z
-x,y,-z
-x,-y,-z
x,-y,z
1/2+x,1/2+y,z
1/2-x,1/2+y,-z
1/2-x,1/2-y,-z
1/2+x,1/2-y,z
loop_
_atom_site_type_symbol
_atom_site_label
_atom_site_fract_x
_atom_site_fract_y
_atom_site_fract_z
Si Si1 0.164699 0.000000 0.888246
Si Si2 0.884368 0.193158 0.207334
Si Si3 0.829232 0.603051 0.352051
Si Si4 0.176893 0.359334 0.098624
O O1 0.500000 0.000000 0.500000
O O2 0.000000 0.000000 0.000000
O O3 0.069056 0.897023 0.028332
O O4 0.887591 0.294607 0.246445
O O5 0.564316 0.147836 0.570023
O O6 0.000000 0.214015 0.000000
O O7 0.899605 0.500000 0.235539
O O8 0.010373 0.604262 0.218318
O O9 0.492248 0.598608 0.749328
O O10 0.250000 0.250000 0.000000
#
# Coordination Sequence:
#
# PCOD9216118 Si02
#       4
#     4   8   8   8
#     4  10  24  40  60  92 128 170 211 262 327 384
#     4  10  23  43  66  96 133 172 222 274 332 391
#     4  11  24  42  69  99 131 173 221 273 332 395
#     4  10  22  43  65  94 131 176 221 264 323 395
#
# _framework density 22.510414999999998
#
# number of rings (size 3 to 8) (size 9 to 14) (size 15 to 20)
#    0.000    1.714    0.000    4.286    4.000   14.286 
#    0.000    0.000    0.000    9.429    0.000    0.000 
#    0.000    0.000    0.000    0.000    0.000    0.000 
#
# Total GULP energy -78046.049107 kJ/mol
# GULP energy per Si atom -5574.717793 kJ/mol
# Density = 2.245918 g / cm^3
# Si number density = 22.510415 Si / 1000 Ang^3
#
#
#
# Elastic Constant Matrix: (Units=GPa)
#
#
# Indices 1 2 3 4 5 6 
#
# 1 114.1232 46.9633 60.0308 0.0759 1.0375 -0.0341
# 2 46.9633 241.9299 67.5187 0.1634 3.8561 -0.0269
# 3 60.0308 67.5187 179.1511 -0.2743 -9.0529 0.2391
# 4 0.0759 0.1634 -0.2743 144.5078 -0.0962 -46.6837
# 5 1.0375 3.8561 -9.0529 -0.0962 49.3535 0.0057
# 6 -0.0341 -0.0269 0.2391 -46.6837 0.0057 46.6472
#
#
#
# Elastic Compliance Matrix: (Units=1/GPa)
#
#
# Indices 1 2 3 4 5 6 
#
# 1 0.010983 -0.001210 -0.003261 -0.000005 -0.000735 0.000019
# 2 -0.001210 0.004776 -0.001425 -0.000007 -0.000609 0.000002
# 3 -0.003261 -0.001425 0.007288 0.000007 0.001517 -0.000033
# 4 -0.000005 -0.000007 0.000007 0.010226 0.000021 0.010234
# 5 -0.000735 -0.000609 0.001517 0.000021 0.020603 0.000010
# 6 0.000019 0.000002 -0.000033 0.010234 0.000010 0.031680
#
#
# Mechanical properties :
#
#
# Convention : Reuss Voigt Hill
#
# Bulk Modulus (GPa) = 88.85819 98.24775 93.55297
# Shear Modulus (GPa) = 49.45568 72.14780 60.80174
#
# Velocity S-wave (km/s) = 4.69232 5.66749 5.20280
# Velocity P-wave (km/s) = 8.30163 9.30416 8.81716
#
# Compressibility (1/GPa) = 0.01125389
#
# Stress axis : x y z
#
# Youngs Moduli (GPa) = 91.05353 209.38907 137.20246
#
# Poissons Ratio (x) = 0.25338 0.44744
# Poissons Ratio (y) = 0.11018 0.19554
# Poissons Ratio (z) = 0.29694 0.29843
#
# Static dielectric constant tensor:
#      x y z
#    x 1.868130 0.002070 -0.011680 
#    y 0.002070 0.385820 -0.007700 
#    z -0.011680 -0.007700 1.915460 
# 
# From -- ./inp_files/28099.got.cif
#   From: 2010.05.17/outbox.cif.g08.bks.cpg/sg12_15_cif.got.tgz:28099.got - 2010.06.03 13:09:07.
