data_PCOD9216364
_publ_section_title
;
Structure prediction by ZEFSAII (Michael W. Deem and Ramdas Pophale) SiO2 
 PCOD9216364
Probable space group: C 2/M
;
_chemical_formula_sum "Si O2"
_cell_formula_units_Z 28
_cell_length_a 16.229474
_cell_length_b 16.250388
_cell_length_c 8.775774
_cell_angle_alpha 90.000000
_cell_angle_beta 29.054577
_cell_angle_gamma 90.000000
_cell_volume 1124.010354
_symmetry_space_group_name_H-M "C 2/M"
_symmetry_group_IT_number 12
_symmetry_cell_setting 'monoclinic'
loop_
_space_group_symop_operation_xyz
x,y,z
-x,y,-z
-x,-y,-z
x,-y,z
1/2+x,1/2+y,z
1/2-x,1/2+y,-z
1/2-x,1/2-y,-z
1/2+x,1/2-y,z
loop_
_atom_site_type_symbol
_atom_site_label
_atom_site_fract_x
_atom_site_fract_y
_atom_site_fract_z
Si Si1 0.272083 0.264276 0.283517
Si Si2 0.000000 0.208220 0.500000
Si Si3 0.345647 0.087923 0.132027
Si Si4 0.056027 0.906506 0.152442
O O1 0.250000 0.250000 0.500000
O O2 0.106283 0.261734 0.445415
O O3 0.366566 0.184277 0.058533
O O4 0.366798 0.349394 0.101922
O O5 0.105784 0.143495 0.225275
O O6 0.150373 0.090469 0.510496
O O7 0.351443 0.000000 0.032576
O O8 0.500000 0.079682 0.000000
O O9 0.116073 0.000000 0.049919
#
# Coordination Sequence:
#
# PCOD9216364 Si02
#       4
#     8   4   8   8
#     4  11  25  42  72 104 144 189 246 299 362 432
#     4  10  23  44  67 102 144 192 241 300 365 430
#     4   9  21  39  64 100 138 181 234 290 355 427
#     4  10  22  44  71 102 144 193 243 298 362 438
#
# _framework density 24.910803000000001
#
# number of rings (size 3 to 8) (size 9 to 14) (size 15 to 20)
#    0.000    2.000    0.000    1.286    8.000    2.286 
#    0.000    7.857    0.000    0.000    0.000    0.000 
#    0.000    0.000    0.000    0.000    0.000    0.000 
#
# Total GULP energy -77984.570966 kJ/mol
# GULP energy per Si atom -5570.326498 kJ/mol
# Density = 2.485410 g / cm^3
# Si number density = 24.910803 Si / 1000 Ang^3
#
#
#
# Elastic Constant Matrix: (Units=GPa)
#
#
# Indices 1 2 3 4 5 6 
#
# 1 175.3610 43.0952 64.5909 0.0000 -2.0545 -0.0002
# 2 43.0952 168.0600 72.8066 0.0002 -3.7504 -0.0001
# 3 64.5909 72.8066 86.2416 -0.0003 20.7636 0.0000
# 4 0.0000 0.0002 -0.0003 23.0278 0.0000 24.9745
# 5 -2.0545 -3.7504 20.7636 0.0000 38.7546 0.0002
# 6 -0.0002 -0.0001 0.0000 24.9745 0.0002 5.2904
#
#
#
# Elastic Compliance Matrix: (Units=1/GPa)
#
#
# Indices 1 2 3 4 5 6 
#
# 1 0.008900 0.002152 -0.009927 0.000000 0.005999 0.000000
# 2 0.002152 0.011252 -0.013089 0.000000 0.008216 0.000000
# 3 -0.009927 -0.013089 0.035031 0.000000 -0.020561 0.000001
# 4 0.000000 0.000000 0.000000 -0.010541 0.000000 0.049760
# 5 0.005999 0.008216 -0.020561 0.000000 0.037933 0.000000
# 6 0.000000 0.000000 0.000001 0.049760 0.000000 -0.045881
#
#
# Mechanical properties :
#
#
# Convention : Reuss Voigt Hill
#
# Bulk Modulus (GPa) = 74.32171 87.84977 81.08574
# Shear Modulus (GPa) = 60.30832 30.02588 45.16710
#
# Velocity S-wave (km/s) = 4.92567 3.47556 4.26273
# Velocity P-wave (km/s) = 7.88984 7.17275 7.53982
#
# Compressibility (1/GPa) = 0.01345502
#
# Stress axis : x y z
#
# Youngs Moduli (GPa) = 112.35480 88.87156 28.54634
#
# Poissons Ratio (x) = -0.19127 0.28338
# Poissons Ratio (y) = -0.24181 0.37365
# Poissons Ratio (z) = 1.11536 1.16326
#
# Static dielectric constant tensor:
#      x y z
#    x 2.027180 0.000000 -0.000720 
#    y 0.000000 2.037060 0.000000 
#    z -0.000720 0.000000 2.110040 
# 
# From -- ./inp_files/74873.got.cif
#   From: 2010.05.17/outbox.cif.g08.bks.cpg/sg12_38_cif.got.tgz:74873.got - 2010.06.03 13:09:07.
