data_PCOD9216839
_publ_section_title
;
Structure prediction by ZEFSAII (Michael W. Deem and Ramdas Pophale) SiO2 
 PCOD9216839
Probable space group: C 2/M
;
_chemical_formula_sum "Si O2"
_cell_formula_units_Z 56
_cell_length_a 13.658923
_cell_length_b 23.075879
_cell_length_c 8.953585
_cell_angle_alpha 90.000000
_cell_angle_beta 72.526078
_cell_angle_gamma 90.000000
_cell_volume 2691.866063
_symmetry_space_group_name_H-M "C 2/M"
_symmetry_group_IT_number 12
_symmetry_cell_setting 'monoclinic'
loop_
_space_group_symop_operation_xyz
x,y,z
-x,y,-z
-x,-y,-z
x,-y,z
1/2+x,1/2+y,z
1/2-x,1/2+y,-z
1/2-x,1/2-y,-z
1/2+x,1/2-y,z
loop_
_atom_site_type_symbol
_atom_site_label
_atom_site_fract_x
_atom_site_fract_y
_atom_site_fract_z
Si Si1 0.475859 0.632873 0.832561
Si Si2 0.182853 0.737421 0.675246
Si Si3 0.818554 0.339962 0.062737
Si Si4 0.713760 0.567753 0.237189
Si Si5 0.047287 0.729674 0.217041
Si Si6 0.174698 0.931081 0.606859
Si Si7 0.727819 0.840965 0.245875
O O1 0.377755 0.597220 0.814758
O O2 0.454498 0.700671 0.798621
O O3 0.570022 0.600558 0.704481
O O4 0.500000 0.628619 0.000000
O O5 0.250000 0.750000 0.500000
O O6 0.231193 0.697858 0.782542
O O7 0.178090 0.800152 0.752120
O O8 0.070177 0.713271 0.696648
O O9 0.821211 0.402248 0.138646
O O10 0.909956 0.300287 0.955019
O O11 0.760895 0.351348 0.934114
O O12 0.715329 0.500000 0.207578
O O13 0.693595 0.577343 0.422179
O O14 0.124940 0.699126 0.299930
O O15 0.264017 0.897798 0.658471
O O16 0.170875 0.000000 0.639185
#
# Coordination Sequence:
#
# PCOD9216839 Si02
#       7
#     8   8   8   8   8   8   8
#     4  12  23  39  68 100 145 186 232 291 379 445
#     4  12  22  40  67 100 141 183 229 289 363 427
#     4  10  23  41  65  95 141 186 237 287 356 430
#     4  11  25  43  66  99 140 188 247 304 358 425
#     4  10  25  41  67 100 146 187 225 291 355 437
#     4  11  24  44  68  98 143 193 244 307 365 426
#     4  10  23  40  65  96 141 185 238 279 357 423
#
# _framework density 20.803412999999999
#
# number of rings (size 3 to 8) (size 9 to 14) (size 15 to 20)
#    0.857    0.286    1.429    5.143    2.000    4.571 
#    2.571    0.000    0.000    2.571    0.000    3.000 
#    0.000    0.000    0.000    0.000    0.000    0.000 
#
# Total GULP energy -155917.716299 kJ/mol
# GULP energy per Si atom -5568.489868 kJ/mol
# Density = 2.075606 g / cm^3
# Si number density = 20.803413 Si / 1000 Ang^3
#
#
#
# Elastic Constant Matrix: (Units=GPa)
#
#
# Indices 1 2 3 4 5 6 
#
# 1 96.6489 62.5952 51.0082 0.0000 4.0412 0.0000
# 2 62.5952 169.8731 80.1199 0.0000 5.0413 0.0000
# 3 51.0082 80.1199 126.2909 0.0000 3.8621 0.0000
# 4 0.0000 0.0000 0.0000 40.2552 0.0000 6.9837
# 5 4.0412 5.0413 3.8621 0.0000 30.3604 0.0000
# 6 0.0000 0.0000 0.0000 6.9837 0.0000 22.5222
#
#
#
# Elastic Compliance Matrix: (Units=1/GPa)
#
#
# Indices 1 2 3 4 5 6 
#
# 1 0.014650 -0.003702 -0.003542 0.000000 -0.000885 0.000000
# 2 -0.003702 0.009351 -0.004422 0.000000 -0.000497 0.000000
# 3 -0.003542 -0.004422 0.012165 0.000000 -0.000342 0.000000
# 4 0.000000 0.000000 0.000000 0.026254 0.000000 -0.008141
# 5 -0.000885 -0.000497 -0.000342 0.000000 0.033182 0.000000
# 6 0.000000 0.000000 0.000000 -0.008141 0.000000 0.046925
#
#
# Mechanical properties :
#
#
# Convention : Reuss Voigt Hill
#
# Bulk Modulus (GPa) = 77.91217 86.69553 82.30385
# Shear Modulus (GPa) = 29.38823 31.90019 30.64421
#
# Velocity S-wave (km/s) = 3.76262 3.92013 3.84218
# Velocity P-wave (km/s) = 7.51062 7.89012 7.70271
#
# Compressibility (1/GPa) = 0.01283497
#
# Stress axis : x y z
#
# Youngs Moduli (GPa) = 68.25763 106.93800 82.20549
#
# Poissons Ratio (x) = 0.39585 0.29115
# Poissons Ratio (y) = 0.25267 0.36353
# Poissons Ratio (z) = 0.24175 0.47290
#
# Static dielectric constant tensor:
#      x y z
#    x 1.857080 0.000000 -0.024600 
#    y 0.000000 1.763360 0.000000 
#    z -0.024600 0.000000 1.665730 
# 
# From -- ./inp_files/65272.got.cif
#   From: 2010.05.17/outbox.cif.g08.bks.cpg/sg12_33_cif.got.tgz:65272.got - 2010.06.03 13:09:07.
