data_PCOD9216909
_publ_section_title
;
Structure prediction by ZEFSAII (Michael W. Deem and Ramdas Pophale) SiO2 
 PCOD9216909
Probable space group: C 2/M
;
_chemical_formula_sum "Si O2"
_cell_formula_units_Z 64
_cell_length_a 19.759135
_cell_length_b 28.911843
_cell_length_c 9.154440
_cell_angle_alpha 90.000000
_cell_angle_beta 40.685892
_cell_angle_gamma 90.000000
_cell_volume 3409.292543
_symmetry_space_group_name_H-M "C 2/M"
_symmetry_group_IT_number 12
_symmetry_cell_setting 'monoclinic'
loop_
_space_group_symop_operation_xyz
x,y,z
-x,y,-z
-x,-y,-z
x,-y,z
1/2+x,1/2+y,z
1/2-x,1/2+y,-z
1/2-x,1/2-y,-z
1/2+x,1/2-y,z
loop_
_atom_site_type_symbol
_atom_site_label
_atom_site_fract_x
_atom_site_fract_y
_atom_site_fract_z
Si Si1 0.041748 0.551159 0.677352
Si Si2 0.106731 0.193901 0.024873
Si Si3 0.838643 0.448886 0.827674
Si Si4 0.203057 0.200312 0.555662
Si Si5 0.751140 0.351156 0.017720
Si Si6 0.589096 0.852018 0.736025
Si Si7 0.072057 0.826797 0.515078
Si Si8 0.459620 0.793311 0.731476
O O1 0.054762 0.500000 0.722975
O O2 0.922315 0.556846 0.821762
O O3 0.101556 0.551009 0.424679
O O4 0.081034 0.594153 0.706430
O O5 0.070594 0.245606 0.134767
O O6 0.016330 0.158260 0.224864
O O7 0.131675 0.191185 0.813864
O O8 0.205914 0.179939 0.959812
O O9 0.790092 0.500000 0.923470
O O10 0.771378 0.403152 0.935453
O O11 0.250000 0.250000 0.500000
O O12 0.297153 0.163559 0.398418
O O13 0.141392 0.204619 0.505527
O O14 0.856656 0.325961 0.897804
O O15 0.661237 0.355031 0.287338
O O16 0.551897 0.820815 0.661018
O O17 0.500000 0.842407 0.000000
O O18 0.000000 0.809737 0.500000
O O19 0.500000 0.786543 0.500000
#
# Coordination Sequence:
#
# PCOD9216909 Si02
#       8
#     8   8   8   8   8   8   8   8
#     4   9  18  34  55  84 122 160 193 230 290 366
#     4  11  23  38  57  81 112 157 203 251 293 334
#     4   9  17  32  58  87 117 155 196 238 288 355
#     4  12  24  40  58  82 117 157 200 244 297 353
#     4  11  20  35  58  86 117 150 199 243 286 349
#     4  12  24  36  56  88 124 159 191 241 301 356
#     4  10  23  41  59  78 108 151 199 246 286 335
#     4  12  22  36  56  84 121 158 198 238 291 355
#
# _framework density 18.772223
#
# number of rings (size 3 to 8) (size 9 to 14) (size 15 to 20)
#    0.000    1.250    1.250    7.875    0.000    1.250 
#    0.000    0.000    0.000    3.375    0.000    0.000 
#    0.000   14.000    0.000    0.000    0.000    0.000 
#
# Total GULP energy -178377.211807 kJ/mol
# GULP energy per Si atom -5574.287869 kJ/mol
# Density = 1.872950 g / cm^3
# Si number density = 18.772223 Si / 1000 Ang^3
#
#
#
# Elastic Constant Matrix: (Units=GPa)
#
#
# Indices 1 2 3 4 5 6 
#
# 1 86.2483 25.4203 8.3933 0.0000 -7.5758 0.0000
# 2 25.4203 99.1662 19.6370 0.0000 -3.9437 0.0000
# 3 8.3933 19.6370 99.7672 0.0000 6.1575 0.0000
# 4 0.0000 0.0000 0.0000 21.9097 0.0000 7.5617
# 5 -7.5758 -3.9437 6.1575 0.0000 29.0834 0.0000
# 6 0.0000 0.0000 0.0000 7.5617 0.0000 12.0047
#
#
#
# Elastic Compliance Matrix: (Units=1/GPa)
#
#
# Indices 1 2 3 4 5 6 
#
# 1 0.012823 -0.003032 -0.000672 0.000000 0.003071 0.000000
# 2 -0.003032 0.011313 -0.002044 0.000000 0.001177 0.000000
# 3 -0.000672 -0.002044 0.010649 0.000000 -0.002707 0.000000
# 4 0.000000 0.000000 0.000000 0.058320 0.000000 -0.036736
# 5 0.003071 0.001177 -0.002707 0.000000 0.035917 0.000000
# 6 0.000000 0.000000 0.000000 -0.036736 0.000000 0.106441
#
#
# Mechanical properties :
#
#
# Convention : Reuss Voigt Hill
#
# Bulk Modulus (GPa) = 42.93739 43.56475 43.25107
# Shear Modulus (GPa) = 19.62924 28.04831 23.83878
#
# Velocity S-wave (km/s) = 3.23716 3.86960 3.56743
# Velocity P-wave (km/s) = 6.07411 6.57438 6.32919
#
# Compressibility (1/GPa) = 0.02328973
#
# Stress axis : x y z
#
# Youngs Moduli (GPa) = 77.98378 88.39453 93.90317
#
# Poissons Ratio (x) = 0.26801 0.06306
# Poissons Ratio (y) = 0.23644 0.19196
# Poissons Ratio (z) = 0.05237 0.18070
#
# Static dielectric constant tensor:
#      x y z
#    x 1.723190 0.000000 0.026620 
#    y 0.000000 1.643080 0.000000 
#    z 0.026620 0.000000 1.745570 
# 
# From -- ./inp_files/80691.got.cif
#   From: 2010.05.17/outbox.cif.g08.bks.cpg/sg12_41_cif.got.tgz:80691.got - 2010.06.03 13:09:07.
