data_PCOD9216968
_publ_section_title
;
Structure prediction by ZEFSAII (Michael W. Deem and Ramdas Pophale) SiO2 
 PCOD9216968
Probable space group: C 2/M
;
_chemical_formula_sum "Si O2"
_cell_formula_units_Z 32
_cell_length_a 10.353642
_cell_length_b 9.797032
_cell_length_c 14.478274
_cell_angle_alpha 90.000000
_cell_angle_beta 82.409360
_cell_angle_gamma 90.000000
_cell_volume 1455.733998
_symmetry_space_group_name_H-M "C 2/M"
_symmetry_group_IT_number 12
_symmetry_cell_setting 'monoclinic'
loop_
_space_group_symop_operation_xyz
x,y,z
-x,y,-z
-x,-y,-z
x,-y,z
1/2+x,1/2+y,z
1/2-x,1/2+y,-z
1/2-x,1/2-y,-z
1/2+x,1/2-y,z
loop_
_atom_site_type_symbol
_atom_site_label
_atom_site_fract_x
_atom_site_fract_y
_atom_site_fract_z
Si Si1 0.260988 0.163298 0.905063
Si Si2 0.793027 0.146705 0.355919
Si Si3 0.624040 0.347804 0.445687
Si Si4 0.002966 0.840799 0.191796
O O1 0.122837 0.177434 0.864249
O O2 0.382703 0.234631 0.840967
O O3 0.282091 0.000000 0.917281
O O4 0.250000 0.250000 0.000000
O O5 0.697906 0.273267 0.357206
O O6 0.795916 0.133376 0.466585
O O7 0.932081 0.175861 0.297801
O O8 0.749559 0.000000 0.320954
O O9 0.500000 0.270354 0.500000
O O10 0.585672 0.500000 0.418966
O O11 0.046461 0.000000 0.178393
#
# Coordination Sequence:
#
# PCOD9216968 Si02
#       4
#     8   8   8   8
#     4  11  24  42  64  91 120 154 197 243 299 361
#     4   9  19  35  52  77 112 149 187 234 288 335
#     4   9  18  32  52  78 109 146 190 234 278 336
#     4  10  23  41  62  90 123 156 197 247 294 352
#
# _framework density 21.982036999999998
#
# number of rings (size 3 to 8) (size 9 to 14) (size 15 to 20)
#    0.000    2.250    0.000    1.500    3.500    6.500 
#    0.000    0.000    0.000    0.000    0.000    0.000 
#    0.000    0.000    0.000    0.000    0.000    0.000 
#
# Total GULP energy -89133.337923 kJ/mol
# GULP energy per Si atom -5570.833620 kJ/mol
# Density = 2.193200 g / cm^3
# Si number density = 21.982037 Si / 1000 Ang^3
#
#
#
# Elastic Constant Matrix: (Units=GPa)
#
#
# Indices 1 2 3 4 5 6 
#
# 1 75.4582 66.4092 29.4792 0.0000 -16.3017 0.0000
# 2 66.4092 134.3102 56.0313 0.0000 -30.7641 0.0000
# 3 29.4792 56.0313 102.3327 0.0000 -14.5486 0.0000
# 4 0.0000 0.0000 0.0000 12.2370 0.0000 -7.8973
# 5 -16.3017 -30.7641 -14.5486 0.0000 40.5458 0.0000
# 6 0.0000 0.0000 0.0000 -7.8973 0.0000 37.6368
#
#
#
# Elastic Compliance Matrix: (Units=1/GPa)
#
#
# Indices 1 2 3 4 5 6 
#
# 1 0.023502 -0.011238 -0.000512 0.000000 0.000739 0.000000
# 2 -0.011238 0.016469 -0.004896 0.000000 0.006221 0.000000
# 3 -0.000512 -0.004896 0.012690 0.000000 0.000633 0.000000
# 4 0.000000 0.000000 0.000000 0.094519 0.000000 0.019833
# 5 0.000739 0.006221 0.000633 0.000000 0.029908 0.000000
# 6 0.000000 0.000000 0.000000 0.019833 0.000000 0.030731
#
#
# Mechanical properties :
#
#
# Convention : Reuss Voigt Hill
#
# Bulk Modulus (GPa) = 51.62567 68.43782 60.03175
# Shear Modulus (GPa) = 20.19650 28.76268 24.47959
#
# Velocity S-wave (km/s) = 3.03441 3.62119 3.34071
# Velocity P-wave (km/s) = 5.98442 6.97747 6.49994
#
# Compressibility (1/GPa) = 0.01937021
#
# Stress axis : x y z
#
# Youngs Moduli (GPa) = 42.54943 60.71907 78.80052
#
# Poissons Ratio (x) = 0.68234 0.04036
# Poissons Ratio (y) = 0.47815 0.38580
# Poissons Ratio (z) = 0.02179 0.29727
#
# Static dielectric constant tensor:
#      x y z
#    x 1.832510 0.000000 0.083160 
#    y 0.000000 1.919700 0.000000 
#    z 0.083160 0.000000 1.918540 
# 
# From -- ./inp_files/201885.got.cif
#   From: 2010.05.17/outbox.cif.g08.bks.cpg/sg12_101_cif.got.tgz:201885.got - 2010.06.03 13:09:07.
