data_PCOD9216248
_publ_section_title
;
Structure prediction by ZEFSAII (Michael W. Deem and Ramdas Pophale) SiO2 
 PCOD9216248
Probable space group: C 2/M
;
_chemical_formula_sum "Si O2"
_cell_formula_units_Z 40
_cell_length_a 29.632458
_cell_length_b 9.386356
_cell_length_c 26.110126
_cell_angle_alpha 90.000000
_cell_angle_beta 165.569162
_cell_angle_gamma 90.000000
_cell_volume 1809.844094
_symmetry_space_group_name_H-M "C 2/M"
_symmetry_group_IT_number 12
_symmetry_cell_setting 'monoclinic'
loop_
_space_group_symop_operation_xyz
x,y,z
-x,y,-z
-x,-y,-z
x,-y,z
1/2+x,1/2+y,z
1/2-x,1/2+y,-z
1/2-x,1/2-y,-z
1/2+x,1/2-y,z
loop_
_atom_site_type_symbol
_atom_site_label
_atom_site_fract_x
_atom_site_fract_y
_atom_site_fract_z
Si Si1 0.612395 0.173345 0.387768
Si Si2 0.966041 0.729424 0.589465
Si Si3 0.768988 0.657563 0.857975
Si Si4 0.709802 0.342277 0.215400
Si Si5 0.141521 0.158071 0.957154
O O1 0.750000 0.250000 0.500000
O O2 0.638612 0.244656 0.472418
O O3 0.422944 0.229794 0.155913
O O4 0.624596 0.000000 0.402578
O O5 0.833157 0.665559 0.401313
O O6 0.082045 0.846023 0.685329
O O7 0.141675 0.643110 0.802349
O O8 0.846188 0.500000 0.939695
O O9 0.736055 0.725277 0.766616
O O10 0.895426 0.767067 0.028618
O O11 0.732639 0.500000 0.217079
O O12 0.500000 0.323671 0.000000
O O13 0.062189 0.000000 0.863867
#
# Coordination Sequence:
#
# PCOD9216248 Si02
#       5
#     8   8   8   8   8
#     4  12  26  44  67 100 139 176 221 275 336 397
#     4  10  25  42  69  95 134 175 226 271 332 397
#     4  10  24  43  67  98 132 172 222 278 335 393
#     4  11  24  42  68 100 135 177 223 272 331 403
#     4  10  22  43  70  95 128 173 223 273 329 397
#
# _framework density 22.101353
#
# number of rings (size 3 to 8) (size 9 to 14) (size 15 to 20)
#    1.200    0.200    0.000    4.800    2.800    4.400 
#    0.000    0.000    0.000    0.000    0.000    0.000 
#    0.000    0.000    0.000    0.000    0.000    0.000 
#
# Total GULP energy -111342.953375 kJ/mol
# GULP energy per Si atom -5567.147669 kJ/mol
# Density = 2.205105 g / cm^3
# Si number density = 22.101353 Si / 1000 Ang^3
#
#
#
# Elastic Constant Matrix: (Units=GPa)
#
#
# Indices 1 2 3 4 5 6 
#
# 1 148.0595 45.6625 14.9548 0.0027 -2.2985 0.0015
# 2 45.6625 103.1487 13.3417 0.0011 6.0151 -0.0021
# 3 14.9548 13.3417 78.9423 -0.0013 -1.6739 -0.0011
# 4 0.0027 0.0011 -0.0013 12.0277 0.0006 4.9663
# 5 -2.2985 6.0151 -1.6739 0.0006 32.7638 0.0004
# 6 0.0015 -0.0021 -0.0011 4.9663 0.0004 -6.6123
#
#
#
# Elastic Compliance Matrix: (Units=1/GPa)
#
#
# Indices 1 2 3 4 5 6 
#
# 1 0.007930 -0.003462 -0.000893 -0.000002 0.001146 0.000001
# 2 -0.003462 0.011543 -0.001347 0.000001 -0.002431 -0.000003
# 3 -0.000893 -0.001347 0.013082 0.000002 0.000853 0.000000
# 4 -0.000002 0.000001 0.000002 0.063461 -0.000002 0.047664
# 5 0.001146 -0.002431 0.000853 -0.000002 0.031092 0.000001
# 6 0.000001 -0.000003 0.000000 0.047664 0.000001 -0.115434
#
#
# Mechanical properties :
#
#
# Convention : Reuss Voigt Hill
#
# Bulk Modulus (GPa) = 47.27515 53.11869 50.19692
# Shear Modulus (GPa) = 165.96574 24.71526 95.34050
#
# Velocity S-wave (km/s) = 8.67502 3.34768 6.57507
# Velocity P-wave (km/s) = 11.03531 6.24731 8.96680
#
# Compressibility (1/GPa) = 0.02115276
#
# Stress axis : x y z
#
# Youngs Moduli (GPa) = 126.10937 86.63171 76.43920
#
# Poissons Ratio (x) = 0.29989 0.06825
# Poissons Ratio (y) = 0.43655 0.10293
# Poissons Ratio (z) = 0.11259 0.11666
#
# Static dielectric constant tensor:
#      x y z
#    x 1.861060 0.000000 0.053310 
#    y 0.000000 1.793360 0.000000 
#    z 0.053310 0.000000 1.931840 
# 
# From -- ./inp_files/368916.got.cif
#   From: 2010.05.17/outbox.cif.g08.bks.cpg/sg12_185_cif.got.tgz:368916.got - 2010.06.03 13:09:07.
