data_PCOD9216546
_publ_section_title
;
Structure prediction by ZEFSAII (Michael W. Deem and Ramdas Pophale) SiO2 
 PCOD9216546
Probable space group: C 2/M
;
_chemical_formula_sum "Si O2"
_cell_formula_units_Z 60
_cell_length_a 5.225758
_cell_length_b 23.878899
_cell_length_c 21.042478
_cell_angle_alpha 90.000000
_cell_angle_beta 94.353658
_cell_angle_gamma 90.000000
_cell_volume 2618.216146
_symmetry_space_group_name_H-M "C 2/M"
_symmetry_group_IT_number 12
_symmetry_cell_setting 'monoclinic'
loop_
_space_group_symop_operation_xyz
x,y,z
-x,y,-z
-x,-y,-z
x,-y,z
1/2+x,1/2+y,z
1/2-x,1/2+y,-z
1/2-x,1/2-y,-z
1/2+x,1/2-y,z
loop_
_atom_site_type_symbol
_atom_site_label
_atom_site_fract_x
_atom_site_fract_y
_atom_site_fract_z
Si Si1 0.954298 0.784619 0.066288
Si Si2 0.448341 0.560807 0.175902
Si Si3 0.783113 0.561579 0.703206
Si Si4 0.434879 0.787201 0.300318
Si Si5 0.763562 0.000000 0.543523
Si Si6 0.794066 0.652716 0.169324
Si Si7 0.544515 0.933756 0.074878
Si Si8 0.230583 0.100413 0.355916
O O1 0.157216 0.732424 0.064941
O O2 0.067083 0.813445 0.129927
O O3 0.000000 0.815448 0.000000
O O4 0.562996 0.500000 0.183992
O O5 0.214093 0.565012 0.220518
O O6 0.641413 0.605777 0.203563
O O7 0.341416 0.568005 0.103144
O O8 0.679232 0.500000 0.684912
O O9 0.567123 0.602690 0.671487
O O10 0.064448 0.566682 0.682520
O O11 0.714429 0.759113 0.308550
O O12 0.424761 0.810616 0.226428
O O13 0.358180 0.837651 0.347764
O O14 0.500000 0.000000 0.500000
O O15 0.772825 0.059270 0.582662
O O16 0.000000 0.000000 0.500000
O O17 0.926709 0.616579 0.115200
O O18 0.468288 0.000000 0.085858
O O19 0.500000 0.923687 0.000000
#
# Coordination Sequence:
#
# PCOD9216546 Si02
#       8
#     8   8   8   8   4   8   8   8
#     4  10  24  42  60  84 114 156 218 289 355 426
#     4  10  23  37  60  94 130 170 233 297 373 458
#     4  11  20  38  67 108 143 189 240 295 381 443
#     4  12  28  47  72 106 150 200 255 310 374 437
#     4  12  26  46  80 128 168 202 245 299 355 413
#     4  12  24  39  67  90 127 174 238 305 378 440
#     4  10  24  42  61  91 133 180 237 310 397 490
#     4  12  23  45  74 109 160 203 240 300 360 430
#
# _framework density 22.916367000000001
#
# number of rings (size 3 to 8) (size 9 to 14) (size 15 to 20)
#    0.000    0.933    2.667    3.600    5.600    0.533 
#    1.200    2.000    0.000    2.400    0.000    0.000 
#    0.000    0.000    0.000    0.000    0.000    0.000 
#
# Total GULP energy -167254.232521 kJ/mol
# GULP energy per Si atom -5575.141084 kJ/mol
# Density = 2.286421 g / cm^3
# Si number density = 22.916367 Si / 1000 Ang^3
#
#
#
# Elastic Constant Matrix: (Units=GPa)
#
#
# Indices 1 2 3 4 5 6 
#
# 1 83.7824 24.0183 24.4096 0.0000 -4.6430 0.0000
# 2 24.0183 95.2293 36.2362 0.0000 -6.8904 0.0000
# 3 24.4096 36.2362 100.7974 0.0000 -0.2435 0.0000
# 4 0.0000 0.0000 0.0000 36.9880 0.0000 -8.5639
# 5 -4.6430 -6.8904 -0.2435 0.0000 35.0896 0.0000
# 6 0.0000 0.0000 0.0000 -8.5639 0.0000 31.5358
#
#
#
# Elastic Compliance Matrix: (Units=1/GPa)
#
#
# Indices 1 2 3 4 5 6 
#
# 1 0.013382 -0.002375 -0.002384 0.000000 0.001288 0.000000
# 2 -0.002375 0.012785 -0.004016 0.000000 0.002168 0.000000
# 3 -0.002384 -0.004016 0.011939 0.000000 -0.001021 0.000000
# 4 0.000000 0.000000 0.000000 0.028850 0.000000 0.007834
# 5 0.001288 0.002168 -0.001021 0.000000 0.029088 0.000000
# 6 0.000000 0.000000 0.000000 0.007834 0.000000 0.033838
#
#
# Mechanical properties :
#
#
# Convention : Reuss Voigt Hill
#
# Bulk Modulus (GPa) = 48.64395 49.90416 49.27405
# Shear Modulus (GPa) = 32.40793 33.73234 33.07014
#
# Velocity S-wave (km/s) = 3.76464 3.84080 3.80291
# Velocity P-wave (km/s) = 6.33794 6.44150 6.38993
#
# Compressibility (1/GPa) = 0.02055754
#
# Stress axis : x y z
#
# Youngs Moduli (GPa) = 74.72490 78.21713 83.75660
#
# Poissons Ratio (x) = 0.18576 0.19966
# Poissons Ratio (y) = 0.17747 0.33635
# Poissons Ratio (z) = 0.17813 0.31410
#
# Static dielectric constant tensor:
#      x y z
#    x 1.897440 0.000000 -0.053090 
#    y 0.000000 1.982820 0.000000 
#    z -0.053090 0.000000 1.942220 
# 
# From -- ./inp_files/298088.got.cif
#   From: 2010.05.17/outbox.cif.g08.bks.cpg/sg12_150_cif.got.tgz:298088.got - 2010.06.03 13:09:07.
