data_PCOD9216280
_publ_section_title
;
Structure prediction by ZEFSAII (Michael W. Deem and Ramdas Pophale) SiO2 
 PCOD9216280
Probable space group: C 2/M
;
_chemical_formula_sum "Si O2"
_cell_formula_units_Z 56
_cell_length_a 7.949576
_cell_length_b 21.973284
_cell_length_c 13.425233
_cell_angle_alpha 90.000000
_cell_angle_beta 92.871224
_cell_angle_gamma 90.000000
_cell_volume 2342.152820
_symmetry_space_group_name_H-M "C 2/M"
_symmetry_group_IT_number 12
_symmetry_cell_setting 'monoclinic'
loop_
_space_group_symop_operation_xyz
x,y,z
-x,y,-z
-x,-y,-z
x,-y,z
1/2+x,1/2+y,z
1/2-x,1/2+y,-z
1/2-x,1/2-y,-z
1/2+x,1/2-y,z
loop_
_atom_site_type_symbol
_atom_site_label
_atom_site_fract_x
_atom_site_fract_y
_atom_site_fract_z
Si Si1 0.232437 0.566231 0.922172
Si Si2 0.618333 0.665016 0.199242
Si Si3 0.595591 0.568394 0.681384
Si Si4 0.256420 0.330549 0.430018
Si Si5 0.117372 0.705845 0.636188
Si Si6 0.353093 0.091499 0.855914
Si Si7 0.130249 0.280030 0.079468
O O1 0.299891 0.500000 0.893740
O O2 0.345187 0.622154 0.893454
O O3 0.051322 0.576633 0.863762
O O4 0.210416 0.567438 0.039695
O O5 0.526129 0.617942 0.269926
O O6 0.786306 0.687379 0.261469
O O7 0.552792 0.728075 0.148620
O O8 0.528953 0.500000 0.663195
O O9 0.668213 0.603574 0.587990
O O10 0.752881 0.564354 0.761752
O O11 0.222983 0.319797 0.545349
O O12 0.375474 0.278170 0.385984
O O13 0.072096 0.318956 0.375565
O O14 0.309284 0.163624 0.853892
O O15 0.250000 0.250000 0.000000
O O16 0.000000 0.311689 0.000000
#
# Coordination Sequence:
#
# PCOD9216280 Si02
#       7
#     8   8   8   8   8   8   8
#     4  11  22  39  59  83 119 168 219 267 317 393
#     4  12  25  39  62  94 131 172 220 268 333 395
#     4  12  26  42  62  95 136 183 227 272 329 397
#     4  10  22  44  72 100 134 164 217 276 340 401
#     4  10  22  43  73 104 127 167 214 279 342 400
#     4  11  21  40  62  86 118 167 220 275 330 387
#     4  12  22  39  59  88 123 160 209 274 328 378
#
# _framework density 23.909627
#
# number of rings (size 3 to 8) (size 9 to 14) (size 15 to 20)
#    0.000    0.857    2.857    5.571    0.000    4.000 
#    0.000    5.714    0.000    0.000    0.000    0.000 
#    0.000    0.000    0.000    0.000    0.000    0.000 
#
# Total GULP energy -156660.528506 kJ/mol
# GULP energy per Si atom -5595.018875 kJ/mol
# Density = 2.385521 g / cm^3
# Si number density = 23.909627 Si / 1000 Ang^3
#
#
#
# Elastic Constant Matrix: (Units=GPa)
#
#
# Indices 1 2 3 4 5 6 
#
# 1 36.2084 22.6059 1.9300 0.0000 0.6612 0.0000
# 2 22.6059 206.2606 32.4458 0.0000 -22.0912 0.0000
# 3 1.9300 32.4458 55.7219 0.0000 2.0188 0.0000
# 4 0.0000 0.0000 0.0000 19.9816 0.0000 -1.0051
# 5 0.6612 -22.0912 2.0188 0.0000 33.7869 0.0000
# 6 0.0000 0.0000 0.0000 -1.0051 0.0000 20.3729
#
#
#
# Elastic Compliance Matrix: (Units=1/GPa)
#
#
# Indices 1 2 3 4 5 6 
#
# 1 0.029999 -0.003833 0.001308 0.000000 -0.003172 0.000000
# 2 -0.003833 0.006327 -0.003712 0.000000 0.004434 0.000000
# 3 0.001308 -0.003712 0.020195 0.000000 -0.003659 0.000000
# 4 0.000000 0.000000 0.000000 0.050171 0.000000 0.002475
# 5 -0.003172 0.004434 -0.003659 0.000000 0.032777 0.000000
# 6 0.000000 0.000000 0.000000 0.002475 0.000000 0.049207
#
#
# Mechanical properties :
#
#
# Convention : Reuss Voigt Hill
#
# Bulk Modulus (GPa) = 22.70323 45.79492 34.24907
# Shear Modulus (GPa) = 23.16605 30.90889 27.03747
#
# Velocity S-wave (km/s) = 3.11609 3.59937 3.36641
# Velocity P-wave (km/s) = 4.73949 6.03894 5.42824
#
# Compressibility (1/GPa) = 0.04404660
#
# Stress axis : x y z
#
# Youngs Moduli (GPa) = 33.33402 158.04889 49.51720
#
# Poissons Ratio (x) = 0.60585 -0.06476
# Poissons Ratio (y) = 0.12778 0.18381
# Poissons Ratio (z) = -0.04360 0.58668
#
# Static dielectric constant tensor:
#      x y z
#    x 1.979460 0.000000 -0.023080 
#    y 0.000000 1.894020 0.000000 
#    z -0.023080 0.000000 1.881950 
# 
# From -- ./inp_files/197550.got.cif
#   From: 2010.05.17/outbox.cif.g08.bks.cpg/sg12_99_cif.got.tgz:197550.got - 2010.06.03 13:09:07.
