data_PCOD9216176
_publ_section_title
;
Structure prediction by ZEFSAII (Michael W. Deem and Ramdas Pophale) SiO2 
 PCOD9216176
Probable space group: C 2/M
;
_chemical_formula_sum "Si O2"
_cell_formula_units_Z 56
_cell_length_a 9.440859
_cell_length_b 17.694684
_cell_length_c 25.274916
_cell_angle_alpha 90.000000
_cell_angle_beta 137.203655
_cell_angle_gamma 90.000000
_cell_volume 2868.574070
_symmetry_space_group_name_H-M "C 2/M"
_symmetry_group_IT_number 12
_symmetry_cell_setting 'monoclinic'
loop_
_space_group_symop_operation_xyz
x,y,z
-x,y,-z
-x,-y,-z
x,-y,z
1/2+x,1/2+y,z
1/2-x,1/2+y,-z
1/2-x,1/2-y,-z
1/2+x,1/2-y,z
loop_
_atom_site_type_symbol
_atom_site_label
_atom_site_fract_x
_atom_site_fract_y
_atom_site_fract_z
Si Si1 0.067177 0.088638 0.580457
Si Si2 0.990052 0.408495 0.651257
Si Si3 0.330332 0.169290 0.501072
Si Si4 0.091605 0.870123 0.176909
Si Si5 0.145068 0.417285 0.091648
Si Si6 0.206108 0.082164 0.092164
Si Si7 0.917727 0.714902 0.088245
O O1 0.307334 0.115195 0.643010
O O2 0.000000 0.097670 0.500000
O O3 0.892052 0.126899 0.568967
O O4 0.065754 0.000000 0.591973
O O5 0.986066 0.500000 0.647571
O O6 0.212117 0.379790 0.731429
O O7 0.936155 0.374948 0.579060
O O8 0.500000 0.174392 0.500000
O O9 0.250000 0.250000 0.500000
O O10 0.147342 0.908720 0.136750
O O11 0.884987 0.908615 0.142664
O O12 0.032033 0.784077 0.147293
O O13 0.114123 0.500000 0.108662
O O14 0.074200 0.342250 0.102195
O O15 0.000000 0.417561 0.000000
O O16 0.314041 0.158620 0.102118
O O17 0.312902 0.000000 0.115129
O O18 0.000000 0.079057 0.000000
O O19 0.750000 0.750000 0.000000
#
# Coordination Sequence:
#
# PCOD9216176 Si02
#       7
#     8   8   8   8   8   8   8
#     4   8  16  35  64  92 123 164 205 244 301 379
#     4  10  22  43  67  97 134 172 211 262 330 394
#     4  11  22  41  68  99 133 166 213 258 310 388
#     4  12  24  40  67  93 131 170 220 274 336 390
#     4  11  22  39  62  88 124 172 222 275 334 393
#     4  11  22  39  63  89 121 169 223 272 325 398
#     4  12  23  40  60  91 127 167 222 283 333 383
#
# _framework density 19.521895000000001
#
# number of rings (size 3 to 8) (size 9 to 14) (size 15 to 20)
#    0.000    1.286    2.857    5.143    0.000    3.429 
#   10.286    0.000    0.000    1.714    0.000    0.000 
#    0.000    0.000    0.000    0.000    0.000    0.000 
#
# Total GULP energy -156201.799087 kJ/mol
# GULP energy per Si atom -5578.635682 kJ/mol
# Density = 1.947746 g / cm^3
# Si number density = 19.521895 Si / 1000 Ang^3
#
#
#
# Elastic Constant Matrix: (Units=GPa)
#
#
# Indices 1 2 3 4 5 6 
#
# 1 145.1071 55.6866 37.6920 0.0000 28.6020 0.0000
# 2 55.6866 155.8525 39.3595 0.0000 12.4264 0.0000
# 3 37.6920 39.3595 97.0867 -0.0002 26.7768 0.0004
# 4 0.0000 0.0000 -0.0002 1.3706 -0.0001 57.4787
# 5 28.6020 12.4264 26.7768 -0.0001 29.3863 0.0001
# 6 0.0000 0.0000 0.0004 57.4787 0.0001 -60.2705
#
#
#
# Elastic Compliance Matrix: (Units=1/GPa)
#
#
# Indices 1 2 3 4 5 6 
#
# 1 0.009572 -0.002678 -0.000499 0.000000 -0.007730 0.000000
# 2 -0.002678 0.007903 -0.002620 0.000000 0.001652 0.000000
# 3 -0.000499 -0.002620 0.014848 0.000000 -0.011936 0.000000
# 4 0.000000 0.000000 0.000000 0.017798 0.000000 0.016973
# 5 -0.007730 0.001652 -0.011936 0.000000 0.051731 0.000000
# 6 0.000000 0.000000 0.000000 0.016973 0.000000 -0.000405
#
#
# Mechanical properties :
#
#
# Convention : Reuss Voigt Hill
#
# Bulk Modulus (GPa) = 48.23846 73.72472 60.98159
# Shear Modulus (GPa) = 41.68390 11.78448 26.73419
#
# Velocity S-wave (km/s) = 4.62588 2.45960 3.70462
# Velocity P-wave (km/s) = 7.30036 6.77594 7.04303
#
# Compressibility (1/GPa) = 0.02073035
#
# Stress axis : x y z
#
# Youngs Moduli (GPa) = 104.46732 126.53258 67.35007
#
# Poissons Ratio (x) = 0.33885 0.03358
# Poissons Ratio (y) = 0.27976 0.17645
# Poissons Ratio (z) = 0.05209 0.33150
#
# Static dielectric constant tensor:
#      x y z
#    x 1.723590 0.000000 0.024530 
#    y 0.000000 1.703940 0.000000 
#    z 0.024530 0.000000 1.669760 
# 
# From -- ./inp_files/356713.got.cif
#   From: 2010.05.17/outbox.cif.g08.bks.cpg/sg12_179_cif.got.tgz:356713.got - 2010.06.03 13:09:07.
