data_PCOD9216982
_publ_section_title
;
Structure prediction by ZEFSAII (Michael W. Deem and Ramdas Pophale) SiO2 
 PCOD9216982
Probable space group: C 2/M
;
_chemical_formula_sum "Si O2"
_cell_formula_units_Z 52
_cell_length_a 31.047034
_cell_length_b 15.283201
_cell_length_c 9.355023
_cell_angle_alpha 90.000000
_cell_angle_beta 36.086841
_cell_angle_gamma 90.000000
_cell_volume 2614.583640
_symmetry_space_group_name_H-M "C 2/M"
_symmetry_group_IT_number 12
_symmetry_cell_setting 'monoclinic'
loop_
_space_group_symop_operation_xyz
x,y,z
-x,y,-z
-x,-y,-z
x,-y,z
1/2+x,1/2+y,z
1/2-x,1/2+y,-z
1/2-x,1/2-y,-z
1/2+x,1/2-y,z
loop_
_atom_site_type_symbol
_atom_site_label
_atom_site_fract_x
_atom_site_fract_y
_atom_site_fract_z
Si Si1 0.321970 0.334972 0.397639
Si Si2 0.605511 0.000000 0.933821
Si Si3 0.323992 0.663993 0.056543
Si Si4 0.915262 0.664584 0.226824
Si Si5 0.184095 0.602318 0.268020
Si Si6 0.924751 0.000000 0.783852
Si Si7 0.423282 0.500000 0.128127
Si Si8 0.830180 0.356538 0.024915
O O1 0.302657 0.345170 0.281331
O O2 0.363835 0.243698 0.309743
O O3 0.376077 0.414276 0.290498
O O4 0.248796 0.345546 0.686058
O O5 0.593531 0.078054 0.845782
O O6 0.623632 0.076197 0.006356
O O7 0.252796 0.654352 0.149217
O O8 0.360879 0.758082 0.939866
O O9 0.377811 0.585575 0.874492
O O10 0.887089 0.638884 0.460361
O O11 0.000000 0.691516 0.000000
O O12 0.193532 0.500000 0.279601
O O13 0.179504 0.612496 0.111115
O O14 0.000000 0.000000 0.500000
O O15 0.936105 0.000000 0.923711
O O16 0.500000 0.500000 0.000000
#
# Coordination Sequence:
#
# PCOD9216982 Si02
#       8
#     8   4   8   8   8   4   4   8
#     4  11  23  42  71  99 130 174 228 278 333 404
#     4  12  24  43  70  94 135 176 223 276 335 401
#     4  11  22  43  69  99 134 173 225 272 328 406
#     4  12  26  46  69  97 134 184 230 274 336 408
#     4  12  25  42  68 100 135 173 220 283 338 395
#     4  10  24  44  67  96 135 177 214 263 339 402
#     4  10  23  41  62  96 134 171 219 271 331 397
#     4  12  24  43  67 106 132 167 225 288 340 391
#
# _framework density 19.888444
#
# number of rings (size 3 to 8) (size 9 to 14) (size 15 to 20)
#    0.000    0.615    5.385    3.000    0.000    1.231 
#    5.538    1.538    0.000    0.000    0.000    0.000 
#    0.000    0.000    0.000    0.000    0.000    0.000 
#
# Total GULP energy -144893.441335 kJ/mol
# GULP energy per Si atom -5572.824667 kJ/mol
# Density = 1.984318 g / cm^3
# Si number density = 19.888444 Si / 1000 Ang^3
#
#
#
# Elastic Constant Matrix: (Units=GPa)
#
#
# Indices 1 2 3 4 5 6 
#
# 1 60.2960 -8.5691 17.0129 0.0000 13.0443 0.0000
# 2 -8.5691 120.8377 5.4242 0.0000 -7.2900 0.0000
# 3 17.0129 5.4242 79.5659 0.0000 6.4136 0.0000
# 4 0.0000 0.0000 0.0000 11.1020 0.0000 7.9675
# 5 13.0443 -7.2900 6.4136 0.0000 19.2739 0.0000
# 6 0.0000 0.0000 0.0000 7.9675 0.0000 29.6538
#
#
#
# Elastic Compliance Matrix: (Units=1/GPa)
#
#
# Indices 1 2 3 4 5 6 
#
# 1 0.020330 0.000853 -0.003414 0.000000 -0.012301 0.000000
# 2 0.000853 0.008562 -0.001008 0.000000 0.002997 0.000000
# 3 -0.003414 -0.001008 0.013575 0.000000 -0.002588 0.000000
# 4 0.000000 0.000000 0.000000 0.111592 0.000000 -0.029983
# 5 -0.012301 0.002997 -0.002588 0.000000 0.062203 0.000000
# 6 0.000000 0.000000 0.000000 -0.029983 0.000000 0.041778
#
#
# Mechanical properties :
#
#
# Convention : Reuss Voigt Hill
#
# Bulk Modulus (GPa) = 28.30373 32.04838 30.17605
# Shear Modulus (GPa) = 18.05345 28.46138 23.25742
#
# Velocity S-wave (km/s) = 3.01613 3.78703 3.42335
# Velocity P-wave (km/s) = 5.13727 5.93895 5.55260
#
# Compressibility (1/GPa) = 0.03533103
#
# Stress axis : x y z
#
# Youngs Moduli (GPa) = 49.18748 116.79443 73.66248
#
# Poissons Ratio (x) = -0.09961 0.25146
# Poissons Ratio (y) = -0.04195 0.07422
# Poissons Ratio (z) = 0.16791 0.11768
#
# Static dielectric constant tensor:
#      x y z
#    x 1.689460 0.000000 -0.009060 
#    y 0.000000 1.716660 0.000000 
#    z -0.009060 0.000000 1.689600 
# 
# From -- ./inp_files/111932.got.cif
#   From: 2010.05.17/outbox.cif.g08.bks.cpg/sg12_56_cif.got.tgz:111932.got - 2010.06.03 13:09:07.
