data_PCOD9216587
_publ_section_title
;
Structure prediction by ZEFSAII (Michael W. Deem and Ramdas Pophale) SiO2 
 PCOD9216587
Probable space group: C 2/M
;
_chemical_formula_sum "Si O2"
_cell_formula_units_Z 26
_cell_length_a 10.007728
_cell_length_b 22.138841
_cell_length_c 9.552286
_cell_angle_alpha 90.000000
_cell_angle_beta 30.247311
_cell_angle_gamma 90.000000
_cell_volume 1066.101291
_symmetry_space_group_name_H-M "C 2/M"
_symmetry_group_IT_number 12
_symmetry_cell_setting 'monoclinic'
loop_
_space_group_symop_operation_xyz
x,y,z
-x,y,-z
-x,-y,-z
x,-y,z
1/2+x,1/2+y,z
1/2-x,1/2+y,-z
1/2-x,1/2-y,-z
1/2+x,1/2-y,z
loop_
_atom_site_type_symbol
_atom_site_label
_atom_site_fract_x
_atom_site_fract_y
_atom_site_fract_z
Si Si1 0.138741 0.598254 0.238833
Si Si2 0.231406 0.738245 0.182655
Si Si3 0.228194 0.570101 0.677414
Si Si4 0.500000 0.500000 0.000000
O O1 0.226783 0.665453 0.194288
O O2 0.383754 0.553348 0.997147
O O3 0.000000 0.568948 0.500000
O O4 0.912806 0.601671 0.325727
O O5 0.000000 0.758164 0.500000
O O6 0.500000 0.764951 0.000000
O O7 0.250000 0.750000 0.000000
O O8 0.500000 0.594081 0.500000
O O9 0.276956 0.500000 0.592964
O O10 0.000000 0.570512 0.000000
#
# Coordination Sequence:
#
# PCOD9216587 Si02
#       4
#     8   8   8   2
#     4  11  25  41  70 103 139 187 238 292 359 431
#     4  11  25  48  75 107 142 188 248 307 364 429
#     4  10  23  38  59  92 138 180 221 271 340 418
#     4  12  22  40  72 104 148 176 244 282 368 428
#
# _framework density 24.387926
#
# number of rings (size 3 to 8) (size 9 to 14) (size 15 to 20)
#    0.000    1.231    3.077    1.385    4.308    1.231 
#    0.000    3.077    0.000    0.000    0.000    0.000 
#    0.000    0.000    0.000    0.000    0.000    0.000 
#
# Total GULP energy -72401.594366 kJ/mol
# GULP energy per Si atom -5569.353413 kJ/mol
# Density = 2.433242 g / cm^3
# Si number density = 24.387926 Si / 1000 Ang^3
#
#
#
# Elastic Constant Matrix: (Units=GPa)
#
#
# Indices 1 2 3 4 5 6 
#
# 1 199.5449 -23.8225 78.2917 0.0000 -18.2787 0.0000
# 2 -23.8225 66.9885 15.7264 0.0000 -0.8088 0.0000
# 3 78.2917 15.7264 173.8729 0.0000 -4.0840 0.0000
# 4 0.0000 0.0000 0.0000 36.2755 0.0000 18.2589
# 5 -18.2787 -0.8088 -4.0840 0.0000 53.4222 0.0000
# 6 0.0000 0.0000 0.0000 18.2589 0.0000 47.9041
#
#
#
# Elastic Compliance Matrix: (Units=1/GPa)
#
#
# Indices 1 2 3 4 5 6 
#
# 1 0.006919 0.003276 -0.003361 0.000000 0.002160 0.000000
# 2 0.003276 0.016803 -0.002968 0.000000 0.001148 0.000000
# 3 -0.003361 -0.002968 0.007519 0.000000 -0.000620 0.000000
# 4 0.000000 0.000000 0.000000 0.034111 0.000000 -0.013002
# 5 0.002160 0.001148 -0.000620 0.000000 0.019428 0.000000
# 6 0.000000 0.000000 0.000000 -0.013002 0.000000 0.025831
#
#
# Mechanical properties :
#
#
# Convention : Reuss Voigt Hill
#
# Bulk Modulus (GPa) = 39.78564 64.53305 52.15935
# Shear Modulus (GPa) = 39.96955 52.20110 46.08532
#
# Velocity S-wave (km/s) = 4.05273 4.63152 4.35176
# Velocity P-wave (km/s) = 6.18455 7.42427 6.83258
#
# Compressibility (1/GPa) = 0.02513470
#
# Stress axis : x y z
#
# Youngs Moduli (GPa) = 144.52847 59.51156 133.00318
#
# Poissons Ratio (x) = -0.19494 0.44703
# Poissons Ratio (y) = -0.47343 0.39473
# Poissons Ratio (z) = 0.48577 0.17662
#
# Static dielectric constant tensor:
#      x y z
#    x 2.136650 0.000000 0.096790 
#    y 0.000000 1.897230 0.000000 
#    z 0.096790 0.000000 2.318810 
# 
# From -- ./inp_files/40011.got.cif
#   From: 2010.05.17/outbox.cif.g08.bks.cpg/sg12_21_cif.got.tgz:40011.got - 2010.06.03 13:09:07.
