data_PCOD9216985
_publ_section_title
;
Structure prediction by ZEFSAII (Michael W. Deem and Ramdas Pophale) SiO2 
 PCOD9216985
Probable space group: C 2/M
;
_chemical_formula_sum "Si O2"
_cell_formula_units_Z 42
_cell_length_a 17.057963
_cell_length_b 16.552682
_cell_length_c 19.566632
_cell_angle_alpha 90.000000
_cell_angle_beta 157.331008
_cell_angle_gamma 90.000000
_cell_volume 2129.270784
_symmetry_space_group_name_H-M "C 2/M"
_symmetry_group_IT_number 12
_symmetry_cell_setting 'monoclinic'
loop_
_space_group_symop_operation_xyz
x,y,z
-x,y,-z
-x,-y,-z
x,-y,z
1/2+x,1/2+y,z
1/2-x,1/2+y,-z
1/2-x,1/2-y,-z
1/2+x,1/2-y,z
loop_
_atom_site_type_symbol
_atom_site_label
_atom_site_fract_x
_atom_site_fract_y
_atom_site_fract_z
Si Si1 0.819067 0.682527 0.407415
Si Si2 0.241188 0.652913 0.993486
Si Si3 0.000000 0.000000 0.500000
Si Si4 0.547163 0.403709 0.961718
Si Si5 0.218734 0.369913 0.347261
Si Si6 0.838806 0.095250 0.599518
O O1 0.640144 0.629048 0.232126
O O2 0.764228 0.776502 0.367104
O O3 0.825142 0.647054 0.488898
O O4 0.000000 0.671640 0.500000
O O5 0.025871 0.622016 0.848279
O O6 0.250000 0.750000 0.000000
O O7 0.265855 0.625494 0.934234
O O8 0.433362 0.621040 0.192628
O O9 0.834349 0.929440 0.389482
O O10 0.554512 0.500000 0.969912
O O11 0.500000 0.373250 0.000000
O O12 0.304871 0.388638 0.492347
O O13 0.813921 0.000000 0.593199
#
# Coordination Sequence:
#
# PCOD9216985 Si02
#       6
#     8   8   2   8   8   8
#     4  11  23  41  66  96 135 171 226 285 335 418
#     4  11  23  43  71  99 132 181 230 285 343 413
#     4  12  28  48  70 104 142 190 236 292 346 408
#     4  10  23  41  63 100 138 169 221 279 347 419
#     4  12  25  48  68  97 140 183 232 287 346 406
#     4  11  25  43  69 102 134 178 232 282 354 424
#
# _framework density 19.725062000000001
#
# number of rings (size 3 to 8) (size 9 to 14) (size 15 to 20)
#    0.000    0.952    5.714    2.857    5.333    1.524 
#    0.000    1.905    0.000    0.000    0.000    0.000 
#    0.000    0.000    0.000    0.000    0.000    0.000 
#
# Total GULP energy -116930.763893 kJ/mol
# GULP energy per Si atom -5568.131614 kJ/mol
# Density = 1.968017 g / cm^3
# Si number density = 19.725062 Si / 1000 Ang^3
#
#
#
# Elastic Constant Matrix: (Units=GPa)
#
#
# Indices 1 2 3 4 5 6 
#
# 1 72.5539 40.9845 46.6217 0.0043 39.9186 -0.0130
# 2 40.9845 -96.7541 -27.5366 -0.0052 29.5348 0.0033
# 3 46.6217 -27.5366 82.6094 0.0019 29.9637 0.0233
# 4 0.0043 -0.0052 0.0019 38.7856 0.0068 12.7890
# 5 39.9186 29.5348 29.9637 0.0068 47.4106 -0.0299
# 6 -0.0130 0.0033 0.0233 12.7890 -0.0299 56.4660
#
#
#
# Elastic Compliance Matrix: (Units=1/GPa)
#
#
# Indices 1 2 3 4 5 6 
#
# 1 0.025981 0.005529 -0.004717 0.000004 -0.022339 -0.000005
# 2 0.005529 -0.005549 -0.005884 -0.000004 0.002521 0.000006
# 3 -0.004717 -0.005884 0.013020 0.000001 -0.000591 -0.000007
# 4 0.000004 -0.000004 0.000001 0.027864 -0.000010 -0.006311
# 5 -0.022339 0.002521 -0.000591 -0.000010 0.038705 0.000018
# 6 -0.000005 0.000006 -0.000007 -0.006311 0.000018 0.019139
#
#
# Mechanical properties :
#
#
# Convention : Reuss Voigt Hill
#
# Bulk Modulus (GPa) = 42.90480 19.83872 31.37176
# Shear Modulus (GPa) = 36.47651 28.42175 32.44913
#
# Velocity S-wave (km/s) = 4.30495 3.80003 4.06035
# Velocity P-wave (km/s) = 6.81974 5.41600 6.15800
#
# Compressibility (1/GPa) = 0.02330742
#
# Stress axis : x y z
#
# Youngs Moduli (GPa) = 38.48902 -180.20500 76.80226
#
# Poissons Ratio (x) = 0.99637 0.36230
# Poissons Ratio (y) = -0.21281 0.45194
# Poissons Ratio (z) = 0.18156 -1.06040
#
# Static dielectric constant tensor:
#      x y z
#    x 1.756540 -0.000030 0.051100 
#    y -0.000030 1.662670 0.000050 
#    z 0.051100 0.000050 1.614940 
# 
# From -- ./inp_files/317432.got.cif
#   From: 2010.05.17/outbox.cif.g08.bks.cpg/sg12_159_cif.got.tgz:317432.got - 2010.06.03 13:09:07.
