data_PCOD9216857
_publ_section_title
;
Structure prediction by ZEFSAII (Michael W. Deem and Ramdas Pophale) SiO2 
 PCOD9216857
Probable space group: C 2/M
;
_chemical_formula_sum "Si O2"
_cell_formula_units_Z 24
_cell_length_a 8.927911
_cell_length_b 23.434641
_cell_length_c 5.141481
_cell_angle_alpha 90.000000
_cell_angle_beta 89.157436
_cell_angle_gamma 90.000000
_cell_volume 1075.596628
_symmetry_space_group_name_H-M "C 2/M"
_symmetry_group_IT_number 12
_symmetry_cell_setting 'monoclinic'
loop_
_space_group_symop_operation_xyz
x,y,z
-x,y,-z
-x,-y,-z
x,-y,z
1/2+x,1/2+y,z
1/2-x,1/2+y,-z
1/2-x,1/2-y,-z
1/2+x,1/2-y,z
loop_
_atom_site_type_symbol
_atom_site_label
_atom_site_fract_x
_atom_site_fract_y
_atom_site_fract_z
Si Si1 0.167348 0.157871 0.078303
Si Si2 0.604953 0.065769 0.743386
Si Si3 0.604042 0.218464 0.252728
O O1 0.258502 0.108727 0.219343
O O2 0.159527 0.215980 0.249243
O O3 0.258858 0.177156 0.817931
O O4 0.000000 0.141708 0.000000
O O5 0.500000 0.078540 0.500000
O O6 0.656061 0.000000 0.717444
O O7 0.500000 0.070033 0.000000
O O8 0.500000 0.207030 0.500000
O O9 0.500000 0.213749 0.000000
#
# Coordination Sequence:
#
# PCOD9216857 Si02
#       3
#     8   8   8
#     4  10  23  40  67 100 132 170 220 276 324 375
#     4  10  23  44  68  93 126 173 221 265 326 397
#     4  10  23  42  62  91 136 182 215 253 322 402
#
# _framework density 22.313195
#
# number of rings (size 3 to 8) (size 9 to 14) (size 15 to 20)
#    0.000    2.000    0.000    1.000    0.000   24.667 
#    0.000    0.000    0.000    7.000    0.000    0.000 
#    0.000    0.000    0.000    0.000    0.000    0.000 
#
# Total GULP energy -67264.621835 kJ/mol
# GULP energy per Si atom -5605.385153 kJ/mol
# Density = 2.226241 g / cm^3
# Si number density = 22.313195 Si / 1000 Ang^3
#
#
#
# Elastic Constant Matrix: (Units=GPa)
#
#
# Indices 1 2 3 4 5 6 
#
# 1 208.6114 114.9099 84.2392 0.0000 13.0077 0.0000
# 2 114.9099 188.9245 58.6564 0.0000 21.6862 0.0000
# 3 84.2392 58.6564 180.3977 0.0000 -7.0198 0.0000
# 4 0.0000 0.0000 0.0000 -16.2334 0.0000 32.5388
# 5 13.0077 21.6862 -7.0198 0.0000 42.3864 0.0000
# 6 0.0000 0.0000 0.0000 32.5388 0.0000 17.4949
#
#
#
# Elastic Compliance Matrix: (Units=1/GPa)
#
#
# Indices 1 2 3 4 5 6 
#
# 1 0.008079 -0.004047 -0.002489 0.000000 -0.000821 0.000000
# 2 -0.004047 0.008429 -0.000977 0.000000 -0.003232 0.000000
# 3 -0.002489 -0.000977 0.007118 0.000000 0.002442 0.000000
# 4 0.000000 0.000000 0.000000 -0.013029 0.000000 0.024232
# 5 -0.000821 -0.003232 0.002442 0.000000 0.025903 0.000000
# 6 0.000000 0.000000 0.000000 0.024232 0.000000 0.012089
#
#
# Mechanical properties :
#
#
# Convention : Reuss Voigt Hill
#
# Bulk Modulus (GPa) = 116.26149 121.50497 118.88323
# Shear Modulus (GPa) = 75.21000 30.07144 52.64072
#
# Velocity S-wave (km/s) = 5.81203 3.67508 4.86240
# Velocity P-wave (km/s) = 9.86190 8.51944 9.21515
#
# Compressibility (1/GPa) = 0.00860130
#
# Stress axis : x y z
#
# Youngs Moduli (GPa) = 123.77881 118.63995 140.48889
#
# Poissons Ratio (x) = 0.48013 0.34963
# Poissons Ratio (y) = 0.50093 0.13721
# Poissons Ratio (z) = 0.30804 0.11587
#
# Static dielectric constant tensor:
#      x y z
#    x 1.842750 0.000000 0.044110 
#    y 0.000000 1.866370 0.000000 
#    z 0.044110 0.000000 1.879020 
# 
# From -- ./inp_files/2827.got.cif
#   From: 2010.05.17/outbox.cif.g08.bks.cpg/sg12_2_cif.got.tgz:2827.got - 2010.06.03 13:09:07.
