data_PCOD9216329
_publ_section_title
;
Structure prediction by ZEFSAII (Michael W. Deem and Ramdas Pophale) SiO2 
 PCOD9216329
Probable space group: C 2/M
;
_chemical_formula_sum "Si O2"
_cell_formula_units_Z 44
_cell_length_a 9.633933
_cell_length_b 18.897249
_cell_length_c 17.031630
_cell_angle_alpha 90.000000
_cell_angle_beta 135.105100
_cell_angle_gamma 90.000000
_cell_volume 2188.493776
_symmetry_space_group_name_H-M "C 2/M"
_symmetry_group_IT_number 12
_symmetry_cell_setting 'monoclinic'
loop_
_space_group_symop_operation_xyz
x,y,z
-x,y,-z
-x,-y,-z
x,-y,z
1/2+x,1/2+y,z
1/2-x,1/2+y,-z
1/2-x,1/2-y,-z
1/2+x,1/2-y,z
loop_
_atom_site_type_symbol
_atom_site_label
_atom_site_fract_x
_atom_site_fract_y
_atom_site_fract_z
Si Si1 0.478431 0.262017 0.578115
Si Si2 0.589140 0.500000 0.280403
Si Si3 0.828892 0.175798 0.062392
Si Si4 0.693730 0.372297 0.775426
Si Si5 0.093774 0.584384 0.849397
Si Si6 0.771782 0.364947 0.265102
O O1 0.500000 0.293181 0.500000
O O2 0.250000 0.250000 0.500000
O O3 0.571665 0.313769 0.679428
O O4 0.594657 0.188030 0.631349
O O5 0.446227 0.438368 0.262024
O O6 0.719041 0.437071 0.288873
O O7 0.747250 0.158954 0.116152
O O8 0.064316 0.173578 0.163742
O O9 0.750000 0.250000 0.000000
O O10 0.758652 0.115305 0.974187
O O11 0.885047 0.394143 0.802992
O O12 0.110584 0.500000 0.851663
O O13 0.124772 0.617667 0.776146
#
# Coordination Sequence:
#
# PCOD9216329 Si02
#       6
#     8   4   8   8   8   8
#     4  12  25  47  75  99 128 178 234 290 354 411
#     4  10  22  44  68  96 137 184 215 284 354 398
#     4  11  24  41  66 102 139 183 226 271 338 415
#     4  11  24  44  68  99 142 176 232 289 340 407
#     4  12  24  39  68 102 141 185 224 268 336 412
#     4  11  24  44  69 100 141 177 231 289 339 414
#
# _framework density 20.105152
#
# number of rings (size 3 to 8) (size 9 to 14) (size 15 to 20)
#    0.000    0.727    1.818    6.545    5.091    2.909 
#    0.000    4.545    0.000    0.000    0.000    0.000 
#    0.000    0.000    0.000    0.000    0.000    0.000 
#
# Total GULP energy -122612.751102 kJ/mol
# GULP energy per Si atom -5573.306868 kJ/mol
# Density = 2.005939 g / cm^3
# Si number density = 20.105152 Si / 1000 Ang^3
#
#
#
# Elastic Constant Matrix: (Units=GPa)
#
#
# Indices 1 2 3 4 5 6 
#
# 1 119.7605 20.1498 5.4941 0.0000 1.8086 0.0000
# 2 20.1498 133.3908 31.9897 0.0000 5.7788 0.0000
# 3 5.4941 31.9897 53.2752 0.0000 9.9674 0.0000
# 4 0.0000 0.0000 0.0000 8.0676 0.0000 2.0486
# 5 1.8086 5.7788 9.9674 0.0000 34.2407 0.0000
# 6 0.0000 0.0000 0.0000 2.0486 0.0000 46.0147
#
#
#
# Elastic Compliance Matrix: (Units=1/GPa)
#
#
# Indices 1 2 3 4 5 6 
#
# 1 0.008570 -0.001265 -0.000084 0.000000 -0.000215 0.000000
# 2 -0.001265 0.008945 -0.005257 0.000000 0.000087 0.000000
# 3 -0.000084 -0.005257 0.023023 0.000000 -0.005810 0.000000
# 4 0.000000 0.000000 0.000000 0.125370 0.000000 -0.005582
# 5 -0.000215 0.000087 -0.005810 0.000000 0.030893 0.000000
# 6 0.000000 0.000000 0.000000 -0.005582 0.000000 0.021981
#
#
# Mechanical properties :
#
#
# Convention : Reuss Voigt Hill
#
# Bulk Modulus (GPa) = 36.59585 46.85485 41.72535
# Shear Modulus (GPa) = 20.73814 34.25079 27.49447
#
# Velocity S-wave (km/s) = 3.21516 4.13193 3.70203
# Velocity P-wave (km/s) = 5.65904 6.79111 6.25076
#
# Compressibility (1/GPa) = 0.02732550
#
# Stress axis : x y z
#
# Youngs Moduli (GPa) = 116.68683 111.79695 43.43535
#
# Poissons Ratio (x) = 0.14144 0.00365
# Poissons Ratio (y) = 0.14762 0.22834
# Poissons Ratio (z) = 0.00980 0.58771
#
# Static dielectric constant tensor:
#      x y z
#    x 1.704880 0.000000 -0.000740 
#    y 0.000000 1.681980 0.000000 
#    z -0.000740 0.000000 1.695110 
# 
# From -- ./inp_files/257308.got.cif
#   From: 2010.05.17/outbox.cif.g08.bks.cpg/sg12_129_cif.got.tgz:257308.got - 2010.06.03 13:09:07.
