data_PCOD9216065
_publ_section_title
;
Structure prediction by ZEFSAII (Michael W. Deem and Ramdas Pophale) SiO2 
 PCOD9216065
Probable space group: C 2/M
;
_chemical_formula_sum "Si O2"
_cell_formula_units_Z 48
_cell_length_a 11.829902
_cell_length_b 26.456307
_cell_length_c 14.630425
_cell_angle_alpha 90.000000
_cell_angle_beta 30.806797
_cell_angle_gamma 90.000000
_cell_volume 2345.092857
_symmetry_space_group_name_H-M "C 2/M"
_symmetry_group_IT_number 12
_symmetry_cell_setting 'monoclinic'
loop_
_space_group_symop_operation_xyz
x,y,z
-x,y,-z
-x,-y,-z
x,-y,z
1/2+x,1/2+y,z
1/2-x,1/2+y,-z
1/2-x,1/2-y,-z
1/2+x,1/2-y,z
loop_
_atom_site_type_symbol
_atom_site_label
_atom_site_fract_x
_atom_site_fract_y
_atom_site_fract_z
Si Si1 0.259980 0.154832 0.800088
Si Si2 0.990360 0.256592 0.287040
Si Si3 0.500000 0.909279 0.500000
Si Si4 0.911245 0.586689 0.860733
Si Si5 0.772003 0.000000 0.605963
Si Si6 0.308446 0.000000 0.539287
Si Si7 0.568840 0.500000 0.057076
Si Si8 0.118575 0.314347 0.013267
O O1 0.363971 0.209912 0.743224
O O2 0.310329 0.127646 0.669049
O O3 0.390031 0.122206 0.786285
O O4 0.000000 0.155310 0.000000
O O5 0.130486 0.205893 0.169869
O O6 0.750000 0.250000 0.500000
O O7 0.001533 0.285179 0.180263
O O8 0.443961 0.948587 0.457770
O O9 0.122554 0.550132 0.725438
O O10 0.709496 0.548397 0.987404
O O11 0.888510 0.626361 0.958434
O O12 0.000000 0.000000 0.500000
O O13 0.818979 0.000000 0.465665
O O14 0.151270 0.000000 0.733819
O O15 0.500000 0.500000 0.000000
O O16 0.000000 0.304145 0.000000
#
# Coordination Sequence:
#
# PCOD9216065 Si02
#       8
#     8   8   4   8   4   4   4   8
#     4  11  22  39  66  98 133 172 218 283 358 410
#     4  10  24  44  68  99 139 175 227 294 353 429
#     4  11  22  36  64 102 136 168 224 287 358 422
#     4  10  22  43  61  92 132 177 229 278 343 421
#     4  11  24  44  65  89 144 187 240 291 340 426
#     4  11  22  37  60 100 137 174 228 287 352 421
#     4  11  22  37  69  98 135 174 216 289 362 415
#     4  10  23  45  68  95 133 183 235 284 349 419
#
# _framework density 20.468271999999999
#
# number of rings (size 3 to 8) (size 9 to 14) (size 15 to 20)
#    0.000    1.500    1.667    3.000    2.333    8.667 
#    6.000    2.917    0.000    0.000    0.000    0.000 
#    0.000    0.000    0.000    0.000    0.000    0.000 
#
# Total GULP energy -133930.661395 kJ/mol
# GULP energy per Si atom -5580.444225 kJ/mol
# Density = 2.042169 g / cm^3
# Si number density = 20.468272 Si / 1000 Ang^3
#
#
#
# Elastic Constant Matrix: (Units=GPa)
#
#
# Indices 1 2 3 4 5 6 
#
# 1 124.9876 44.2678 53.0800 0.0005 -8.4719 -0.0004
# 2 44.2678 113.5283 62.0046 -0.0002 -7.0032 -0.0003
# 3 53.0800 62.0046 167.9163 0.0003 -10.3310 -0.0006
# 4 0.0005 -0.0002 0.0003 39.4659 -0.0005 18.3198
# 5 -8.4719 -7.0032 -10.3310 -0.0005 31.0642 0.0006
# 6 -0.0004 -0.0003 -0.0006 18.3198 0.0006 28.4062
#
#
#
# Elastic Compliance Matrix: (Units=1/GPa)
#
#
# Indices 1 2 3 4 5 6 
#
# 1 0.009913 -0.002648 -0.002069 0.000000 0.001419 0.000000
# 2 -0.002648 0.011782 -0.003465 0.000000 0.000781 0.000000
# 3 -0.002069 -0.003465 0.007969 0.000000 0.001305 0.000000
# 4 0.000000 0.000000 0.000000 0.036165 0.000001 -0.023324
# 5 0.001419 0.000781 0.001305 0.000001 0.033188 -0.000001
# 6 0.000000 0.000000 0.000000 -0.023324 -0.000001 0.050246
#
#
# Mechanical properties :
#
#
# Convention : Reuss Voigt Hill
#
# Bulk Modulus (GPa) = 75.18743 80.57077 77.87910
# Shear Modulus (GPa) = 29.40124 36.25924 32.83024
#
# Velocity S-wave (km/s) = 3.79414 4.21347 4.00929
# Velocity P-wave (km/s) = 7.48381 7.94483 7.71776
#
# Compressibility (1/GPa) = 0.01330010
#
# Stress axis : x y z
#
# Youngs Moduli (GPa) = 100.87391 84.87655 125.48422
#
# Poissons Ratio (x) = 0.22477 0.25957
# Poissons Ratio (y) = 0.26714 0.43485
# Poissons Ratio (z) = 0.20866 0.29413
#
# Static dielectric constant tensor:
#      x y z
#    x 1.720240 0.000000 0.014370 
#    y 0.000000 1.787390 0.000000 
#    z 0.014370 0.000000 1.699280 
# 
# From -- ./inp_files/209358.got.cif
#   From: 2010.05.17/outbox.cif.g08.bks.cpg/sg12_105_cif.got.tgz:209358.got - 2010.06.03 13:09:07.
