data_PCOD9216159
_publ_section_title
;
Structure prediction by ZEFSAII (Michael W. Deem and Ramdas Pophale) SiO2 
 PCOD9216159
Probable space group: C 2/M
;
_chemical_formula_sum "Si O2"
_cell_formula_units_Z 44
_cell_length_a 19.364654
_cell_length_b 28.585197
_cell_length_c 5.398327
_cell_angle_alpha 90.000000
_cell_angle_beta 137.716158
_cell_angle_gamma 90.000000
_cell_volume 2010.474743
_symmetry_space_group_name_H-M "C 2/M"
_symmetry_group_IT_number 12
_symmetry_cell_setting 'monoclinic'
loop_
_space_group_symop_operation_xyz
x,y,z
-x,y,-z
-x,-y,-z
x,-y,z
1/2+x,1/2+y,z
1/2-x,1/2+y,-z
1/2-x,1/2-y,-z
1/2+x,1/2-y,z
loop_
_atom_site_type_symbol
_atom_site_label
_atom_site_fract_x
_atom_site_fract_y
_atom_site_fract_z
Si Si1 0.069669 0.396282 0.436814
Si Si2 0.432334 0.555386 0.069467
Si Si3 0.233462 0.135239 0.284034
Si Si4 0.753165 0.707135 0.698716
Si Si5 0.565970 0.000000 0.426159
Si Si6 0.386219 0.279854 0.279505
O O1 0.173805 0.368227 0.663850
O O2 0.115972 0.449384 0.565607
O O3 0.000000 0.388800 0.500000
O O4 0.000000 0.392178 0.000000
O O5 0.500000 0.561749 0.500000
O O6 0.403887 0.500000 0.980117
O O7 0.500000 0.565792 0.000000
O O8 0.333700 0.589413 0.834838
O O9 0.282330 0.158092 0.659793
O O10 0.159044 0.176612 0.994909
O O11 0.750000 0.750000 0.500000
O O12 0.640046 0.704552 0.513618
O O13 0.831942 0.729323 0.103134
O O14 0.500000 0.000000 0.500000
O O15 0.500000 0.000000 0.000000
O O16 0.500000 0.273484 0.500000
#
# Coordination Sequence:
#
# PCOD9216159 Si02
#       6
#     8   8   8   8   4   8
#     4  10  23  41  61  93 130 175 221 279 328 388
#     4  10  24  44  67 103 144 184 228 280 340 400
#     4  11  24  38  68  96 134 174 235 271 345 403
#     4   9  22  43  60  96 125 167 225 274 338 421
#     4   8  16  36  60  80 118 166 220 258 320 382
#     4  10  22  43  67  93 131 173 221 281 344 414
#
# _framework density 21.885377999999999
#
# number of rings (size 3 to 8) (size 9 to 14) (size 15 to 20)
#    0.000    2.182    0.000    0.545    8.909    2.182 
#    9.818    0.000    0.000    0.000    0.000    0.000 
#    0.000    0.000    0.000    0.000    0.000    0.000 
#
# Total GULP energy -122519.922268 kJ/mol
# GULP energy per Si atom -5569.087376 kJ/mol
# Density = 2.183557 g / cm^3
# Si number density = 21.885378 Si / 1000 Ang^3
#
#
#
# Elastic Constant Matrix: (Units=GPa)
#
#
# Indices 1 2 3 4 5 6 
#
# 1 195.9294 69.0115 57.1916 0.0000 0.5673 0.0000
# 2 69.0115 123.6363 41.4422 0.0000 14.0874 0.0000
# 3 57.1916 41.4422 42.3960 0.0000 -1.9228 0.0000
# 4 0.0000 0.0000 0.0000 23.0814 0.0000 -6.5287
# 5 0.5673 14.0874 -1.9228 0.0000 43.1031 0.0000
# 6 0.0000 0.0000 0.0000 -6.5287 0.0000 27.7264
#
#
#
# Elastic Compliance Matrix: (Units=1/GPa)
#
#
# Indices 1 2 3 4 5 6 
#
# 1 0.008569 -0.001325 -0.010271 0.000000 -0.000138 0.000000
# 2 -0.001325 0.013158 -0.011292 0.000000 -0.004787 0.000000
# 3 -0.010271 -0.011292 0.048753 0.000000 0.006001 0.000000
# 4 0.000000 0.000000 0.000000 0.046416 0.000000 0.010930
# 5 -0.000138 -0.004787 0.006001 0.000000 0.025034 0.000000
# 6 0.000000 0.000000 0.000000 0.010930 0.000000 0.038640
#
#
# Mechanical properties :
#
#
# Convention : Reuss Voigt Hill
#
# Bulk Modulus (GPa) = 40.47875 77.47249 58.97562
# Shear Modulus (GPa) = 21.31460 31.73661 26.52561
#
# Velocity S-wave (km/s) = 3.12415 3.81219 3.48519
# Velocity P-wave (km/s) = 5.61692 7.40629 6.57278
#
# Compressibility (1/GPa) = 0.02470432
#
# Stress axis : x y z
#
# Youngs Moduli (GPa) = 116.70176 75.99850 20.51162
#
# Poissons Ratio (x) = 0.10066 0.21067
# Poissons Ratio (y) = 0.15458 0.23163
# Poissons Ratio (z) = 1.19862 0.85821
#
# Static dielectric constant tensor:
#      x y z
#    x 1.792490 0.000000 -0.093170 
#    y 0.000000 1.839430 0.000000 
#    z -0.093170 0.000000 1.776070 
# 
# From -- ./inp_files/18221.got.cif
#   From: 2010.05.17/outbox.cif.g08.bks.cpg/sg12_10_cif.got.tgz:18221.got - 2010.06.03 13:09:07.
