data_PCOD9216301
_publ_section_title
;
Structure prediction by ZEFSAII (Michael W. Deem and Ramdas Pophale) SiO2 
 PCOD9216301
Probable space group: C 2/M
;
_chemical_formula_sum "Si O2"
_cell_formula_units_Z 50
_cell_length_a 24.444746
_cell_length_b 12.096306
_cell_length_c 9.613761
_cell_angle_alpha 90.000000
_cell_angle_beta 116.003270
_cell_angle_gamma 90.000000
_cell_volume 2554.934154
_symmetry_space_group_name_H-M "C 2/M"
_symmetry_group_IT_number 12
_symmetry_cell_setting 'monoclinic'
loop_
_space_group_symop_operation_xyz
x,y,z
-x,y,-z
-x,-y,-z
x,-y,z
1/2+x,1/2+y,z
1/2-x,1/2+y,-z
1/2-x,1/2-y,-z
1/2+x,1/2-y,z
loop_
_atom_site_type_symbol
_atom_site_label
_atom_site_fract_x
_atom_site_fract_y
_atom_site_fract_z
Si Si1 0.767664 0.304438 0.164599
Si Si2 0.963494 0.128891 0.597389
Si Si3 0.000000 0.500000 0.500000
Si Si4 0.908043 0.500000 0.645949
Si Si5 0.642699 0.000000 0.695316
Si Si6 0.659244 0.374195 0.227327
Si Si7 0.553569 0.783687 0.162960
Si Si8 0.318469 0.626601 0.433203
O O1 0.822556 0.391725 0.213332
O O2 0.709315 0.364749 0.165115
O O3 0.786138 0.210309 0.295123
O O4 0.750000 0.250000 0.000000
O O5 0.972488 0.211322 0.736444
O O6 0.891264 0.132503 0.487481
O O7 0.000000 0.163919 0.500000
O O8 0.979356 0.000000 0.645908
O O9 0.969075 0.500000 0.619956
O O10 0.929226 0.500000 0.356533
O O11 0.854360 0.500000 0.471641
O O12 0.910801 0.389194 0.737900
O O13 0.636903 0.500000 0.216011
O O14 0.602378 0.294605 0.141889
O O15 0.687871 0.346074 0.410414
O O16 0.500000 0.816579 0.000000
O O17 0.298527 0.500000 0.388972
#
# Coordination Sequence:
#
# PCOD9216301 Si02
#       8
#     8   8   2   4   4   8   8   8
#     4  12  25  40  66  96 134 167 215 286 341 398
#     4   9  19  36  61  92 125 167 224 267 318 392
#     4   8  24  42  72  92 122 184 226 282 304 390
#     4  10  23  42  67  94 131 177 231 267 319 403
#     4  10  22  45  67  96 129 178 231 265 330 405
#     4  10  22  44  65  90 129 173 219 267 331 401
#     4  11  23  39  64  98 136 171 219 276 339 396
#     4   9  20  38  61  89 122 168 219 264 317 400
#
# _framework density 19.569973999999998
#
# number of rings (size 3 to 8) (size 9 to 14) (size 15 to 20)
#    0.480    1.440    0.800    4.080    2.240    3.840 
#    1.440    1.600    0.000    0.000    0.000    0.000 
#    0.000    0.000    0.000    0.000    0.000    0.000 
#
# Total GULP energy -139312.049055 kJ/mol
# GULP energy per Si atom -5572.481962 kJ/mol
# Density = 1.952543 g / cm^3
# Si number density = 19.569974 Si / 1000 Ang^3
#
#
#
# Elastic Constant Matrix: (Units=GPa)
#
#
# Indices 1 2 3 4 5 6 
#
# 1 78.8312 9.4871 13.6115 0.0000 -9.7900 0.0000
# 2 9.4871 77.8823 39.5186 0.0000 14.9004 0.0000
# 3 13.6115 39.5186 72.5990 0.0000 15.4472 0.0000
# 4 0.0000 0.0000 0.0000 -7.5336 0.0000 11.4399
# 5 -9.7900 14.9004 15.4472 0.0000 25.3547 0.0000
# 6 0.0000 0.0000 0.0000 11.4399 0.0000 -16.3982
#
#
#
# Elastic Compliance Matrix: (Units=1/GPa)
#
#
# Indices 1 2 3 4 5 6 
#
# 1 0.014627 -0.001560 -0.003780 0.000000 0.008868 0.000000
# 2 -0.001560 0.018528 -0.008443 0.000000 -0.006348 0.000000
# 3 -0.003780 -0.008443 0.021064 0.000000 -0.009331 0.000000
# 4 0.000000 0.000000 0.000000 2.235895 0.000000 1.559831
# 5 0.008868 -0.006348 -0.009331 0.000000 0.052280 0.000000
# 6 0.000000 0.000000 0.000000 1.559831 0.000000 1.027205
#
#
# Mechanical properties :
#
#
# Convention : Reuss Voigt Hill
#
# Bulk Modulus (GPa) = 37.51811 39.39411 38.45611
# Shear Modulus (GPa) = 1.46798 11.39759 6.43278
#
# Velocity S-wave (km/s) = 0.86703 2.41592 1.81499
# Velocity P-wave (km/s) = 4.49613 5.28732 4.90770
#
# Compressibility (1/GPa) = 0.02665379
#
# Stress axis : x y z
#
# Youngs Moduli (GPa) = 68.36639 53.97162 47.47431
#
# Poissons Ratio (x) = 0.08422 0.17945
# Poissons Ratio (y) = 0.10668 0.40080
# Poissons Ratio (z) = 0.25842 0.45566
#
# Static dielectric constant tensor:
#      x y z
#    x 1.678340 0.000000 -0.010630 
#    y 0.000000 1.719470 0.000000 
#    z -0.010630 0.000000 1.667210 
# 
# From -- ./inp_files/102786.got.cif
#   From: 2010.05.17/outbox.cif.g08.bks.cpg/sg12_52_cif.got.tgz:102786.got - 2010.06.03 13:09:07.
