data_PCOD9216979
_publ_section_title
;
Structure prediction by ZEFSAII (Michael W. Deem and Ramdas Pophale) SiO2 
 PCOD9216979
Probable space group: C 2/M
;
_chemical_formula_sum "Si O2"
_cell_formula_units_Z 40
_cell_length_a 17.587193
_cell_length_b 13.661099
_cell_length_c 18.146389
_cell_angle_alpha 90.000000
_cell_angle_beta 156.380065
_cell_angle_gamma 90.000000
_cell_volume 1746.855047
_symmetry_space_group_name_H-M "C 2/M"
_symmetry_group_IT_number 12
_symmetry_cell_setting 'monoclinic'
loop_
_space_group_symop_operation_xyz
x,y,z
-x,y,-z
-x,-y,-z
x,-y,z
1/2+x,1/2+y,z
1/2-x,1/2+y,-z
1/2-x,1/2-y,-z
1/2+x,1/2-y,z
loop_
_atom_site_type_symbol
_atom_site_label
_atom_site_fract_x
_atom_site_fract_y
_atom_site_fract_z
Si Si1 0.481622 0.317078 0.398991
Si Si2 0.421497 0.293399 0.103393
Si Si3 0.219478 0.114280 0.480474
Si Si4 0.395209 0.110519 0.263515
Si Si5 0.587560 0.893107 0.996696
O O1 0.500000 0.347462 0.500000
O O2 0.659056 0.339248 0.504248
O O3 0.429974 0.201728 0.348710
O O4 0.310663 0.375158 0.207749
O O5 0.311601 0.372925 0.955742
O O6 0.484022 0.202429 0.108737
O O7 0.250000 0.250000 0.000000
O O8 0.584996 0.338440 0.298588
O O9 0.438275 0.123666 0.649992
O O10 0.177534 0.000000 0.447127
O O11 0.413721 0.000000 0.309320
O O12 0.553276 0.000000 0.930684
O O13 0.500000 0.894628 0.000000
#
# Coordination Sequence:
#
# PCOD9216979 Si02
#       5
#     8   8   8   8   8
#     4  11  24  40  63  89 129 166 205 261 314 374
#     4  11  22  39  67  93 127 165 208 263 307 371
#     4  11  23  42  67  95 127 164 212 262 315 374
#     4  10  23  42  66  94 124 165 211 258 313 373
#     4  10  23  41  62  94 129 166 208 256 318 377
#
# _framework density 22.898294
#
# number of rings (size 3 to 8) (size 9 to 14) (size 15 to 20)
#    0.000    1.400    4.000    1.800    2.800    2.800 
#    0.000    4.000    0.000    3.000    0.000    0.000 
#    0.000    0.000    0.000    0.000    0.000    0.000 
#
# Total GULP energy -111912.001445 kJ/mol
# GULP energy per Si atom -5595.600072 kJ/mol
# Density = 2.284618 g / cm^3
# Si number density = 22.898294 Si / 1000 Ang^3
#
#
#
# Elastic Constant Matrix: (Units=GPa)
#
#
# Indices 1 2 3 4 5 6 
#
# 1 63.3081 24.1895 34.0719 -0.0009 -18.3198 -0.0006
# 2 24.1895 164.2610 36.7407 -0.0044 -7.7936 -0.0018
# 3 34.0719 36.7407 127.0398 -0.0073 -5.8016 -0.0029
# 4 -0.0009 -0.0044 -0.0073 18.8786 -0.0027 7.3199
# 5 -18.3198 -7.7936 -5.8016 -0.0027 27.3897 -0.0011
# 6 -0.0006 -0.0018 -0.0029 7.3199 -0.0011 20.9106
#
#
#
# Elastic Compliance Matrix: (Units=1/GPa)
#
#
# Indices 1 2 3 4 5 6 
#
# 1 0.023214 -0.001609 -0.005122 0.000001 0.013984 0.000000
# 2 -0.001609 0.006679 -0.001477 0.000001 0.000511 0.000000
# 3 -0.005122 -0.001477 0.009589 0.000003 -0.001815 0.000000
# 4 0.000001 0.000001 0.000003 0.061289 0.000007 -0.021455
# 5 0.013984 0.000511 -0.001815 0.000007 0.045624 0.000000
# 6 0.000000 0.000000 0.000000 -0.021455 0.000000 0.055333
#
#
# Mechanical properties :
#
#
# Convention : Reuss Voigt Hill
#
# Bulk Modulus (GPa) = 43.35253 60.51255 51.93254
# Shear Modulus (GPa) = 22.14014 30.74289 26.44151
#
# Velocity S-wave (km/s) = 3.11286 3.66810 3.40183
# Velocity P-wave (km/s) = 5.64744 6.66513 6.17728
#
# Compressibility (1/GPa) = 0.02306670
#
# Stress axis : x y z
#
# Youngs Moduli (GPa) = 43.07773 149.71299 104.28154
#
# Poissons Ratio (x) = 0.24095 0.53411
# Poissons Ratio (y) = 0.06933 0.15400
# Poissons Ratio (z) = 0.22064 0.22109
#
# Static dielectric constant tensor:
#      x y z
#    x 1.848600 0.000000 0.009720 
#    y 0.000000 1.870940 0.000000 
#    z 0.009720 0.000000 1.903810 
# 
# From -- ./inp_files/270799.got.cif
#   From: 2010.05.17/outbox.cif.g08.bks.cpg/sg12_136_cif.got.tgz:270799.got - 2010.06.03 13:09:07.
