data_PCOD9216034
_publ_section_title
;
Structure prediction by ZEFSAII (Michael W. Deem and Ramdas Pophale) SiO2 
 PCOD9216034
Probable space group: C 2/M
;
_chemical_formula_sum "Si O2"
_cell_formula_units_Z 52
_cell_length_a 29.700497
_cell_length_b 13.884365
_cell_length_c 9.958890
_cell_angle_alpha 90.000000
_cell_angle_beta 36.941251
_cell_angle_gamma 90.000000
_cell_volume 2468.153252
_symmetry_space_group_name_H-M "C 2/M"
_symmetry_group_IT_number 12
_symmetry_cell_setting 'monoclinic'
loop_
_space_group_symop_operation_xyz
x,y,z
-x,y,-z
-x,-y,-z
x,-y,z
1/2+x,1/2+y,z
1/2-x,1/2+y,-z
1/2-x,1/2-y,-z
1/2+x,1/2-y,z
loop_
_atom_site_type_symbol
_atom_site_label
_atom_site_fract_x
_atom_site_fract_y
_atom_site_fract_z
Si Si1 0.413199 0.617388 0.441072
Si Si2 0.148889 0.894251 0.982898
Si Si3 0.920264 0.295085 0.247869
Si Si4 0.000000 0.861857 0.500000
Si Si5 0.813682 0.385202 0.717876
Si Si6 0.735417 0.114064 0.882337
Si Si7 0.678715 0.217308 0.752938
O O1 0.428680 0.500000 0.396663
O O2 0.422774 0.681059 0.282948
O O3 0.465091 0.664298 0.434550
O O4 0.324602 0.628221 0.684644
O O5 0.230470 0.870299 0.852773
O O6 0.134654 0.810492 0.911316
O O7 0.155585 0.000000 0.904042
O O8 0.080683 0.899059 0.250584
O O9 0.880502 0.340468 0.473100
O O10 0.869194 0.331163 0.247062
O O11 0.000000 0.322593 0.000000
O O12 0.823975 0.500000 0.697023
O O13 0.807829 0.347493 0.883958
O O14 0.704326 0.158176 0.820265
O O15 0.723896 0.000000 0.905352
O O16 0.750000 0.250000 0.500000
#
# Coordination Sequence:
#
# PCOD9216034 Si02
#       7
#     8   8   8   4   8   8   8
#     4  11  22  38  64  97 138 174 210 261 325 396
#     4  11  22  37  63  95 132 170 212 262 321 392
#     4  12  27  45  63  96 134 175 223 273 330 388
#     4  12  23  38  62 102 137 170 213 262 326 392
#     4  10  22  43  69  93 124 172 223 274 330 381
#     4  10  22  42  70  99 128 168 221 275 327 392
#     4  12  24  42  65  97 132 176 221 263 328 394
#
# _framework density 21.068383999999998
#
# number of rings (size 3 to 8) (size 9 to 14) (size 15 to 20)
#    0.000    0.923    4.615    2.308    2.154    3.692 
#    0.000    0.000    0.000    1.846    0.000    0.000 
#    0.000    0.000    0.000    0.000    0.000    0.000 
#
# Total GULP energy -144761.504533 kJ/mol
# GULP energy per Si atom -5567.750174 kJ/mol
# Density = 2.102043 g / cm^3
# Si number density = 21.068384 Si / 1000 Ang^3
#
#
#
# Elastic Constant Matrix: (Units=GPa)
#
#
# Indices 1 2 3 4 5 6 
#
# 1 122.1778 20.6209 53.5581 0.0000 7.6834 0.0000
# 2 20.6209 53.7757 35.2470 0.0000 10.9319 0.0000
# 3 53.5581 35.2470 177.5672 0.0000 -5.9104 0.0000
# 4 0.0000 0.0000 0.0000 1.1647 0.0000 58.0764
# 5 7.6834 10.9319 -5.9104 0.0000 37.1749 0.0000
# 6 0.0000 0.0000 0.0000 58.0764 0.0000 -292.7457
#
#
#
# Elastic Compliance Matrix: (Units=1/GPa)
#
#
# Indices 1 2 3 4 5 6 
#
# 1 0.009757 -0.001570 -0.002697 0.000000 -0.001984 0.000000
# 2 -0.001570 0.023608 -0.004456 0.000000 -0.007326 0.000000
# 3 -0.002697 -0.004456 0.007431 0.000000 0.003049 0.000000
# 4 0.000000 0.000000 0.000000 0.078825 0.000000 0.015638
# 5 -0.001984 -0.007326 0.003049 0.000000 0.029949 0.000000
# 6 0.000000 0.000000 0.000000 0.015638 0.000000 -0.000314
#
#
# Mechanical properties :
#
#
# Convention : Reuss Voigt Hill
#
# Bulk Modulus (GPa) = 42.82918 63.59696 53.21307
# Shear Modulus (GPa) = 28.65523 -34.60822 -2.97650
#
# Velocity S-wave (km/s) = 3.69196 -4.05737 -1.18989
# Velocity P-wave (km/s) = 6.20861 2.88128 4.83987
#
# Compressibility (1/GPa) = 0.02334857
#
# Stress axis : x y z
#
# Youngs Moduli (GPa) = 102.49127 42.35812 134.56559
#
# Poissons Ratio (x) = 0.06651 0.36295
# Poissons Ratio (y) = 0.16094 0.59969
# Poissons Ratio (z) = 0.27644 0.18877
#
# Static dielectric constant tensor:
#      x y z
#    x 1.768330 0.000000 0.040390 
#    y 0.000000 1.871740 0.000000 
#    z 0.040390 0.000000 1.699370 
# 
# From -- ./inp_files/111913.got.cif
#   From: 2010.05.17/outbox.cif.g08.bks.cpg/sg12_56_cif.got.tgz:111913.got - 2010.06.03 13:09:07.
