data_PCOD9216444
_publ_section_title
;
Structure prediction by ZEFSAII (Michael W. Deem and Ramdas Pophale) SiO2 
 PCOD9216444
Probable space group: C 2/M
;
_chemical_formula_sum "Si O2"
_cell_formula_units_Z 40
_cell_length_a 9.056231
_cell_length_b 14.215444
_cell_length_c 23.341739
_cell_angle_alpha 90.000000
_cell_angle_beta 43.249578
_cell_angle_gamma 90.000000
_cell_volume 2058.942896
_symmetry_space_group_name_H-M "C 2/M"
_symmetry_group_IT_number 12
_symmetry_cell_setting 'monoclinic'
loop_
_space_group_symop_operation_xyz
x,y,z
-x,y,-z
-x,-y,-z
x,-y,z
1/2+x,1/2+y,z
1/2-x,1/2+y,-z
1/2-x,1/2-y,-z
1/2+x,1/2-y,z
loop_
_atom_site_type_symbol
_atom_site_label
_atom_site_fract_x
_atom_site_fract_y
_atom_site_fract_z
Si Si1 0.431846 0.320334 0.292250
Si Si2 0.192926 0.887160 0.899650
Si Si3 0.256511 0.000000 0.593645
Si Si4 0.793224 0.000000 0.517955
Si Si5 0.251976 0.193589 0.440974
Si Si6 0.396445 0.238534 0.177755
O O1 0.310115 0.409979 0.351478
O O2 0.367314 0.238737 0.354913
O O3 0.367977 0.290558 0.246731
O O4 0.690303 0.327125 0.222738
O O5 0.394797 0.829227 0.871136
O O6 0.113790 0.821111 0.868186
O O7 0.239847 0.000000 0.872978
O O8 0.000000 0.888086 0.000000
O O9 0.500000 0.000000 0.500000
O O10 0.127635 0.000000 0.569693
O O11 0.658618 0.908319 0.569981
O O12 0.000000 0.000000 0.500000
O O13 0.250000 0.250000 0.500000
O O14 0.000000 0.186196 0.500000
#
# Coordination Sequence:
#
# PCOD9216444 Si02
#       6
#     8   8   4   4   8   8
#     4  11  24  40  61  86 128 166 212 280 326 381
#     4  10  22  45  75 103 135 172 213 258 321 419
#     4  12  26  40  58  86 119 173 226 269 327 382
#     4  10  24  38  56  80 106 157 227 267 319 378
#     4  11  21  38  56  77 111 156 216 260 316 367
#     4  10  24  43  65 101 132 171 209 270 340 389
#
# _framework density 19.427444999999999
#
# number of rings (size 3 to 8) (size 9 to 14) (size 15 to 20)
#    0.000    1.400    2.000    2.400    8.400    0.000 
#    7.200    0.000    0.000    6.000    0.000    0.000 
#    0.000    0.000    0.000    0.000    0.000    0.000 
#
# Total GULP energy -111485.965771 kJ/mol
# GULP energy per Si atom -5574.298289 kJ/mol
# Density = 1.938323 g / cm^3
# Si number density = 19.427445 Si / 1000 Ang^3
#
#
#
# Elastic Constant Matrix: (Units=GPa)
#
#
# Indices 1 2 3 4 5 6 
#
# 1 134.3670 51.3167 45.9775 -0.0001 6.2099 0.0002
# 2 51.3167 175.1786 60.0582 -0.0001 4.0213 0.0002
# 3 45.9775 60.0582 96.2921 -0.0003 8.4929 0.0006
# 4 -0.0001 -0.0001 -0.0003 44.9868 0.0003 7.1118
# 5 6.2099 4.0213 8.4929 0.0003 33.6735 -0.0003
# 6 0.0002 0.0002 0.0006 7.1118 -0.0003 30.3093
#
#
#
# Elastic Compliance Matrix: (Units=1/GPa)
#
#
# Indices 1 2 3 4 5 6 
#
# 1 0.009215 -0.001521 -0.003393 0.000000 -0.000662 0.000000
# 2 -0.001521 0.007515 -0.003995 0.000000 0.000391 0.000000
# 3 -0.003393 -0.003995 0.014727 0.000000 -0.002612 0.000000
# 4 0.000000 0.000000 0.000000 0.023085 0.000000 -0.005417
# 5 -0.000662 0.000391 -0.002612 0.000000 0.030431 0.000000
# 6 0.000000 0.000000 0.000000 -0.005417 0.000000 0.034264
#
#
# Mechanical properties :
#
#
# Convention : Reuss Voigt Hill
#
# Bulk Modulus (GPa) = 73.32073 80.06025 76.69049
# Shear Modulus (GPa) = 35.31039 38.35961 36.83500
#
# Velocity S-wave (km/s) = 4.26790 4.44836 4.35907
# Velocity P-wave (km/s) = 7.88095 8.22698 8.05582
#
# Compressibility (1/GPa) = 0.01363871
#
# Stress axis : x y z
#
# Youngs Moduli (GPa) = 108.52190 133.07122 67.90116
#
# Poissons Ratio (x) = 0.20240 0.23038
# Poissons Ratio (y) = 0.16506 0.27128
# Poissons Ratio (z) = 0.36820 0.53165
#
# Static dielectric constant tensor:
#      x y z
#    x 1.920890 0.000000 -0.132930 
#    y 0.000000 1.791670 0.000000 
#    z -0.132930 0.000000 1.696420 
# 
# From -- ./inp_files/194592.got.cif
#   From: 2010.05.17/outbox.cif.g08.bks.cpg/sg12_98_cif.got.tgz:194592.got - 2010.06.03 13:09:07.
