data_PCOD9216217
_publ_section_title
;
Structure prediction by ZEFSAII (Michael W. Deem and Ramdas Pophale) SiO2 
 PCOD9216217
Probable space group: C 2/M
;
_chemical_formula_sum "Si O2"
_cell_formula_units_Z 32
_cell_length_a 11.734190
_cell_length_b 15.423786
_cell_length_c 11.754668
_cell_angle_alpha 90.000000
_cell_angle_beta 42.251951
_cell_angle_gamma 90.000000
_cell_volume 1430.464288
_symmetry_space_group_name_H-M "C 2/M"
_symmetry_group_IT_number 12
_symmetry_cell_setting 'monoclinic'
loop_
_space_group_symop_operation_xyz
x,y,z
-x,y,-z
-x,-y,-z
x,-y,z
1/2+x,1/2+y,z
1/2-x,1/2+y,-z
1/2-x,1/2-y,-z
1/2+x,1/2-y,z
loop_
_atom_site_type_symbol
_atom_site_label
_atom_site_fract_x
_atom_site_fract_y
_atom_site_fract_z
Si Si1 0.143479 0.833808 0.228781
Si Si2 0.330164 0.649168 0.051858
Si Si3 0.789802 0.103609 0.580855
Si Si4 0.010023 0.403856 0.613223
O O1 0.240637 0.742886 0.139679
O O2 0.237426 0.880293 0.264899
O O3 0.949223 0.841683 0.415986
O O4 0.139448 0.869525 0.103426
O O5 0.180243 0.588963 0.204959
O O6 0.500000 0.642816 0.000000
O O7 0.628129 0.131505 0.625716
O O8 0.824928 0.000000 0.541714
O O9 0.083274 0.500000 0.536413
O O10 0.000000 0.355498 0.500000
#
# Coordination Sequence:
#
# PCOD9216217 Si02
#       4
#     8   8   8   8
#     4  10  23  39  63  92 126 158 208 254 311 371
#     4  11  25  40  59  92 130 167 202 252 310 372
#     4  10  22  43  69  94 121 161 213 263 309 365
#     4  10  23  41  64  93 124 164 210 254 308 370
#
# _framework density 22.370359000000001
#
# number of rings (size 3 to 8) (size 9 to 14) (size 15 to 20)
#    0.000    1.750    0.000    3.000   10.500    3.500 
#    0.000    2.500    0.000    0.000    0.000    0.000 
#    0.000    0.000    0.000    0.000    0.000    0.000 
#
# Total GULP energy -89196.451431 kJ/mol
# GULP energy per Si atom -5574.778214 kJ/mol
# Density = 2.231944 g / cm^3
# Si number density = 22.370359 Si / 1000 Ang^3
#
#
#
# Elastic Constant Matrix: (Units=GPa)
#
#
# Indices 1 2 3 4 5 6 
#
# 1 253.7354 42.5992 102.6581 -0.0002 18.5936 0.0001
# 2 42.5992 40.0078 23.7807 0.0001 4.7838 -0.0003
# 3 102.6581 23.7807 137.8497 0.0001 28.2490 -0.0002
# 4 -0.0002 0.0001 0.0001 37.5250 0.0000 8.3638
# 5 18.5936 4.7838 28.2490 0.0000 51.0657 0.0001
# 6 0.0001 -0.0003 -0.0002 8.3638 0.0001 66.4821
#
#
#
# Elastic Compliance Matrix: (Units=1/GPa)
#
#
# Indices 1 2 3 4 5 6 
#
# 1 0.006254 -0.004334 -0.003977 0.000000 0.000329 0.000000
# 2 -0.004334 0.030855 -0.002060 0.000000 -0.000173 0.000000
# 3 -0.003977 -0.002060 0.011544 0.000000 -0.004745 0.000000
# 4 0.000000 0.000000 0.000000 0.027418 0.000000 -0.003449
# 5 0.000329 -0.000173 -0.004745 0.000000 0.022104 0.000000
# 6 0.000000 0.000000 0.000000 -0.003449 0.000000 0.015476
#
#
# Mechanical properties :
#
#
# Convention : Reuss Voigt Hill
#
# Bulk Modulus (GPa) = 35.82849 85.51876 60.67363
# Shear Modulus (GPa) = 34.79604 48.51821 41.65713
#
# Velocity S-wave (km/s) = 3.94820 4.66216 4.31995
# Velocity P-wave (km/s) = 6.06920 8.20320 7.21553
#
# Compressibility (1/GPa) = 0.02791075
#
# Stress axis : x y z
#
# Youngs Moduli (GPa) = 159.90615 32.40959 86.62841
#
# Poissons Ratio (x) = 0.14047 0.34451
# Poissons Ratio (y) = 0.69307 0.17843
# Poissons Ratio (z) = 0.63593 0.06675
#
# Static dielectric constant tensor:
#      x y z
#    x 1.850280 0.000000 0.034480 
#    y 0.000000 1.926810 0.000000 
#    z 0.034480 0.000000 1.796480 
# 
# From -- ./inp_files/74265.got.cif
#   From: 2010.05.17/outbox.cif.g08.bks.cpg/sg12_38_cif.got.tgz:74265.got - 2010.06.03 13:09:07.
