data_PCOD9216419
_publ_section_title
;
Structure prediction by ZEFSAII (Michael W. Deem and Ramdas Pophale) SiO2 
 PCOD9216419
Probable space group: C 2/M
;
_chemical_formula_sum "Si O2"
_cell_formula_units_Z 40
_cell_length_a 10.027526
_cell_length_b 14.431327
_cell_length_c 31.769486
_cell_angle_alpha 90.000000
_cell_angle_beta 151.747281
_cell_angle_gamma 90.000000
_cell_volume 2176.221804
_symmetry_space_group_name_H-M "C 2/M"
_symmetry_group_IT_number 12
_symmetry_cell_setting 'monoclinic'
loop_
_space_group_symop_operation_xyz
x,y,z
-x,y,-z
-x,-y,-z
x,-y,z
1/2+x,1/2+y,z
1/2-x,1/2+y,-z
1/2-x,1/2-y,-z
1/2+x,1/2-y,z
loop_
_atom_site_type_symbol
_atom_site_label
_atom_site_fract_x
_atom_site_fract_y
_atom_site_fract_z
Si Si1 0.212452 0.307300 0.946602
Si Si2 0.738682 0.301578 0.234414
Si Si3 0.818948 0.754181 0.351774
Si Si4 0.032214 0.000000 0.855812
Si Si5 0.662855 0.892155 0.500810
Si Si6 0.401525 0.000000 0.042226
O O1 0.131125 0.409900 0.938284
O O2 0.972173 0.260371 0.851845
O O3 0.500000 0.306240 0.000000
O O4 0.250000 0.250000 0.000000
O O5 0.717768 0.272424 0.277141
O O6 0.646296 0.407581 0.201703
O O7 0.054547 0.282963 0.306536
O O8 0.042489 0.838213 0.412636
O O9 0.979158 0.666076 0.416443
O O10 0.300272 0.000000 0.898982
O O11 0.163616 0.000000 0.939413
O O12 0.500000 0.888084 0.500000
O O13 0.697833 0.000000 0.498907
#
# Coordination Sequence:
#
# PCOD9216419 Si02
#       6
#     8   8   8   4   8   4
#     4  12  24  44  67  93 134 179 220 271 324 380
#     4  12  25  42  65  98 131 168 220 273 318 378
#     4  11  24  44  65 100 128 168 213 270 322 390
#     4  11  24  40  68  93 133 171 222 276 319 382
#     4  10  22  45  70  92 130 171 206 258 331 398
#     4  11  23  44  64  94 127 184 226 260 334 382
#
# _framework density 18.380479999999999
#
# number of rings (size 3 to 8) (size 9 to 14) (size 15 to 20)
#    0.000    0.800    4.000    3.900    2.800    0.000 
#    3.600    1.000    0.000    0.000    0.000    0.000 
#    0.000    0.000    0.000    0.000    0.000    0.000 
#
# Total GULP energy -111870.066858 kJ/mol
# GULP energy per Si atom -5593.503343 kJ/mol
# Density = 1.833865 g / cm^3
# Si number density = 18.380480 Si / 1000 Ang^3
#
#
#
# Elastic Constant Matrix: (Units=GPa)
#
#
# Indices 1 2 3 4 5 6 
#
# 1 66.6174 33.1856 1.5049 0.0060 -9.1250 -0.0066
# 2 33.1856 180.6693 45.7247 0.0004 -6.0199 -0.0004
# 3 1.5049 45.7247 68.0733 0.0170 -11.8505 -0.0189
# 4 0.0060 0.0004 0.0170 -45.6441 0.0071 73.8516
# 5 -9.1250 -6.0199 -11.8505 0.0071 38.6301 -0.0081
# 6 -0.0066 -0.0004 -0.0189 73.8516 -0.0081 -45.7267
#
#
#
# Elastic Compliance Matrix: (Units=1/GPa)
#
#
# Indices 1 2 3 4 5 6 
#
# 1 0.017445 -0.003800 0.002938 0.000002 0.004430 -0.000001
# 2 -0.003800 0.007501 -0.005184 -0.000001 -0.001319 0.000001
# 3 0.002938 -0.005184 0.019108 0.000004 0.005748 -0.000003
# 4 0.000002 -0.000001 0.000004 0.013581 0.000004 0.021935
# 5 0.004430 -0.001319 0.005748 0.000004 0.028491 -0.000002
# 6 -0.000001 0.000001 -0.000003 0.021935 -0.000002 0.013557
#
#
# Mechanical properties :
#
#
# Convention : Reuss Voigt Hill
#
# Bulk Modulus (GPa) = 31.28800 52.91003 42.09901
# Shear Modulus (GPa) = 40.84030 5.11485 22.97758
#
# Velocity S-wave (km/s) = 4.71886 1.66997 3.53952
# Velocity P-wave (km/s) = 6.83736 5.70674 6.29748
#
# Compressibility (1/GPa) = 0.03196113
#
# Stress axis : x y z
#
# Youngs Moduli (GPa) = 57.32431 133.31438 52.33455
#
# Poissons Ratio (x) = 0.50663 -0.15377
# Poissons Ratio (y) = 0.21785 0.27131
# Poissons Ratio (z) = -0.16843 0.69111
#
# Static dielectric constant tensor:
#      x y z
#    x 1.606590 0.000000 0.001530 
#    y 0.000000 1.534160 0.000000 
#    z 0.001530 0.000000 1.606690 
# 
# From -- ./inp_files/194479.got.cif
#   From: 2010.05.17/outbox.cif.g08.bks.cpg/sg12_98_cif.got.tgz:194479.got - 2010.06.03 13:09:07.
