data_PCOD9216325
_publ_section_title
;
Structure prediction by ZEFSAII (Michael W. Deem and Ramdas Pophale) SiO2 
 PCOD9216325
Probable space group: C 2/M
;
_chemical_formula_sum "Si O2"
_cell_formula_units_Z 64
_cell_length_a 9.665321
_cell_length_b 17.225213
_cell_length_c 26.177840
_cell_angle_alpha 90.000000
_cell_angle_beta 44.476305
_cell_angle_gamma 90.000000
_cell_volume 3053.469943
_symmetry_space_group_name_H-M "C 2/M"
_symmetry_group_IT_number 12
_symmetry_cell_setting 'monoclinic'
loop_
_space_group_symop_operation_xyz
x,y,z
-x,y,-z
-x,-y,-z
x,-y,z
1/2+x,1/2+y,z
1/2-x,1/2+y,-z
1/2-x,1/2-y,-z
1/2+x,1/2-y,z
loop_
_atom_site_type_symbol
_atom_site_label
_atom_site_fract_x
_atom_site_fract_y
_atom_site_fract_z
Si Si1 0.715872 0.913005 0.450486
Si Si2 0.119321 0.623184 0.774875
Si Si3 0.519896 0.582217 0.715385
Si Si4 0.683755 0.168500 0.073260
Si Si5 0.741504 0.286683 0.703310
Si Si6 0.829953 0.409699 0.759712
Si Si7 0.453408 0.703297 0.452653
Si Si8 0.017324 0.174003 0.912653
O O1 0.500000 0.874129 0.500000
O O2 0.799234 0.917246 0.371497
O O3 0.885010 0.873421 0.439938
O O4 0.318313 0.000000 0.520290
O O5 0.325006 0.584911 0.733092
O O6 0.166980 0.714472 0.755862
O O7 0.974820 0.610708 0.860844
O O8 0.007610 0.597590 0.753424
O O9 0.519946 0.500000 0.744299
O O10 0.552435 0.662103 0.736559
O O11 0.567877 0.244777 0.085241
O O12 0.823817 0.189860 0.084384
O O13 0.827142 0.136945 0.991210
O O14 0.864005 0.349493 0.704262
O O15 0.871213 0.248278 0.623718
O O16 0.814212 0.500000 0.749565
O O17 0.632884 0.377617 0.840654
O O18 0.500000 0.690294 0.500000
O O19 0.250000 0.750000 0.500000
#
# Coordination Sequence:
#
# PCOD9216325 Si02
#       8
#     8   8   8   8   8   8   8   8
#     4  10  22  44  68  92 127 166 207 263 330 390
#     4  11  22  38  64  92 123 164 213 258 309 372
#     4  11  23  40  61  88 124 164 204 254 319 380
#     4   9  18  33  58  91 121 159 209 254 301 359
#     4  12  24  41  65  92 122 167 212 266 313 378
#     4  11  24  41  63  96 131 165 209 267 324 373
#     4  12  26  42  66  95 125 163 219 271 321 389
#     4   9  18  35  57  90 122 162 204 254 300 370
#
# _framework density 20.959761
#
# number of rings (size 3 to 8) (size 9 to 14) (size 15 to 20)
#    0.000    1.375    2.500    3.375    3.500    0.250 
#    0.000    6.250    0.000    1.125    0.000    4.375 
#    0.000    0.000    0.000    0.000    0.000    0.000 
#
# Total GULP energy -178503.506804 kJ/mol
# GULP energy per Si atom -5578.234588 kJ/mol
# Density = 2.091206 g / cm^3
# Si number density = 20.959761 Si / 1000 Ang^3
#
#
#
# Elastic Constant Matrix: (Units=GPa)
#
#
# Indices 1 2 3 4 5 6 
#
# 1 84.9937 34.5101 19.3295 0.0005 -4.6314 0.0001
# 2 34.5101 107.9940 6.6319 0.0006 -4.3388 0.0001
# 3 19.3295 6.6319 85.5020 0.0031 -7.8569 0.0002
# 4 0.0005 0.0006 0.0031 -39.1468 -0.0005 -7.9484
# 5 -4.6314 -4.3388 -7.8569 -0.0005 31.5592 -0.0001
# 6 0.0001 0.0001 0.0002 -7.9484 -0.0001 6.4321
#
#
#
# Elastic Compliance Matrix: (Units=1/GPa)
#
#
# Indices 1 2 3 4 5 6 
#
# 1 0.014207 -0.004336 -0.002803 0.000000 0.000791 0.000000
# 2 -0.004336 0.010667 0.000235 0.000000 0.000889 0.000000
# 3 -0.002803 0.000235 0.012564 0.000001 0.002749 0.000001
# 4 0.000000 0.000000 0.000001 -0.020421 0.000000 -0.025235
# 5 0.000791 0.000889 0.002749 0.000000 0.032609 0.000000
# 6 0.000000 0.000000 0.000001 -0.025235 0.000000 0.124285
#
#
# Mechanical properties :
#
#
# Convention : Reuss Voigt Hill
#
# Bulk Modulus (GPa) = 42.32142 44.38142 43.35142
# Shear Modulus (GPa) = 25.56308 14.30345 19.93327
#
# Velocity S-wave (km/s) = 3.49610 2.61516 3.08722
# Velocity P-wave (km/s) = 6.04422 5.50811 5.78238
#
# Compressibility (1/GPa) = 0.02362870
#
# Stress axis : x y z
#
# Youngs Moduli (GPa) = 70.38992 93.75034 79.59476
#
# Poissons Ratio (x) = 0.40649 0.22308
# Poissons Ratio (y) = 0.30520 -0.01867
# Poissons Ratio (z) = 0.19728 -0.02199
#
# Static dielectric constant tensor:
#      x y z
#    x 1.797630 0.000000 0.024060 
#    y 0.000000 1.811940 0.000000 
#    z 0.024060 0.000000 1.788670 
# 
# From -- ./inp_files/372917.got.cif
#   From: 2010.05.17/outbox.cif.g08.bks.cpg/sg12_187_cif.got.tgz:372917.got - 2010.06.03 13:09:07.
