data_PCOD9216628
_publ_section_title
;
Structure prediction by ZEFSAII (Michael W. Deem and Ramdas Pophale) SiO2 
 PCOD9216628
Probable space group: C 2/M
;
_chemical_formula_sum "Si O2"
_cell_formula_units_Z 64
_cell_length_a 14.228366
_cell_length_b 28.896212
_cell_length_c 9.187207
_cell_angle_alpha 90.000000
_cell_angle_beta 56.062733
_cell_angle_gamma 90.000000
_cell_volume 3133.819754
_symmetry_space_group_name_H-M "C 2/M"
_symmetry_group_IT_number 12
_symmetry_cell_setting 'monoclinic'
loop_
_space_group_symop_operation_xyz
x,y,z
-x,y,-z
-x,-y,-z
x,-y,z
1/2+x,1/2+y,z
1/2-x,1/2+y,-z
1/2-x,1/2-y,-z
1/2+x,1/2-y,z
loop_
_atom_site_type_symbol
_atom_site_label
_atom_site_fract_x
_atom_site_fract_y
_atom_site_fract_z
Si Si1 0.016083 0.895954 0.659002
Si Si2 0.940052 0.195376 0.835899
Si Si3 0.444072 0.199713 0.814773
Si Si4 0.614354 0.446207 0.998600
Si Si5 0.738830 0.701466 0.761337
Si Si6 0.233302 0.944965 0.607950
Si Si7 0.765303 0.306730 0.216086
Si Si8 0.333925 0.858954 0.423547
O O1 0.121625 0.927643 0.616755
O O2 0.000000 0.895226 0.500000
O O3 0.025830 0.844750 0.719141
O O4 0.906398 0.916219 0.840454
O O5 0.987382 0.247269 0.784992
O O6 0.841636 0.191445 0.798392
O O7 0.873683 0.190469 0.046671
O O8 0.345618 0.198733 0.779054
O O9 0.543626 0.164500 0.695555
O O10 0.377968 0.189843 0.021042
O O11 0.625329 0.500000 0.029411
O O12 0.711352 0.434272 0.798443
O O13 0.500000 0.441759 0.000000
O O14 0.733691 0.755129 0.717759
O O15 0.767198 0.666906 0.609251
O O16 0.332654 0.913039 0.460510
O O17 0.245721 0.000000 0.582597
O O18 0.768555 0.346424 0.331967
#
# Coordination Sequence:
#
# PCOD9216628 Si02
#       8
#     8   8   8   8   8   8   8   8
#     4  11  20  31  53  83 110 140 177 212 254 317
#     4   9  19  36  51  74 115 150 169 200 257 311
#     4   9  20  36  54  76 112 148 171 205 257 312
#     4   8  16  33  51  67  96 135 172 213 262 308
#     4   9  19  35  55  79 109 142 176 210 249 306
#     4  10  23  39  52  73 105 138 175 225 278 318
#     4   9  19  35  52  79 114 142 168 210 259 305
#     4  12  20  32  57  82 101 134 184 222 253 306
#
# _framework density 20.422362
#
# number of rings (size 3 to 8) (size 9 to 14) (size 15 to 20)
#    0.000    2.375    0.000    5.250    0.000    5.000 
#    0.000    3.750    0.000    3.000    0.000    3.500 
#    0.000    0.000    0.000    0.000    0.000    0.000 
#
# Total GULP energy -178854.191086 kJ/mol
# GULP energy per Si atom -5589.193471 kJ/mol
# Density = 2.037588 g / cm^3
# Si number density = 20.422362 Si / 1000 Ang^3
#
#
#
# Elastic Constant Matrix: (Units=GPa)
#
#
# Indices 1 2 3 4 5 6 
#
# 1 44.5967 17.6041 17.5665 0.0000 -14.1172 0.0000
# 2 17.6041 131.8017 78.5679 0.0000 -11.8181 0.0000
# 3 17.5665 78.5679 87.2772 0.0000 8.7438 0.0000
# 4 0.0000 0.0000 0.0000 37.4258 0.0000 -10.4668
# 5 -14.1172 -11.8181 8.7438 0.0000 27.7569 0.0000
# 6 0.0000 0.0000 0.0000 -10.4668 0.0000 10.9018
#
#
#
# Elastic Compliance Matrix: (Units=1/GPa)
#
#
# Indices 1 2 3 4 5 6 
#
# 1 0.033774 0.007123 -0.015731 0.000000 0.025166 0.000000
# 2 0.007123 0.022937 -0.024187 0.000000 0.021008 0.000000
# 3 -0.015731 -0.024187 0.039477 0.000000 -0.030735 0.000000
# 4 0.000000 0.000000 0.000000 0.036528 0.000000 0.035070
# 5 0.025166 0.021008 -0.030735 0.000000 0.067453 0.000000
# 6 0.000000 0.000000 0.000000 0.035070 0.000000 0.125398
#
#
# Mechanical properties :
#
#
# Convention : Reuss Voigt Hill
#
# Bulk Modulus (GPa) = 32.68204 54.57252 43.62728
# Shear Modulus (GPa) = 12.45774 25.21271 18.83522
#
# Velocity S-wave (km/s) = 2.47251 3.51745 3.04021
# Velocity P-wave (km/s) = 4.91822 6.57849 5.80799
#
# Compressibility (1/GPa) = 0.03059784
#
# Stress axis : x y z
#
# Youngs Moduli (GPa) = 29.60832 43.59677 25.33152
#
# Poissons Ratio (x) = -0.31054 0.39850
# Poissons Ratio (y) = -0.21090 0.61269
# Poissons Ratio (z) = 0.46578 1.05447
#
# Static dielectric constant tensor:
#      x y z
#    x 1.758650 0.000000 -0.011980 
#    y 0.000000 1.722210 0.000000 
#    z -0.011980 0.000000 1.745860 
# 
# From -- ./inp_files/68242.got.cif
#   From: 2010.05.17/outbox.cif.g08.bks.cpg/sg12_35_cif.got.tgz:68242.got - 2010.06.03 13:09:07.
