data_PCOD9216945
_publ_section_title
;
Structure prediction by ZEFSAII (Michael W. Deem and Ramdas Pophale) SiO2 
 PCOD9216945
Probable space group: C 2/M
;
_chemical_formula_sum "Si O2"
_cell_formula_units_Z 64
_cell_length_a 24.186637
_cell_length_b 24.721949
_cell_length_c 5.520135
_cell_angle_alpha 90.000000
_cell_angle_beta 99.834452
_cell_angle_gamma 90.000000
_cell_volume 3252.211213
_symmetry_space_group_name_H-M "C 2/M"
_symmetry_group_IT_number 12
_symmetry_cell_setting 'monoclinic'
loop_
_space_group_symop_operation_xyz
x,y,z
-x,y,-z
-x,-y,-z
x,-y,z
1/2+x,1/2+y,z
1/2-x,1/2+y,-z
1/2-x,1/2-y,-z
1/2+x,1/2-y,z
loop_
_atom_site_type_symbol
_atom_site_label
_atom_site_fract_x
_atom_site_fract_y
_atom_site_fract_z
Si Si1 0.638313 0.766024 0.392599
Si Si2 0.055715 0.249524 0.931032
Si Si3 0.367121 0.330561 0.316402
Si Si4 0.319294 0.563231 0.215943
Si Si5 0.748757 0.937035 0.663936
Si Si6 0.030611 0.633782 0.769097
Si Si7 0.345395 0.139003 0.226023
Si Si8 0.238172 0.299322 0.167487
O O1 0.622659 0.703624 0.432507
O O2 0.637340 0.806348 0.617482
O O3 0.701570 0.773507 0.352338
O O4 0.594167 0.780969 0.155233
O O5 0.095378 0.204750 0.838660
O O6 0.032026 0.300151 0.761018
O O7 0.000000 0.223159 0.000000
O O8 0.370565 0.394554 0.288363
O O9 0.299800 0.322649 0.246256
O O10 0.335627 0.500000 0.223494
O O11 0.280786 0.569952 0.430889
O O12 0.287850 0.573746 0.932684
O O13 0.694165 0.899013 0.640173
O O14 0.732453 0.000000 0.669236
O O15 0.095521 0.614513 0.812318
O O16 0.000000 0.615146 0.500000
O O17 0.000000 0.619541 0.000000
O O18 0.304219 0.157588 0.981073
O O19 0.250000 0.250000 0.000000
#
# Coordination Sequence:
#
# PCOD9216945 Si02
#       8
#     8   8   8   8   8   8   8   8
#     4  12  22  35  54  87 121 163 195 242 305 363
#     4  11  24  38  55  81 123 161 208 239 292 356
#     4  12  23  35  58  85 124 158 195 249 300 360
#     4  10  23  41  61  87 120 160 200 243 300 363
#     4  10  23  41  62  88 120 159 202 247 299 359
#     4  11  23  39  58  82 122 164 206 244 288 352
#     4  12  22  35  59  85 121 162 199 249 297 362
#     4  12  21  33  47  88 124 150 188 234 308 368
#
# _framework density 19.678916999999998
#
# number of rings (size 3 to 8) (size 9 to 14) (size 15 to 20)
#    0.000    0.750    6.250    2.625    3.500    0.000 
#    0.000    0.000    0.000    1.125    0.000    0.875 
#    0.000    0.500    0.000    0.000    0.000    0.000 
#
# Total GULP energy -178302.939645 kJ/mol
# GULP energy per Si atom -5571.966864 kJ/mol
# Density = 1.963413 g / cm^3
# Si number density = 19.678917 Si / 1000 Ang^3
#
#
#
# Elastic Constant Matrix: (Units=GPa)
#
#
# Indices 1 2 3 4 5 6 
#
# 1 86.6197 -9.3699 17.1290 0.0000 -12.8691 0.0000
# 2 -9.3699 58.0057 -8.1994 0.0000 -6.4644 0.0000
# 3 17.1290 -8.1994 78.7018 0.0000 -3.9566 0.0000
# 4 0.0000 0.0000 0.0000 20.0660 0.0000 -8.5439
# 5 -12.8691 -6.4644 -3.9566 0.0000 30.6512 0.0000
# 6 0.0000 0.0000 0.0000 -8.5439 0.0000 17.6439
#
#
#
# Elastic Compliance Matrix: (Units=1/GPa)
#
#
# Indices 1 2 3 4 5 6 
#
# 1 0.013115 0.002429 -0.002314 0.000000 0.005720 0.000000
# 2 0.002429 0.018436 0.001650 0.000000 0.005121 0.000000
# 3 -0.002314 0.001650 0.013437 0.000000 0.001111 0.000000
# 4 0.000000 0.000000 0.000000 0.062780 0.000000 0.030401
# 5 0.005720 0.005121 0.001111 0.000000 0.036250 0.000000
# 6 0.000000 0.000000 0.000000 0.030401 0.000000 0.071398
#
#
# Mechanical properties :
#
#
# Convention : Reuss Voigt Hill
#
# Bulk Modulus (GPa) = 20.61111 24.71627 22.66369
# Shear Modulus (GPa) = 21.92410 28.59006 25.25708
#
# Velocity S-wave (km/s) = 3.34142 3.81573 3.58643
# Velocity P-wave (km/s) = 5.03818 5.65686 5.35646
#
# Compressibility (1/GPa) = 0.04851751
#
# Stress axis : x y z
#
# Youngs Moduli (GPa) = 76.24968 54.24200 74.41873
#
# Poissons Ratio (x) = -0.13175 0.17219
# Poissons Ratio (y) = -0.18520 -0.12276
# Poissons Ratio (z) = 0.17642 -0.08947
#
# Static dielectric constant tensor:
#      x y z
#    x 1.563220 0.000000 -0.013770 
#    y 0.000000 1.791830 0.000000 
#    z -0.013770 0.000000 1.779440 
# 
# From -- ./inp_files/26431.got.cif
#   From: 2010.05.17/outbox.cif.g08.bks.cpg/sg12_14_cif.got.tgz:26431.got - 2010.06.03 13:09:07.
