data_PCOD9216263
_publ_section_title
;
Structure prediction by ZEFSAII (Michael W. Deem and Ramdas Pophale) SiO2 
 PCOD9216263
Probable space group: C 2/M
;
_chemical_formula_sum "Si O2"
_cell_formula_units_Z 32
_cell_length_a 20.170927
_cell_length_b 10.352297
_cell_length_c 10.885061
_cell_angle_alpha 90.000000
_cell_angle_beta 140.403026
_cell_angle_gamma 90.000000
_cell_volume 1448.752255
_symmetry_space_group_name_H-M "C 2/M"
_symmetry_group_IT_number 12
_symmetry_cell_setting 'monoclinic'
loop_
_space_group_symop_operation_xyz
x,y,z
-x,y,-z
-x,-y,-z
x,-y,z
1/2+x,1/2+y,z
1/2-x,1/2+y,-z
1/2-x,1/2-y,-z
1/2+x,1/2-y,z
loop_
_atom_site_type_symbol
_atom_site_label
_atom_site_fract_x
_atom_site_fract_y
_atom_site_fract_z
Si Si1 0.530937 0.218558 0.410996
Si Si2 0.572072 0.648352 0.212247
Si Si3 0.736018 0.356803 0.256276
Si Si4 0.687705 0.852435 0.994938
O O1 0.500000 0.278727 0.500000
O O2 0.554886 0.301581 0.324010
O O3 0.640096 0.145725 0.582185
O O4 0.428517 0.141528 0.224337
O O5 0.541261 0.500000 0.175480
O O6 0.689149 0.651807 0.326218
O O7 0.500000 0.707088 0.000000
O O8 0.701444 0.500000 0.159082
O O9 0.692883 0.228845 0.128065
O O10 0.728442 0.000000 0.060698
O O11 0.750000 0.750000 0.000000
#
# Coordination Sequence:
#
# PCOD9216263 Si02
#       4
#     8   8   8   8
#     4  12  25  43  71 106 142 182 241 291 352 415
#     4  10  22  43  71 102 145 192 232 288 355 417
#     4  11  24  47  74 101 143 189 235 289 355 421
#     4  12  26  45  70 104 145 186 235 292 356 421
#
# _framework density 22.087973000000002
#
# number of rings (size 3 to 8) (size 9 to 14) (size 15 to 20)
#    0.000    0.750    5.000    2.250    0.000    3.500 
#    0.000    3.750    0.000    0.000    0.000    0.000 
#    0.000    0.000    0.000    0.000    0.000    0.000 
#
# Total GULP energy -89090.307524 kJ/mol
# GULP energy per Si atom -5568.144220 kJ/mol
# Density = 2.203770 g / cm^3
# Si number density = 22.087973 Si / 1000 Ang^3
#
#
#
# Elastic Constant Matrix: (Units=GPa)
#
#
# Indices 1 2 3 4 5 6 
#
# 1 201.8360 69.7007 43.6090 0.0000 -11.5594 0.0000
# 2 69.7007 155.8160 42.7654 0.0000 -18.8334 0.0000
# 3 43.6090 42.7654 93.2466 0.0000 9.9855 0.0000
# 4 0.0000 0.0000 0.0000 11.1924 0.0000 0.3960
# 5 -11.5594 -18.8334 9.9855 0.0000 58.0775 0.0000
# 6 0.0000 0.0000 0.0000 0.3960 0.0000 3.0124
#
#
#
# Elastic Compliance Matrix: (Units=1/GPa)
#
#
# Indices 1 2 3 4 5 6 
#
# 1 0.006166 -0.002096 -0.002018 0.000000 0.000894 0.000000
# 2 -0.002096 0.008612 -0.003284 0.000000 0.002940 0.000000
# 3 -0.002018 -0.003284 0.013581 0.000000 -0.003802 0.000000
# 4 0.000000 0.000000 0.000000 0.089764 0.000000 -0.011799
# 5 0.000894 0.002940 -0.003802 0.000000 0.019004 0.000000
# 6 0.000000 0.000000 0.000000 -0.011799 0.000000 0.333507
#
#
# Mechanical properties :
#
#
# Convention : Reuss Voigt Hill
#
# Bulk Modulus (GPa) = 73.73307 84.78322 79.25815
# Shear Modulus (GPa) = 10.20510 34.11138 22.15824
#
# Velocity S-wave (km/s) = 2.15180 3.93407 3.17074
# Velocity P-wave (km/s) = 6.29505 7.68789 7.02607
#
# Compressibility (1/GPa) = 0.01356243
#
# Stress axis : x y z
#
# Youngs Moduli (GPa) = 162.19059 116.11303 73.62993
#
# Poissons Ratio (x) = 0.24338 0.14858
# Poissons Ratio (y) = 0.33996 0.24183
# Poissons Ratio (z) = 0.32729 0.38136
#
# Static dielectric constant tensor:
#      x y z
#    x 1.873760 0.000000 -0.018680 
#    y 0.000000 1.812560 0.000000 
#    z -0.018680 0.000000 1.911500 
# 
# From -- ./inp_files/164489.got.cif
#   From: 2010.05.17/outbox.cif.g08.bks.cpg/sg12_83_cif.got.tgz:164489.got - 2010.06.03 13:09:07.
