data_PCOD9216445
_publ_section_title
;
Structure prediction by ZEFSAII (Michael W. Deem and Ramdas Pophale) SiO2 
 PCOD9216445
Probable space group: C 2/M
;
_chemical_formula_sum "Si O2"
_cell_formula_units_Z 48
_cell_length_a 10.137975
_cell_length_b 15.366988
_cell_length_c 14.954019
_cell_angle_alpha 90.000000
_cell_angle_beta 84.343486
_cell_angle_gamma 90.000000
_cell_volume 2318.344680
_symmetry_space_group_name_H-M "C 2/M"
_symmetry_group_IT_number 12
_symmetry_cell_setting 'monoclinic'
loop_
_space_group_symop_operation_xyz
x,y,z
-x,y,-z
-x,-y,-z
x,-y,z
1/2+x,1/2+y,z
1/2-x,1/2+y,-z
1/2-x,1/2-y,-z
1/2+x,1/2-y,z
loop_
_atom_site_type_symbol
_atom_site_label
_atom_site_fract_x
_atom_site_fract_y
_atom_site_fract_z
Si Si1 0.922011 0.304645 0.243185
Si Si2 0.342072 0.907839 0.530431
Si Si3 0.223803 0.908641 0.339292
Si Si4 0.203347 0.274985 0.136335
Si Si5 0.441402 0.255720 0.599330
Si Si6 0.155099 0.104781 0.018564
O O1 0.844104 0.394779 0.262964
O O2 0.823647 0.241148 0.197130
O O3 0.065161 0.306274 0.188319
O O4 0.944254 0.279031 0.344841
O O5 0.500000 0.909600 0.500000
O O6 0.270217 0.906082 0.440012
O O7 0.333355 0.819725 0.586613
O O8 0.307122 0.000000 0.577716
O O9 0.123290 0.830884 0.339278
O O10 0.157035 0.000000 0.326885
O O11 0.176150 0.178388 0.094951
O O12 0.254034 0.349183 0.064037
O O13 0.500000 0.284459 0.500000
O O14 0.184623 0.000000 0.032213
O O15 0.000000 0.108483 0.000000
#
# Coordination Sequence:
#
# PCOD9216445 Si02
#       6
#     8   8   8   8   8   8
#     4  12  23  40  64  96 138 174 218 272 330 375
#     4   9  17  32  55  82 111 157 222 276 320 368
#     4  11  23  38  59  89 125 170 225 285 330 373
#     4  11  24  43  68 104 136 169 213 273 324 400
#     4  11  22  38  64  85 129 182 234 269 328 382
#     4  10  22  45  76 101 132 174 210 258 333 411
#
# _framework density 20.704428
#
# number of rings (size 3 to 8) (size 9 to 14) (size 15 to 20)
#    0.000    1.333    6.667    0.500    0.000    1.667 
#    0.000    1.667    0.000    1.000    0.000    0.000 
#    0.000    0.000    0.000    0.000    0.000    0.000 
#
# Total GULP energy -133669.464553 kJ/mol
# GULP energy per Si atom -5569.561023 kJ/mol
# Density = 2.065730 g / cm^3
# Si number density = 20.704428 Si / 1000 Ang^3
#
#
#
# Elastic Constant Matrix: (Units=GPa)
#
#
# Indices 1 2 3 4 5 6 
#
# 1 54.4282 19.0486 17.9134 0.0000 -22.8774 0.0000
# 2 19.0486 150.5612 20.6471 0.0000 -25.0377 0.0000
# 3 17.9134 20.6471 70.3250 0.0000 -18.2863 0.0000
# 4 0.0000 0.0000 0.0000 13.8783 0.0000 -6.8934
# 5 -22.8774 -25.0377 -18.2863 0.0000 27.9617 0.0000
# 6 0.0000 0.0000 0.0000 -6.8934 0.0000 25.7098
#
#
#
# Elastic Compliance Matrix: (Units=1/GPa)
#
#
# Indices 1 2 3 4 5 6 
#
# 1 0.028137 0.000364 -0.001450 0.000000 0.022399 0.000000
# 2 0.000364 0.007828 -0.000591 0.000000 0.006920 0.000000
# 3 -0.001450 -0.000591 0.017250 0.000000 0.009565 0.000000
# 4 0.000000 0.000000 0.000000 0.083125 0.000000 0.022288
# 5 0.022399 0.006920 0.009565 0.000000 0.066541 0.000000
# 6 0.000000 0.000000 0.000000 0.022288 0.000000 0.044871
#
#
# Mechanical properties :
#
#
# Convention : Reuss Voigt Hill
#
# Bulk Modulus (GPa) = 20.05622 43.39250 31.72436
# Shear Modulus (GPa) = 18.67573 28.02364 23.34968
#
# Velocity S-wave (km/s) = 3.00662 3.68300 3.36186
# Velocity P-wave (km/s) = 4.66486 6.25216 5.51591
#
# Compressibility (1/GPa) = 0.04985985
#
# Stress axis : x y z
#
# Youngs Moduli (GPa) = 35.53996 127.75204 57.97160
#
# Poissons Ratio (x) = -0.04647 0.08405
# Poissons Ratio (y) = -0.01293 0.03429
# Poissons Ratio (z) = 0.05153 0.07556
#
# Static dielectric constant tensor:
#      x y z
#    x 1.734060 0.000000 -0.005650 
#    y 0.000000 1.818030 0.000000 
#    z -0.005650 0.000000 1.763790 
# 
# From -- ./inp_files/204377.got.cif
#   From: 2010.05.17/outbox.cif.g08.bks.cpg/sg12_103_cif.got.tgz:204377.got - 2010.06.03 13:09:07.
