data_PCOD9216919
_publ_section_title
;
Structure prediction by ZEFSAII (Michael W. Deem and Ramdas Pophale) SiO2 
 PCOD9216919
Probable space group: C 2/M
;
_chemical_formula_sum "Si O2"
_cell_formula_units_Z 56
_cell_length_a 21.031863
_cell_length_b 28.747135
_cell_length_c 8.992874
_cell_angle_alpha 90.000000
_cell_angle_beta 149.506181
_cell_angle_gamma 90.000000
_cell_volume 2759.053669
_symmetry_space_group_name_H-M "C 2/M"
_symmetry_group_IT_number 12
_symmetry_cell_setting 'monoclinic'
loop_
_space_group_symop_operation_xyz
x,y,z
-x,y,-z
-x,-y,-z
x,-y,z
1/2+x,1/2+y,z
1/2-x,1/2+y,-z
1/2-x,1/2-y,-z
1/2+x,1/2-y,z
loop_
_atom_site_type_symbol
_atom_site_label
_atom_site_fract_x
_atom_site_fract_y
_atom_site_fract_z
Si Si1 0.871163 0.054704 0.323727
Si Si2 0.701439 0.203111 0.810402
Si Si3 0.990471 0.729787 0.147558
Si Si4 0.547746 0.321481 0.764671
Si Si5 0.897473 0.891377 0.670415
Si Si6 0.620212 0.131349 0.141746
Si Si7 0.871426 0.612278 0.176296
O O1 0.883380 0.067382 0.522618
O O2 0.000000 0.068669 0.500000
O O3 0.853099 0.000000 0.265036
O O4 0.752258 0.084019 0.028977
O O5 0.613102 0.215163 0.491068
O O6 0.639014 0.167202 0.801704
O O7 0.750000 0.250000 0.000000
O O8 0.806496 0.168135 0.954476
O O9 0.939079 0.769566 0.147446
O O10 0.000000 0.750437 0.000000
O O11 0.902683 0.685751 0.939108
O O12 0.500000 0.321285 0.500000
O O13 0.454265 0.349769 0.681445
O O14 0.764525 0.877623 0.477536
O O15 0.000000 0.901917 0.000000
O O16 0.500000 0.118025 0.000000
O O17 0.614309 0.107364 0.970900
O O18 0.000000 0.593721 0.500000
#
# Coordination Sequence:
#
# PCOD9216919 Si02
#       7
#     8   8   8   8   8   8   8
#     4  10  23  45  72 101 133 165 210 276 343 409
#     4  12  24  38  65  94 133 182 230 270 327 396
#     4  11  25  39  56  88 131 181 227 273 324 383
#     4  12  24  39  60  88 130 175 226 279 319 388
#     4  11  25  42  67  96 128 169 223 273 335 401
#     4  10  23  41  59  85 129 172 217 270 328 383
#     4  11  22  41  67  96 129 171 224 269 332 399
#
# _framework density 20.296813
#
# number of rings (size 3 to 8) (size 9 to 14) (size 15 to 20)
#    0.000    1.000    2.857    4.286    6.000    2.286 
#    0.000    0.000    0.000    6.857    0.000    0.000 
#    0.000    0.571    0.000    0.000    0.000    0.000 
#
# Total GULP energy -156027.834845 kJ/mol
# GULP energy per Si atom -5572.422673 kJ/mol
# Density = 2.025062 g / cm^3
# Si number density = 20.296813 Si / 1000 Ang^3
#
#
#
# Elastic Constant Matrix: (Units=GPa)
#
#
# Indices 1 2 3 4 5 6 
#
# 1 110.0240 35.9415 45.9444 0.0000 21.1746 0.0000
# 2 35.9415 73.3598 39.6192 0.0000 11.0364 0.0000
# 3 45.9444 39.6192 135.2345 0.0000 1.3342 0.0000
# 4 0.0000 0.0000 0.0000 18.4250 0.0000 1.5936
# 5 21.1746 11.0364 1.3342 0.0000 39.7001 0.0000
# 6 0.0000 0.0000 0.0000 1.5936 0.0000 17.7327
#
#
#
# Elastic Compliance Matrix: (Units=1/GPa)
#
#
# Indices 1 2 3 4 5 6 
#
# 1 0.012701 -0.003649 -0.003190 0.000000 -0.005653 0.000000
# 2 -0.003649 0.018027 -0.004013 0.000000 -0.002930 0.000000
# 3 -0.003190 -0.004013 0.009629 0.000000 0.002493 0.000000
# 4 0.000000 0.000000 0.000000 0.054699 0.000000 -0.004916
# 5 -0.005653 -0.002930 0.002493 0.000000 0.028935 0.000000
# 6 0.000000 0.000000 0.000000 -0.004916 0.000000 0.056835
#
#
# Mechanical properties :
#
#
# Convention : Reuss Voigt Hill
#
# Bulk Modulus (GPa) = 53.60964 62.40318 58.00641
# Shear Modulus (GPa) = 23.95226 28.31244 26.13235
#
# Velocity S-wave (km/s) = 3.43898 3.73892 3.59208
# Velocity P-wave (km/s) = 6.49915 7.03217 6.77091
#
# Compressibility (1/GPa) = 0.01865336
#
# Stress axis : x y z
#
# Youngs Moduli (GPa) = 78.73328 55.47124 103.84916
#
# Poissons Ratio (x) = 0.20244 0.33129
# Poissons Ratio (y) = 0.28733 0.41671
# Poissons Ratio (z) = 0.25117 0.22259
#
# Static dielectric constant tensor:
#      x y z
#    x 2.156320 0.000000 0.381740 
#    y 0.000000 1.827650 0.000000 
#    z 0.381740 0.000000 2.149230 
# 
# From -- ./inp_files/91633.got.cif
#   From: 2010.05.17/outbox.cif.g08.bks.cpg/sg12_46_cif.got.tgz:91633.got - 2010.06.03 13:09:07.
