data_PCOD9216666
_publ_section_title
;
Structure prediction by ZEFSAII (Michael W. Deem and Ramdas Pophale) SiO2 
 PCOD9216666
Probable space group: C 2/M
;
_chemical_formula_sum "Si O2"
_cell_formula_units_Z 48
_cell_length_a 12.787524
_cell_length_b 20.507956
_cell_length_c 10.000410
_cell_angle_alpha 90.000000
_cell_angle_beta 57.063229
_cell_angle_gamma 90.000000
_cell_volume 2201.044945
_symmetry_space_group_name_H-M "C 2/M"
_symmetry_group_IT_number 12
_symmetry_cell_setting 'monoclinic'
loop_
_space_group_symop_operation_xyz
x,y,z
-x,y,-z
-x,-y,-z
x,-y,z
1/2+x,1/2+y,z
1/2-x,1/2+y,-z
1/2-x,1/2-y,-z
1/2+x,1/2-y,z
loop_
_atom_site_type_symbol
_atom_site_label
_atom_site_fract_x
_atom_site_fract_y
_atom_site_fract_z
Si Si1 0.616333 0.574384 0.839693
Si Si2 0.901329 0.420917 0.685555
Si Si3 0.861627 0.773561 0.827559
Si Si4 0.006059 0.108568 0.640060
Si Si5 0.024586 0.336582 0.826433
Si Si6 0.711596 0.707183 0.404086
O O1 0.624291 0.500000 0.885678
O O2 0.757599 0.599776 0.756674
O O3 0.573415 0.573624 0.715545
O O4 0.500000 0.607134 0.000000
O O5 0.904076 0.500000 0.692590
O O6 0.950698 0.387854 0.786703
O O7 0.000000 0.402376 0.500000
O O8 0.978372 0.734420 0.806497
O O9 0.824930 0.753170 0.702734
O O10 0.888474 0.851242 0.786047
O O11 0.750000 0.750000 0.000000
O O12 0.094979 0.166846 0.532971
O O13 0.000000 0.072467 0.500000
O O14 0.172387 0.339899 0.705820
O O15 0.000000 0.343110 0.000000
O O16 0.750000 0.750000 0.500000
#
# Coordination Sequence:
#
# PCOD9216666 Si02
#       6
#     8   8   8   8   8   8
#     4  10  23  42  66  94 122 162 211 257 313 371
#     4  10  24  44  66  93 123 161 212 263 314 371
#     4  11  24  39  57  89 129 160 202 252 309 370
#     4  10  23  39  61  90 126 162 203 255 306 367
#     4  12  25  39  63  91 124 167 207 252 311 373
#     4  11  23  39  57  89 123 160 208 249 304 368
#
# _framework density 21.807824
#
# number of rings (size 3 to 8) (size 9 to 14) (size 15 to 20)
#    0.000    1.333    3.333    1.000    7.000    1.333 
#    0.000    0.000    0.000    7.000    0.000    0.000 
#    0.000    0.000    0.000    0.000    0.000    0.000 
#
# Total GULP energy -133866.824538 kJ/mol
# GULP energy per Si atom -5577.784356 kJ/mol
# Density = 2.175819 g / cm^3
# Si number density = 21.807824 Si / 1000 Ang^3
#
#
#
# Elastic Constant Matrix: (Units=GPa)
#
#
# Indices 1 2 3 4 5 6 
#
# 1 148.6833 22.6087 74.2982 0.0000 7.9007 0.0000
# 2 22.6087 51.6227 22.4938 0.0000 1.9805 0.0000
# 3 74.2982 22.4938 149.9988 0.0000 9.7894 0.0000
# 4 0.0000 0.0000 0.0000 5.9042 0.0000 12.2417
# 5 7.9007 1.9805 9.7894 0.0000 59.5347 0.0000
# 6 0.0000 0.0000 0.0000 12.2417 0.0000 17.8505
#
#
#
# Elastic Compliance Matrix: (Units=1/GPa)
#
#
# Indices 1 2 3 4 5 6 
#
# 1 0.009173 -0.002175 -0.004188 0.000000 -0.000456 0.000000
# 2 -0.002175 0.021243 -0.002103 0.000000 -0.000072 0.000000
# 3 -0.004188 -0.002103 0.009113 0.000000 -0.000873 0.000000
# 4 0.000000 0.000000 0.000000 -0.401451 0.000000 0.275311
# 5 -0.000456 -0.000072 -0.000873 0.000000 0.017003 0.000000
# 6 0.000000 0.000000 0.000000 0.275311 0.000000 -0.132784
#
#
# Mechanical properties :
#
#
# Convention : Reuss Voigt Hill
#
# Bulk Modulus (GPa) = 44.25359 65.45623 54.85491
# Shear Modulus (GPa) = -11.03178 32.05149 10.50986
#
# Velocity S-wave (km/s) = -2.25158 3.83786 2.19767
# Velocity P-wave (km/s) = 3.68471 7.05117 5.62566
#
# Compressibility (1/GPa) = 0.02259703
#
# Stress axis : x y z
#
# Youngs Moduli (GPa) = 109.01051 47.07358 109.72781
#
# Poissons Ratio (x) = 0.10240 0.45952
# Poissons Ratio (y) = 0.23713 0.23081
# Poissons Ratio (z) = 0.45652 0.09902
#
# Static dielectric constant tensor:
#      x y z
#    x 1.678990 0.000000 0.130520 
#    y 0.000000 1.683750 0.000000 
#    z 0.130520 0.000000 1.775570 
# 
# From -- ./inp_files/52441.got.cif
#   From: 2010.05.17/outbox.cif.g08.bks.cpg/sg12_27_cif.got.tgz:52441.got - 2010.06.03 13:09:07.
