data_PCOD9216403
_publ_section_title
;
Structure prediction by ZEFSAII (Michael W. Deem and Ramdas Pophale) SiO2 
 PCOD9216403
Probable space group: C 2/M
;
_chemical_formula_sum "Si O2"
_cell_formula_units_Z 48
_cell_length_a 11.457295
_cell_length_b 21.907128
_cell_length_c 15.315516
_cell_angle_alpha 90.000000
_cell_angle_beta 41.760267
_cell_angle_gamma 90.000000
_cell_volume 2560.256096
_symmetry_space_group_name_H-M "C 2/M"
_symmetry_group_IT_number 12
_symmetry_cell_setting 'monoclinic'
loop_
_space_group_symop_operation_xyz
x,y,z
-x,y,-z
-x,-y,-z
x,-y,z
1/2+x,1/2+y,z
1/2-x,1/2+y,-z
1/2-x,1/2-y,-z
1/2+x,1/2-y,z
loop_
_atom_site_type_symbol
_atom_site_label
_atom_site_fract_x
_atom_site_fract_y
_atom_site_fract_z
Si Si1 0.584295 0.122695 0.766906
Si Si2 0.389701 0.624130 0.729789
Si Si3 0.000000 0.393592 0.500000
Si Si4 0.228162 0.322555 0.512321
Si Si5 0.150066 0.709633 0.982500
Si Si6 0.784780 0.500000 0.713467
Si Si7 0.588602 0.500000 0.171773
Si Si8 0.127946 0.500000 0.139641
O O1 0.766416 0.114084 0.715478
O O2 0.621751 0.159155 0.657943
O O3 0.457836 0.159541 0.902528
O O4 0.493965 0.059094 0.796043
O O5 0.580723 0.646705 0.595724
O O6 0.398846 0.561031 0.777685
O O7 0.294686 0.675573 0.842497
O O8 0.875330 0.350634 0.512096
O O9 0.889770 0.439866 0.622837
O O10 0.250000 0.250000 0.500000
O O11 0.250000 0.750000 0.000000
O O12 0.000000 0.737931 0.000000
O O13 0.597356 0.500000 0.772634
O O14 0.771022 0.500000 0.825119
O O15 0.741924 0.500000 0.014714
#
# Coordination Sequence:
#
# PCOD9216403 Si02
#       8
#     8   8   4   8   8   4   4   4
#     4  11  24  42  67  97 130 173 220 274 330 395
#     4  11  24  42  67  97 130 173 220 274 330 395
#     4  11  24  44  72  92 134 181 210 284 336 393
#     4  12  26  45  67  97 134 175 226 266 333 397
#     4  10  22  45  65  94 134 175 224 276 335 398
#     4  11  23  46  64 100 137 169 222 274 342 400
#     4  12  23  43  69  97 132 169 222 271 337 397
#     4  12  23  43  69  97 132 169 222 271 337 397
#
# _framework density 18.748124000000001
#
# number of rings (size 3 to 8) (size 9 to 14) (size 15 to 20)
#    0.000    0.833    5.000    2.250    2.333    1.333 
#    6.000    1.667    0.000    0.000    0.000    0.000 
#    0.000    0.000    0.000    0.000    0.000    0.000 
#
# Total GULP energy -134132.231915 kJ/mol
# GULP energy per Si atom -5588.842996 kJ/mol
# Density = 1.870545 g / cm^3
# Si number density = 18.748124 Si / 1000 Ang^3
#
#
#
# Elastic Constant Matrix: (Units=GPa)
#
#
# Indices 1 2 3 4 5 6 
#
# 1 98.7522 30.6146 -32.7620 0.0000 -5.4938 0.0001
# 2 30.6146 103.0601 -2.0335 0.0005 1.6376 0.0003
# 3 -32.7620 -2.0335 42.7087 0.0035 1.3020 0.0014
# 4 0.0000 0.0005 0.0035 50.5113 -0.0021 9.3981
# 5 -5.4938 1.6376 1.3020 -0.0021 32.2177 -0.0009
# 6 0.0001 0.0003 0.0014 9.3981 -0.0009 35.7547
#
#
#
# Elastic Compliance Matrix: (Units=1/GPa)
#
#
# Indices 1 2 3 4 5 6 
#
# 1 0.015467 -0.004404 0.011583 -0.000001 0.002393 0.000000
# 2 -0.004404 0.010975 -0.002819 0.000000 -0.001195 0.000000
# 3 0.011583 -0.002819 0.032140 -0.000002 0.000820 -0.000001
# 4 -0.000001 0.000000 -0.000002 0.020816 0.000001 -0.005471
# 5 0.002393 -0.001195 0.000820 0.000001 0.031475 0.000000
# 6 0.000000 0.000000 -0.000001 -0.005471 0.000000 0.029407
#
#
# Mechanical properties :
#
#
# Convention : Reuss Voigt Hill
#
# Bulk Modulus (GPa) = 14.85883 26.23988 20.54935
# Shear Modulus (GPa) = 32.46865 40.27686 36.37275
#
# Velocity S-wave (km/s) = 4.16605 4.64002 4.40941
# Velocity P-wave (km/s) = 5.57530 6.53703 6.07523
#
# Compressibility (1/GPa) = 0.06730007
#
# Stress axis : x y z
#
# Youngs Moduli (GPa) = 64.65175 91.11849 31.11369
#
# Poissons Ratio (x) = 0.40130 -0.36037
# Poissons Ratio (y) = 0.28474 0.08772
# Poissons Ratio (z) = -0.74883 0.25691
#
# Static dielectric constant tensor:
#      x y z
#    x 1.638260 0.000000 0.000350 
#    y 0.000000 1.616290 0.000000 
#    z 0.000350 0.000000 1.615140 
# 
# From -- ./inp_files/207987.got.cif
#   From: 2010.05.17/outbox.cif.g08.bks.cpg/sg12_104_cif.got.tgz:207987.got - 2010.06.03 13:09:07.
