data_PCOD9216206
_publ_section_title
;
Structure prediction by ZEFSAII (Michael W. Deem and Ramdas Pophale) SiO2 
 PCOD9216206
Probable space group: C 2/M
;
_chemical_formula_sum "Si O2"
_cell_formula_units_Z 56
_cell_length_a 15.495529
_cell_length_b 11.723319
_cell_length_c 18.090265
_cell_angle_alpha 90.000000
_cell_angle_beta 57.429978
_cell_angle_gamma 90.000000
_cell_volume 2769.443595
_symmetry_space_group_name_H-M "C 2/M"
_symmetry_group_IT_number 12
_symmetry_cell_setting 'monoclinic'
loop_
_space_group_symop_operation_xyz
x,y,z
-x,y,-z
-x,-y,-z
x,-y,z
1/2+x,1/2+y,z
1/2-x,1/2+y,-z
1/2-x,1/2-y,-z
1/2+x,1/2-y,z
loop_
_atom_site_type_symbol
_atom_site_label
_atom_site_fract_x
_atom_site_fract_y
_atom_site_fract_z
Si Si1 0.402278 0.267173 0.739734
Si Si2 0.564600 0.235455 0.045719
Si Si3 0.446846 0.864736 0.235786
Si Si4 0.142979 0.000000 0.448036
Si Si5 0.741752 0.763080 0.591473
Si Si6 0.600000 0.130518 0.405769
Si Si7 0.219294 0.869297 0.081127
Si Si8 0.989889 0.000000 0.642249
O O1 0.455526 0.164258 0.759012
O O2 0.386408 0.217188 0.666887
O O3 0.304932 0.299070 0.833592
O O4 0.465473 0.385281 0.699184
O O5 0.480439 0.182614 0.140420
O O6 0.634280 0.330827 0.058138
O O7 0.500000 0.263603 0.000000
O O8 0.660295 0.148394 0.990801
O O9 0.362674 0.787741 0.316703
O O10 0.422274 0.000000 0.245753
O O11 0.199795 0.880321 0.417153
O O12 0.075462 0.000000 0.404238
O O13 0.099052 0.000000 0.552265
O O14 0.750000 0.750000 0.500000
O O15 0.799195 0.651033 0.593409
O O16 0.500000 0.161798 0.500000
O O17 0.587282 0.000000 0.388080
O O18 0.200453 0.000000 0.104902
#
# Coordination Sequence:
#
# PCOD9216206 Si02
#       8
#     8   8   8   4   8   8   8   4
#     4  11  22  40  66  92 126 168 217 269 330 396
#     4  10  24  43  70 101 138 178 227 285 343 408
#     4  11  24  43  65  95 130 170 218 271 331 396
#     4  11  22  36  58  85 124 161 217 264 326 378
#     4  12  25  40  61  92 127 169 217 267 327 391
#     4  11  24  42  63  90 127 172 219 271 328 391
#     4  10  22  43  69 102 135 177 225 280 347 407
#     4  11  20  36  60  91 118 165 213 272 317 387
#
# _framework density 20.220669000000001
#
# number of rings (size 3 to 8) (size 9 to 14) (size 15 to 20)
#    0.000    1.143    2.857    3.429    3.000    2.571 
#    1.286    0.714    0.000    0.000    0.000    0.000 
#    0.000    0.000    0.000    0.000    0.000    0.000 
#
# Total GULP energy -155892.336029 kJ/mol
# GULP energy per Si atom -5567.583430 kJ/mol
# Density = 2.017465 g / cm^3
# Si number density = 20.220669 Si / 1000 Ang^3
#
#
#
# Elastic Constant Matrix: (Units=GPa)
#
#
# Indices 1 2 3 4 5 6 
#
# 1 48.7355 35.3475 43.3468 0.0000 4.6651 0.0000
# 2 35.3475 48.5111 32.5834 0.0000 7.2624 0.0000
# 3 43.3468 32.5834 141.0437 0.0000 -2.6966 0.0000
# 4 0.0000 0.0000 0.0000 26.2193 0.0000 -1.0796
# 5 4.6651 7.2624 -2.6966 0.0000 31.1453 0.0000
# 6 0.0000 0.0000 0.0000 -1.0796 0.0000 8.4277
#
#
#
# Elastic Compliance Matrix: (Units=1/GPa)
#
#
# Indices 1 2 3 4 5 6 
#
# 1 0.050656 -0.031108 -0.008402 0.000000 -0.001061 0.000000
# 2 -0.031108 0.044755 -0.000891 0.000000 -0.005854 0.000000
# 3 -0.008402 -0.000891 0.009922 0.000000 0.002325 0.000000
# 4 0.000000 0.000000 0.000000 0.038342 0.000000 0.004912
# 5 -0.001061 -0.005854 0.002325 0.000000 0.033833 0.000000
# 6 0.000000 0.000000 0.000000 0.004912 0.000000 0.119285
#
#
# Mechanical properties :
#
#
# Convention : Reuss Voigt Hill
#
# Bulk Modulus (GPa) = 40.76276 51.20505 45.98391
# Shear Modulus (GPa) = 12.96104 21.62597 17.29351
#
# Velocity S-wave (km/s) = 2.53450 3.27387 2.92762
# Velocity P-wave (km/s) = 5.36355 6.29834 5.84965
#
# Compressibility (1/GPa) = 0.02453219
#
# Stress axis : x y z
#
# Youngs Moduli (GPa) = 19.74114 22.34377 100.78281
#
# Poissons Ratio (x) = 0.69507 0.84675
# Poissons Ratio (y) = 0.61411 0.08977
# Poissons Ratio (z) = 0.16586 0.01990
#
# Static dielectric constant tensor:
#      x y z
#    x 1.794440 0.000000 -0.060030 
#    y 0.000000 1.682070 0.000000 
#    z -0.060030 0.000000 1.735780 
# 
# From -- ./inp_files/269243.got.cif
#   From: 2010.05.17/outbox.cif.g08.bks.cpg/sg12_135_cif.got.tgz:269243.got - 2010.06.03 13:09:07.
