data_PCOD9216004
_publ_section_title
;
Structure prediction by ZEFSAII (Michael W. Deem and Ramdas Pophale) SiO2 
 PCOD9216004
Probable space group: C 2/M
;
_chemical_formula_sum "Si O2"
_cell_formula_units_Z 64
_cell_length_a 27.519995
_cell_length_b 12.107767
_cell_length_c 15.132277
_cell_angle_alpha 90.000000
_cell_angle_beta 140.020628
_cell_angle_gamma 90.000000
_cell_volume 3239.647642
_symmetry_space_group_name_H-M "C 2/M"
_symmetry_group_IT_number 12
_symmetry_cell_setting 'monoclinic'
loop_
_space_group_symop_operation_xyz
x,y,z
-x,y,-z
-x,-y,-z
x,-y,z
1/2+x,1/2+y,z
1/2-x,1/2+y,-z
1/2-x,1/2-y,-z
1/2+x,1/2-y,z
loop_
_atom_site_type_symbol
_atom_site_label
_atom_site_fract_x
_atom_site_fract_y
_atom_site_fract_z
Si Si1 0.296581 0.794946 0.268820
Si Si2 0.711932 0.124657 0.931553
Si Si3 0.495008 0.372820 0.224304
Si Si4 0.910794 0.382767 0.889427
Si Si5 0.063584 0.869493 0.514782
Si Si6 0.136900 0.202433 0.314077
Si Si7 0.290551 0.120399 0.457783
Si Si8 0.865470 0.304250 0.010575
O O1 0.312728 0.868016 0.204510
O O2 0.362098 0.703364 0.367460
O O3 0.290503 0.857948 0.353050
O O4 0.215436 0.739738 0.136446
O O5 0.648207 0.130877 0.917759
O O6 0.749502 0.000000 0.995181
O O7 0.750000 0.250000 0.000000
O O8 0.470867 0.500000 0.188442
O O9 0.529815 0.350483 0.369919
O O10 0.560619 0.353607 0.242927
O O11 0.423941 0.294629 0.108548
O O12 0.879368 0.500000 0.812569
O O13 0.877367 0.281037 0.789503
O O14 0.896666 0.374013 0.973259
O O15 0.000000 0.380680 0.000000
O O16 0.000000 0.844673 0.500000
O O17 0.082081 0.000000 0.547720
O O18 0.206272 0.125871 0.381646
O O19 0.164611 0.281970 0.431696
O O20 0.324049 0.000000 0.521948
#
# Coordination Sequence:
#
# PCOD9216004 Si02
#       8
#     8   8   8   8   8   8   8   8
#     4  11  22  41  66  97 133 168 217 270 336 405
#     4  10  23  41  65  94 133 174 219 273 332 397
#     4  11  23  41  67  97 133 176 221 275 333 395
#     4  11  22  38  60  85 122 169 217 262 318 389
#     4  10  22  42  69  98 128 170 224 280 330 391
#     4  11  22  42  60  91 127 167 223 268 326 385
#     4  11  23  39  63  92 128 169 212 269 333 393
#     4  11  23  41  63  97 134 169 217 273 334 392
#
# _framework density 19.755234999999999
#
# number of rings (size 3 to 8) (size 9 to 14) (size 15 to 20)
#    0.000    1.250    3.750    2.250    0.000    5.000 
#    0.000    1.875    0.000    1.500    0.000    0.000 
#    0.000    0.000    0.000    0.000    0.000    0.000 
#
# Total GULP energy -178476.768614 kJ/mol
# GULP energy per Si atom -5577.399019 kJ/mol
# Density = 1.971027 g / cm^3
# Si number density = 19.755235 Si / 1000 Ang^3
#
#
#
# Elastic Constant Matrix: (Units=GPa)
#
#
# Indices 1 2 3 4 5 6 
#
# 1 133.1099 30.2703 33.1978 0.0000 -20.8294 0.0000
# 2 30.2703 106.5949 43.9248 0.0000 1.0870 0.0000
# 3 33.1978 43.9248 66.2501 0.0000 0.0292 0.0000
# 4 0.0000 0.0000 0.0000 -865.2698 0.0000 -417.7535
# 5 -20.8294 1.0870 0.0292 0.0000 41.3751 0.0000
# 6 0.0000 0.0000 0.0000 -417.7535 0.0000 -192.4219
#
#
#
# Elastic Compliance Matrix: (Units=1/GPa)
#
#
# Indices 1 2 3 4 5 6 
#
# 1 0.009526 -0.001082 -0.004058 0.000000 0.004827 0.000000
# 2 -0.001082 0.013035 -0.008100 0.000000 -0.000882 0.000000
# 3 -0.004058 -0.008100 0.022499 0.000000 -0.001846 0.000000
# 4 0.000000 0.000000 0.000000 0.023989 0.000000 -0.052081
# 5 0.004827 -0.000882 -0.001846 0.000000 0.026624 0.000000
# 6 0.000000 0.000000 0.000000 -0.052081 0.000000 0.107873
#
#
# Mechanical properties :
#
#
# Convention : Reuss Voigt Hill
#
# Bulk Modulus (GPa) = 53.82140 57.86008 55.84074
# Shear Modulus (GPa) = 21.16664 -190.02585 -84.42960
#
# Velocity S-wave (km/s) = 3.27684 -9.81830 -6.54451
# Velocity P-wave (km/s) = 6.45137 9.95891 5.36468
#
# Compressibility (1/GPa) = 0.01857997
#
# Stress axis : x y z
#
# Youngs Moduli (GPa) = 104.97448 76.71412 44.44618
#
# Poissons Ratio (x) = 0.08302 0.18037
# Poissons Ratio (y) = 0.11360 0.36002
# Poissons Ratio (z) = 0.42600 0.62139
#
# Static dielectric constant tensor:
#      x y z
#    x 1.694150 0.000000 0.001370 
#    y 0.000000 1.720540 0.000000 
#    z 0.001370 0.000000 1.693680 
# 
# From -- ./inp_files/245959.got.cif
#   From: 2010.05.17/outbox.cif.g08.bks.cpg/sg12_123_cif.got.tgz:245959.got - 2010.06.03 13:09:07.
