data_PCOD9216137
_publ_section_title
;
Structure prediction by ZEFSAII (Michael W. Deem and Ramdas Pophale) SiO2 
 PCOD9216137
Probable space group: C 2/M
;
_chemical_formula_sum "Si O2"
_cell_formula_units_Z 26
_cell_length_a 16.890227
_cell_length_b 12.205870
_cell_length_c 5.046578
_cell_angle_alpha 90.000000
_cell_angle_beta 107.219579
_cell_angle_gamma 90.000000
_cell_volume 993.768417
_symmetry_space_group_name_H-M "C 2/M"
_symmetry_group_IT_number 12
_symmetry_cell_setting 'monoclinic'
loop_
_space_group_symop_operation_xyz
x,y,z
-x,y,-z
-x,-y,-z
x,-y,z
1/2+x,1/2+y,z
1/2-x,1/2+y,-z
1/2-x,1/2-y,-z
1/2+x,1/2-y,z
loop_
_atom_site_type_symbol
_atom_site_label
_atom_site_fract_x
_atom_site_fract_y
_atom_site_fract_z
Si Si1 0.580019 0.616100 0.267038
Si Si2 0.747211 0.378887 0.090988
Si Si3 0.500000 0.000000 0.000000
Si Si4 0.415571 0.148933 0.558608
O O1 0.577373 0.500000 0.408540
O O2 0.663131 0.619396 0.177065
O O3 0.582798 0.721285 0.450721
O O4 0.500000 0.624308 0.000000
O O5 0.745468 0.500000 0.938931
O O6 0.830212 0.386146 0.348506
O O7 0.750000 0.250000 0.000000
O O8 0.569629 0.903471 0.139167
O O9 0.500000 0.108020 0.500000
#
# Coordination Sequence:
#
# PCOD9216137 Si02
#       4
#     8   8   2   8
#     4  10  22  43  66  96 139 185 231 285 349 419
#     4  11  25  43  69 106 143 185 237 289 355 421
#     4  12  26  44  74  98 146 182 234 296 346 418
#     4  12  25  44  71 105 135 186 237 288 357 413
#
# _framework density 26.163036000000002
#
# number of rings (size 3 to 8) (size 9 to 14) (size 15 to 20)
#    0.000    0.923    3.077    3.231    0.000    1.846 
#    0.000    0.000    0.000    0.000    0.000    0.000 
#    0.000    0.000    0.000    0.000    0.000    0.000 
#
# Total GULP energy -72383.428801 kJ/mol
# GULP energy per Si atom -5567.956062 kJ/mol
# Density = 2.610349 g / cm^3
# Si number density = 26.163036 Si / 1000 Ang^3
#
#
#
# Elastic Constant Matrix: (Units=GPa)
#
#
# Indices 1 2 3 4 5 6 
#
# 1 196.1945 37.5762 46.2433 0.0000 42.7695 0.0000
# 2 37.5762 332.1596 24.5682 0.0000 5.8935 0.0000
# 3 46.2433 24.5682 86.9696 0.0000 57.1380 0.0000
# 4 0.0000 0.0000 0.0000 86.5596 0.0000 0.8149
# 5 42.7695 5.8935 57.1380 0.0000 54.0828 0.0000
# 6 0.0000 0.0000 0.0000 0.8149 0.0000 55.9573
#
#
#
# Elastic Compliance Matrix: (Units=1/GPa)
#
#
# Indices 1 2 3 4 5 6 
#
# 1 0.006286 -0.000635 0.000188 0.000000 -0.005100 0.000000
# 2 -0.000635 0.003200 -0.002181 0.000000 0.002457 0.000000
# 3 0.000188 -0.002181 0.039085 0.000000 -0.041204 0.000000
# 4 0.000000 0.000000 0.000000 0.011554 0.000000 -0.000168
# 5 -0.005100 0.002457 -0.041204 0.000000 0.065787 0.000000
# 6 0.000000 0.000000 0.000000 -0.000168 0.000000 0.017873
#
#
# Mechanical properties :
#
#
# Convention : Reuss Voigt Hill
#
# Bulk Modulus (GPa) = 23.08666 92.45548 57.77107
# Shear Modulus (GPa) = 30.58479 73.11566 51.85022
#
# Velocity S-wave (km/s) = 3.42278 5.29215 4.45658
# Velocity P-wave (km/s) = 4.94610 8.52979 6.97213
#
# Compressibility (1/GPa) = 0.04331505
#
# Stress axis : x y z
#
# Youngs Moduli (GPa) = 159.08093 312.48992 25.58530
#
# Poissons Ratio (x) = 0.19828 -0.00480
# Poissons Ratio (y) = 0.10094 0.05580
# Poissons Ratio (z) = -0.02983 0.68156
#
# Static dielectric constant tensor:
#      x y z
#    x 2.091060 0.000000 -0.206260 
#    y 0.000000 2.120250 0.000000 
#    z -0.206260 0.000000 2.264630 
# 
# From -- ./inp_files/19306.got.cif
#   From: 2010.05.17/outbox.cif.g08.bks.cpg/sg12_10_cif.got.tgz:19306.got - 2010.06.03 13:09:07.
