data_PCOD9216600
_publ_section_title
;
Structure prediction by ZEFSAII (Michael W. Deem and Ramdas Pophale) SiO2 
 PCOD9216600
Probable space group: C 2/M
;
_chemical_formula_sum "Si O2"
_cell_formula_units_Z 36
_cell_length_a 16.094524
_cell_length_b 9.686701
_cell_length_c 11.619396
_cell_angle_alpha 90.000000
_cell_angle_beta 110.142414
_cell_angle_gamma 90.000000
_cell_volume 1700.704976
_symmetry_space_group_name_H-M "C 2/M"
_symmetry_group_IT_number 12
_symmetry_cell_setting 'monoclinic'
loop_
_space_group_symop_operation_xyz
x,y,z
-x,y,-z
-x,-y,-z
x,-y,z
1/2+x,1/2+y,z
1/2-x,1/2+y,-z
1/2-x,1/2-y,-z
1/2+x,1/2-y,z
loop_
_atom_site_type_symbol
_atom_site_label
_atom_site_fract_x
_atom_site_fract_y
_atom_site_fract_z
Si Si1 0.707392 0.208904 0.801098
Si Si2 0.062686 0.500000 0.305368
Si Si3 0.707167 0.000000 0.191798
Si Si4 0.038011 0.000000 0.825995
Si Si5 0.360422 0.500000 0.890380
Si Si6 0.115973 0.500000 0.921556
Si Si7 0.971758 0.756971 0.365430
O O1 0.733191 0.367582 0.805315
O O2 0.799043 0.129068 0.828366
O O3 0.666493 0.135146 0.895076
O O4 0.626042 0.188503 0.674167
O O5 0.158168 0.500000 0.290984
O O6 0.982819 0.500000 0.172957
O O7 0.041505 0.637758 0.366861
O O8 0.628163 0.000000 0.061828
O O9 0.036548 0.866940 0.741992
O O10 0.948553 0.000000 0.858022
O O11 0.113664 0.000000 0.961435
O O12 0.000000 0.820699 0.500000
#
# Coordination Sequence:
#
# PCOD9216600 Si02
#       7
#     8   4   4   4   4   4   8
#     4  10  23  38  62  92 124 166 206 256 309 367
#     4  10  23  39  61  89 122 162 205 259 316 354
#     4  12  21  35  60  96 124 154 206 260 312 368
#     4  11  24  41  67  92 131 167 203 258 315 378
#     4  10  24  43  61  98 134 160 198 259 335 369
#     4   9  21  36  57  84 128 165 197 246 314 382
#     4  11  24  45  65  89 123 173 218 251 303 376
#
# _framework density 21.167693
#
# number of rings (size 3 to 8) (size 9 to 14) (size 15 to 20)
#    0.000    1.556    0.000    4.333   12.444    0.000 
#    0.000    6.667    0.000    0.000    0.000    0.000 
#    0.000    0.000    0.000    0.000    0.000    0.000 
#
# Total GULP energy -100494.623496 kJ/mol
# GULP energy per Si atom -5583.034639 kJ/mol
# Density = 2.111951 g / cm^3
# Si number density = 21.167693 Si / 1000 Ang^3
#
#
#
# Elastic Constant Matrix: (Units=GPa)
#
#
# Indices 1 2 3 4 5 6 
#
# 1 115.3264 44.3972 39.9589 0.0000 -3.5639 0.0000
# 2 44.3972 163.2257 27.6836 0.0000 -13.7719 0.0000
# 3 39.9589 27.6836 112.9017 0.0000 4.8116 0.0000
# 4 0.0000 0.0000 0.0000 14.1045 0.0000 6.4146
# 5 -3.5639 -13.7719 4.8116 0.0000 14.6141 0.0000
# 6 0.0000 0.0000 0.0000 6.4146 0.0000 -8.3766
#
#
#
# Elastic Compliance Matrix: (Units=1/GPa)
#
#
# Indices 1 2 3 4 5 6 
#
# 1 0.010726 -0.002217 -0.003321 0.000000 0.001620 0.000000
# 2 -0.002217 0.007554 -0.001367 0.000000 0.007028 0.000000
# 3 -0.003321 -0.001367 0.010606 0.000000 -0.005590 0.000000
# 4 0.000000 0.000000 0.000000 0.052585 0.000000 0.040269
# 5 0.001620 0.007028 -0.005590 0.000000 0.077286 0.000000
# 6 0.000000 0.000000 0.000000 0.040269 0.000000 -0.088543
#
#
# Mechanical properties :
#
#
# Convention : Reuss Voigt Hill
#
# Bulk Modulus (GPa) = 66.33698 68.39258 67.36478
# Shear Modulus (GPa) = 56.14778 22.69601 39.42189
#
# Velocity S-wave (km/s) = 5.15585 3.27800 4.32019
# Velocity P-wave (km/s) = 8.17622 6.83426 7.53517
#
# Compressibility (1/GPa) = 0.01507455
#
# Stress axis : x y z
#
# Youngs Moduli (GPa) = 93.23560 132.37156 94.28405
#
# Poissons Ratio (x) = 0.29352 0.31315
# Poissons Ratio (y) = 0.20674 0.12890
# Poissons Ratio (z) = 0.30967 0.18097
#
# Static dielectric constant tensor:
#      x y z
#    x 1.756090 0.000000 0.008200 
#    y 0.000000 1.838290 0.000000 
#    z 0.008200 0.000000 1.741400 
# 
# From -- ./inp_files/151605.got.cif
#   From: 2010.05.17/outbox.cif.g08.bks.cpg/sg12_76_cif.got.tgz:151605.got - 2010.06.03 13:09:07.
