data_PCOD9216387
_publ_section_title
;
Structure prediction by ZEFSAII (Michael W. Deem and Ramdas Pophale) SiO2 
 PCOD9216387
Probable space group: C 2/M
;
_chemical_formula_sum "Si O2"
_cell_formula_units_Z 64
_cell_length_a 13.831477
_cell_length_b 30.625506
_cell_length_c 10.964114
_cell_angle_alpha 90.000000
_cell_angle_beta 42.686295
_cell_angle_gamma 90.000000
_cell_volume 3148.797486
_symmetry_space_group_name_H-M "C 2/M"
_symmetry_group_IT_number 12
_symmetry_cell_setting 'monoclinic'
loop_
_space_group_symop_operation_xyz
x,y,z
-x,y,-z
-x,-y,-z
x,-y,z
1/2+x,1/2+y,z
1/2-x,1/2+y,-z
1/2-x,1/2-y,-z
1/2+x,1/2-y,z
loop_
_atom_site_type_symbol
_atom_site_label
_atom_site_fract_x
_atom_site_fract_y
_atom_site_fract_z
Si Si1 0.560427 0.740308 0.305930
Si Si2 0.035116 0.448706 0.823790
Si Si3 0.162422 0.372903 0.056350
Si Si4 0.914104 0.309192 0.266298
Si Si5 0.240389 0.892720 0.516708
Si Si6 0.960448 0.859298 0.678881
Si Si7 0.329128 0.853452 0.669300
Si Si8 0.831971 0.233656 0.170858
O O1 0.500000 0.741238 0.500000
O O2 0.472709 0.775374 0.311498
O O3 0.539168 0.691278 0.278438
O O4 0.726900 0.753690 0.157494
O O5 0.023998 0.500000 0.810157
O O6 0.184958 0.429880 0.634125
O O7 0.921106 0.418362 0.861301
O O8 0.000000 0.441636 0.000000
O O9 0.055126 0.336699 0.098710
O O10 0.199975 0.360401 0.160611
O O11 0.301737 0.375947 0.846461
O O12 0.809604 0.347138 0.406043
O O13 0.833171 0.277814 0.248673
O O14 0.282449 0.891909 0.620557
O O15 0.073751 0.887801 0.647784
O O16 0.000000 0.860126 0.500000
O O17 0.500000 0.847537 0.500000
O O18 0.242222 0.810114 0.711370
O O19 0.000000 0.224763 0.000000
#
# Coordination Sequence:
#
# PCOD9216387 Si02
#       8
#     8   8   8   8   8   8   8   8
#     4  11  22  37  52  79 120 167 219 265 306 358
#     4  10  22  44  74 101 124 158 210 263 319 391
#     4  11  24  42  66  89 132 169 212 268 325 380
#     4  11  22  37  57  83 119 173 221 265 304 365
#     4  11  23  39  65  93 127 167 212 263 332 377
#     4  11  24  39  60  92 129 169 216 268 320 375
#     4  12  23  43  59  89 127 173 217 264 314 380
#     4  12  25  34  55  85 119 172 227 266 309 355
#
# _framework density 20.325218
#
# number of rings (size 3 to 8) (size 9 to 14) (size 15 to 20)
#    0.000    0.875    3.750    4.875    3.500    5.500 
#    0.000    1.875    0.000    2.250    0.000    1.750 
#    0.000    0.000    0.000    0.000    0.000    0.000 
#
# Total GULP energy -178919.201762 kJ/mol
# GULP energy per Si atom -5591.225055 kJ/mol
# Density = 2.027896 g / cm^3
# Si number density = 20.325218 Si / 1000 Ang^3
#
#
#
# Elastic Constant Matrix: (Units=GPa)
#
#
# Indices 1 2 3 4 5 6 
#
# 1 66.3190 20.0333 20.5665 0.0000 0.3046 0.0000
# 2 20.0333 94.8833 13.9395 0.0000 4.7516 0.0000
# 3 20.5665 13.9395 83.5140 0.0000 -13.0754 0.0000
# 4 0.0000 0.0000 0.0000 11.8276 0.0000 7.7230
# 5 0.3046 4.7516 -13.0754 0.0000 34.3434 0.0000
# 6 0.0000 0.0000 0.0000 7.7230 0.0000 6.9092
#
#
#
# Elastic Compliance Matrix: (Units=1/GPa)
#
#
# Indices 1 2 3 4 5 6 
#
# 1 0.017208 -0.002994 -0.003931 0.000000 -0.001235 0.000000
# 2 -0.002994 0.011502 -0.001518 0.000000 -0.002143 0.000000
# 3 -0.003931 -0.001518 0.014073 0.000000 0.005603 0.000000
# 4 0.000000 0.000000 0.000000 0.312981 0.000000 -0.349842
# 5 -0.001235 -0.002143 0.005603 0.000000 0.031558 0.000000
# 6 0.000000 0.000000 0.000000 -0.349842 0.000000 0.535778
#
#
# Mechanical properties :
#
#
# Convention : Reuss Voigt Hill
#
# Bulk Modulus (GPa) = 38.61597 39.31054 38.96326
# Shear Modulus (GPa) = 5.27083 23.29452 14.28267
#
# Velocity S-wave (km/s) = 1.61210 3.38907 2.65374
# Velocity P-wave (km/s) = 4.74399 5.89043 5.34802
#
# Compressibility (1/GPa) = 0.02589602
#
# Stress axis : x y z
#
# Youngs Moduli (GPa) = 58.11310 86.94395 71.05927
#
# Poissons Ratio (x) = 0.26029 0.27936
# Poissons Ratio (y) = 0.17398 0.10787
# Poissons Ratio (z) = 0.22846 0.13198
#
# Static dielectric constant tensor:
#      x y z
#    x 1.753720 0.000000 0.030220 
#    y 0.000000 1.683990 0.000000 
#    z 0.030220 0.000000 1.801050 
# 
# From -- ./inp_files/149733.got.cif
#   From: 2010.05.17/outbox.cif.g08.bks.cpg/sg12_75_cif.got.tgz:149733.got - 2010.06.03 13:09:07.
