data_PCOD9216455
_publ_section_title
;
Structure prediction by ZEFSAII (Michael W. Deem and Ramdas Pophale) SiO2 
 PCOD9216455
Probable space group: C 2/M
;
_chemical_formula_sum "Si O2"
_cell_formula_units_Z 38
_cell_length_a 12.285479
_cell_length_b 17.122938
_cell_length_c 13.615893
_cell_angle_alpha 90.000000
_cell_angle_beta 39.171033
_cell_angle_gamma 90.000000
_cell_volume 1809.190790
_symmetry_space_group_name_H-M "C 2/M"
_symmetry_group_IT_number 12
_symmetry_cell_setting 'monoclinic'
loop_
_space_group_symop_operation_xyz
x,y,z
-x,y,-z
-x,-y,-z
x,-y,z
1/2+x,1/2+y,z
1/2-x,1/2+y,-z
1/2-x,1/2-y,-z
1/2+x,1/2-y,z
loop_
_atom_site_type_symbol
_atom_site_label
_atom_site_fract_x
_atom_site_fract_y
_atom_site_fract_z
Si Si1 0.766738 0.632329 0.524337
Si Si2 0.704079 0.000000 0.343549
Si Si3 0.893085 0.000000 0.475100
Si Si4 0.000000 0.000000 0.000000
Si Si5 0.839692 0.000000 0.893231
Si Si6 0.357025 0.159008 0.018299
Si Si7 0.032446 0.260552 0.260068
O O1 0.747506 0.578208 0.631734
O O2 0.724205 0.576426 0.460987
O O3 0.619392 0.697116 0.634591
O O4 0.954382 0.671093 0.382307
O O5 0.500000 0.000000 0.500000
O O6 0.794070 0.000000 0.175956
O O7 0.000000 0.000000 0.500000
O O8 0.031610 0.000000 0.289942
O O9 0.945262 0.000000 0.920949
O O10 0.728447 0.078907 0.959919
O O11 0.436177 0.204093 0.869660
O O12 0.500000 0.143523 0.000000
O O13 0.207237 0.215820 0.166355
#
# Coordination Sequence:
#
# PCOD9216455 Si02
#       7
#     8   4   4   2   4   8   8
#     4  10  22  46  66 100 139 181 248 287 360 439
#     4  11  25  42  69 105 130 190 250 295 362 434
#     4  11  23  42  75 103 146 180 246 304 367 438
#     4  12  24  48  76  98 156 182 252 320 360 448
#     4  12  25  48  74 108 136 198 246 303 381 427
#     4  11  25  45  69 107 144 189 243 298 375 444
#     4  10  23  43  68  98 145 185 231 294 367 441
#
# _framework density 21.003865000000001
#
# number of rings (size 3 to 8) (size 9 to 14) (size 15 to 20)
#    0.000    1.263    4.211    0.316    5.895    2.526 
#   13.263    4.211    0.000    0.000    0.000    0.000 
#    0.000    0.000    0.000    0.000    0.000    0.000 
#
# Total GULP energy -105885.705978 kJ/mol
# GULP energy per Si atom -5572.931894 kJ/mol
# Density = 2.095606 g / cm^3
# Si number density = 21.003865 Si / 1000 Ang^3
#
#
#
# Elastic Constant Matrix: (Units=GPa)
#
#
# Indices 1 2 3 4 5 6 
#
# 1 107.5235 33.6493 28.7785 0.0076 -0.1766 -0.0020
# 2 33.6493 119.3037 44.4006 0.0063 -5.2264 -0.0016
# 3 28.7785 44.4006 131.8737 0.0093 1.3896 -0.0023
# 4 0.0076 0.0063 0.0093 1142.4095 -0.0036 -250.0323
# 5 -0.1766 -5.2264 1.3896 -0.0036 27.9985 0.0011
# 6 -0.0020 -0.0016 -0.0023 -250.0323 0.0011 54.7579
#
#
#
# Elastic Compliance Matrix: (Units=1/GPa)
#
#
# Indices 1 2 3 4 5 6 
#
# 1 0.010447 -0.002416 -0.001463 0.000017 -0.000312 0.000080
# 2 -0.002416 0.010249 -0.002945 0.000001 0.002044 0.000003
# 3 -0.001463 -0.002945 0.008904 0.000011 -0.001001 0.000049
# 4 0.000017 0.000001 0.000011 1.375896 -0.000074 6.282537
# 5 -0.000312 0.002044 -0.001001 -0.000074 0.036145 -0.000341
# 6 0.000080 0.000003 0.000049 6.282537 -0.000341 28.705210
#
#
# Mechanical properties :
#
#
# Convention : Reuss Voigt Hill
#
# Bulk Modulus (GPa) = 62.68568 63.59532 63.14050
# Shear Modulus (GPa) = 0.16575 261.82468 130.99521
#
# Velocity S-wave (km/s) = 0.28122 11.17703 7.90586
# Velocity P-wave (km/s) = 5.47860 14.03253 10.65192
#
# Compressibility (1/GPa) = 0.01595261
#
# Stress axis : x y z
#
# Youngs Moduli (GPa) = 95.71732 97.57122 112.30332
#
# Poissons Ratio (x) = 0.23571 0.16433
# Poissons Ratio (y) = 0.23123 0.33074
# Poissons Ratio (z) = 0.14006 0.28735
#
# Static dielectric constant tensor:
#      x y z
#    x 1.756390 0.000000 -0.041670 
#    y 0.000000 1.798790 0.000000 
#    z -0.041670 0.000000 1.763660 
# 
# From -- ./inp_files/205949.got.cif
#   From: 2010.05.17/outbox.cif.g08.bks.cpg/sg12_103_cif.got.tgz:205949.got - 2010.06.03 13:09:07.
