data_PCOD9216204
_publ_section_title
;
Structure prediction by ZEFSAII (Michael W. Deem and Ramdas Pophale) SiO2 
 PCOD9216204
Probable space group: C 2/M
;
_chemical_formula_sum "Si O2"
_cell_formula_units_Z 48
_cell_length_a 11.156364
_cell_length_b 16.562716
_cell_length_c 23.372386
_cell_angle_alpha 90.000000
_cell_angle_beta 28.226836
_cell_angle_gamma 90.000000
_cell_volume 2042.607407
_symmetry_space_group_name_H-M "C 2/M"
_symmetry_group_IT_number 12
_symmetry_cell_setting 'monoclinic'
loop_
_space_group_symop_operation_xyz
x,y,z
-x,y,-z
-x,-y,-z
x,-y,z
1/2+x,1/2+y,z
1/2-x,1/2+y,-z
1/2-x,1/2-y,-z
1/2+x,1/2-y,z
loop_
_atom_site_type_symbol
_atom_site_label
_atom_site_fract_x
_atom_site_fract_y
_atom_site_fract_z
Si Si1 0.323270 0.654709 0.968227
Si Si2 0.664691 0.913320 0.807896
Si Si3 0.229284 0.809606 0.129444
Si Si4 0.119747 0.692998 0.389308
Si Si5 0.159464 0.127904 0.383949
Si Si6 0.385485 0.097804 0.725797
O O1 0.266751 0.628582 0.925941
O O2 0.609452 0.632105 0.858465
O O3 0.250000 0.750000 0.000000
O O4 0.121853 0.607165 0.090367
O O5 0.739528 0.844472 0.820608
O O6 0.825454 0.912308 0.683347
O O7 0.681600 0.000000 0.829297
O O8 0.927075 0.790099 0.255946
O O9 0.500000 0.763114 0.000000
O O10 0.028784 0.785556 0.425994
O O11 0.055882 0.637837 0.361284
O O12 0.000000 0.660885 0.500000
O O13 0.429175 0.129010 0.302576
O O14 0.000000 0.085868 0.500000
O O15 0.386812 0.000000 0.722155
#
# Coordination Sequence:
#
# PCOD9216204 Si02
#       6
#     8   8   8   8   8   8
#     4  10  22  43  69 100 137 179 225 286 351 424
#     4  11  23  40  65  97 135 180 226 280 351 421
#     4   9  21  37  65  99 132 169 226 289 343 408
#     4  10  24  43  70  99 136 184 241 290 352 424
#     4  11  27  45  68  98 141 188 240 290 344 423
#     4  11  25  45  70 102 145 182 229 298 357 414
#
# _framework density 23.499376000000002
#
# number of rings (size 3 to 8) (size 9 to 14) (size 15 to 20)
#    0.000    1.667    0.000    3.000    9.333    9.333 
#    0.000    1.667    0.000    0.000    0.000    0.000 
#    0.000    0.000    0.000    0.000    0.000    0.000 
#
# Total GULP energy -133615.913561 kJ/mol
# GULP energy per Si atom -5567.329732 kJ/mol
# Density = 2.344589 g / cm^3
# Si number density = 23.499376 Si / 1000 Ang^3
#
#
#
# Elastic Constant Matrix: (Units=GPa)
#
#
# Indices 1 2 3 4 5 6 
#
# 1 93.8234 25.8643 16.1792 0.1337 7.9436 -0.0198
# 2 25.8643 112.5924 2.7057 -0.2536 25.6334 0.2608
# 3 16.1792 2.7057 99.4911 -0.0677 25.1429 0.2103
# 4 0.1337 -0.2536 -0.0677 104.3057 -0.1854 -96.0742
# 5 7.9436 25.6334 25.1429 -0.1854 45.1202 0.1315
# 6 -0.0198 0.2608 0.2103 -96.0742 0.1315 118.7977
#
#
#
# Elastic Compliance Matrix: (Units=1/GPa)
#
#
# Indices 1 2 3 4 5 6 
#
# 1 0.011716 -0.002787 -0.001988 -0.000047 0.000628 -0.000027
# 2 -0.002787 0.011030 0.001877 0.000003 -0.006821 -0.000018
# 3 -0.001988 0.001877 0.012226 -0.000058 -0.007529 -0.000064
# 4 -0.000047 0.000003 -0.000058 0.037583 0.000105 0.030394
# 5 0.000628 -0.006821 -0.007529 0.000105 0.030124 0.000080
# 6 -0.000027 -0.000018 -0.000064 0.030394 0.000080 0.032998
#
#
# Mechanical properties :
#
#
# Convention : Reuss Voigt Hill
#
# Bulk Modulus (GPa) = 34.27399 43.93393 39.10396
# Shear Modulus (GPa) = 33.06918 71.05523 52.06221
#
# Velocity S-wave (km/s) = 3.75539 5.50479 4.71199
# Velocity P-wave (km/s) = 5.78106 7.69025 6.80296
#
# Compressibility (1/GPa) = 0.02917665
#
# Stress axis : x y z
#
# Youngs Moduli (GPa) = 85.35143 90.66420 81.79059
#
# Poissons Ratio (x) = 0.25266 0.16262
# Poissons Ratio (y) = 0.23785 -0.15353
# Poissons Ratio (z) = 0.16970 -0.17019
#
# Static dielectric constant tensor:
#      x y z
#    x 1.972470 0.000000 -0.098370 
#    y 0.000000 1.883540 0.000020 
#    z -0.098370 0.000020 2.106400 
# 
# From -- ./inp_files/336394.got.cif
#   From: 2010.05.17/outbox.cif.g08.bks.cpg/sg12_169_cif.got.tgz:336394.got - 2010.06.03 13:09:07.
