data_PCOD9216076
_publ_section_title
;
Structure prediction by ZEFSAII (Michael W. Deem and Ramdas Pophale) SiO2 
 PCOD9216076
Probable space group: C 2/M
;
_chemical_formula_sum "Si O2"
_cell_formula_units_Z 40
_cell_length_a 15.740193
_cell_length_b 20.583034
_cell_length_c 9.966974
_cell_angle_alpha 90.000000
_cell_angle_beta 142.000101
_cell_angle_gamma 90.000000
_cell_volume 1988.033823
_symmetry_space_group_name_H-M "C 2/M"
_symmetry_group_IT_number 12
_symmetry_cell_setting 'monoclinic'
loop_
_space_group_symop_operation_xyz
x,y,z
-x,y,-z
-x,-y,-z
x,-y,z
1/2+x,1/2+y,z
1/2-x,1/2+y,-z
1/2-x,1/2-y,-z
1/2+x,1/2-y,z
loop_
_atom_site_type_symbol
_atom_site_label
_atom_site_fract_x
_atom_site_fract_y
_atom_site_fract_z
Si Si1 0.137135 0.500000 0.580819
Si Si2 0.382671 0.731121 0.078568
Si Si3 0.158807 0.116287 0.188334
Si Si4 0.621653 0.864559 0.048274
Si Si5 0.949642 0.500000 0.092477
Si Si6 0.819905 0.812889 0.515493
O O1 0.232737 0.562936 0.725194
O O2 0.000000 0.500000 0.500000
O O3 0.078135 0.500000 0.354760
O O4 0.343848 0.681763 0.907969
O O5 0.431617 0.802819 0.098799
O O6 0.250000 0.750000 0.000000
O O7 0.518360 0.699263 0.311033
O O8 0.195707 0.134387 0.386578
O O9 0.000000 0.092662 0.000000
O O10 0.749316 0.837652 0.292531
O O11 0.500000 0.875972 0.000000
O O12 0.636846 0.933326 0.993235
O O13 0.000000 0.500000 0.000000
O O14 0.750000 0.750000 0.500000
#
# Coordination Sequence:
#
# PCOD9216076 Si02
#       6
#     4   8   8   8   4   8
#     4  12  27  41  68 101 132 167 213 280 333 372
#     4  11  24  37  62  95 132 162 210 274 321 369
#     4  10  22  43  63  91 124 174 218 258 319 398
#     4  11  20  39  64  90 128 162 215 262 307 392
#     4  10  24  39  64  98 127 175 210 262 323 391
#     4  11  20  38  65  90 119 171 218 260 313 378
#
# _framework density 20.120381999999999
#
# number of rings (size 3 to 8) (size 9 to 14) (size 15 to 20)
#    0.000    1.200    4.000    3.300    2.800    0.800 
#    0.000    1.000    0.000    1.200    0.000    0.000 
#    0.000    0.000    0.000    0.000    0.000    0.000 
#
# Total GULP energy -111448.072025 kJ/mol
# GULP energy per Si atom -5572.403601 kJ/mol
# Density = 2.007459 g / cm^3
# Si number density = 20.120382 Si / 1000 Ang^3
#
#
#
# Elastic Constant Matrix: (Units=GPa)
#
#
# Indices 1 2 3 4 5 6 
#
# 1 64.0793 16.3680 12.8237 0.0000 31.5334 0.0000
# 2 16.3680 144.5417 34.1009 0.0000 16.3865 0.0000
# 3 12.8237 34.1009 83.3985 0.0000 10.0739 0.0000
# 4 0.0000 0.0000 0.0000 21.7974 0.0000 12.0369
# 5 31.5334 16.3865 10.0739 0.0000 31.9174 0.0000
# 6 0.0000 0.0000 0.0000 12.0369 0.0000 12.3620
#
#
#
# Elastic Compliance Matrix: (Units=1/GPa)
#
#
# Indices 1 2 3 4 5 6 
#
# 1 0.030472 0.000208 -0.001165 0.000000 -0.029844 0.000000
# 2 0.000208 0.007957 -0.002877 0.000000 -0.003382 0.000000
# 3 -0.001165 -0.002877 0.013545 0.000000 -0.001647 0.000000
# 4 0.000000 0.000000 0.000000 0.099235 0.000000 -0.096625
# 5 -0.029844 -0.003382 -0.001647 0.000000 0.063073 0.000000
# 6 0.000000 0.000000 0.000000 -0.096625 0.000000 0.174976
#
#
# Mechanical properties :
#
#
# Convention : Reuss Voigt Hill
#
# Bulk Modulus (GPa) = 22.57080 46.51164 34.54122
# Shear Modulus (GPa) = 12.14489 28.46383 20.30436
#
# Velocity S-wave (km/s) = 2.45952 3.76530 3.18015
# Velocity P-wave (km/s) = 4.39407 6.48615 5.53977
#
# Compressibility (1/GPa) = 0.04430503
#
# Stress axis : x y z
#
# Youngs Moduli (GPa) = 32.81667 125.67400 73.82748
#
# Poissons Ratio (x) = -0.02610 0.08604
# Poissons Ratio (y) = -0.00682 0.21240
# Poissons Ratio (z) = 0.03825 0.36156
#
# Static dielectric constant tensor:
#      x y z
#    x 1.746450 0.000000 -0.002460 
#    y 0.000000 2.171470 0.000000 
#    z -0.002460 0.000000 1.737000 
# 
# From -- ./inp_files/48542.got.cif
#   From: 2010.05.17/outbox.cif.g08.bks.cpg/sg12_25_cif.got.tgz:48542.got - 2010.06.03 13:09:07.
