data_PCOD9216191
_publ_section_title
;
Structure prediction by ZEFSAII (Michael W. Deem and Ramdas Pophale) SiO2 
 PCOD9216191
Probable space group: C 2/M
;
_chemical_formula_sum "Si O2"
_cell_formula_units_Z 48
_cell_length_a 15.451536
_cell_length_b 15.648390
_cell_length_c 11.372049
_cell_angle_alpha 90.000000
_cell_angle_beta 55.875943
_cell_angle_gamma 90.000000
_cell_volume 2276.242397
_symmetry_space_group_name_H-M "C 2/M"
_symmetry_group_IT_number 12
_symmetry_cell_setting 'monoclinic'
loop_
_space_group_symop_operation_xyz
x,y,z
-x,y,-z
-x,-y,-z
x,-y,z
1/2+x,1/2+y,z
1/2-x,1/2+y,-z
1/2-x,1/2-y,-z
1/2+x,1/2-y,z
loop_
_atom_site_type_symbol
_atom_site_label
_atom_site_fract_x
_atom_site_fract_y
_atom_site_fract_z
Si Si1 0.051735 0.748076 0.335432
Si Si2 0.879781 0.640618 0.076499
Si Si3 0.619577 0.655510 0.896436
Si Si4 0.846144 0.187072 0.393976
Si Si5 0.823663 0.903434 0.651552
Si Si6 0.315695 0.093584 0.867203
O O1 0.118472 0.833726 0.310540
O O2 0.123910 0.671514 0.239165
O O3 0.000000 0.726313 0.500000
O O4 0.957404 0.763829 0.316490
O O5 0.875575 0.743584 0.076391
O O6 0.800449 0.609680 0.237133
O O7 0.834863 0.603467 0.990464
O O8 0.000000 0.614982 0.000000
O O9 0.661524 0.649336 0.730463
O O10 0.695329 0.605530 0.925201
O O11 0.500000 0.627771 0.000000
O O12 0.750000 0.250000 0.500000
O O13 0.851350 0.119370 0.496107
O O14 0.853293 0.000000 0.657965
O O15 0.352295 0.000000 0.800401
#
# Coordination Sequence:
#
# PCOD9216191 Si02
#       6
#     8   8   8   8   8   8
#     4  10  22  43  68  93 135 174 225 281 332 395
#     4  11  23  44  70  98 135 174 225 283 335 395
#     4  11  23  42  73  97 133 184 224 270 339 397
#     4  11  22  43  66  98 134 175 221 277 334 400
#     4  11  24  42  70 101 132 175 226 280 336 390
#     4  12  26  43  66 100 138 178 224 275 334 402
#
# _framework density 21.087385000000001
#
# number of rings (size 3 to 8) (size 9 to 14) (size 15 to 20)
#    0.000    1.000    3.333    4.000    2.333    5.667 
#    0.000    0.000    0.000    0.000    0.000    0.000 
#    0.000    0.000    0.000    0.000    0.000    0.000 
#
# Total GULP energy -134288.316739 kJ/mol
# GULP energy per Si atom -5595.346531 kJ/mol
# Density = 2.103939 g / cm^3
# Si number density = 21.087385 Si / 1000 Ang^3
#
#
#
# Elastic Constant Matrix: (Units=GPa)
#
#
# Indices 1 2 3 4 5 6 
#
# 1 139.6124 37.3769 39.7703 0.0000 -5.7342 0.0000
# 2 37.3769 130.6214 31.5006 0.0000 -6.7389 0.0000
# 3 39.7703 31.5006 80.7903 0.0000 -13.6616 0.0000
# 4 0.0000 0.0000 0.0000 17.4512 0.0000 7.5010
# 5 -5.7342 -6.7389 -13.6616 0.0000 35.3433 0.0000
# 6 0.0000 0.0000 0.0000 7.5010 0.0000 -6.7806
#
#
#
# Elastic Compliance Matrix: (Units=1/GPa)
#
#
# Indices 1 2 3 4 5 6 
#
# 1 0.008625 -0.001598 -0.003678 0.000000 -0.000327 0.000000
# 2 -0.001598 0.008751 -0.002554 0.000000 0.000422 0.000000
# 3 -0.003678 -0.002554 0.016050 0.000000 0.005120 0.000000
# 4 0.000000 0.000000 0.000000 0.038836 0.000000 0.042962
# 5 -0.000327 0.000422 0.005120 0.000000 0.030300 0.000000
# 6 0.000000 0.000000 0.000000 0.042962 0.000000 -0.099953
#
#
# Mechanical properties :
#
#
# Convention : Reuss Voigt Hill
#
# Bulk Modulus (GPa) = 56.28830 63.14665 59.71748
# Shear Modulus (GPa) = 206.69664 25.36122 116.02893
#
# Velocity S-wave (km/s) = 9.91120 3.47172 7.42579
# Velocity P-wave (km/s) = 12.55893 6.78828 10.09474
#
# Compressibility (1/GPa) = 0.01776568
#
# Stress axis : x y z
#
# Youngs Moduli (GPa) = 115.94554 114.27760 62.30563
#
# Poissons Ratio (x) = 0.18260 0.22916
# Poissons Ratio (y) = 0.18526 0.15913
# Poissons Ratio (z) = 0.42644 0.29186
#
# Static dielectric constant tensor:
#      x y z
#    x 1.774190 0.000000 -0.003260 
#    y 0.000000 1.749990 0.000000 
#    z -0.003260 0.000000 1.774020 
# 
# From -- ./inp_files/143511.got.cif
#   From: 2010.05.17/outbox.cif.g08.bks.cpg/sg12_72_cif.got.tgz:143511.got - 2010.06.03 13:09:07.
