data_PCOD9216656
_publ_section_title
;
Structure prediction by ZEFSAII (Michael W. Deem and Ramdas Pophale) SiO2 
 PCOD9216656
Probable space group: C 2/M
;
_chemical_formula_sum "Si O2"
_cell_formula_units_Z 56
_cell_length_a 14.922162
_cell_length_b 21.110936
_cell_length_c 17.310049
_cell_angle_alpha 90.000000
_cell_angle_beta 150.861771
_cell_angle_gamma 90.000000
_cell_volume 2655.177805
_symmetry_space_group_name_H-M "C 2/M"
_symmetry_group_IT_number 12
_symmetry_cell_setting 'monoclinic'
loop_
_space_group_symop_operation_xyz
x,y,z
-x,y,-z
-x,-y,-z
x,-y,z
1/2+x,1/2+y,z
1/2-x,1/2+y,-z
1/2-x,1/2-y,-z
1/2+x,1/2-y,z
loop_
_atom_site_type_symbol
_atom_site_label
_atom_site_fract_x
_atom_site_fract_y
_atom_site_fract_z
Si Si1 0.974312 0.668863 0.361930
Si Si2 0.767233 0.574138 0.502398
Si Si3 0.792149 0.214236 0.701675
Si Si4 0.122324 0.925881 0.850503
Si Si5 0.305503 0.074876 0.833160
Si Si6 0.301921 0.646756 0.389963
Si Si7 0.784941 0.186916 0.978078
O O1 0.838613 0.685131 0.330315
O O2 0.045259 0.598016 0.396425
O O3 0.170655 0.701415 0.532202
O O4 0.856684 0.689672 0.199275
O O5 0.772677 0.500000 0.530240
O O6 0.598743 0.579467 0.314345
O O7 0.723318 0.620120 0.542650
O O8 0.812387 0.290172 0.713699
O O9 0.995011 0.187886 0.870758
O O10 0.166748 0.905714 0.795686
O O11 0.234541 0.878759 0.989351
O O12 0.171017 0.000000 0.899003
O O13 0.258268 0.090708 0.711231
O O14 0.315079 0.000000 0.847224
O O15 0.500000 0.104752 0.000000
O O16 0.500000 0.663646 0.500000
O O17 0.750000 0.250000 0.000000
#
# Coordination Sequence:
#
# PCOD9216656 Si02
#       7
#     8   8   8   8   8   8   8
#     4  11  25  47  70  96 135 185 228 286 341 406
#     4  11  24  43  70 100 136 180 234 289 345 417
#     4  11  26  48  66 101 142 176 232 290 345 411
#     4  10  23  43  64  96 140 179 223 286 349 413
#     4  10  23  39  59  92 138 181 222 272 336 422
#     4  12  23  39  67  96 134 182 223 279 344 419
#     4  12  27  42  72 104 137 184 229 291 347 416
#
# _framework density 21.090865999999998
#
# number of rings (size 3 to 8) (size 9 to 14) (size 15 to 20)
#    0.000    1.000    4.286    1.714    8.000    2.286 
#    0.000    2.143    0.000    1.714    0.000    0.000 
#    0.000    0.000    0.000    0.000    0.000    0.000 
#
# Total GULP energy -156010.652556 kJ/mol
# GULP energy per Si atom -5571.809020 kJ/mol
# Density = 2.104286 g / cm^3
# Si number density = 21.090866 Si / 1000 Ang^3
#
#
#
# Elastic Constant Matrix: (Units=GPa)
#
#
# Indices 1 2 3 4 5 6 
#
# 1 66.3048 43.2121 33.5068 0.0278 -11.0548 0.0216
# 2 43.2121 78.1886 16.9747 0.0532 -2.6766 0.0435
# 3 33.5068 16.9747 105.5196 0.0886 -12.4958 0.0707
# 4 0.0278 0.0532 0.0886 23.2409 0.0145 -5.2757
# 5 -11.0548 -2.6766 -12.4958 0.0145 37.2742 0.0109
# 6 0.0216 0.0435 0.0707 -5.2757 0.0109 39.2401
#
#
#
# Elastic Compliance Matrix: (Units=1/GPa)
#
#
# Indices 1 2 3 4 5 6 
#
# 1 0.028222 -0.014099 -0.006063 0.000021 0.005325 0.000012
# 2 -0.014099 0.020298 0.000926 -0.000036 -0.002413 -0.000021
# 3 -0.006063 0.000926 0.011505 -0.000046 0.002125 -0.000025
# 4 0.000021 -0.000036 -0.000046 0.044382 -0.000031 0.005967
# 5 0.005325 -0.002413 0.002125 -0.000031 0.028947 -0.000016
# 6 0.000012 -0.000021 -0.000025 0.005967 -0.000016 0.026286
#
#
# Mechanical properties :
#
#
# Convention : Reuss Voigt Hill
#
# Bulk Modulus (GPa) = 46.39710 48.60003 47.49856
# Shear Modulus (GPa) = 24.35503 30.37235 27.36369
#
# Velocity S-wave (km/s) = 3.40187 3.79894 3.60588
# Velocity P-wave (km/s) = 6.12182 6.50660 6.31714
#
# Compressibility (1/GPa) = 0.02155307
#
# Stress axis : x y z
#
# Youngs Moduli (GPa) = 35.43336 49.26628 86.91908
#
# Poissons Ratio (x) = 0.69459 0.52699
# Poissons Ratio (y) = 0.49957 -0.08048
# Poissons Ratio (z) = 0.21483 -0.04562
#
# Static dielectric constant tensor:
#      x y z
#    x 1.801220 0.000000 0.063300 
#    y 0.000000 1.788810 0.000000 
#    z 0.063300 0.000000 1.843060 
# 
# From -- ./inp_files/272402.got.cif
#   From: 2010.05.17/outbox.cif.g08.bks.cpg/sg12_137_cif.got.tgz:272402.got - 2010.06.03 13:09:07.
