data_PCOD9216585
_publ_section_title
;
Structure prediction by ZEFSAII (Michael W. Deem and Ramdas Pophale) SiO2 
 PCOD9216585
Probable space group: C 2/M
;
_chemical_formula_sum "Si O2"
_cell_formula_units_Z 56
_cell_length_a 18.505636
_cell_length_b 20.942682
_cell_length_c 9.655717
_cell_angle_alpha 90.000000
_cell_angle_beta 50.341314
_cell_angle_gamma 90.000000
_cell_volume 2880.929088
_symmetry_space_group_name_H-M "C 2/M"
_symmetry_group_IT_number 12
_symmetry_cell_setting 'monoclinic'
loop_
_space_group_symop_operation_xyz
x,y,z
-x,y,-z
-x,-y,-z
x,-y,z
1/2+x,1/2+y,z
1/2-x,1/2+y,-z
1/2-x,1/2-y,-z
1/2+x,1/2-y,z
loop_
_atom_site_type_symbol
_atom_site_label
_atom_site_fract_x
_atom_site_fract_y
_atom_site_fract_z
Si Si1 0.280711 0.928370 0.571230
Si Si2 0.385522 0.928365 0.728828
Si Si3 0.168004 0.699788 0.633134
Si Si4 0.912760 0.074617 0.018559
Si Si5 0.291052 0.643059 0.978126
Si Si6 0.311815 0.231699 0.083979
Si Si7 0.016711 0.297444 0.323713
O O1 0.357123 0.924045 0.601812
O O2 0.296999 0.871462 0.444993
O O3 0.179940 0.922344 0.771312
O O4 0.286200 0.000000 0.505131
O O5 0.285802 0.912871 0.922886
O O6 0.452817 0.871775 0.694596
O O7 0.418303 0.000000 0.718604
O O8 0.250000 0.750000 0.500000
O O9 0.148093 0.711159 0.818834
O O10 0.076888 0.710897 0.650581
O O11 0.888388 0.112992 0.908674
O O12 0.930009 0.000000 0.965759
O O13 0.000000 0.100126 0.000000
O O14 0.270288 0.696905 0.123056
O O15 0.268232 0.682215 0.867657
O O16 0.395867 0.231191 0.868686
O O17 0.000000 0.272432 0.500000
#
# Coordination Sequence:
#
# PCOD9216585 Si02
#       7
#     8   8   8   8   8   8   8
#     4   9  18  34  56  85 119 154 195 242 301 358
#     4   9  17  34  61  89 114 151 194 244 294 351
#     4  12  24  38  60  87 121 161 199 243 301 354
#     4   9  17  31  57  87 112 146 197 250 291 346
#     4   9  18  35  59  80 115 147 194 240 294 345
#     4  10  23  38  59  83 120 156 192 244 292 353
#     4  11  23  39  60  89 119 153 197 247 292 356
#
# _framework density 19.438174
#
# number of rings (size 3 to 8) (size 9 to 14) (size 15 to 20)
#    0.000    2.143    1.429    3.429    4.000    3.143 
#    0.000    3.571    0.000    4.286    0.000    3.000 
#    0.000    0.000    0.000    0.000    0.000    0.000 
#
# Total GULP energy -156118.373022 kJ/mol
# GULP energy per Si atom -5575.656179 kJ/mol
# Density = 1.939393 g / cm^3
# Si number density = 19.438174 Si / 1000 Ang^3
#
#
#
# Elastic Constant Matrix: (Units=GPa)
#
#
# Indices 1 2 3 4 5 6 
#
# 1 158.9479 27.7232 29.4453 0.0000 7.2333 0.0000
# 2 27.7232 82.8620 21.6132 0.0000 6.0530 0.0000
# 3 29.4453 21.6132 66.2349 0.0000 11.1981 0.0000
# 4 0.0000 0.0000 0.0000 20.3858 0.0000 4.8598
# 5 7.2333 6.0530 11.1981 0.0000 33.4164 0.0000
# 6 0.0000 0.0000 0.0000 4.8598 0.0000 36.1731
#
#
#
# Elastic Compliance Matrix: (Units=1/GPa)
#
#
# Indices 1 2 3 4 5 6 
#
# 1 0.007070 -0.001677 -0.002532 0.000000 -0.000378 0.000000
# 2 -0.001677 0.013621 -0.003544 0.000000 -0.000917 0.000000
# 3 -0.002532 -0.003544 0.018210 0.000000 -0.004912 0.000000
# 4 0.000000 0.000000 0.000000 0.050677 0.000000 -0.006808
# 5 -0.000378 -0.000917 -0.004912 0.000000 0.031820 0.000000
# 6 0.000000 0.000000 0.000000 -0.006808 0.000000 0.028559
#
#
# Mechanical properties :
#
#
# Convention : Reuss Voigt Hill
#
# Bulk Modulus (GPa) = 42.74445 51.73425 47.23935
# Shear Modulus (GPa) = 28.85807 33.27928 31.06868
#
# Velocity S-wave (km/s) = 3.85724 4.14219 4.00225
# Velocity P-wave (km/s) = 6.47112 7.03914 6.76110
#
# Compressibility (1/GPa) = 0.02339485
#
# Stress axis : x y z
#
# Youngs Moduli (GPa) = 141.43925 73.41707 54.91408
#
# Poissons Ratio (x) = 0.12315 0.13903
# Poissons Ratio (y) = 0.23726 0.19461
# Poissons Ratio (z) = 0.35810 0.26018
#
# Static dielectric constant tensor:
#      x y z
#    x 1.701790 0.000000 -0.023920 
#    y 0.000000 1.702690 0.000000 
#    z -0.023920 0.000000 1.721750 
# 
# From -- ./inp_files/77343.got.cif
#   From: 2010.05.17/outbox.cif.g08.bks.cpg/sg12_39_cif.got.tgz:77343.got - 2010.06.03 13:09:07.
