data_PCOD9216842
_publ_section_title
;
Structure prediction by ZEFSAII (Michael W. Deem and Ramdas Pophale) SiO2 
 PCOD9216842
Probable space group: C 2/M
;
_chemical_formula_sum "Si O2"
_cell_formula_units_Z 50
_cell_length_a 15.681114
_cell_length_b 17.598946
_cell_length_c 9.261959
_cell_angle_alpha 90.000000
_cell_angle_beta 60.152573
_cell_angle_gamma 90.000000
_cell_volume 2216.984729
_symmetry_space_group_name_H-M "C 2/M"
_symmetry_group_IT_number 12
_symmetry_cell_setting 'monoclinic'
loop_
_space_group_symop_operation_xyz
x,y,z
-x,y,-z
-x,-y,-z
x,-y,z
1/2+x,1/2+y,z
1/2-x,1/2+y,-z
1/2-x,1/2-y,-z
1/2+x,1/2-y,z
loop_
_atom_site_type_symbol
_atom_site_label
_atom_site_fract_x
_atom_site_fract_y
_atom_site_fract_z
Si Si1 0.862843 0.614214 0.251109
Si Si2 0.637834 0.220113 0.263586
Si Si3 0.398235 0.587619 0.026648
Si Si4 0.417366 0.254944 0.375286
Si Si5 0.000000 0.500000 0.000000
Si Si6 0.318580 0.415408 0.402288
Si Si7 0.242935 0.642883 0.941087
O O1 0.886648 0.702400 0.266273
O O2 0.788836 0.588114 0.438457
O O3 0.803858 0.597893 0.151511
O O4 0.960422 0.566272 0.146585
O O5 0.534271 0.253231 0.295453
O O6 0.625797 0.213876 0.444797
O O7 0.727349 0.277529 0.157788
O O8 0.664907 0.150974 0.136120
O O9 0.421482 0.500000 0.976194
O O10 0.324603 0.591478 0.224435
O O11 0.500000 0.624153 0.000000
O O12 0.342868 0.616382 0.932751
O O13 0.376919 0.340900 0.408202
O O14 0.360653 0.500000 0.401549
#
# Coordination Sequence:
#
# PCOD9216842 Si02
#       7
#     8   8   8   8   2   8   8
#     4  12  25  44  73 101 147 190 243 304 362 438
#     4  10  23  40  65  99 142 179 250 290 358 436
#     4  10  23  42  66  97 142 190 237 290 368 438
#     4  11  23  44  68 102 139 196 239 299 362 439
#     4  12  28  48  68 114 144 184 240 298 376 424
#     4  11  23  43  70 101 141 194 240 297 365 436
#     4  11  23  41  65 103 134 190 236 304 353 427
#
# _framework density 22.553155
#
# number of rings (size 3 to 8) (size 9 to 14) (size 15 to 20)
#    0.000    1.120    2.400    3.360    5.600    0.000 
#    1.440    1.600    0.000    2.880    0.000    0.000 
#    0.000    0.000    0.000    0.000    0.000    0.000 
#
# Total GULP energy -139244.641089 kJ/mol
# GULP energy per Si atom -5569.785644 kJ/mol
# Density = 2.250182 g / cm^3
# Si number density = 22.553155 Si / 1000 Ang^3
#
#
#
# Elastic Constant Matrix: (Units=GPa)
#
#
# Indices 1 2 3 4 5 6 
#
# 1 84.4641 39.8133 33.6145 0.0000 18.7782 0.0000
# 2 39.8133 101.3645 34.3914 0.0000 4.3325 0.0000
# 3 33.6145 34.3914 101.9647 0.0000 -8.4200 0.0000
# 4 0.0000 0.0000 0.0000 21.8193 0.0000 2.6726
# 5 18.7782 4.3325 -8.4200 0.0000 37.7960 0.0000
# 6 0.0000 0.0000 0.0000 2.6726 0.0000 3.1373
#
#
#
# Elastic Compliance Matrix: (Units=1/GPa)
#
#
# Indices 1 2 3 4 5 6 
#
# 1 0.018459 -0.005077 -0.005177 0.000000 -0.009742 0.000000
# 2 -0.005077 0.012712 -0.002573 0.000000 0.000492 0.000000
# 3 -0.005177 -0.002573 0.012855 0.000000 0.005731 0.000000
# 4 0.000000 0.000000 0.000000 0.051171 0.000000 -0.043592
# 5 -0.009742 0.000492 0.005731 0.000000 0.032518 0.000000
# 6 0.000000 0.000000 0.000000 -0.043592 0.000000 0.355881
#
#
# Mechanical properties :
#
#
# Convention : Reuss Voigt Hill
#
# Bulk Modulus (GPa) = 54.43481 55.93685 55.18583
# Shear Modulus (GPa) = 9.70168 24.54878 17.12523
#
# Velocity S-wave (km/s) = 2.07630 3.30280 2.75858
# Velocity P-wave (km/s) = 5.47144 6.27700 5.88801
#
# Compressibility (1/GPa) = 0.01837060
#
# Stress axis : x y z
#
# Youngs Moduli (GPa) = 54.17424 78.66877 77.78952
#
# Poissons Ratio (x) = 0.39942 0.40274
# Poissons Ratio (y) = 0.27505 0.20015
# Poissons Ratio (z) = 0.28048 0.20241
#
# Static dielectric constant tensor:
#      x y z
#    x 1.883560 0.000000 0.010330 
#    y 0.000000 1.899430 0.000000 
#    z 0.010330 0.000000 1.851540 
# 
# From -- ./inp_files/75812.got.cif
#   From: 2010.05.17/outbox.cif.g08.bks.cpg/sg12_38_cif.got.tgz:75812.got - 2010.06.03 13:09:07.
