data_PCOD9216393
_publ_section_title
;
Structure prediction by ZEFSAII (Michael W. Deem and Ramdas Pophale) SiO2 
 PCOD9216393
Probable space group: C 2/M
;
_chemical_formula_sum "Si O2"
_cell_formula_units_Z 56
_cell_length_a 9.324874
_cell_length_b 14.230241
_cell_length_c 24.212025
_cell_angle_alpha 90.000000
_cell_angle_beta 125.432967
_cell_angle_gamma 90.000000
_cell_volume 2617.787269
_symmetry_space_group_name_H-M "C 2/M"
_symmetry_group_IT_number 12
_symmetry_cell_setting 'monoclinic'
loop_
_space_group_symop_operation_xyz
x,y,z
-x,y,-z
-x,-y,-z
x,-y,z
1/2+x,1/2+y,z
1/2-x,1/2+y,-z
1/2-x,1/2-y,-z
1/2+x,1/2-y,z
loop_
_atom_site_type_symbol
_atom_site_label
_atom_site_fract_x
_atom_site_fract_y
_atom_site_fract_z
Si Si1 0.647267 0.215156 0.761827
Si Si2 0.573898 0.394345 0.333130
Si Si3 0.871557 0.400972 0.643234
Si Si4 0.490290 0.655464 0.436556
Si Si5 0.544499 0.245287 0.857980
Si Si6 0.017927 0.633020 0.565037
Si Si7 0.122687 0.612914 0.081377
O O1 0.554594 0.314319 0.721856
O O2 0.552019 0.136157 0.705996
O O3 0.608650 0.193089 0.817233
O O4 0.854632 0.213216 0.799769
O O5 0.526144 0.500000 0.303857
O O6 0.562602 0.390541 0.397694
O O7 0.781398 0.377300 0.369939
O O8 0.819145 0.500000 0.656381
O O9 0.716869 0.331131 0.622083
O O10 0.892965 0.408223 0.583088
O O11 0.500000 0.611187 0.500000
O O12 0.554116 0.761002 0.454815
O O13 0.697893 0.327318 0.895289
O O14 0.485967 0.173785 0.895348
O O15 0.000000 0.595113 0.500000
O O16 0.153329 0.500000 0.102483
O O17 0.000000 0.613054 0.000000
#
# Coordination Sequence:
#
# PCOD9216393 Si02
#       7
#     8   8   8   8   8   8   8
#     4  11  22  41  59  90 132 168 215 265 313 382
#     4  12  24  39  62  85 114 159 208 262 327 393
#     4  12  24  38  58  81 112 153 198 258 322 380
#     4  11  22  39  59  79 110 150 198 265 335 396
#     4  10  23  40  70  98 139 184 218 264 318 382
#     4  11  22  39  59  79 110 150 198 265 335 396
#     4  10  22  44  74 109 145 179 222 269 315 373
#
# _framework density 21.392113999999999
#
# number of rings (size 3 to 8) (size 9 to 14) (size 15 to 20)
#    0.000    1.000    2.857    3.857    0.000    9.143 
#    0.000    2.143    0.000    7.714    0.000    0.000 
#    0.000    0.000    0.000    0.000    0.000    0.000 
#
# Total GULP energy -155975.055009 kJ/mol
# GULP energy per Si atom -5570.537679 kJ/mol
# Density = 2.134342 g / cm^3
# Si number density = 21.392114 Si / 1000 Ang^3
#
#
#
# Elastic Constant Matrix: (Units=GPa)
#
#
# Indices 1 2 3 4 5 6 
#
# 1 135.7161 26.3705 29.3708 0.0000 16.0823 0.0000
# 2 26.3705 132.2410 27.4836 0.0000 -0.9803 0.0000
# 3 29.3708 27.4836 72.8393 0.0000 8.6472 0.0000
# 4 0.0000 0.0000 0.0000 673.3247 0.0000 192.7736
# 5 16.0823 -0.9803 8.6472 0.0000 34.4332 0.0000
# 6 0.0000 0.0000 0.0000 192.7736 0.0000 73.3523
#
#
#
# Elastic Compliance Matrix: (Units=1/GPa)
#
#
# Indices 1 2 3 4 5 6 
#
# 1 0.008564 -0.001192 -0.002602 0.000000 -0.003380 0.000000
# 2 -0.001192 0.008408 -0.002872 0.000000 0.001517 0.000000
# 3 -0.002602 -0.002872 0.016210 0.000000 -0.002937 0.000000
# 4 0.000000 0.000000 0.000000 0.005999 0.000000 -0.015765
# 5 -0.003380 0.001517 -0.002937 0.000000 0.031401 0.000000
# 6 0.000000 0.000000 0.000000 -0.015765 0.000000 0.055063
#
#
# Mechanical properties :
#
#
# Convention : Reuss Voigt Hill
#
# Bulk Modulus (GPa) = 50.37796 56.36069 53.36933
# Shear Modulus (GPa) = 34.34229 173.39346 103.86787
#
# Velocity S-wave (km/s) = 4.01106 9.01281 6.97565
# Velocity P-wave (km/s) = 6.71210 11.60653 9.48061
#
# Compressibility (1/GPa) = 0.01984995
#
# Stress axis : x y z
#
# Youngs Moduli (GPa) = 116.77333 118.93776 61.68878
#
# Poissons Ratio (x) = 0.14177 0.16052
# Poissons Ratio (y) = 0.13919 0.17716
# Poissons Ratio (z) = 0.30385 0.34158
#
# Static dielectric constant tensor:
#      x y z
#    x 1.788550 0.000000 -0.009790 
#    y 0.000000 1.617640 0.000000 
#    z -0.009790 0.000000 1.784570 
# 
# From -- ./inp_files/333008.got.cif
#   From: 2010.05.17/outbox.cif.g08.bks.cpg/sg12_167_cif.got.tgz:333008.got - 2010.06.03 13:09:07.
