data_PCOD9216447
_publ_section_title
;
Structure prediction by ZEFSAII (Michael W. Deem and Ramdas Pophale) SiO2 
 PCOD9216447
Probable space group: C 2/M
;
_chemical_formula_sum "Si O2"
_cell_formula_units_Z 28
_cell_length_a 5.364204
_cell_length_b 29.872816
_cell_length_c 8.899861
_cell_angle_alpha 90.000000
_cell_angle_beta 119.806864
_cell_angle_gamma 90.000000
_cell_volume 1237.477265
_symmetry_space_group_name_H-M "C 2/M"
_symmetry_group_IT_number 12
_symmetry_cell_setting 'monoclinic'
loop_
_space_group_symop_operation_xyz
x,y,z
-x,y,-z
-x,-y,-z
x,-y,z
1/2+x,1/2+y,z
1/2-x,1/2+y,-z
1/2-x,1/2-y,-z
1/2+x,1/2-y,z
loop_
_atom_site_type_symbol
_atom_site_label
_atom_site_fract_x
_atom_site_fract_y
_atom_site_fract_z
Si Si1 0.497271 0.902289 0.182091
Si Si2 0.344834 0.000000 0.116354
Si Si3 0.000000 0.851941 0.500000
Si Si4 0.465049 0.279079 0.721141
Si Si5 0.000000 0.163359 0.000000
O O1 0.779067 0.882223 0.341647
O O2 0.436577 0.952952 0.216503
O O3 0.500000 0.902726 0.000000
O O4 0.239146 0.868690 0.141560
O O5 0.500000 0.000000 0.000000
O O6 0.000000 0.000000 0.000000
O O7 0.859384 0.817487 0.575990
O O8 0.700681 0.248655 0.709250
O O9 0.616992 0.304822 0.904581
#
# Coordination Sequence:
#
# PCOD9216447 Si02
#       5
#     8   4   4   8   4
#     4  11  24  47  73 108 149 189 243 301 368 442
#     4  10  22  45  76 109 147 190 235 295 370 439
#     4  12  26  47  76 108 148 196 248 305 368 436
#     4  12  27  47  70 105 149 196 250 310 364 429
#     4  12  24  45  76 104 146 194 254 301 368 440
#
# _framework density 22.626677000000001
#
# number of rings (size 3 to 8) (size 9 to 14) (size 15 to 20)
#    0.000    0.571    4.286    3.429    0.000    4.000 
#    0.000    0.000    0.000    5.143    0.000    0.000 
#    0.000    0.000    0.000    0.000    0.000    0.000 
#
# Total GULP energy -78380.948329 kJ/mol
# GULP energy per Si atom -5598.639166 kJ/mol
# Density = 2.257518 g / cm^3
# Si number density = 22.626677 Si / 1000 Ang^3
#
#
#
# Elastic Constant Matrix: (Units=GPa)
#
#
# Indices 1 2 3 4 5 6 
#
# 1 138.7844 86.9281 47.5550 0.0000 12.5537 0.0000
# 2 86.9281 218.1136 89.1329 0.0000 12.4490 0.0000
# 3 47.5550 89.1329 121.3953 0.0000 15.7959 0.0000
# 4 0.0000 0.0000 0.0000 -371.2801 0.0000 208.4008
# 5 12.5537 12.4490 15.7959 0.0000 37.8168 0.0000
# 6 0.0000 0.0000 0.0000 208.4008 0.0000 -68.3757
#
#
#
# Elastic Compliance Matrix: (Units=1/GPa)
#
#
# Indices 1 2 3 4 5 6 
#
# 1 0.009862 -0.003350 -0.001185 0.000000 -0.001676 0.000000
# 2 -0.003350 0.007689 -0.004387 0.000000 0.000413 0.000000
# 3 -0.001185 -0.004387 0.012355 0.000000 -0.003323 0.000000
# 4 0.000000 0.000000 0.000000 0.003789 0.000000 0.011549
# 5 -0.001676 0.000413 -0.003323 0.000000 0.028252 0.000000
# 6 0.000000 0.000000 0.000000 0.011549 0.000000 0.020576
#
#
# Mechanical properties :
#
#
# Convention : Reuss Voigt Hill
#
# Bulk Modulus (GPa) = 82.91131 102.83614 92.87373
# Shear Modulus (GPa) = 47.89802 -63.38932 -7.74565
#
# Velocity S-wave (km/s) = 4.60595 -5.29869 -1.85221
# Velocity P-wave (km/s) = 8.06282 2.84832 6.04657
#
# Compressibility (1/GPa) = 0.01206108
#
# Stress axis : x y z
#
# Youngs Moduli (GPa) = 101.40359 130.05235 80.93645
#
# Poissons Ratio (x) = 0.43572 0.09592
# Poissons Ratio (y) = 0.33973 0.35507
# Poissons Ratio (z) = 0.12018 0.57055
#
# Static dielectric constant tensor:
#      x y z
#    x 1.835960 0.000000 -0.026360 
#    y 0.000000 1.844860 0.000000 
#    z -0.026360 0.000000 1.837510 
# 
# From -- ./inp_files/34709.got.cif
#   From: 2010.05.17/outbox.cif.g08.bks.cpg/sg12_18_cif.got.tgz:34709.got - 2010.06.03 13:09:07.
