data_PCOD9216125
_publ_section_title
;
Structure prediction by ZEFSAII (Michael W. Deem and Ramdas Pophale) SiO2 
 PCOD9216125
Probable space group: C 2/M
;
_chemical_formula_sum "Si O2"
_cell_formula_units_Z 34
_cell_length_a 16.444228
_cell_length_b 9.813161
_cell_length_c 12.388295
_cell_angle_alpha 90.000000
_cell_angle_beta 48.012645
_cell_angle_gamma 90.000000
_cell_volume 1485.914062
_symmetry_space_group_name_H-M "C 2/M"
_symmetry_group_IT_number 12
_symmetry_cell_setting 'monoclinic'
loop_
_space_group_symop_operation_xyz
x,y,z
-x,y,-z
-x,-y,-z
x,-y,z
1/2+x,1/2+y,z
1/2-x,1/2+y,-z
1/2-x,1/2-y,-z
1/2+x,1/2-y,z
loop_
_atom_site_type_symbol
_atom_site_label
_atom_site_fract_x
_atom_site_fract_y
_atom_site_fract_z
Si Si1 0.176720 0.650110 0.196053
Si Si2 0.914461 0.841530 0.906129
Si Si3 0.140085 0.747184 0.457844
Si Si4 0.887126 0.343947 0.278337
Si Si5 0.500000 0.500000 0.500000
O O1 0.152558 0.500000 0.169842
O O2 0.129065 0.770687 0.165223
O O3 0.132906 0.660624 0.355201
O O4 0.308524 0.665001 0.077130
O O5 0.018815 0.755382 0.848996
O O6 0.942021 0.000000 0.864686
O O7 0.108607 0.669919 0.594895
O O8 0.266436 0.794187 0.354756
O O9 0.067942 0.880829 0.505045
O O10 0.903641 0.500000 0.230856
#
# Coordination Sequence:
#
# PCOD9216125 Si02
#       5
#     8   8   8   8   2
#     4  10  22  43  65  98 130 178 225 272 320 405
#     4  10  23  40  67  95 135 175 223 270 334 387
#     4  11  25  40  69  93 132 171 229 270 333 392
#     4  11  24  43  63  99 135 176 214 280 332 395
#     4  12  24  44  62 102 124 172 222 278 328 404
#
# _framework density 22.881540000000001
#
# number of rings (size 3 to 8) (size 9 to 14) (size 15 to 20)
#    0.000    1.412    1.176    2.824    6.588    3.765 
#    0.000    7.059    0.000    0.000    0.000    0.000 
#    0.000    0.000    0.000    0.000    0.000    0.000 
#
# Total GULP energy -94905.854871 kJ/mol
# GULP energy per Si atom -5582.697345 kJ/mol
# Density = 2.282946 g / cm^3
# Si number density = 22.881540 Si / 1000 Ang^3
#
#
#
# Elastic Constant Matrix: (Units=GPa)
#
#
# Indices 1 2 3 4 5 6 
#
# 1 43.3028 -1.2883 13.0764 0.0000 -5.6499 0.0000
# 2 -1.2883 151.0549 39.2380 0.0000 -18.0806 0.0000
# 3 13.0764 39.2380 92.5234 0.0000 -14.8967 0.0000
# 4 0.0000 0.0000 0.0000 15.5602 0.0000 -7.5048
# 5 -5.6499 -18.0806 -14.8967 0.0000 47.8025 0.0000
# 6 0.0000 0.0000 0.0000 -7.5048 0.0000 18.4926
#
#
#
# Elastic Compliance Matrix: (Units=1/GPa)
#
#
# Indices 1 2 3 4 5 6 
#
# 1 0.024558 0.001449 -0.003716 0.000000 0.002293 0.000000
# 2 0.001449 0.007698 -0.003130 0.000000 0.002107 0.000000
# 3 -0.003716 -0.003130 0.013054 0.000000 0.002445 0.000000
# 4 0.000000 0.000000 0.000000 0.079907 0.000000 0.032429
# 5 0.002293 0.002107 0.002445 0.000000 0.022749 0.000000
# 6 0.000000 0.000000 0.000000 0.032429 0.000000 0.067236
#
#
# Mechanical properties :
#
#
# Convention : Reuss Voigt Hill
#
# Bulk Modulus (GPa) = 28.97240 43.21483 36.09361
# Shear Modulus (GPa) = 21.05247 32.09474 26.57360
#
# Velocity S-wave (km/s) = 3.03655 3.74926 3.41156
# Velocity P-wave (km/s) = 4.99835 6.13758 5.59703
#
# Compressibility (1/GPa) = 0.03451561
#
# Stress axis : x y z
#
# Youngs Moduli (GPa) = 40.72054 129.90756 76.60278
#
# Poissons Ratio (x) = -0.18826 0.28467
# Poissons Ratio (y) = -0.05901 0.23977
# Poissons Ratio (z) = 0.15133 0.40662
#
# Static dielectric constant tensor:
#      x y z
#    x 1.855000 0.000000 -0.011780 
#    y 0.000000 1.786890 0.000000 
#    z -0.011780 0.000000 1.881310 
# 
# From -- ./inp_files/180356.got.cif
#   From: 2010.05.17/outbox.cif.g08.bks.cpg/sg12_91_cif.got.tgz:180356.got - 2010.06.03 13:09:07.
