data_PCOD9216493
_publ_section_title
;
Structure prediction by ZEFSAII (Michael W. Deem and Ramdas Pophale) SiO2 
 PCOD9216493
Probable space group: C 2/M
;
_chemical_formula_sum "Si O2"
_cell_formula_units_Z 56
_cell_length_a 8.398460
_cell_length_b 22.130919
_cell_length_c 16.903300
_cell_angle_alpha 90.000000
_cell_angle_beta 93.729935
_cell_angle_gamma 90.000000
_cell_volume 3135.087693
_symmetry_space_group_name_H-M "C 2/M"
_symmetry_group_IT_number 12
_symmetry_cell_setting 'monoclinic'
loop_
_space_group_symop_operation_xyz
x,y,z
-x,y,-z
-x,-y,-z
x,-y,z
1/2+x,1/2+y,z
1/2-x,1/2+y,-z
1/2-x,1/2-y,-z
1/2+x,1/2-y,z
loop_
_atom_site_type_symbol
_atom_site_label
_atom_site_fract_x
_atom_site_fract_y
_atom_site_fract_z
Si Si1 0.570763 0.686535 0.086793
Si Si2 0.611633 0.069743 0.121810
Si Si3 0.053874 0.671668 0.590885
Si Si4 0.170122 0.757589 0.808841
Si Si5 0.248361 0.569948 0.957941
Si Si6 0.374478 0.709413 0.555682
Si Si7 0.412293 0.163410 0.740876
O O1 0.709578 0.731154 0.121512
O O2 0.440223 0.693963 0.150793
O O3 0.638322 0.619266 0.077488
O O4 0.500000 0.706236 0.000000
O O5 0.427667 0.073570 0.086424
O O6 0.628382 0.112900 0.196442
O O7 0.643810 0.000000 0.142291
O O8 0.720108 0.085704 0.049423
O O9 0.246832 0.670914 0.600907
O O10 0.000000 0.654346 0.500000
O O11 0.984333 0.740304 0.601282
O O12 0.961916 0.637587 0.657468
O O13 0.266660 0.789244 0.741345
O O14 0.064262 0.701989 0.775691
O O15 0.301600 0.500000 0.953681
O O16 0.500000 0.677555 0.500000
O O17 0.250000 0.750000 0.500000
#
# Coordination Sequence:
#
# PCOD9216493 Si02
#       7
#     8   8   8   8   8   8   8
#     4  11  20  34  48  69 100 133 166 198 240 290
#     4   9  18  33  53  72  92 127 166 204 243 281
#     4   9  16  26  45  67  92 126 158 193 236 283
#     4  10  23  32  45  72 103 135 160 194 245 294
#     4   9  18  34  54  72  92 122 169 212 240 279
#     4   7  12  23  38  61  92 120 152 184 223 277
#     4  11  19  34  49  71 104 129 162 202 240 293
#
# _framework density 17.862338999999999
#
# number of rings (size 3 to 8) (size 9 to 14) (size 15 to 20)
#    0.000    2.857    1.429    3.000    0.000    1.429 
#    0.000    0.714    0.000    0.429    0.000    0.000 
#    0.000    0.571    0.000    0.000    0.000    0.000 
#
# Total GULP energy -155958.988275 kJ/mol
# GULP energy per Si atom -5569.963867 kJ/mol
# Density = 1.782168 g / cm^3
# Si number density = 17.862339 Si / 1000 Ang^3
#
#
#
# Elastic Constant Matrix: (Units=GPa)
#
#
# Indices 1 2 3 4 5 6 
#
# 1 89.9235 26.0801 21.9752 0.0000 -21.9132 0.0000
# 2 26.0801 56.1623 32.4013 0.0000 -15.2964 0.0000
# 3 21.9752 32.4013 77.2196 0.0000 -22.9521 0.0000
# 4 0.0000 0.0000 0.0000 11.3966 0.0000 -1.6046
# 5 -21.9132 -15.2964 -22.9521 0.0000 32.1549 0.0000
# 6 0.0000 0.0000 0.0000 -1.6046 0.0000 18.1038
#
#
#
# Elastic Compliance Matrix: (Units=1/GPa)
#
#
# Indices 1 2 3 4 5 6 
#
# 1 0.014292 -0.004644 0.000152 0.000000 0.007639 0.000000
# 2 -0.004644 0.025722 -0.008600 0.000000 0.002933 0.000000
# 3 0.000152 -0.008600 0.019458 0.000000 0.009902 0.000000
# 4 0.000000 0.000000 0.000000 0.088854 0.000000 0.007875
# 5 0.007639 0.002933 0.009902 0.000000 0.044769 0.000000
# 6 0.000000 0.000000 0.000000 0.007875 0.000000 0.055935
#
#
# Mechanical properties :
#
#
# Convention : Reuss Voigt Hill
#
# Bulk Modulus (GPa) = 30.03955 42.69094 36.36524
# Shear Modulus (GPa) = 17.46360 21.85432 19.65896
#
# Velocity S-wave (km/s) = 3.13018 3.50163 3.32110
# Velocity P-wave (km/s) = 5.46971 6.34826 5.92529
#
# Compressibility (1/GPa) = 0.03328945
#
# Stress axis : x y z
#
# Youngs Moduli (GPa) = 69.97028 38.87694 51.39167
#
# Poissons Ratio (x) = 0.18053 -0.00781
# Poissons Ratio (y) = 0.32492 0.44195
# Poissons Ratio (z) = -0.01063 0.33433
#
# Static dielectric constant tensor:
#      x y z
#    x 1.674480 0.000000 -0.013340 
#    y 0.000000 1.596800 0.000000 
#    z -0.013340 0.000000 1.669180 
# 
# From -- ./inp_files/257639.got.cif
#   From: 2010.05.17/outbox.cif.g08.bks.cpg/sg12_129_cif.got.tgz:257639.got - 2010.06.03 13:09:07.
