data_PCOD9216753
_publ_section_title
;
Structure prediction by ZEFSAII (Michael W. Deem and Ramdas Pophale) SiO2 
 PCOD9216753
Probable space group: C 2/M
;
_chemical_formula_sum "Si O2"
_cell_formula_units_Z 40
_cell_length_a 7.982040
_cell_length_b 18.079592
_cell_length_c 10.444664
_cell_angle_alpha 90.000000
_cell_angle_beta 96.808900
_cell_angle_gamma 90.000000
_cell_volume 1496.659864
_symmetry_space_group_name_H-M "C 2/M"
_symmetry_group_IT_number 12
_symmetry_cell_setting 'monoclinic'
loop_
_space_group_symop_operation_xyz
x,y,z
-x,y,-z
-x,-y,-z
x,-y,z
1/2+x,1/2+y,z
1/2-x,1/2+y,-z
1/2-x,1/2-y,-z
1/2+x,1/2-y,z
loop_
_atom_site_type_symbol
_atom_site_label
_atom_site_fract_x
_atom_site_fract_y
_atom_site_fract_z
Si Si1 0.573276 0.876369 0.707617
Si Si2 0.395272 0.212533 0.867767
Si Si3 0.885133 0.910948 0.584677
Si Si4 0.619931 0.614075 0.124016
Si Si5 0.701543 0.585899 0.725458
O O1 0.512293 0.795960 0.752392
O O2 0.707168 0.871102 0.605517
O O3 0.690933 0.912907 0.830169
O O4 0.397410 0.916335 0.679691
O O5 0.356158 0.297716 0.886822
O O6 0.247040 0.154147 0.828319
O O7 0.500000 0.187683 0.000000
O O8 0.968048 0.901570 0.745658
O O9 0.895665 0.897411 0.424396
O O10 0.855489 0.000000 0.582186
O O11 0.500000 0.587026 0.000000
O O12 0.691603 0.500000 0.769842
#
# Coordination Sequence:
#
# PCOD9216753 Si02
#       5
#     8   8   8   8   8
#     4   8  22  37  62  92 124 159 202 258 305 369
#     4   9  20  36  64  95 122 162 209 250 306 371
#     4  10  23  41  63  95 122 162 205 259 313 366
#     4   9  20  37  65  96 124 160 203 253 310 372
#     4  10  23  40  61  88 124 165 211 257 303 365
#
# _framework density 26.726182000000001
#
# number of rings (size 3 to 8) (size 9 to 14) (size 15 to 20)
#    2.400    0.400    0.000    0.000    5.600    4.000 
#    0.000    5.000    0.000    2.400    0.000    0.000 
#    0.000    0.000    0.000    0.000    0.000    0.000 
#
# Total GULP energy -111465.850087 kJ/mol
# GULP energy per Si atom -5573.292504 kJ/mol
# Density = 2.666535 g / cm^3
# Si number density = 26.726182 Si / 1000 Ang^3
#
#
#
# Elastic Constant Matrix: (Units=GPa)
#
#
# Indices 1 2 3 4 5 6 
#
# 1 216.2188 32.8141 65.2357 0.0000 20.8085 0.0000
# 2 32.8141 119.4977 44.6925 0.0000 15.6078 0.0000
# 3 65.2357 44.6925 172.4486 0.0000 24.0409 0.0000
# 4 0.0000 0.0000 0.0000 39.7938 0.0000 -16.8687
# 5 20.8085 15.6078 24.0409 0.0000 80.1473 0.0000
# 6 0.0000 0.0000 0.0000 -16.8687 0.0000 77.6900
#
#
#
# Elastic Compliance Matrix: (Units=1/GPa)
#
#
# Indices 1 2 3 4 5 6 
#
# 1 0.005325 -0.000722 -0.001726 0.000000 -0.000724 0.000000
# 2 -0.000722 0.009464 -0.002034 0.000000 -0.001045 0.000000
# 3 -0.001726 -0.002034 0.007161 0.000000 -0.001304 0.000000
# 4 0.000000 0.000000 0.000000 0.027677 0.000000 0.006009
# 5 -0.000724 -0.001045 -0.001304 0.000000 0.013260 0.000000
# 6 0.000000 0.000000 0.000000 0.006009 0.000000 0.014176
#
#
# Mechanical properties :
#
#
# Convention : Reuss Voigt Hill
#
# Bulk Modulus (GPa) = 77.01045 88.18330 82.59687
# Shear Modulus (GPa) = 55.33696 63.88774 59.61235
#
# Velocity S-wave (km/s) = 4.55523 4.89453 4.72792
# Velocity P-wave (km/s) = 7.51957 8.06279 7.79592
#
# Compressibility (1/GPa) = 0.01298525
#
# Stress axis : x y z
#
# Youngs Moduli (GPa) = 187.79096 105.66542 139.65070
#
# Poissons Ratio (x) = 0.07629 0.24109
# Poissons Ratio (y) = 0.13559 0.28402
# Poissons Ratio (z) = 0.32419 0.21490
#
# Static dielectric constant tensor:
#      x y z
#    x 2.304500 0.000000 -0.000540 
#    y 0.000000 1.925590 0.000000 
#    z -0.000540 0.000000 2.185650 
# 
# From -- ./inp_files/132188.got.cif
#   From: 2010.05.17/outbox.cif.g08.bks.cpg/sg12_67_cif.got.tgz:132188.got - 2010.06.03 13:09:07.
