data_PCOD9216131
_publ_section_title
;
Structure prediction by ZEFSAII (Michael W. Deem and Ramdas Pophale) SiO2 
 PCOD9216131
Probable space group: C 2/M
;
_chemical_formula_sum "Si O2"
_cell_formula_units_Z 56
_cell_length_a 13.599910
_cell_length_b 17.911658
_cell_length_c 17.125458
_cell_angle_alpha 90.000000
_cell_angle_beta 43.554376
_cell_angle_gamma 90.000000
_cell_volume 2874.485604
_symmetry_space_group_name_H-M "C 2/M"
_symmetry_group_IT_number 12
_symmetry_cell_setting 'monoclinic'
loop_
_space_group_symop_operation_xyz
x,y,z
-x,y,-z
-x,-y,-z
x,-y,z
1/2+x,1/2+y,z
1/2-x,1/2+y,-z
1/2-x,1/2-y,-z
1/2+x,1/2-y,z
loop_
_atom_site_type_symbol
_atom_site_label
_atom_site_fract_x
_atom_site_fract_y
_atom_site_fract_z
Si Si1 0.595056 0.810921 0.159177
Si Si2 0.294355 0.916627 0.034463
Si Si3 0.583501 0.410743 0.607498
Si Si4 0.353356 0.712492 0.125869
Si Si5 0.846594 0.585755 0.343599
Si Si6 0.235404 0.867307 0.241770
Si Si7 0.013760 0.142834 0.810673
O O1 0.740568 0.809305 0.124589
O O2 0.476360 0.856778 0.274585
O O3 0.545429 0.726657 0.171711
O O4 0.621543 0.855106 0.063321
O O5 0.295234 0.901764 0.126580
O O6 0.128143 0.907647 0.105338
O O7 0.345874 0.000000 0.987579
O O8 0.561057 0.500000 0.619238
O O9 0.716646 0.393890 0.475668
O O10 0.435656 0.374003 0.664200
O O11 0.603618 0.383679 0.684532
O O12 0.285932 0.781733 0.211495
O O13 0.396855 0.648195 0.161696
O O14 0.500000 0.735829 0.000000
O O15 0.888721 0.500000 0.334822
O O16 0.790267 0.592674 0.287316
#
# Coordination Sequence:
#
# PCOD9216131 Si02
#       7
#     8   8   8   8   8   8   8
#     4  12  23  41  61  93 130 163 208 252 311 371
#     4  11  22  38  63  93 126 163 205 253 306 372
#     4  10  22  43  66  90 125 166 210 257 311 369
#     4  12  23  40  63  95 129 163 203 255 315 366
#     4  11  24  41  62  92 131 166 202 261 317 365
#     4  11  21  37  66  97 123 160 205 256 315 378
#     4  11  21  40  65  90 122 165 208 254 304 367
#
# _framework density 19.481748
#
# number of rings (size 3 to 8) (size 9 to 14) (size 15 to 20)
#    0.000    0.857    5.714    4.714    0.000    1.714 
#    0.000    5.714    0.000    1.714    0.000    0.000 
#    0.000    0.000    0.000    0.000    0.000    0.000 
#
# Total GULP energy -156606.232425 kJ/mol
# GULP energy per Si atom -5593.079729 kJ/mol
# Density = 1.943741 g / cm^3
# Si number density = 19.481748 Si / 1000 Ang^3
#
#
#
# Elastic Constant Matrix: (Units=GPa)
#
#
# Indices 1 2 3 4 5 6 
#
# 1 68.2029 0.1402 23.5087 0.0001 -0.2839 -0.0001
# 2 0.1402 45.6351 31.3315 0.0001 -6.5644 0.0000
# 3 23.5087 31.3315 124.1823 0.0002 -7.1764 -0.0001
# 4 0.0001 0.0001 0.0002 36.5076 -0.0001 -0.7666
# 5 -0.2839 -6.5644 -7.1764 -0.0001 22.6993 0.0000
# 6 -0.0001 0.0000 -0.0001 -0.7666 0.0000 15.7446
#
#
#
# Elastic Compliance Matrix: (Units=1/GPa)
#
#
# Indices 1 2 3 4 5 6 
#
# 1 0.015909 0.002410 -0.003634 0.000000 -0.000253 0.000000
# 2 0.002410 0.027601 -0.007086 0.000000 0.005772 0.000000
# 3 -0.003634 -0.007086 0.010601 0.000000 0.001257 0.000000
# 4 0.000000 0.000000 0.000000 0.027420 0.000000 0.001335
# 5 -0.000253 0.005772 0.001257 0.000000 0.046117 0.000000
# 6 0.000000 0.000000 0.000000 0.001335 0.000000 0.063579
#
#
# Mechanical properties :
#
#
# Convention : Reuss Voigt Hill
#
# Bulk Modulus (GPa) = 26.67424 38.66457 32.66940
# Shear Modulus (GPa) = 22.69167 27.19297 24.94232
#
# Velocity S-wave (km/s) = 3.41657 3.74012 3.58200
# Velocity P-wave (km/s) = 5.41161 6.20814 5.82351
#
# Compressibility (1/GPa) = 0.03748936
#
# Stress axis : x y z
#
# Youngs Moduli (GPa) = 62.85820 36.23042 94.32850
#
# Poissons Ratio (x) = -0.08731 0.34282
# Poissons Ratio (y) = -0.15148 0.66846
# Poissons Ratio (z) = 0.22845 0.25675
#
# Static dielectric constant tensor:
#      x y z
#    x 1.691290 0.000000 -0.000530 
#    y 0.000000 1.665460 0.000000 
#    z -0.000530 0.000000 1.678120 
# 
# From -- ./inp_files/271382.got.cif
#   From: 2010.05.17/outbox.cif.g08.bks.cpg/sg12_136_cif.got.tgz:271382.got - 2010.06.03 13:09:07.
