data_PCOD9216789
_publ_section_title
;
Structure prediction by ZEFSAII (Michael W. Deem and Ramdas Pophale) SiO2 
 PCOD9216789
Probable space group: C 2/M
;
_chemical_formula_sum "Si O2"
_cell_formula_units_Z 48
_cell_length_a 5.073275
_cell_length_b 28.881442
_cell_length_c 17.996421
_cell_angle_alpha 90.000000
_cell_angle_beta 58.763747
_cell_angle_gamma 90.000000
_cell_volume 2254.644021
_symmetry_space_group_name_H-M "C 2/M"
_symmetry_group_IT_number 12
_symmetry_cell_setting 'monoclinic'
loop_
_space_group_symop_operation_xyz
x,y,z
-x,y,-z
-x,-y,-z
x,-y,z
1/2+x,1/2+y,z
1/2-x,1/2+y,-z
1/2-x,1/2-y,-z
1/2+x,1/2-y,z
loop_
_atom_site_type_symbol
_atom_site_label
_atom_site_fract_x
_atom_site_fract_y
_atom_site_fract_z
Si Si1 0.331907 0.715999 0.825978
Si Si2 0.325429 0.849424 0.923479
Si Si3 0.969543 0.449476 0.108878
Si Si4 0.158530 0.782243 0.400229
Si Si5 0.150120 0.650505 0.261646
Si Si6 0.746233 0.050334 0.229964
O O1 0.584616 0.750664 0.822995
O O2 0.549768 0.678307 0.754303
O O3 0.110074 0.682589 0.906009
O O4 0.371045 0.902639 0.941756
O O5 0.330902 0.848911 0.831834
O O6 0.000000 0.831645 0.000000
O O7 0.080973 0.500000 0.065140
O O8 0.602811 0.445762 0.151770
O O9 0.035788 0.450024 0.187342
O O10 0.400140 0.742089 0.388110
O O11 0.352440 0.822247 0.332817
O O12 0.000000 0.798334 0.500000
O O13 0.166390 0.597290 0.284010
O O14 0.715651 0.000000 0.271856
#
# Coordination Sequence:
#
# PCOD9216789 Si02
#       6
#     8   8   8   8   8   8
#     4  12  24  40  56  79 108 152 199 237 283 341
#     4  11  25  41  58  86 119 157 204 246 288 347
#     4   9  18  36  57  81 111 148 194 247 295 337
#     4  10  23  40  63  93 119 148 193 245 295 348
#     4  11  22  40  64  85 119 158 195 239 302 346
#     4   9  18  33  57  85 113 147 193 238 288 350
#
# _framework density 21.289391999999999
#
# number of rings (size 3 to 8) (size 9 to 14) (size 15 to 20)
#    0.000    1.667    3.333    1.000    2.333    1.667 
#    0.000    0.000    0.000    5.500    0.000    0.000 
#    0.000   11.333    0.000    0.000    0.000    1.833 
#
# Total GULP energy -134078.603468 kJ/mol
# GULP energy per Si atom -5586.608478 kJ/mol
# Density = 2.124094 g / cm^3
# Si number density = 21.289392 Si / 1000 Ang^3
#
#
#
# Elastic Constant Matrix: (Units=GPa)
#
#
# Indices 1 2 3 4 5 6 
#
# 1 80.5095 45.4908 39.3159 0.0000 -9.1334 0.0000
# 2 45.4908 175.7173 45.7397 0.0000 -13.9091 0.0000
# 3 39.3159 45.7397 103.9218 0.0000 -18.6189 0.0000
# 4 0.0000 0.0000 0.0000 30.8554 0.0000 10.9096
# 5 -9.1334 -13.9091 -18.6189 0.0000 26.7356 0.0000
# 6 0.0000 0.0000 0.0000 10.9096 0.0000 49.4548
#
#
#
# Elastic Compliance Matrix: (Units=1/GPa)
#
#
# Indices 1 2 3 4 5 6 
#
# 1 0.016534 -0.002968 -0.004814 0.000000 0.000752 0.000000
# 2 -0.002968 0.007018 -0.001707 0.000000 0.001449 0.000000
# 3 -0.004814 -0.001707 0.013415 0.000000 0.006810 0.000000
# 4 0.000000 0.000000 0.000000 0.035151 0.000000 -0.007754
# 5 0.000752 0.001449 0.006810 0.000000 0.043156 0.000000
# 6 0.000000 0.000000 0.000000 -0.007754 0.000000 0.021931
#
#
# Mechanical properties :
#
#
# Convention : Reuss Voigt Hill
#
# Bulk Modulus (GPa) = 55.58617 69.02684 62.30651
# Shear Modulus (GPa) = 30.82998 36.71598 33.77298
#
# Velocity S-wave (km/s) = 3.80957 4.15735 3.98725
# Velocity P-wave (km/s) = 6.74662 7.45240 7.10828
#
# Compressibility (1/GPa) = 0.01799009
#
# Stress axis : x y z
#
# Youngs Moduli (GPa) = 60.48111 142.48680 74.54231
#
# Poissons Ratio (x) = 0.42287 0.35887
# Poissons Ratio (y) = 0.17949 0.12721
# Poissons Ratio (z) = 0.29118 0.24317
#
# Static dielectric constant tensor:
#      x y z
#    x 1.830900 0.000000 0.060320 
#    y 0.000000 1.828750 0.000000 
#    z 0.060320 0.000000 1.763670 
# 
# From -- ./inp_files/298439.got.cif
#   From: 2010.05.17/outbox.cif.g08.bks.cpg/sg12_150_cif.got.tgz:298439.got - 2010.06.03 13:09:07.
