data_PCOD9216196
_publ_section_title
;
Structure prediction by ZEFSAII (Michael W. Deem and Ramdas Pophale) SiO2 
 PCOD9216196
Probable space group: C 2/M
;
_chemical_formula_sum "Si O2"
_cell_formula_units_Z 36
_cell_length_a 8.551230
_cell_length_b 14.647902
_cell_length_c 20.205257
_cell_angle_alpha 90.000000
_cell_angle_beta 40.248377
_cell_angle_gamma 90.000000
_cell_volume 1635.195635
_symmetry_space_group_name_H-M "C 2/M"
_symmetry_group_IT_number 12
_symmetry_cell_setting 'monoclinic'
loop_
_space_group_symop_operation_xyz
x,y,z
-x,y,-z
-x,-y,-z
x,-y,z
1/2+x,1/2+y,z
1/2-x,1/2+y,-z
1/2-x,1/2-y,-z
1/2+x,1/2-y,z
loop_
_atom_site_type_symbol
_atom_site_label
_atom_site_fract_x
_atom_site_fract_y
_atom_site_fract_z
Si Si1 0.891699 0.395522 0.960433
Si Si2 0.000000 0.855376 0.500000
Si Si3 0.221574 0.899719 0.564637
Si Si4 0.408998 0.255764 0.295935
Si Si5 0.908059 0.798952 0.151152
O O1 0.919462 0.500000 0.925745
O O2 0.610557 0.364951 0.056325
O O3 0.000000 0.395633 0.000000
O O4 0.017055 0.307298 0.886046
O O5 0.175867 0.897683 0.500170
O O6 0.181891 0.800103 0.394866
O O7 0.500000 0.884598 0.500000
O O8 0.057139 0.826529 0.655063
O O9 0.152839 0.000000 0.610137
O O10 0.640216 0.192086 0.209403
O O11 0.379738 0.312054 0.238551
#
# Coordination Sequence:
#
# PCOD9216196 Si02
#       5
#     8   4   8   8   8
#     4  10  22  43  68  95 130 169 214 275 342 405
#     4  12  23  44  67  94 136 184 222 266 331 396
#     4  11  24  41  63  94 132 175 227 278 323 384
#     4  12  22  41  66  93 132 175 221 263 327 400
#     4  11  23  40  67 100 127 169 220 276 327 400
#
# _framework density 22.015715
#
# number of rings (size 3 to 8) (size 9 to 14) (size 15 to 20)
#    0.000    0.889    5.556    2.333    0.000    1.778 
#    0.000    4.444    0.000    0.000    0.000    0.000 
#    0.000    0.000    0.000    0.000    0.000    0.000 
#
# Total GULP energy -100315.619003 kJ/mol
# GULP energy per Si atom -5573.089945 kJ/mol
# Density = 2.196561 g / cm^3
# Si number density = 22.015715 Si / 1000 Ang^3
#
#
#
# Elastic Constant Matrix: (Units=GPa)
#
#
# Indices 1 2 3 4 5 6 
#
# 1 100.7263 8.7638 5.4145 0.0005 8.0357 0.0001
# 2 8.7638 92.6300 14.6250 -0.0002 -0.7590 0.0011
# 3 5.4145 14.6250 73.7374 0.0006 -15.1721 0.0025
# 4 0.0005 -0.0002 0.0006 16.6813 0.0007 9.6994
# 5 8.0357 -0.7590 -15.1721 0.0007 45.7572 -0.0005
# 6 0.0001 0.0011 0.0025 9.6994 -0.0005 21.6497
#
#
#
# Elastic Compliance Matrix: (Units=1/GPa)
#
#
# Indices 1 2 3 4 5 6 
#
# 1 0.010226 -0.000822 -0.001030 0.000000 -0.002151 0.000000
# 2 -0.000822 0.011226 -0.002252 0.000001 -0.000416 -0.000001
# 3 -0.001030 -0.002252 0.015147 0.000000 0.005166 -0.000002
# 4 0.000000 0.000001 0.000000 0.081065 -0.000002 -0.036318
# 5 -0.002151 -0.000416 0.005166 -0.000002 0.023938 0.000001
# 6 0.000000 -0.000001 -0.000002 -0.036318 0.000001 0.062461
#
#
# Mechanical properties :
#
#
# Convention : Reuss Voigt Hill
#
# Bulk Modulus (GPa) = 35.22399 36.07780 35.65090
# Shear Modulus (GPa) = 22.54937 32.70364 27.62650
#
# Velocity S-wave (km/s) = 3.20385 3.85836 3.54623
# Velocity P-wave (km/s) = 5.45164 6.02263 5.74424
#
# Compressibility (1/GPa) = 0.02838974
#
# Stress axis : x y z
#
# Youngs Moduli (GPa) = 97.78547 89.08248 66.02043
#
# Poissons Ratio (x) = 0.07327 0.06803
# Poissons Ratio (y) = 0.08043 0.14866
# Poissons Ratio (z) = 0.10076 0.20058
#
# Static dielectric constant tensor:
#      x y z
#    x 1.902880 0.000000 -0.042510 
#    y 0.000000 1.817270 0.000000 
#    z -0.042510 0.000000 1.788630 
# 
# From -- ./inp_files/193960.got.cif
#   From: 2010.05.17/outbox.cif.g08.bks.cpg/sg12_97_cif.got.tgz:193960.got - 2010.06.03 13:09:07.
