data_PCOD9216505
_publ_section_title
;
Structure prediction by ZEFSAII (Michael W. Deem and Ramdas Pophale) SiO2 
 PCOD9216505
Probable space group: C 2/M
;
_chemical_formula_sum "Si O2"
_cell_formula_units_Z 48
_cell_length_a 22.960553
_cell_length_b 24.301290
_cell_length_c 8.756073
_cell_angle_alpha 90.000000
_cell_angle_beta 148.590882
_cell_angle_gamma 90.000000
_cell_volume 2546.126653
_symmetry_space_group_name_H-M "C 2/M"
_symmetry_group_IT_number 12
_symmetry_cell_setting 'monoclinic'
loop_
_space_group_symop_operation_xyz
x,y,z
-x,y,-z
-x,-y,-z
x,-y,z
1/2+x,1/2+y,z
1/2-x,1/2+y,-z
1/2-x,1/2-y,-z
1/2+x,1/2-y,z
loop_
_atom_site_type_symbol
_atom_site_label
_atom_site_fract_x
_atom_site_fract_y
_atom_site_fract_z
Si Si1 0.560135 0.618749 0.779123
Si Si2 0.435080 0.297958 0.699563
Si Si3 0.512503 0.186371 0.343554
Si Si4 0.274297 0.147969 0.761834
Si Si5 0.248690 0.316127 0.951403
Si Si6 0.130019 0.063595 0.236404
O O1 0.500000 0.590131 0.500000
O O2 0.465433 0.650077 0.663419
O O3 0.641527 0.665309 0.891410
O O4 0.625967 0.582625 0.050309
O O5 0.482614 0.246426 0.717023
O O6 0.303357 0.298116 0.442500
O O7 0.500000 0.303904 0.000000
O O8 0.500000 0.189403 0.500000
O O9 0.640402 0.167953 0.608886
O O10 0.406778 0.155234 0.034463
O O11 0.212578 0.101367 0.523880
O O12 0.264025 0.147490 0.923294
O O13 0.250000 0.250000 0.000000
O O14 0.162922 0.000000 0.323821
O O15 0.000000 0.067678 0.000000
#
# Coordination Sequence:
#
# PCOD9216505 Si02
#       6
#     8   8   8   8   8   8
#     4  12  20  35  60  84 118 149 194 253 298 356
#     4  12  21  33  53  85 118 160 192 231 296 359
#     4  10  23  35  55  85 122 164 195 229 289 367
#     4  11  20  40  56  83 123 157 197 243 297 357
#     4  11  20  36  59  87 124 160 194 232 295 364
#     4  11  23  42  63  86 115 157 208 261 312 346
#
# _framework density 18.852164999999999
#
# number of rings (size 3 to 8) (size 9 to 14) (size 15 to 20)
#    0.000    0.833    6.667    2.500    0.000    2.333 
#    0.000    0.833    0.000    6.500    0.000    0.000 
#    0.000    0.000    0.000    0.000    0.000    0.000 
#
# Total GULP energy -133619.291376 kJ/mol
# GULP energy per Si atom -5567.470474 kJ/mol
# Density = 1.880926 g / cm^3
# Si number density = 18.852165 Si / 1000 Ang^3
#
#
#
# Elastic Constant Matrix: (Units=GPa)
#
#
# Indices 1 2 3 4 5 6 
#
# 1 42.4297 23.6860 37.8142 0.0000 -7.4036 0.0000
# 2 23.6860 89.2685 50.4742 0.0000 -10.7814 0.0000
# 3 37.8142 50.4742 174.2209 0.0000 0.3655 0.0000
# 4 0.0000 0.0000 0.0000 5.5334 0.0000 -0.2859
# 5 -7.4036 -10.7814 0.3655 0.0000 40.3045 0.0000
# 6 0.0000 0.0000 0.0000 -0.2859 0.0000 16.0779
#
#
#
# Elastic Compliance Matrix: (Units=1/GPa)
#
#
# Indices 1 2 3 4 5 6 
#
# 1 0.032017 -0.004782 -0.005574 0.000000 0.004653 0.000000
# 2 -0.004782 0.014660 -0.003216 0.000000 0.003072 0.000000
# 3 -0.005574 -0.003216 0.007885 0.000000 -0.001956 0.000000
# 4 0.000000 0.000000 0.000000 0.180888 0.000000 0.003216
# 5 0.004653 0.003072 -0.001956 0.000000 0.026505 0.000000
# 6 0.000000 0.000000 0.000000 0.003216 0.000000 0.062254
#
#
# Mechanical properties :
#
#
# Convention : Reuss Voigt Hill
#
# Bulk Modulus (GPa) = 36.46968 58.87422 47.67195
# Shear Modulus (GPa) = 13.86991 25.31280 19.59135
#
# Velocity S-wave (km/s) = 2.71536 3.66826 3.22717
# Velocity P-wave (km/s) = 5.40537 7.01703 6.26325
#
# Compressibility (1/GPa) = 0.02742004
#
# Stress axis : x y z
#
# Youngs Moduli (GPa) = 31.23343 68.21127 126.81735
#
# Poissons Ratio (x) = 0.32618 0.70683
# Poissons Ratio (y) = 0.14935 0.40783
# Poissons Ratio (z) = 0.17408 0.21936
#
# Static dielectric constant tensor:
#      x y z
#    x 1.675370 0.000000 -0.012310 
#    y 0.000000 1.659170 0.000000 
#    z -0.012310 0.000000 1.743170 
# 
# From -- ./inp_files/50611.got.cif
#   From: 2010.05.17/outbox.cif.g08.bks.cpg/sg12_26_cif.got.tgz:50611.got - 2010.06.03 13:09:07.
