data_PCOD9216429
_publ_section_title
;
Structure prediction by ZEFSAII (Michael W. Deem and Ramdas Pophale) SiO2 
 PCOD9216429
Probable space group: C 2/M
;
_chemical_formula_sum "Si O2"
_cell_formula_units_Z 48
_cell_length_a 23.929859
_cell_length_b 13.466347
_cell_length_c 10.928755
_cell_angle_alpha 90.000000
_cell_angle_beta 147.259075
_cell_angle_gamma 90.000000
_cell_volume 1904.716928
_symmetry_space_group_name_H-M "C 2/M"
_symmetry_group_IT_number 12
_symmetry_cell_setting 'monoclinic'
loop_
_space_group_symop_operation_xyz
x,y,z
-x,y,-z
-x,-y,-z
x,-y,z
1/2+x,1/2+y,z
1/2-x,1/2+y,-z
1/2-x,1/2-y,-z
1/2+x,1/2-y,z
loop_
_atom_site_type_symbol
_atom_site_label
_atom_site_fract_x
_atom_site_fract_y
_atom_site_fract_z
Si Si1 0.581508 0.378190 0.256250
Si Si2 0.846891 0.386089 0.943949
Si Si3 0.747104 0.295851 0.126621
Si Si4 0.566709 0.118418 0.402333
Si Si5 0.688951 0.884223 0.393601
Si Si6 0.524740 0.618212 0.685305
O O1 0.584521 0.500000 0.266367
O O2 0.695215 0.346010 0.418674
O O3 0.543991 0.348337 0.324022
O O4 0.500000 0.350350 0.000000
O O5 0.815754 0.500000 0.917713
O O6 0.948486 0.350861 0.203339
O O7 0.762965 0.301878 0.808532
O O8 0.871386 0.384549 0.845414
O O9 0.850351 0.355479 0.343348
O O10 0.750000 0.250000 0.000000
O O11 0.643382 0.360840 0.942351
O O12 0.619325 0.156110 0.374116
O O13 0.555532 0.000000 0.371355
O O14 0.706193 0.000000 0.459129
O O15 0.500000 0.656139 0.500000
O O16 0.509598 0.500000 0.650149
#
# Coordination Sequence:
#
# PCOD9216429 Si02
#       6
#     8   8   8   8   8   8
#     4   9  17  32  61  99 135 169 212 270 335 403
#     4  10  24  44  69  99 136 178 221 276 341 406
#     4  12  28  42  66  94 132 178 233 282 324 400
#     4  10  22  45  72 100 135 176 222 277 343 409
#     4   9  18  37  68 100 132 173 221 269 334 414
#     4  10  23  42  67  97 134 175 219 278 346 405
#
# _framework density 25.200596000000001
#
# number of rings (size 3 to 8) (size 9 to 14) (size 15 to 20)
#    0.000    2.000    0.000    2.000    4.667    6.667 
#    0.000    5.000    0.000    0.000    0.000    0.000 
#    0.000    0.000    0.000    0.000    0.000    0.000 
#
# Total GULP energy -134285.232801 kJ/mol
# GULP energy per Si atom -5595.218033 kJ/mol
# Density = 2.514324 g / cm^3
# Si number density = 25.200596 Si / 1000 Ang^3
#
#
#
# Elastic Constant Matrix: (Units=GPa)
#
#
# Indices 1 2 3 4 5 6 
#
# 1 97.3571 13.0861 22.7820 0.0000 -5.3600 0.0000
# 2 13.0861 61.3465 -3.2666 0.0000 6.8600 0.0000
# 3 22.7820 -3.2666 137.9000 0.0000 18.8559 0.0000
# 4 0.0000 0.0000 0.0000 18.8905 0.0000 -8.3710
# 5 -5.3600 6.8600 18.8559 0.0000 36.8209 0.0000
# 6 0.0000 0.0000 0.0000 -8.3710 0.0000 27.7362
#
#
#
# Elastic Compliance Matrix: (Units=1/GPa)
#
#
# Indices 1 2 3 4 5 6 
#
# 1 0.011428 -0.002954 -0.002431 0.000000 0.003459 0.000000
# 2 -0.002954 0.017511 0.001514 0.000000 -0.004468 0.000000
# 3 -0.002431 0.001514 0.008362 0.000000 -0.004918 0.000000
# 4 0.000000 0.000000 0.000000 0.061110 0.000000 0.018443
# 5 0.003459 -0.004468 -0.004918 0.000000 0.031013 0.000000
# 6 0.000000 0.000000 0.000000 0.018443 0.000000 0.041620
#
#
# Mechanical properties :
#
#
# Convention : Reuss Voigt Hill
#
# Bulk Modulus (GPa) = 33.83139 40.20071 37.01605
# Shear Modulus (GPa) = 26.50580 34.28966 30.39773
#
# Velocity S-wave (km/s) = 3.24665 3.69273 3.47685
# Velocity P-wave (km/s) = 5.24484 5.84539 5.55324
#
# Compressibility (1/GPa) = 0.02955835
#
# Stress axis : x y z
#
# Youngs Moduli (GPa) = 87.50629 57.10644 119.59552
#
# Poissons Ratio (x) = 0.16869 0.29072
# Poissons Ratio (y) = 0.25849 -0.18103
# Poissons Ratio (z) = 0.21271 -0.08644
#
# Static dielectric constant tensor:
#      x y z
#    x 1.915620 0.000000 0.103940 
#    y 0.000000 1.952370 0.000000 
#    z 0.103940 0.000000 1.859110 
# 
# From -- ./inp_files/183886.got.cif
#   From: 2010.05.17/outbox.cif.g08.bks.cpg/sg12_92_cif.got.tgz:183886.got - 2010.06.03 13:09:07.
