data_PCOD9216470
_publ_section_title
;
Structure prediction by ZEFSAII (Michael W. Deem and Ramdas Pophale) SiO2 
 PCOD9216470
Probable space group: C 2/M
;
_chemical_formula_sum "Si O2"
_cell_formula_units_Z 44
_cell_length_a 8.754097
_cell_length_b 17.462336
_cell_length_c 12.339780
_cell_angle_alpha 90.000000
_cell_angle_beta 76.467734
_cell_angle_gamma 90.000000
_cell_volume 1833.976803
_symmetry_space_group_name_H-M "C 2/M"
_symmetry_group_IT_number 12
_symmetry_cell_setting 'monoclinic'
loop_
_space_group_symop_operation_xyz
x,y,z
-x,y,-z
-x,-y,-z
x,-y,z
1/2+x,1/2+y,z
1/2-x,1/2+y,-z
1/2-x,1/2-y,-z
1/2+x,1/2-y,z
loop_
_atom_site_type_symbol
_atom_site_label
_atom_site_fract_x
_atom_site_fract_y
_atom_site_fract_z
Si Si1 0.115436 0.500000 0.110990
Si Si2 0.500000 0.128080 0.500000
Si Si3 0.500000 0.138437 0.000000
Si Si4 0.956329 0.263772 0.322278
Si Si5 0.269841 0.330926 0.815442
Si Si6 0.847063 0.000000 0.870798
Si Si7 0.163797 0.000000 0.743166
Si Si8 0.647742 0.387411 0.553342
O O1 0.029880 0.579169 0.094650
O O2 0.171413 0.500000 0.224100
O O3 0.250897 0.500000 0.997196
O O4 0.456093 0.177501 0.613299
O O5 0.670176 0.093171 0.507210
O O6 0.345919 0.183613 0.062878
O O7 0.825521 0.307483 0.275589
O O8 0.880028 0.201490 0.415449
O O9 0.073883 0.220246 0.220577
O O10 0.308239 0.421196 0.815205
O O11 0.032260 0.000000 0.856572
O O12 0.134497 0.070762 0.670253
O O13 0.500000 0.409455 0.500000
#
# Coordination Sequence:
#
# PCOD9216470 Si02
#       8
#     4   4   4   8   8   4   4   8
#     4   9  21  43  68 104 143 189 234 292 376 441
#     4  12  26  45  70  97 140 196 242 300 368 443
#     4   9  22  44  68 106 148 183 234 310 362 427
#     4  12  23  44  71 102 138 193 244 289 368 443
#     4  11  24  43  74 104 143 193 239 296 367 429
#     4  10  22  46  72 102 141 192 231 303 360 424
#     4  12  25  42  72 106 140 184 258 299 358 436
#     4  12  26  47  68 105 144 190 243 311 363 427
#
# _framework density 23.991579999999999
#
# number of rings (size 3 to 8) (size 9 to 14) (size 15 to 20)
#    0.000    0.909    4.545    2.727    2.545    1.091 
#    0.000    1.818    0.000    0.000    0.000    0.000 
#    0.000    0.000    0.000    0.000    0.000    0.000 
#
# Total GULP energy -122808.256584 kJ/mol
# GULP energy per Si atom -5582.193481 kJ/mol
# Density = 2.393697 g / cm^3
# Si number density = 23.991580 Si / 1000 Ang^3
#
#
#
# Elastic Constant Matrix: (Units=GPa)
#
#
# Indices 1 2 3 4 5 6 
#
# 1 160.0610 26.7495 39.3931 0.0000 5.5317 0.0000
# 2 26.7495 72.4056 20.6019 0.0000 12.3337 0.0000
# 3 39.3931 20.6019 55.0821 0.0000 4.0312 0.0000
# 4 0.0000 0.0000 0.0000 8.2912 0.0000 -13.1808
# 5 5.5317 12.3337 4.0312 0.0000 73.0497 0.0000
# 6 0.0000 0.0000 0.0000 -13.1808 0.0000 16.1231
#
#
#
# Elastic Compliance Matrix: (Units=1/GPa)
#
#
# Indices 1 2 3 4 5 6 
#
# 1 0.007713 -0.001421 -0.004980 0.000000 -0.000069 0.000000
# 2 -0.001421 0.016112 -0.004839 0.000000 -0.002346 0.000000
# 3 -0.004980 -0.004839 0.023533 0.000000 -0.000105 0.000000
# 4 0.000000 0.000000 0.000000 -0.402519 0.000000 -0.329065
# 5 -0.000069 -0.002346 -0.000105 0.000000 0.014096 0.000000
# 6 0.000000 0.000000 0.000000 -0.329065 0.000000 -0.206992
#
#
# Mechanical properties :
#
#
# Convention : Reuss Voigt Hill
#
# Bulk Modulus (GPa) = 40.19175 51.22643 45.70909
# Shear Modulus (GPa) = -9.66587 32.87972 11.60693
#
# Velocity S-wave (km/s) = -2.00938 3.70600 2.20191
# Velocity P-wave (km/s) = 3.37718 6.30165 5.05550
#
# Compressibility (1/GPa) = 0.02488073
#
# Stress axis : x y z
#
# Youngs Moduli (GPa) = 129.65095 62.06433 42.49274
#
# Poissons Ratio (x) = 0.08818 0.21160
# Poissons Ratio (y) = 0.18421 0.20560
# Poissons Ratio (z) = 0.64562 0.30030
#
# Static dielectric constant tensor:
#      x y z
#    x 1.968780 0.000000 -0.054670 
#    y 0.000000 1.951920 0.000000 
#    z -0.054670 0.000000 1.905450 
# 
# From -- ./inp_files/120800.got.cif
#   From: 2010.05.17/outbox.cif.g08.bks.cpg/sg12_61_cif.got.tgz:120800.got - 2010.06.03 13:09:07.
