data_PCOD9216200
_publ_section_title
;
Structure prediction by ZEFSAII (Michael W. Deem and Ramdas Pophale) SiO2 
 PCOD9216200
Probable space group: C 2/M
;
_chemical_formula_sum "Si O2"
_cell_formula_units_Z 36
_cell_length_a 9.449691
_cell_length_b 9.558585
_cell_length_c 19.305596
_cell_angle_alpha 90.000000
_cell_angle_beta 110.708862
_cell_angle_gamma 90.000000
_cell_volume 1631.123510
_symmetry_space_group_name_H-M "C 2/M"
_symmetry_group_IT_number 12
_symmetry_cell_setting 'monoclinic'
loop_
_space_group_symop_operation_xyz
x,y,z
-x,y,-z
-x,-y,-z
x,-y,z
1/2+x,1/2+y,z
1/2-x,1/2+y,-z
1/2-x,1/2-y,-z
1/2+x,1/2-y,z
loop_
_atom_site_type_symbol
_atom_site_label
_atom_site_fract_x
_atom_site_fract_y
_atom_site_fract_z
Si Si1 0.636760 0.337402 0.076498
Si Si2 0.407120 0.839710 0.299173
Si Si3 0.732303 0.240461 0.399183
Si Si4 0.585621 0.664124 0.839511
Si Si5 0.179123 0.000000 0.494487
O O1 0.682827 0.500000 0.075139
O O2 0.564883 0.320937 0.140621
O O3 0.776250 0.233489 0.094456
O O4 0.500000 0.310015 0.000000
O O5 0.567404 0.830430 0.366709
O O6 0.284453 0.783774 0.331848
O O7 0.420690 0.744957 0.233793
O O8 0.375842 0.000000 0.274531
O O9 0.841961 0.122877 0.449208
O O10 0.721509 0.376744 0.445028
O O11 0.612469 0.500000 0.833351
#
# Coordination Sequence:
#
# PCOD9216200 Si02
#       5
#     8   8   8   8   4
#     4  10  22  43  68  97 133 171 211 262 318 373
#     4  12  26  45  64  94 132 171 214 264 323 382
#     4  11  25  43  70  93 127 171 213 269 326 385
#     4  11  25  40  65  98 130 170 218 261 313 381
#     4  10  24  44  66 100 124 164 218 268 326 388
#
# _framework density 22.070678000000001
#
# number of rings (size 3 to 8) (size 9 to 14) (size 15 to 20)
#    0.000    1.111    2.222    2.667    3.111   11.111 
#    0.000    0.000    0.000    0.000    0.000    0.000 
#    0.000    0.000    0.000    0.000    0.000    0.000 
#
# Total GULP energy -100277.313039 kJ/mol
# GULP energy per Si atom -5570.961835 kJ/mol
# Density = 2.202044 g / cm^3
# Si number density = 22.070678 Si / 1000 Ang^3
#
#
#
# Elastic Constant Matrix: (Units=GPa)
#
#
# Indices 1 2 3 4 5 6 
#
# 1 57.0455 24.7103 -1.3064 0.0000 -0.8363 0.0000
# 2 24.7103 140.4862 38.8249 0.0000 -10.5157 0.0000
# 3 -1.3064 38.8249 70.5940 0.0000 -11.1633 0.0000
# 4 0.0000 0.0000 0.0000 38.8565 0.0000 -8.6758
# 5 -0.8363 -10.5157 -11.1633 0.0000 38.0298 0.0000
# 6 0.0000 0.0000 0.0000 -8.6758 0.0000 0.8986
#
#
#
# Elastic Compliance Matrix: (Units=1/GPa)
#
#
# Indices 1 2 3 4 5 6 
#
# 1 0.019382 -0.004135 0.002642 0.000000 0.000058 0.000000
# 2 -0.004135 0.009313 -0.005040 0.000000 0.001005 0.000000
# 3 0.002642 -0.005040 0.017592 0.000000 0.003828 0.000000
# 4 0.000000 0.000000 0.000000 -0.022267 0.000000 -0.214991
# 5 0.000058 0.001005 0.003828 0.000000 0.027698 0.000000
# 6 0.000000 0.000000 0.000000 -0.214991 0.000000 -0.962882
#
#
# Mechanical properties :
#
#
# Convention : Reuss Voigt Hill
#
# Bulk Modulus (GPa) = 30.10057 43.62036 36.86047
# Shear Modulus (GPa) = -5.63683 29.28345 11.82331
#
# Velocity S-wave (km/s) = -1.59985 3.64648 2.31704
# Velocity P-wave (km/s) = 3.20237 6.12666 4.88831
#
# Compressibility (1/GPa) = 0.03322196
#
# Stress axis : x y z
#
# Youngs Moduli (GPa) = 51.59332 107.37148 56.84551
#
# Poissons Ratio (x) = 0.44398 -0.15019
# Poissons Ratio (y) = 0.21334 0.28649
# Poissons Ratio (z) = -0.13631 0.54113
#
# Static dielectric constant tensor:
#      x y z
#    x 1.870430 0.000000 0.068900 
#    y 0.000000 1.726050 0.000000 
#    z 0.068900 0.000000 1.857840 
# 
# From -- ./inp_files/261117.got.cif
#   From: 2010.05.17/outbox.cif.g08.bks.cpg/sg12_131_cif.got.tgz:261117.got - 2010.06.03 13:09:07.
