data_PCOD9216893
_publ_section_title
;
Structure prediction by ZEFSAII (Michael W. Deem and Ramdas Pophale) SiO2 
 PCOD9216893
Probable space group: C 2/M
;
_chemical_formula_sum "Si O2"
_cell_formula_units_Z 56
_cell_length_a 19.551543
_cell_length_b 8.733895
_cell_length_c 25.603339
_cell_angle_alpha 90.000000
_cell_angle_beta 45.057480
_cell_angle_gamma 90.000000
_cell_volume 3094.609587
_symmetry_space_group_name_H-M "C 2/M"
_symmetry_group_IT_number 12
_symmetry_cell_setting 'monoclinic'
loop_
_space_group_symop_operation_xyz
x,y,z
-x,y,-z
-x,-y,-z
x,-y,z
1/2+x,1/2+y,z
1/2-x,1/2+y,-z
1/2-x,1/2-y,-z
1/2+x,1/2-y,z
loop_
_atom_site_type_symbol
_atom_site_label
_atom_site_fract_x
_atom_site_fract_y
_atom_site_fract_z
Si Si1 0.950256 0.325687 0.677018
Si Si2 0.653631 0.818753 0.705833
Si Si3 0.389163 0.185850 0.073188
Si Si4 0.566474 0.169924 0.189043
Si Si5 0.762090 0.816541 0.236235
Si Si6 0.839599 0.313629 0.419577
Si Si7 0.749583 0.823869 0.943930
O O1 0.952595 0.500000 0.654519
O O2 0.944584 0.335387 0.742795
O O3 0.847840 0.257101 0.714531
O O4 0.057609 0.257854 0.611512
O O5 0.538785 0.803665 0.777697
O O6 0.708409 0.727720 0.721057
O O7 0.669242 0.770452 0.637072
O O8 0.676792 0.000000 0.697062
O O9 0.338734 0.248821 0.153032
O O10 0.323382 0.240935 0.060053
O O11 0.385603 0.000000 0.078412
O O12 0.500000 0.228318 0.000000
O O13 0.642884 0.297986 0.134818
O O14 0.601283 0.000000 0.153449
O O15 0.761258 0.000000 0.229535
O O16 0.842019 0.500000 0.419411
O O17 0.750000 0.250000 0.500000
O O18 0.724478 0.000000 0.962965
O O19 0.750000 0.750000 0.000000
#
# Coordination Sequence:
#
# PCOD9216893 Si02
#       7
#     8   8   8   8   8   8   8
#     4   8  16  33  56  79 105 140 177 215 268 321
#     4   9  20  36  56  80 111 148 180 215 273 333
#     4  10  23  41  56  74 107 151 188 222 278 337
#     4   9  17  35  57  73  98 140 182 222 266 321
#     4  11  21  35  58  84 110 141 184 235 274 318
#     4   9  18  36  60  84 111 145 181 220 266 321
#     4  11  23  36  53  77 105 138 180 229 274 324
#
# _framework density 18.095981999999999
#
# number of rings (size 3 to 8) (size 9 to 14) (size 15 to 20)
#    0.000    2.429    1.429    2.571    2.000    2.000 
#    0.000    4.286    0.000    4.286    0.000    0.000 
#    0.000    0.000    0.000    0.000    0.000    0.000 
#
# Total GULP energy -155951.642418 kJ/mol
# GULP energy per Si atom -5569.701515 kJ/mol
# Density = 1.805479 g / cm^3
# Si number density = 18.095982 Si / 1000 Ang^3
#
#
#
# Elastic Constant Matrix: (Units=GPa)
#
#
# Indices 1 2 3 4 5 6 
#
# 1 123.0117 25.6902 56.6070 0.0000 -8.3892 0.0002
# 2 25.6902 16.9233 21.0659 0.0001 -2.1983 0.0003
# 3 56.6070 21.0659 104.1133 0.0000 -14.9056 0.0000
# 4 0.0000 0.0001 0.0000 32.2058 0.0000 0.7958
# 5 -8.3892 -2.1983 -14.9056 0.0000 22.3601 0.0000
# 6 0.0002 0.0003 0.0000 0.7958 0.0000 22.1944
#
#
#
# Elastic Compliance Matrix: (Units=1/GPa)
#
#
# Indices 1 2 3 4 5 6 
#
# 1 0.013131 -0.014816 -0.004030 0.000000 0.000784 0.000000
# 2 -0.014816 0.095907 -0.011935 0.000000 -0.004086 -0.000001
# 3 -0.004030 -0.011935 0.015285 0.000000 0.007504 0.000000
# 4 0.000000 0.000000 0.000000 0.031078 0.000000 -0.001114
# 5 0.000784 -0.004086 0.007504 0.000000 0.049617 0.000000
# 6 0.000000 -0.000001 0.000000 -0.001114 0.000000 0.045096
#
#
# Mechanical properties :
#
#
# Convention : Reuss Voigt Hill
#
# Bulk Modulus (GPa) = 15.93304 50.08605 33.00954
# Shear Modulus (GPa) = 15.03323 24.73109 19.88216
#
# Velocity S-wave (km/s) = 2.88540 3.70085 3.31827
# Velocity P-wave (km/s) = 4.46369 6.78231 5.74127
#
# Compressibility (1/GPa) = 0.06276265
#
# Stress axis : x y z
#
# Youngs Moduli (GPa) = 76.15392 10.42674 65.42377
#
# Poissons Ratio (x) = 0.15448 0.26363
# Poissons Ratio (y) = 1.12831 0.78082
# Poissons Ratio (z) = 0.30686 0.12444
#
# Static dielectric constant tensor:
#      x y z
#    x 1.634610 0.000000 -0.023840 
#    y 0.000000 1.633310 0.000000 
#    z -0.023840 0.000000 1.728450 
# 
# From -- ./inp_files/342309.got.cif
#   From: 2010.05.17/outbox.cif.g08.bks.cpg/sg12_172_cif.got.tgz:342309.got - 2010.06.03 13:09:07.
