data_PCOD9216094
_publ_section_title
;
Structure prediction by ZEFSAII (Michael W. Deem and Ramdas Pophale) SiO2 
 PCOD9216094
Probable space group: C 2/M
;
_chemical_formula_sum "Si O2"
_cell_formula_units_Z 40
_cell_length_a 10.239057
_cell_length_b 14.475760
_cell_length_c 22.115794
_cell_angle_alpha 90.000000
_cell_angle_beta 136.398210
_cell_angle_gamma 90.000000
_cell_volume 2260.620591
_symmetry_space_group_name_H-M "C 2/M"
_symmetry_group_IT_number 12
_symmetry_cell_setting 'monoclinic'
loop_
_space_group_symop_operation_xyz
x,y,z
-x,y,-z
-x,-y,-z
x,-y,z
1/2+x,1/2+y,z
1/2-x,1/2+y,-z
1/2-x,1/2-y,-z
1/2+x,1/2-y,z
loop_
_atom_site_type_symbol
_atom_site_label
_atom_site_fract_x
_atom_site_fract_y
_atom_site_fract_z
Si Si1 0.831846 0.108481 0.492966
Si Si2 0.963241 0.889975 0.086512
Si Si3 0.974682 0.241090 0.645325
Si Si4 0.586149 0.265794 0.235378
Si Si5 0.189805 0.609615 0.888827
O O1 0.901656 0.159528 0.577119
O O2 0.654790 0.168586 0.410122
O O3 0.000000 0.115623 0.500000
O O4 0.788736 0.000000 0.487211
O O5 0.984880 0.836700 0.156021
O O6 0.148399 0.870774 0.107135
O O7 0.956908 0.000000 0.093857
O O8 0.782676 0.864922 0.984559
O O9 0.953936 0.214004 0.708200
O O10 0.190784 0.263984 0.702046
O O11 0.494691 0.166916 0.188786
O O12 0.156597 0.500000 0.877438
#
# Coordination Sequence:
#
# PCOD9216094 Si02
#       5
#     8   8   8   8   8
#     4  10  22  43  65  83 114 154 187 230 293 354
#     4   9  19  36  57  84 118 157 198 236 278 334
#     4  11  24  38  60  92 116 145 191 241 284 349
#     4  12  21  37  59  89 122 147 190 242 289 330
#     4   9  19  36  58  83 116 161 200 228 278 344
#
# _framework density 17.694255999999999
#
# number of rings (size 3 to 8) (size 9 to 14) (size 15 to 20)
#    0.000    1.800    4.000    1.800    0.000    3.200 
#    0.000    1.000    0.000    2.400    0.000    0.000 
#    0.000    0.000    0.000    0.000    0.000    0.000 
#
# Total GULP energy -111648.319081 kJ/mol
# GULP energy per Si atom -5582.415954 kJ/mol
# Density = 1.765398 g / cm^3
# Si number density = 17.694256 Si / 1000 Ang^3
#
#
#
# Elastic Constant Matrix: (Units=GPa)
#
#
# Indices 1 2 3 4 5 6 
#
# 1 83.5794 34.5574 47.1767 0.0000 -13.2040 0.0000
# 2 34.5574 95.0549 50.6828 0.0000 -10.8915 0.0000
# 3 47.1767 50.6828 104.5345 0.0000 -20.6852 0.0000
# 4 0.0000 0.0000 0.0000 3.9326 0.0000 8.7881
# 5 -13.2040 -10.8915 -20.6852 0.0000 44.4052 0.0000
# 6 0.0000 0.0000 0.0000 8.7881 0.0000 20.3596
#
#
#
# Elastic Compliance Matrix: (Units=1/GPa)
#
#
# Indices 1 2 3 4 5 6 
#
# 1 0.016665 -0.002744 -0.005886 0.000000 0.001541 0.000000
# 2 -0.002744 0.014644 -0.005852 0.000000 0.000050 0.000000
# 3 -0.005886 -0.005852 0.015894 0.000000 0.004219 0.000000
# 4 0.000000 0.000000 0.000000 7.179566 0.000000 -3.099026
# 5 0.001541 0.000050 0.004219 0.000000 0.024955 0.000000
# 6 0.000000 0.000000 0.000000 -3.099026 0.000000 1.386797
#
#
# Mechanical properties :
#
#
# Convention : Reuss Voigt Hill
#
# Bulk Modulus (GPa) = 54.82331 60.88915 57.85623
# Shear Modulus (GPa) = 0.57646 23.78961 12.18304
#
# Velocity S-wave (km/s) = 0.57140 3.67070 2.62683
# Velocity P-wave (km/s) = 5.61126 7.24237 6.47835
#
# Compressibility (1/GPa) = 0.01824042
#
# Stress axis : x y z
#
# Youngs Moduli (GPa) = 60.00705 68.28952 62.91546
#
# Poissons Ratio (x) = 0.18737 0.37030
# Poissons Ratio (y) = 0.16464 0.36816
# Poissons Ratio (z) = 0.35318 0.39961
#
# Static dielectric constant tensor:
#      x y z
#    x 1.581430 0.000000 -0.004330 
#    y 0.000000 1.582210 0.000000 
#    z -0.004330 0.000000 1.604130 
# 
# From -- ./inp_files/194412.got.cif
#   From: 2010.05.17/outbox.cif.g08.bks.cpg/sg12_98_cif.got.tgz:194412.got - 2010.06.03 13:09:07.
