data_PCOD9216189
_publ_section_title
;
Structure prediction by ZEFSAII (Michael W. Deem and Ramdas Pophale) SiO2 
 PCOD9216189
Probable space group: C 2/M
;
_chemical_formula_sum "Si O2"
_cell_formula_units_Z 32
_cell_length_a 15.990735
_cell_length_b 17.402648
_cell_length_c 5.439118
_cell_angle_alpha 90.000000
_cell_angle_beta 61.094086
_cell_angle_gamma 90.000000
_cell_volume 1325.031026
_symmetry_space_group_name_H-M "C 2/M"
_symmetry_group_IT_number 12
_symmetry_cell_setting 'monoclinic'
loop_
_space_group_symop_operation_xyz
x,y,z
-x,y,-z
-x,-y,-z
x,-y,z
1/2+x,1/2+y,z
1/2-x,1/2+y,-z
1/2-x,1/2-y,-z
1/2+x,1/2-y,z
loop_
_atom_site_type_symbol
_atom_site_label
_atom_site_fract_x
_atom_site_fract_y
_atom_site_fract_z
Si Si1 0.243870 0.859786 0.863488
Si Si2 0.976538 0.871790 0.786768
Si Si3 0.330532 0.085437 0.251946
Si Si4 0.420502 0.211142 0.422903
O O1 0.132843 0.845998 0.051362
O O2 0.282051 0.898889 0.058673
O O3 0.259813 0.909177 0.589764
O O4 0.316108 0.789463 0.701094
O O5 0.000000 0.912330 0.500000
O O6 0.043418 0.795505 0.691711
O O7 0.000000 0.915371 0.000000
O O8 0.402100 0.154710 0.220386
O O9 0.373052 0.000000 0.189145
O O10 0.500000 0.178955 0.500000
#
# Coordination Sequence:
#
# PCOD9216189 Si02
#       4
#     8   8   8   8
#     4  10  23  42  63  97 131 170 211 266 325 378
#     4  11  24  40  65  94 138 164 211 266 326 398
#     4  10  22  43  68  91 128 175 220 261 315 380
#     4   9  24  39  63  99 131 167 215 255 336 380
#
# _framework density 24.150379999999998
#
# number of rings (size 3 to 8) (size 9 to 14) (size 15 to 20)
#    1.500    0.500    0.000    2.250    7.000    5.500 
#    0.000    1.250    0.000   15.000    0.000    0.000 
#    0.000    0.000    0.000    0.000    0.000    0.000 
#
# Total GULP energy -89324.173871 kJ/mol
# GULP energy per Si atom -5582.760867 kJ/mol
# Density = 2.409541 g / cm^3
# Si number density = 24.150380 Si / 1000 Ang^3
#
#
#
# Elastic Constant Matrix: (Units=GPa)
#
#
# Indices 1 2 3 4 5 6 
#
# 1 115.4663 29.3466 81.5745 0.0000 4.8958 0.0000
# 2 29.3466 124.3940 28.4768 0.0000 4.4539 0.0000
# 3 81.5745 28.4768 184.9745 0.0000 13.4350 0.0000
# 4 0.0000 0.0000 0.0000 -19.4790 0.0000 10.8447
# 5 4.8958 4.4539 13.4350 0.0000 71.0290 0.0000
# 6 0.0000 0.0000 0.0000 10.8447 0.0000 23.9287
#
#
#
# Elastic Compliance Matrix: (Units=1/GPa)
#
#
# Indices 1 2 3 4 5 6 
#
# 1 0.012967 -0.001819 -0.005457 0.000000 0.000252 0.000000
# 2 -0.001819 0.008593 -0.000498 0.000000 -0.000319 0.000000
# 3 -0.005457 -0.000498 0.007969 0.000000 -0.001100 0.000000
# 4 0.000000 0.000000 0.000000 -0.040994 0.000000 0.018579
# 5 0.000252 -0.000319 -0.001100 0.000000 0.014289 0.000000
# 6 0.000000 0.000000 0.000000 0.018579 0.000000 0.033371
#
#
# Mechanical properties :
#
#
# Convention : Reuss Voigt Hill
#
# Bulk Modulus (GPa) = 71.51587 78.18117 74.84852
# Shear Modulus (GPa) = 88.64529 34.12486 61.38508
#
# Velocity S-wave (km/s) = 6.06508 3.76309 5.04708
# Velocity P-wave (km/s) = 8.87265 7.16408 8.06375
#
# Compressibility (1/GPa) = 0.01398291
#
# Stress axis : x y z
#
# Youngs Moduli (GPa) = 77.11656 116.36761 125.48330
#
# Poissons Ratio (x) = 0.21168 0.68476
# Poissons Ratio (y) = 0.14028 0.06244
# Poissons Ratio (z) = 0.42082 0.05790
#
# Static dielectric constant tensor:
#      x y z
#    x 1.911210 0.000000 0.041870 
#    y 0.000000 1.883650 0.000000 
#    z 0.041870 0.000000 2.033550 
# 
# From -- ./inp_files/11087.got.cif
#   From: 2010.05.17/outbox.cif.g08.bks.cpg/sg12_6_cif.got.tgz:11087.got - 2010.06.03 13:09:07.
