data_PCOD9216087
_publ_section_title
;
Structure prediction by ZEFSAII (Michael W. Deem and Ramdas Pophale) SiO2 
 PCOD9216087
Probable space group: C 2/M
;
_chemical_formula_sum "Si O2"
_cell_formula_units_Z 48
_cell_length_a 30.069773
_cell_length_b 16.429204
_cell_length_c 9.387952
_cell_angle_alpha 90.000000
_cell_angle_beta 29.684496
_cell_angle_gamma 90.000000
_cell_volume 2296.777194
_symmetry_space_group_name_H-M "C 2/M"
_symmetry_group_IT_number 12
_symmetry_cell_setting 'monoclinic'
loop_
_space_group_symop_operation_xyz
x,y,z
-x,y,-z
-x,-y,-z
x,-y,z
1/2+x,1/2+y,z
1/2-x,1/2+y,-z
1/2-x,1/2-y,-z
1/2+x,1/2-y,z
loop_
_atom_site_type_symbol
_atom_site_label
_atom_site_fract_x
_atom_site_fract_y
_atom_site_fract_z
Si Si1 0.567051 0.655683 0.706514
Si Si2 0.337953 0.211443 0.687201
Si Si3 0.264273 0.403830 0.576422
Si Si4 0.144016 0.000000 0.094331
Si Si5 0.607254 0.170121 0.184528
Si Si6 0.717003 0.668807 0.787555
Si Si7 0.988838 0.000000 0.290527
O O1 0.589356 0.717239 0.518860
O O2 0.658923 0.624831 0.525110
O O3 0.510898 0.579479 0.805622
O O4 0.500000 0.699828 0.000000
O O5 0.363665 0.146990 0.734197
O O6 0.311690 0.191933 0.598493
O O7 0.250000 0.250000 0.000000
O O8 0.276382 0.500000 0.512928
O O9 0.276688 0.351360 0.397202
O O10 0.165635 0.387018 0.917271
O O11 0.103283 0.000000 0.364768
O O12 0.065962 0.000000 0.192405
O O13 0.193865 0.915839 0.929249
O O14 0.500000 0.169260 0.500000
O O15 0.645769 0.259860 0.027015
#
# Coordination Sequence:
#
# PCOD9216087 Si02
#       7
#     8   8   8   4   8   8   4
#     4  12  24  37  64  97 141 173 220 272 341 412
#     4  10  22  43  64  94 126 177 227 269 334 392
#     4  12  25  44  66  97 138 180 222 275 341 404
#     4  11  24  36  66  98 139 178 219 276 346 401
#     4  11  26  44  71  96 130 177 231 286 328 396
#     4  11  23  43  66  98 135 172 225 275 341 402
#     4  11  23  38  56 100 142 174 210 269 344 421
#
# _framework density 20.898849999999999
#
# number of rings (size 3 to 8) (size 9 to 14) (size 15 to 20)
#    0.000    0.833    5.000    3.750    7.000    0.333 
#    0.000    0.000    0.000    1.000    0.000    0.000 
#    0.000    0.000    0.000    0.000    0.000    0.000 
#
# Total GULP energy -133863.412785 kJ/mol
# GULP energy per Si atom -5577.642199 kJ/mol
# Density = 2.085128 g / cm^3
# Si number density = 20.898850 Si / 1000 Ang^3
#
#
#
# Elastic Constant Matrix: (Units=GPa)
#
#
# Indices 1 2 3 4 5 6 
#
# 1 82.0273 -8.0616 6.2128 0.0000 5.8306 0.0000
# 2 -8.0616 62.5106 4.2162 0.0000 3.6985 0.0000
# 3 6.2128 4.2162 102.8935 0.0000 2.1965 0.0000
# 4 0.0000 0.0000 0.0000 30.3133 0.0000 -0.3380
# 5 5.8306 3.6985 2.1965 0.0000 31.5087 0.0000
# 6 0.0000 0.0000 0.0000 -0.3380 0.0000 66.6002
#
#
#
# Elastic Compliance Matrix: (Units=1/GPa)
#
#
# Indices 1 2 3 4 5 6 
#
# 1 0.012607 0.001826 -0.000783 0.000000 -0.002493 0.000000
# 2 0.001826 0.016413 -0.000736 0.000000 -0.002213 0.000000
# 3 -0.000783 -0.000736 0.009806 0.000000 -0.000452 0.000000
# 4 0.000000 0.000000 0.000000 0.032991 0.000000 0.000167
# 5 -0.002493 -0.002213 -0.000452 0.000000 0.032490 0.000000
# 6 0.000000 0.000000 0.000000 0.000167 0.000000 0.015016
#
#
# Mechanical properties :
#
#
# Convention : Reuss Voigt Hill
#
# Bulk Modulus (GPa) = 25.35392 28.01847 26.68619
# Shear Modulus (GPa) = 37.92064 42.02204 39.97134
#
# Velocity S-wave (km/s) = 4.26430 4.48899 4.37808
# Velocity P-wave (km/s) = 6.03355 6.34853 6.19304
#
# Compressibility (1/GPa) = 0.03944164
#
# Stress axis : x y z
#
# Youngs Moduli (GPa) = 79.32098 60.92597 101.97985
#
# Poissons Ratio (x) = -0.11126 0.07983
# Poissons Ratio (y) = -0.14485 0.07501
# Poissons Ratio (z) = 0.06210 0.04482
#
# Static dielectric constant tensor:
#      x y z
#    x 1.803410 0.000000 -0.009550 
#    y 0.000000 1.768000 0.000000 
#    z -0.009550 0.000000 1.745820 
# 
# From -- ./inp_files/112761.got.cif
#   From: 2010.05.17/outbox.cif.g08.bks.cpg/sg12_57_cif.got.tgz:112761.got - 2010.06.03 13:09:07.
