data_PCOD9216606
_publ_section_title
;
Structure prediction by ZEFSAII (Michael W. Deem and Ramdas Pophale) SiO2 
 PCOD9216606
Probable space group: C 2/M
;
_chemical_formula_sum "Si O2"
_cell_formula_units_Z 36
_cell_length_a 5.557437
_cell_length_b 28.934116
_cell_length_c 11.226964
_cell_angle_alpha 90.000000
_cell_angle_beta 70.961811
_cell_angle_gamma 90.000000
_cell_volume 1706.543576
_symmetry_space_group_name_H-M "C 2/M"
_symmetry_group_IT_number 12
_symmetry_cell_setting 'monoclinic'
loop_
_space_group_symop_operation_xyz
x,y,z
-x,y,-z
-x,-y,-z
x,-y,z
1/2+x,1/2+y,z
1/2-x,1/2+y,-z
1/2-x,1/2-y,-z
1/2+x,1/2-y,z
loop_
_atom_site_type_symbol
_atom_site_label
_atom_site_fract_x
_atom_site_fract_y
_atom_site_fract_z
Si Si1 0.885667 0.124204 0.265995
Si Si2 0.500000 0.600119 0.500000
Si Si3 0.800635 0.052359 0.921564
Si Si4 0.527495 0.949657 0.639323
Si Si5 0.105037 0.224432 0.847978
O O1 0.650634 0.089703 0.280817
O O2 0.860902 0.173218 0.208475
O O3 0.889310 0.129653 0.409378
O O4 0.121533 0.095560 0.173264
O O5 0.684548 0.565805 0.399388
O O6 0.837265 0.000000 0.864761
O O7 0.500000 0.055857 0.000000
O O8 0.000000 0.055018 0.000000
O O9 0.500000 0.951263 0.500000
O O10 0.469394 0.000000 0.698169
O O11 0.378871 0.249979 0.811213
O O12 0.000000 0.221549 0.000000
#
# Coordination Sequence:
#
# PCOD9216606 Si02
#       5
#     8   4   8   8   8
#     4  11  23  40  67  93 132 173 222 273 332 398
#     4  10  23  38  62  96 134 176 224 262 327 396
#     4  10  23  40  61  95 133 172 217 267 328 391
#     4   9  19  36  58  90 131 174 219 261 310 380
#     4  10  24  45  71  99 127 165 221 280 338 397
#
# _framework density 21.095271
#
# number of rings (size 3 to 8) (size 9 to 14) (size 15 to 20)
#    0.000    2.000    0.000    1.667    6.222    5.333 
#    0.000    1.111    0.000    0.000    0.000    0.000 
#    0.000    0.000    0.000    0.000    0.000    0.000 
#
# Total GULP energy -100421.130286 kJ/mol
# GULP energy per Si atom -5578.951683 kJ/mol
# Density = 2.104726 g / cm^3
# Si number density = 21.095271 Si / 1000 Ang^3
#
#
#
# Elastic Constant Matrix: (Units=GPa)
#
#
# Indices 1 2 3 4 5 6 
#
# 1 132.0576 75.4715 44.2429 0.0000 -12.9888 0.0000
# 2 75.4715 188.5547 59.5905 0.0000 -14.4063 0.0000
# 3 44.2429 59.5905 51.3345 0.0000 0.0735 0.0000
# 4 0.0000 0.0000 0.0000 -6.1005 0.0000 -110.5784
# 5 -12.9888 -14.4063 0.0735 0.0000 40.9638 0.0000
# 6 0.0000 0.0000 0.0000 -110.5784 0.0000 -229.2950
#
#
#
# Elastic Compliance Matrix: (Units=1/GPa)
#
#
# Indices 1 2 3 4 5 6 
#
# 1 0.011569 -0.001974 -0.007683 0.000000 0.002988 0.000000
# 2 -0.001974 0.009089 -0.008853 0.000000 0.002587 0.000000
# 3 -0.007683 -0.008853 0.036387 0.000000 -0.005615 0.000000
# 4 0.000000 0.000000 0.000000 0.021175 0.000000 -0.010212
# 5 0.002988 0.002587 -0.005615 0.000000 0.026279 0.000000
# 6 0.000000 0.000000 0.000000 -0.010212 0.000000 0.000563
#
#
# Mechanical properties :
#
#
# Convention : Reuss Voigt Hill
#
# Bulk Modulus (GPa) = 49.94072 81.17295 65.55683
# Shear Modulus (GPa) = 33.61163 -26.04355 3.78404
#
# Velocity S-wave (km/s) = 3.99598 -3.51745 1.34078
# Velocity P-wave (km/s) = 6.70938 4.69746 5.79145
#
# Compressibility (1/GPa) = 0.02002374
#
# Stress axis : x y z
#
# Youngs Moduli (GPa) = 86.44115 110.01966 27.48208
#
# Poissons Ratio (x) = 0.21718 0.21115
# Poissons Ratio (y) = 0.17063 0.24331
# Poissons Ratio (z) = 0.66415 0.97406
#
# Static dielectric constant tensor:
#      x y z
#    x 1.905850 0.000000 0.087560 
#    y 0.000000 1.696240 0.000000 
#    z 0.087560 0.000000 1.866720 
# 
# From -- ./inp_files/115366.got.cif
#   From: 2010.05.17/outbox.cif.g08.bks.cpg/sg12_58_cif.got.tgz:115366.got - 2010.06.03 13:09:07.
