data_PCOD9216119
_publ_section_title
;
Structure prediction by ZEFSAII (Michael W. Deem and Ramdas Pophale) SiO2 
 PCOD9216119
Probable space group: C 2/M
;
_chemical_formula_sum "Si O2"
_cell_formula_units_Z 48
_cell_length_a 13.995564
_cell_length_b 25.590574
_cell_length_c 10.712905
_cell_angle_alpha 90.000000
_cell_angle_beta 149.317772
_cell_angle_gamma 90.000000
_cell_volume 1957.866092
_symmetry_space_group_name_H-M "C 2/M"
_symmetry_group_IT_number 12
_symmetry_cell_setting 'monoclinic'
loop_
_space_group_symop_operation_xyz
x,y,z
-x,y,-z
-x,-y,-z
x,-y,z
1/2+x,1/2+y,z
1/2-x,1/2+y,-z
1/2-x,1/2-y,-z
1/2+x,1/2-y,z
loop_
_atom_site_type_symbol
_atom_site_label
_atom_site_fract_x
_atom_site_fract_y
_atom_site_fract_z
Si Si1 0.091705 0.257634 0.979675
Si Si2 0.551781 0.400132 0.754811
Si Si3 0.274187 0.144394 0.240354
Si Si4 0.757908 0.558545 0.430502
Si Si5 0.973493 0.790051 0.332769
Si Si6 0.104273 0.561537 0.997800
O O1 0.180739 0.202150 0.127589
O O2 0.246763 0.293204 0.085304
O O3 0.966229 0.242797 0.719023
O O4 0.000000 0.281119 0.000000
O O5 0.398165 0.438921 0.636572
O O6 0.447786 0.347424 0.594883
O O7 0.688532 0.384244 0.023285
O O8 0.691149 0.418151 0.804335
O O9 0.500000 0.148015 0.500000
O O10 0.220063 0.106758 0.295156
O O11 0.752909 0.500000 0.366827
O O12 0.960176 0.566550 0.720589
O O13 0.000000 0.768352 0.500000
O O14 0.127448 0.500000 0.046521
O O15 0.000000 0.585322 0.000000
#
# Coordination Sequence:
#
# PCOD9216119 Si02
#       6
#     8   8   8   8   8   8
#     4  10  22  43  65  94 133 171 219 280 337 393
#     4  11  23  41  63  93 133 168 216 274 325 394
#     4  11  21  40  66  93 131 171 211 275 337 393
#     4  11  24  41  67 100 130 174 224 271 338 400
#     4  10  23  41  63  96 129 170 225 269 330 404
#     4  10  23  41  60  90 129 172 222 272 327 394
#
# _framework density 24.516487000000001
#
# number of rings (size 3 to 8) (size 9 to 14) (size 15 to 20)
#    0.000    1.500    1.667    3.500    2.333    3.667 
#    0.000    2.500    0.000    0.000    0.000    0.000 
#    0.000    0.000    0.000    0.000    0.000    0.000 
#
# Total GULP energy -134091.562563 kJ/mol
# GULP energy per Si atom -5587.148440 kJ/mol
# Density = 2.446069 g / cm^3
# Si number density = 24.516487 Si / 1000 Ang^3
#
#
#
# Elastic Constant Matrix: (Units=GPa)
#
#
# Indices 1 2 3 4 5 6 
#
# 1 131.0164 16.4679 14.1937 0.0000 -1.5424 0.0000
# 2 16.4679 75.7299 7.3993 0.0000 -4.3638 0.0000
# 3 14.1937 7.3993 64.0025 0.0000 7.5305 0.0000
# 4 0.0000 0.0000 0.0000 12.6168 0.0000 -1.1245
# 5 -1.5424 -4.3638 7.5305 0.0000 44.3041 0.0000
# 6 0.0000 0.0000 0.0000 -1.1245 0.0000 43.2228
#
#
#
# Elastic Compliance Matrix: (Units=1/GPa)
#
#
# Indices 1 2 3 4 5 6 
#
# 1 0.008011 -0.001558 -0.001644 0.000000 0.000405 0.000000
# 2 -0.001558 0.013772 -0.001428 0.000000 0.001545 0.000000
# 3 -0.001644 -0.001428 0.016508 0.000000 -0.003004 0.000000
# 4 0.000000 0.000000 0.000000 0.079444 0.000000 0.002067
# 5 0.000405 0.001545 -0.003004 0.000000 0.023248 0.000000
# 6 0.000000 0.000000 0.000000 0.002067 0.000000 0.023190
#
#
# Mechanical properties :
#
#
# Convention : Reuss Voigt Hill
#
# Bulk Modulus (GPa) = 34.44750 38.54116 36.49433
# Shear Modulus (GPa) = 27.30589 35.54126 31.42358
#
# Velocity S-wave (km/s) = 3.34095 3.81161 3.58401
# Velocity P-wave (km/s) = 5.38181 5.92670 5.66081
#
# Compressibility (1/GPa) = 0.02902968
#
# Stress axis : x y z
#
# Youngs Moduli (GPa) = 124.82262 72.60974 60.57827
#
# Poissons Ratio (x) = 0.11314 0.09960
# Poissons Ratio (y) = 0.19449 0.08653
# Poissons Ratio (z) = 0.20523 0.10372
#
# Static dielectric constant tensor:
#      x y z
#    x 1.964400 0.000000 -0.044100 
#    y 0.000000 1.904680 0.000000 
#    z -0.044100 0.000000 2.095450 
# 
# From -- ./inp_files/149865.got.cif
#   From: 2010.05.17/outbox.cif.g08.bks.cpg/sg12_75_cif.got.tgz:149865.got - 2010.06.03 13:09:07.
