data_PCOD9216925
_publ_section_title
;
Structure prediction by ZEFSAII (Michael W. Deem and Ramdas Pophale) SiO2 
 PCOD9216925
Probable space group: C 2/M
;
_chemical_formula_sum "Si O2"
_cell_formula_units_Z 24
_cell_length_a 21.990311
_cell_length_b 9.678928
_cell_length_c 11.623860
_cell_angle_alpha 90.000000
_cell_angle_beta 28.173254
_cell_angle_gamma 90.000000
_cell_volume 1168.097697
_symmetry_space_group_name_H-M "C 2/M"
_symmetry_group_IT_number 12
_symmetry_cell_setting 'monoclinic'
loop_
_space_group_symop_operation_xyz
x,y,z
-x,y,-z
-x,-y,-z
x,-y,z
1/2+x,1/2+y,z
1/2-x,1/2+y,-z
1/2-x,1/2-y,-z
1/2+x,1/2-y,z
loop_
_atom_site_type_symbol
_atom_site_label
_atom_site_fract_x
_atom_site_fract_y
_atom_site_fract_z
Si Si1 0.820029 0.302339 0.619978
Si Si2 0.346893 0.500000 0.249778
Si Si3 0.454095 0.000000 0.827210
Si Si4 0.736173 0.500000 0.348883
Si Si5 0.345622 0.000000 0.775934
O O1 0.708340 0.367763 0.726807
O O2 0.822273 0.139771 0.605807
O O3 0.798526 0.366631 0.783125
O O4 0.952547 0.369991 0.351491
O O5 0.288352 0.500000 0.474683
O O6 0.500000 0.500000 0.000000
O O7 0.339547 0.000000 0.922819
O O8 0.386008 0.000000 0.062811
O O9 0.500000 0.000000 0.500000
#
# Coordination Sequence:
#
# PCOD9216925 Si02
#       5
#     8   4   4   4   4
#     4   9  21  40  60  87 118 156 193 241 291 344
#     4  10  23  41  60  82 125 158 188 245 296 343
#     4   9  21  41  63  83 122 155 191 242 288 351
#     4  12  23  35  64  93 110 156 205 232 293 347
#     4   7  15  40  63  79 122 158 180 240 302 329
#
# _framework density 20.546226000000001
#
# number of rings (size 3 to 8) (size 9 to 14) (size 15 to 20)
#    0.000    3.333    0.000    1.000    4.667    4.000 
#    0.000    7.500    0.000    0.000    0.000    0.000 
#    0.000    0.000    0.000    0.000    0.000    0.000 
#
# Total GULP energy -66919.018238 kJ/mol
# GULP energy per Si atom -5576.584853 kJ/mol
# Density = 2.049946 g / cm^3
# Si number density = 20.546226 Si / 1000 Ang^3
#
#
#
# Elastic Constant Matrix: (Units=GPa)
#
#
# Indices 1 2 3 4 5 6 
#
# 1 127.6279 49.6062 50.1399 0.0000 -9.9959 0.0000
# 2 49.6062 196.7845 27.2327 0.0000 -14.5961 0.0000
# 3 50.1399 27.2327 107.0475 0.0000 9.1759 0.0000
# 4 0.0000 0.0000 0.0000 10.3969 0.0000 -9.8151
# 5 -9.9959 -14.5961 9.1759 0.0000 16.4483 0.0000
# 6 0.0000 0.0000 0.0000 -9.8151 0.0000 39.0031
#
#
#
# Elastic Compliance Matrix: (Units=1/GPa)
#
#
# Indices 1 2 3 4 5 6 
#
# 1 0.011309 -0.001411 -0.005692 0.000000 0.008796 0.000000
# 2 -0.001411 0.006005 -0.001313 0.000000 0.005204 0.000000
# 3 -0.005692 -0.001313 0.013378 0.000000 -0.012087 0.000000
# 4 0.000000 0.000000 0.000000 0.126152 0.000000 0.031746
# 5 0.008796 0.005204 -0.012087 0.000000 0.077503 0.000000
# 6 0.000000 0.000000 0.000000 0.031746 0.000000 0.033628
#
#
# Mechanical properties :
#
#
# Convention : Reuss Voigt Hill
#
# Bulk Modulus (GPa) = 72.14867 76.15749 74.15308
# Shear Modulus (GPa) = 17.27562 33.46842 25.37202
#
# Velocity S-wave (km/s) = 2.90283 4.04038 3.51789
# Velocity P-wave (km/s) = 6.81372 7.67549 7.25741
#
# Compressibility (1/GPa) = 0.01386027
#
# Stress axis : x y z
#
# Youngs Moduli (GPa) = 88.42839 166.52802 74.75064
#
# Poissons Ratio (x) = 0.23490 0.42548
# Poissons Ratio (y) = 0.12474 0.09815
# Poissons Ratio (z) = 0.50333 0.21866
#
# Static dielectric constant tensor:
#      x y z
#    x 1.796590 0.000000 0.027800 
#    y 0.000000 1.742840 0.000000 
#    z 0.027800 0.000000 1.739540 
# 
# From -- ./inp_files/163830.got.cif
#   From: 2010.05.17/outbox.cif.g08.bks.cpg/sg12_82_cif.got.tgz:163830.got - 2010.06.03 13:09:07.
