data_PCOD9216462
_publ_section_title
;
Structure prediction by ZEFSAII (Michael W. Deem and Ramdas Pophale) SiO2 
 PCOD9216462
Probable space group: C 2/M
;
_chemical_formula_sum "Si O2"
_cell_formula_units_Z 30
_cell_length_a 17.800644
_cell_length_b 9.732051
_cell_length_c 17.812021
_cell_angle_alpha 90.000000
_cell_angle_beta 156.590010
_cell_angle_gamma 90.000000
_cell_volume 1225.971835
_symmetry_space_group_name_H-M "C 2/M"
_symmetry_group_IT_number 12
_symmetry_cell_setting 'monoclinic'
loop_
_space_group_symop_operation_xyz
x,y,z
-x,y,-z
-x,-y,-z
x,-y,z
1/2+x,1/2+y,z
1/2-x,1/2+y,-z
1/2-x,1/2-y,-z
1/2+x,1/2-y,z
loop_
_atom_site_type_symbol
_atom_site_label
_atom_site_fract_x
_atom_site_fract_y
_atom_site_fract_z
Si Si1 0.208864 0.745655 0.769311
Si Si2 0.574108 0.000000 0.747520
Si Si3 0.527134 0.500000 0.807586
Si Si4 0.104077 0.241768 0.209030
Si Si5 0.242665 0.000000 0.563479
Si Si6 0.000000 0.000000 0.500000
O O1 0.095787 0.634757 0.715147
O O2 0.285044 0.680600 0.760655
O O3 0.102203 0.879305 0.644522
O O4 0.398070 0.784492 0.989005
O O5 0.389456 0.000000 0.629060
O O6 0.752795 0.000000 0.968855
O O7 0.436365 0.632136 0.764028
O O8 0.461517 0.500000 0.662159
O O9 0.213528 0.370187 0.344175
#
# Coordination Sequence:
#
# PCOD9216462 Si02
#       6
#     8   4   4   8   4   2
#     4  10  23  44  69  96 134 178 227 284 334 400
#     4  10  25  47  70 100 137 177 233 280 333 403
#     4  10  23  42  69  99 135 187 218 275 344 411
#     4  10  22  46  67  95 137 180 224 277 343 399
#     4  12  24  41  69 101 144 181 218 279 340 411
#     4  12  24  36  64 106 124 170 222 284 334 394
#
# _framework density 24.470383000000002
#
# number of rings (size 3 to 8) (size 9 to 14) (size 15 to 20)
#    0.000    1.600    0.000    3.200    3.733   10.133 
#   14.400    0.000    0.000    0.000    0.000    0.000 
#    0.000    0.000    0.000    0.000    0.000    0.000 
#
# Total GULP energy -83842.507712 kJ/mol
# GULP energy per Si atom -5589.500514 kJ/mol
# Density = 2.441469 g / cm^3
# Si number density = 24.470383 Si / 1000 Ang^3
#
#
#
# Elastic Constant Matrix: (Units=GPa)
#
#
# Indices 1 2 3 4 5 6 
#
# 1 131.3658 16.7505 50.7691 -0.0021 -9.5435 0.0022
# 2 16.7505 120.9507 73.5791 -0.0037 -10.3111 0.0033
# 3 50.7691 73.5791 151.4410 -0.0010 -34.7562 0.0016
# 4 -0.0021 -0.0037 -0.0010 200.0101 -0.0026 -76.1317
# 5 -9.5435 -10.3111 -34.7562 -0.0026 31.9073 0.0020
# 6 0.0022 0.0033 0.0016 -76.1317 0.0020 76.5511
#
#
#
# Elastic Compliance Matrix: (Units=1/GPa)
#
#
# Indices 1 2 3 4 5 6 
#
# 1 0.008827 0.000899 -0.003631 0.000000 -0.001025 0.000000
# 2 0.000899 0.012083 -0.006952 0.000000 -0.003399 0.000000
# 3 -0.003631 -0.006952 0.013911 0.000000 0.011820 0.000000
# 4 0.000000 0.000000 0.000000 0.008045 0.000000 0.008001
# 5 -0.001025 -0.003399 0.011820 0.000000 0.042812 -0.000001
# 6 0.000000 0.000000 0.000000 0.008001 -0.000001 0.021021
#
#
# Mechanical properties :
#
#
# Convention : Reuss Voigt Hill
#
# Bulk Modulus (GPa) = 64.71474 76.21723 70.46598
# Shear Modulus (GPa) = 38.10487 79.20427 58.65457
#
# Velocity S-wave (km/s) = 3.95040 5.69541 4.90119
# Velocity P-wave (km/s) = 6.87830 8.62929 7.80306
#
# Compressibility (1/GPa) = 0.01545243
#
# Stress axis : x y z
#
# Youngs Moduli (GPa) = 113.29476 82.76257 71.88505
#
# Poissons Ratio (x) = -0.07442 0.26102
# Poissons Ratio (y) = -0.10187 0.49975
# Poissons Ratio (z) = 0.41138 0.57537
#
# Static dielectric constant tensor:
#      x y z
#    x 2.010440 0.000000 0.037930 
#    y 0.000000 1.767650 0.000000 
#    z 0.037930 0.000000 1.928950 
# 
# From -- ./inp_files/223630.got.cif
#   From: 2010.05.17/outbox.cif.g08.bks.cpg/sg12_112_cif.got.tgz:223630.got - 2010.06.03 13:09:07.
