data_PCOD9216051
_publ_section_title
;
Structure prediction by ZEFSAII (Michael W. Deem and Ramdas Pophale) SiO2 
 PCOD9216051
Probable space group: C 2/M
;
_chemical_formula_sum "Si O2"
_cell_formula_units_Z 40
_cell_length_a 18.726694
_cell_length_b 11.140126
_cell_length_c 19.021690
_cell_angle_alpha 90.000000
_cell_angle_beta 28.534101
_cell_angle_gamma 90.000000
_cell_volume 1895.566145
_symmetry_space_group_name_H-M "C 2/M"
_symmetry_group_IT_number 12
_symmetry_cell_setting 'monoclinic'
loop_
_space_group_symop_operation_xyz
x,y,z
-x,y,-z
-x,-y,-z
x,-y,z
1/2+x,1/2+y,z
1/2-x,1/2+y,-z
1/2-x,1/2-y,-z
1/2+x,1/2-y,z
loop_
_atom_site_type_symbol
_atom_site_label
_atom_site_fract_x
_atom_site_fract_y
_atom_site_fract_z
Si Si1 0.857292 0.364591 0.916403
Si Si2 0.117715 0.734717 0.960037
Si Si3 0.862378 0.000000 0.062084
Si Si4 0.073861 0.140291 0.361655
Si Si5 0.403354 0.785259 0.404700
Si Si6 0.506262 0.000000 0.410760
O O1 0.798226 0.500000 0.955315
O O2 0.989911 0.338501 0.747831
O O3 0.750000 0.250000 0.000000
O O4 0.907018 0.354760 0.954439
O O5 0.114000 0.870620 0.993167
O O6 0.278120 0.713417 0.785659
O O7 0.000000 0.720916 0.000000
O O8 0.685755 0.000000 0.237523
O O9 0.000000 0.000000 0.000000
O O10 0.000000 0.174688 0.500000
O O11 0.965215 0.167449 0.390482
O O12 0.111382 0.000000 0.333138
O O13 0.250000 0.750000 0.500000
O O14 0.420173 0.885970 0.451251
O O15 0.500000 0.000000 0.500000
#
# Coordination Sequence:
#
# PCOD9216051 Si02
#       6
#     8   8   4   8   8   4
#     4  12  26  47  74 104 149 189 244 310 373 449
#     4  11  25  44  72 106 138 185 241 298 373 438
#     4  10  22  42  72 108 140 180 243 309 366 446
#     4  11  25  45  69  99 139 185 239 295 358 448
#     4  12  28  46  70 105 146 195 240 305 378 441
#     4  12  24  48  78 104 142 188 252 305 363 445
#
# _framework density 21.101873999999999
#
# number of rings (size 3 to 8) (size 9 to 14) (size 15 to 20)
#    0.000    0.600    5.000    1.200    5.600    3.200 
#    0.000    0.000    0.000    0.000    0.000    0.000 
#    0.000    0.000    0.000    0.000    0.000    0.000 
#
# Total GULP energy -111649.354100 kJ/mol
# GULP energy per Si atom -5582.467705 kJ/mol
# Density = 2.105385 g / cm^3
# Si number density = 21.101874 Si / 1000 Ang^3
#
#
#
# Elastic Constant Matrix: (Units=GPa)
#
#
# Indices 1 2 3 4 5 6 
#
# 1 165.4522 49.9397 63.0187 -0.0006 -9.1346 -0.0003
# 2 49.9397 138.4551 32.4592 -0.0015 0.8631 -0.0005
# 3 63.0187 32.4592 59.3842 -0.0016 4.3287 -0.0005
# 4 -0.0006 -0.0015 -0.0016 366.5417 0.0009 235.3997
# 5 -9.1346 0.8631 4.3287 0.0009 45.5182 0.0004
# 6 -0.0003 -0.0005 -0.0005 235.3997 0.0004 198.1146
#
#
#
# Elastic Compliance Matrix: (Units=1/GPa)
#
#
# Indices 1 2 3 4 5 6 
#
# 1 0.010807 -0.001347 -0.010968 0.000000 0.003237 0.000000
# 2 -0.001347 0.008455 -0.003183 0.000000 -0.000128 0.000000
# 3 -0.010968 -0.003183 0.030587 0.000000 -0.005049 0.000000
# 4 0.000000 0.000000 0.000000 0.011515 0.000000 -0.013683
# 5 0.003237 -0.000128 -0.005049 0.000000 0.023102 0.000000
# 6 0.000000 0.000000 0.000000 -0.013683 0.000000 0.021305
#
#
# Mechanical properties :
#
#
# Convention : Reuss Voigt Hill
#
# Bulk Modulus (GPa) = 53.04187 72.68075 62.86131
# Shear Modulus (GPa) = 34.95231 136.55982 85.75607
#
# Velocity S-wave (km/s) = 4.07426 8.05326 6.38179
# Velocity P-wave (km/s) = 6.87920 10.99959 9.17372
#
# Compressibility (1/GPa) = 0.01885303
#
# Stress axis : x y z
#
# Youngs Moduli (GPa) = 92.53324 118.26789 32.69373
#
# Poissons Ratio (x) = 0.15928 0.35859
# Poissons Ratio (y) = 0.12462 0.10407
# Poissons Ratio (z) = 1.01492 0.37646
#
# Static dielectric constant tensor:
#      x y z
#    x 1.753630 0.000000 0.006340 
#    y 0.000000 1.775930 0.000000 
#    z 0.006340 0.000000 1.709380 
# 
# From -- ./inp_files/277197.got.cif
#   From: 2010.05.17/outbox.cif.g08.bks.cpg/sg12_139_cif.got.tgz:277197.got - 2010.06.03 13:09:07.
