data_PCOD9216175
_publ_section_title
;
Structure prediction by ZEFSAII (Michael W. Deem and Ramdas Pophale) SiO2 
 PCOD9216175
Probable space group: C 2/M
;
_chemical_formula_sum "Si O2"
_cell_formula_units_Z 40
_cell_length_a 16.288109
_cell_length_b 15.901083
_cell_length_c 17.009272
_cell_angle_alpha 90.000000
_cell_angle_beta 25.404065
_cell_angle_gamma 90.000000
_cell_volume 1889.903381
_symmetry_space_group_name_H-M "C 2/M"
_symmetry_group_IT_number 12
_symmetry_cell_setting 'monoclinic'
loop_
_space_group_symop_operation_xyz
x,y,z
-x,y,-z
-x,-y,-z
x,-y,z
1/2+x,1/2+y,z
1/2-x,1/2+y,-z
1/2-x,1/2-y,-z
1/2+x,1/2-y,z
loop_
_atom_site_type_symbol
_atom_site_label
_atom_site_fract_x
_atom_site_fract_y
_atom_site_fract_z
Si Si1 0.291110 0.407793 0.641057
Si Si2 0.565867 0.402543 0.818881
Si Si3 0.691111 0.195574 0.125945
Si Si4 0.701191 0.902520 0.541701
Si Si5 0.783934 0.740584 0.720468
O O1 0.500000 0.410521 0.500000
O O2 0.199837 0.500000 0.732996
O O3 0.306761 0.395064 0.533982
O O4 0.195141 0.325431 0.760616
O O5 0.594049 0.500000 0.815293
O O6 0.665390 0.385757 0.648354
O O7 0.665769 0.339854 0.793712
O O8 0.344336 0.379466 0.001969
O O9 0.479381 0.158583 0.301459
O O10 0.705270 0.245802 0.195352
O O11 0.750000 0.250000 0.000000
O O12 0.637064 0.000000 0.590381
O O13 0.000000 0.731151 0.500000
#
# Coordination Sequence:
#
# PCOD9216175 Si02
#       5
#     8   8   8   8   8
#     4   9  20  39  68  96 126 171 223 269 327 400
#     4  11  25  43  69  98 136 181 222 273 335 397
#     4  12  26  41  66 101 134 174 222 279 330 396
#     4  10  22  43  67  97 133 174 219 275 335 395
#     4  11  23  42  67  97 134 177 221 271 333 397
#
# _framework density 21.165102999999998
#
# number of rings (size 3 to 8) (size 9 to 14) (size 15 to 20)
#    0.000    1.400    2.000    2.400    5.600    4.400 
#    0.000    1.000    0.000    4.800    0.000    0.000 
#    0.000    0.000    0.000    0.000    0.000    0.000 
#
# Total GULP energy -111840.716780 kJ/mol
# GULP energy per Si atom -5592.035839 kJ/mol
# Density = 2.111693 g / cm^3
# Si number density = 21.165103 Si / 1000 Ang^3
#
#
#
# Elastic Constant Matrix: (Units=GPa)
#
#
# Indices 1 2 3 4 5 6 
#
# 1 119.3753 43.5293 24.1731 0.0327 30.9618 0.0013
# 2 43.5293 117.9017 26.1780 0.0637 14.8205 0.0158
# 3 24.1731 26.1780 76.5711 0.0492 15.0112 0.0099
# 4 0.0327 0.0637 0.0492 73.9656 0.0003 3.7753
# 5 30.9618 14.8205 15.0112 0.0003 43.8349 -0.0005
# 6 0.0013 0.0158 0.0099 3.7753 -0.0005 33.7947
#
#
#
# Elastic Compliance Matrix: (Units=1/GPa)
#
#
# Indices 1 2 3 4 5 6 
#
# 1 0.011492 -0.003130 -0.001258 -0.000002 -0.006628 0.000001
# 2 -0.003130 0.010229 -0.002427 -0.000006 -0.000416 -0.000003
# 3 -0.001258 -0.002427 0.014956 -0.000007 -0.003412 -0.000002
# 4 -0.000002 -0.000006 -0.000007 0.013597 0.000005 -0.001519
# 5 -0.006628 -0.000416 -0.003412 0.000005 0.028804 0.000001
# 6 0.000001 -0.000003 -0.000002 -0.001519 0.000001 0.029760
#
#
# Mechanical properties :
#
#
# Convention : Reuss Voigt Hill
#
# Bulk Modulus (GPa) = 43.39398 55.73434 49.56416
# Shear Modulus (GPa) = 38.41684 44.98353 41.70019
#
# Velocity S-wave (km/s) = 4.26502 4.61517 4.44355
# Velocity P-wave (km/s) = 6.69336 7.40203 7.05659
#
# Compressibility (1/GPa) = 0.02304467
#
# Stress axis : x y z
#
# Youngs Moduli (GPa) = 87.01455 97.76525 66.86397
#
# Poissons Ratio (x) = 0.30604 0.08415
# Poissons Ratio (y) = 0.27239 0.16229
# Poissons Ratio (z) = 0.10951 0.23729
#
# Static dielectric constant tensor:
#      x y z
#    x 1.737060 -0.000010 0.000790 
#    y -0.000010 1.794720 0.000010 
#    z 0.000790 0.000010 1.752340 
# 
# From -- ./inp_files/216631.got.cif
#   From: 2010.05.17/outbox.cif.g08.bks.cpg/sg12_109_cif.got.tgz:216631.got - 2010.06.03 13:09:07.
