data_PCOD9216219
_publ_section_title
;
Structure prediction by ZEFSAII (Michael W. Deem and Ramdas Pophale) SiO2 
 PCOD9216219
Probable space group: C 2/M
;
_chemical_formula_sum "Si O2"
_cell_formula_units_Z 48
_cell_length_a 10.790274
_cell_length_b 14.772477
_cell_length_c 14.537377
_cell_angle_alpha 90.000000
_cell_angle_beta 122.088729
_cell_angle_gamma 90.000000
_cell_volume 1963.230756
_symmetry_space_group_name_H-M "C 2/M"
_symmetry_group_IT_number 12
_symmetry_cell_setting 'monoclinic'
loop_
_space_group_symop_operation_xyz
x,y,z
-x,y,-z
-x,-y,-z
x,-y,z
1/2+x,1/2+y,z
1/2-x,1/2+y,-z
1/2-x,1/2-y,-z
1/2+x,1/2-y,z
loop_
_atom_site_type_symbol
_atom_site_label
_atom_site_fract_x
_atom_site_fract_y
_atom_site_fract_z
Si Si1 0.900225 0.260334 0.179150
Si Si2 0.560600 0.600807 0.921503
Si Si3 0.264279 0.896727 0.268094
Si Si4 0.553391 0.599253 0.664594
Si Si5 0.868041 0.600180 0.705781
Si Si6 0.270477 0.146064 0.481160
O O1 0.804810 0.334254 0.196808
O O2 0.938759 0.189639 0.273875
O O3 0.853048 0.188449 0.081540
O O4 0.042705 0.320096 0.209344
O O5 0.630667 0.500000 0.946191
O O6 0.412145 0.599886 0.802884
O O7 0.500000 0.613462 0.000000
O O8 0.308597 0.864768 0.388365
O O9 0.313499 0.000000 0.273134
O O10 0.578209 0.500000 0.718541
O O11 0.695133 0.609033 0.655933
O O12 0.386974 0.598868 0.565155
O O13 0.913196 0.500000 0.754428
O O14 0.884169 0.609091 0.601580
O O15 0.250000 0.250000 0.500000
#
# Coordination Sequence:
#
# PCOD9216219 Si02
#       6
#     8   8   8   8   8   8
#     4  12  22  40  63  92 125 162 202 254 309 379
#     4  10  22  43  69  95 121 155 206 261 316 378
#     4  11  24  41  62  91 129 169 204 254 313 369
#     4  11  22  38  60  85 120 163 212 262 303 348
#     4  11  24  39  58  89 126 170 213 253 298 359
#     4  12  21  39  61  89 125 167 216 256 303 358
#
# _framework density 24.449494999999999
#
# number of rings (size 3 to 8) (size 9 to 14) (size 15 to 20)
#    0.000    0.833    3.333    5.000    0.000    2.667 
#    0.000    1.667    0.000    2.000    0.000    0.000 
#    0.000    0.000    0.000    0.000    0.000    0.000 
#
# Total GULP energy -133971.912360 kJ/mol
# GULP energy per Si atom -5582.163015 kJ/mol
# Density = 2.439385 g / cm^3
# Si number density = 24.449495 Si / 1000 Ang^3
#
#
#
# Elastic Constant Matrix: (Units=GPa)
#
#
# Indices 1 2 3 4 5 6 
#
# 1 108.8396 52.3775 5.2104 0.0000 -14.8695 0.0000
# 2 52.3775 239.9472 40.3384 0.0000 -23.2474 0.0000
# 3 5.2104 40.3384 37.1303 0.0000 -18.1948 0.0000
# 4 0.0000 0.0000 0.0000 24.3393 0.0000 -2.8860
# 5 -14.8695 -23.2474 -18.1948 0.0000 23.2392 0.0000
# 6 0.0000 0.0000 0.0000 -2.8860 0.0000 47.1806
#
#
#
# Elastic Compliance Matrix: (Units=1/GPa)
#
#
# Indices 1 2 3 4 5 6 
#
# 1 0.011399 -0.002552 0.005672 0.000000 0.009181 0.000000
# 2 -0.002552 0.005692 -0.006224 0.000000 -0.000811 0.000000
# 3 0.005672 -0.006224 0.051311 0.000000 0.037577 0.000000
# 4 0.000000 0.000000 0.000000 0.041386 0.000000 0.002532
# 5 0.009181 -0.000811 0.037577 0.000000 0.077514 0.000000
# 6 0.000000 0.000000 0.000000 0.002532 0.000000 0.021350
#
#
# Mechanical properties :
#
#
# Convention : Reuss Voigt Hill
#
# Bulk Modulus (GPa) = 16.07834 64.64107 40.35970
# Shear Modulus (GPa) = 21.22313 38.15119 29.68716
#
# Velocity S-wave (km/s) = 2.94945 3.95449 3.48835
# Velocity P-wave (km/s) = 4.26490 6.88089 5.72433
#
# Compressibility (1/GPa) = 0.06219549
#
# Stress axis : x y z
#
# Youngs Moduli (GPa) = 87.72780 175.67319 19.48885
#
# Poissons Ratio (x) = 0.44837 -0.11055
# Poissons Ratio (y) = 0.22391 0.12129
# Poissons Ratio (z) = -0.49763 1.09333
#
# Static dielectric constant tensor:
#      x y z
#    x 2.021230 0.000000 -0.010790 
#    y 0.000000 1.948340 0.000000 
#    z -0.010790 0.000000 1.979670 
# 
# From -- ./inp_files/205147.got.cif
#   From: 2010.05.17/outbox.cif.g08.bks.cpg/sg12_103_cif.got.tgz:205147.got - 2010.06.03 13:09:07.
