data_PCOD9216516
_publ_section_title
;
Structure prediction by ZEFSAII (Michael W. Deem and Ramdas Pophale) SiO2 
 PCOD9216516
Probable space group: C 2/M
;
_chemical_formula_sum "Si O2"
_cell_formula_units_Z 56
_cell_length_a 18.202858
_cell_length_b 24.317223
_cell_length_c 9.685652
_cell_angle_alpha 90.000000
_cell_angle_beta 140.400662
_cell_angle_gamma 90.000000
_cell_volume 2732.780552
_symmetry_space_group_name_H-M "C 2/M"
_symmetry_group_IT_number 12
_symmetry_cell_setting 'monoclinic'
loop_
_space_group_symop_operation_xyz
x,y,z
-x,y,-z
-x,-y,-z
x,-y,z
1/2+x,1/2+y,z
1/2-x,1/2+y,-z
1/2-x,1/2-y,-z
1/2+x,1/2-y,z
loop_
_atom_site_type_symbol
_atom_site_label
_atom_site_fract_x
_atom_site_fract_y
_atom_site_fract_z
Si Si1 0.222421 0.629750 0.290649
Si Si2 0.903597 0.365476 0.159009
Si Si3 0.161930 0.364423 0.525876
Si Si4 0.175096 0.759277 0.525758
Si Si5 0.560634 0.264445 0.740347
Si Si6 0.317880 0.372736 0.988816
Si Si7 0.958974 0.063161 0.599651
O O1 0.181041 0.630907 0.389455
O O2 0.266120 0.690928 0.311346
O O3 0.334507 0.591568 0.436377
O O4 0.121258 0.619367 0.036146
O O5 0.905213 0.299210 0.189939
O O6 0.793916 0.389296 0.081601
O O7 0.034155 0.384516 0.380773
O O8 0.164732 0.300194 0.577652
O O9 0.271066 0.385032 0.767854
O O10 0.250000 0.750000 0.500000
O O11 0.044550 0.775334 0.305408
O O12 0.500000 0.272843 0.500000
O O13 0.652591 0.310543 0.915153
O O14 0.437174 0.404626 0.178001
O O15 0.000000 0.064623 0.500000
O O16 0.951807 0.000000 0.634042
#
# Coordination Sequence:
#
# PCOD9216516 Si02
#       7
#     8   8   8   8   8   8   8
#     4  11  20  40  61  85 123 164 208 256 306 366
#     4  11  21  35  59  88 125 169 201 243 304 377
#     4  10  23  36  56  93 129 165 202 241 303 385
#     4   9  18  33  51  82 125 163 196 232 297 369
#     4  11  20  33  56  88 126 162 213 250 298 371
#     4  12  21  38  61  88 124 163 201 264 310 363
#     4  11  24  44  69  94 115 156 215 273 321 358
#
# _framework density 20.491948000000001
#
# number of rings (size 3 to 8) (size 9 to 14) (size 15 to 20)
#    0.000    1.286    2.857    5.143    0.000    0.571 
#    0.000    4.286    0.000    5.143    0.000    0.000 
#    0.000    0.000    0.000    0.000    0.000    0.000 
#
# Total GULP energy -156043.706465 kJ/mol
# GULP energy per Si atom -5572.989517 kJ/mol
# Density = 2.044531 g / cm^3
# Si number density = 20.491948 Si / 1000 Ang^3
#
#
#
# Elastic Constant Matrix: (Units=GPa)
#
#
# Indices 1 2 3 4 5 6 
#
# 1 92.2617 8.6773 32.3102 0.0000 11.7098 0.0000
# 2 8.6773 46.3522 24.9164 0.0000 7.6296 0.0000
# 3 32.3102 24.9164 147.3894 0.0000 4.9983 0.0000
# 4 0.0000 0.0000 0.0000 8.5448 0.0000 2.0531
# 5 11.7098 7.6296 4.9983 0.0000 39.8731 0.0000
# 6 0.0000 0.0000 0.0000 2.0531 0.0000 16.6979
#
#
#
# Elastic Compliance Matrix: (Units=1/GPa)
#
#
# Indices 1 2 3 4 5 6 
#
# 1 0.012152 -0.000416 -0.002486 0.000000 -0.003178 0.000000
# 2 -0.000416 0.024416 -0.003899 0.000000 -0.004061 0.000000
# 3 -0.002486 -0.003899 0.007973 0.000000 0.000477 0.000000
# 4 0.000000 0.000000 0.000000 0.120593 0.000000 -0.014828
# 5 -0.003178 -0.004061 0.000477 0.000000 0.026730 0.000000
# 6 0.000000 0.000000 0.000000 -0.014828 0.000000 0.061711
#
#
# Mechanical properties :
#
#
# Convention : Reuss Voigt Hill
#
# Bulk Modulus (GPa) = 32.32066 46.42345 39.37206
# Shear Modulus (GPa) = 18.01881 27.69646 22.85764
#
# Velocity S-wave (km/s) = 2.96854 3.68037 3.34345
# Velocity P-wave (km/s) = 5.24940 6.38466 5.84466
#
# Compressibility (1/GPa) = 0.03093997
#
# Stress axis : x y z
#
# Youngs Moduli (GPa) = 82.29339 40.95682 125.42950
#
# Poissons Ratio (x) = 0.01702 0.31180
# Poissons Ratio (y) = 0.03420 0.48902
# Poissons Ratio (z) = 0.20457 0.15968
#
# Static dielectric constant tensor:
#      x y z
#    x 1.800730 0.000000 -0.011130 
#    y 0.000000 1.751900 0.000000 
#    z -0.011130 0.000000 1.784060 
# 
# From -- ./inp_files/80085.got.cif
#   From: 2010.05.17/outbox.cif.g08.bks.cpg/sg12_41_cif.got.tgz:80085.got - 2010.06.03 13:09:07.
