data_PCOD9216635
_publ_section_title
;
Structure prediction by ZEFSAII (Michael W. Deem and Ramdas Pophale) SiO2 
 PCOD9216635
Probable space group: C 2/M
;
_chemical_formula_sum "Si O2"
_cell_formula_units_Z 44
_cell_length_a 18.944079
_cell_length_b 11.971545
_cell_length_c 18.353046
_cell_angle_alpha 90.000000
_cell_angle_beta 144.228580
_cell_angle_gamma 90.000000
_cell_volume 2433.076525
_symmetry_space_group_name_H-M "C 2/M"
_symmetry_group_IT_number 12
_symmetry_cell_setting 'monoclinic'
loop_
_space_group_symop_operation_xyz
x,y,z
-x,y,-z
-x,-y,-z
x,-y,z
1/2+x,1/2+y,z
1/2-x,1/2+y,-z
1/2-x,1/2-y,-z
1/2+x,1/2-y,z
loop_
_atom_site_type_symbol
_atom_site_label
_atom_site_fract_x
_atom_site_fract_y
_atom_site_fract_z
Si Si1 0.355745 0.000000 0.382392
Si Si2 0.031413 0.000000 0.940677
Si Si3 0.943988 0.127048 0.737835
Si Si4 0.362562 0.372162 0.353860
Si Si5 0.938290 0.265049 0.280194
Si Si6 0.298983 0.780715 0.424922
Si Si7 0.686714 0.000000 0.821837
O O1 0.500000 0.000000 0.500000
O O2 0.313203 0.891517 0.388453
O O3 0.309823 0.000000 0.262707
O O4 0.173200 0.000000 0.040225
O O5 0.000000 0.000000 0.000000
O O6 0.976300 0.894885 0.849736
O O7 0.821602 0.197930 0.630731
O O8 0.047698 0.187211 0.778722
O O9 0.925384 0.000000 0.692943
O O10 0.500000 0.370489 0.500000
O O11 0.330860 0.500000 0.310601
O O12 0.363618 0.294760 0.282858
O O13 0.288064 0.320553 0.358553
O O14 0.883847 0.386425 0.216963
O O15 0.075164 0.273486 0.426275
#
# Coordination Sequence:
#
# PCOD9216635 Si02
#       7
#     4   4   8   8   8   8   4
#     4  12  16  32  58  91 113 141 196 248 277 335
#     4  10  24  43  63  84 104 153 206 245 291 340
#     4  10  23  39  57  80 121 151 190 239 296 343
#     4   9  18  31  52  82 118 153 188 219 278 357
#     4  11  21  34  57  90 118 152 188 239 296 340
#     4  11  18  34  57  87 121 153 188 235 286 354
#     4  12  22  35  63  88 114 149 206 243 281 339
#
# _framework density 18.084101
#
# number of rings (size 3 to 8) (size 9 to 14) (size 15 to 20)
#    0.545    0.909    4.545    2.727    0.000    1.455 
#    1.636    0.000    0.000    0.000    0.000    1.909 
#    0.000    0.000    0.000    0.000    0.000    0.000 
#
# Total GULP energy -122609.628766 kJ/mol
# GULP energy per Si atom -5573.164944 kJ/mol
# Density = 1.804294 g / cm^3
# Si number density = 18.084101 Si / 1000 Ang^3
#
#
#
# Elastic Constant Matrix: (Units=GPa)
#
#
# Indices 1 2 3 4 5 6 
#
# 1 79.1886 48.5983 15.8151 0.0000 4.6594 0.0000
# 2 48.5983 116.7035 12.7685 0.0000 1.2903 0.0000
# 3 15.8151 12.7685 56.2094 0.0000 3.4559 0.0000
# 4 0.0000 0.0000 0.0000 16.7767 0.0000 -10.3215
# 5 4.6594 1.2903 3.4559 0.0000 21.8762 0.0000
# 6 0.0000 0.0000 0.0000 -10.3215 0.0000 33.8162
#
#
#
# Elastic Compliance Matrix: (Units=1/GPa)
#
#
# Indices 1 2 3 4 5 6 
#
# 1 0.017737 -0.007002 -0.003224 0.000000 -0.002855 0.000000
# 2 -0.007002 0.011552 -0.000711 0.000000 0.000922 0.000000
# 3 -0.003224 -0.000711 0.018999 0.000000 -0.002273 0.000000
# 4 0.000000 0.000000 0.000000 0.073388 0.000000 0.022400
# 5 -0.002855 0.000922 -0.002273 0.000000 0.046625 0.000000
# 6 0.000000 0.000000 0.000000 0.022400 0.000000 0.036409
#
#
# Mechanical properties :
#
#
# Convention : Reuss Voigt Hill
#
# Bulk Modulus (GPa) = 37.85865 45.16282 41.51074
# Shear Modulus (GPa) = 21.24153 26.15511 23.69832
#
# Velocity S-wave (km/s) = 3.43096 3.80716 3.62394
# Velocity P-wave (km/s) = 6.05603 6.65987 6.36512
#
# Compressibility (1/GPa) = 0.02641404
#
# Stress axis : x y z
#
# Youngs Moduli (GPa) = 56.37897 86.56485 52.63416
#
# Poissons Ratio (x) = 0.60611 0.16972
# Poissons Ratio (y) = 0.39476 0.03741
# Poissons Ratio (z) = 0.18179 0.06153
#
# Static dielectric constant tensor:
#      x y z
#    x 1.633450 0.000000 -0.003990 
#    y 0.000000 1.623050 0.000000 
#    z -0.003990 0.000000 1.554690 
# 
# From -- ./inp_files/277141.got.cif
#   From: 2010.05.17/outbox.cif.g08.bks.cpg/sg12_139_cif.got.tgz:277141.got - 2010.06.03 13:09:07.
