data_PCOD9216959
_publ_section_title
;
Structure prediction by ZEFSAII (Michael W. Deem and Ramdas Pophale) SiO2 
 PCOD9216959
Probable space group: C 2/M
;
_chemical_formula_sum "Si O2"
_cell_formula_units_Z 38
_cell_length_a 27.942071
_cell_length_b 13.795123
_cell_length_c 6.667990
_cell_angle_alpha 90.000000
_cell_angle_beta 51.608956
_cell_angle_gamma 90.000000
_cell_volume 2014.554990
_symmetry_space_group_name_H-M "C 2/M"
_symmetry_group_IT_number 12
_symmetry_cell_setting 'monoclinic'
loop_
_space_group_symop_operation_xyz
x,y,z
-x,y,-z
-x,-y,-z
x,-y,z
1/2+x,1/2+y,z
1/2-x,1/2+y,-z
1/2-x,1/2-y,-z
1/2+x,1/2-y,z
loop_
_atom_site_type_symbol
_atom_site_label
_atom_site_fract_x
_atom_site_fract_y
_atom_site_fract_z
Si Si1 0.225218 0.386664 0.739369
Si Si2 0.459939 0.329884 0.905803
Si Si3 0.500000 0.500000 0.500000
Si Si4 0.500000 0.166446 0.500000
Si Si5 0.660973 0.254620 0.589218
Si Si6 0.625347 0.893662 0.348706
O O1 0.234852 0.500000 0.663561
O O2 0.288408 0.330836 0.617598
O O3 0.193712 0.325679 0.643386
O O4 0.179829 0.383092 0.046765
O O5 0.469778 0.415661 0.723619
O O6 0.482707 0.233311 0.734358
O O7 0.500000 0.348296 0.000000
O O8 0.390485 0.311542 0.153062
O O9 0.439144 0.110159 0.597451
O O10 0.630097 0.194618 0.490488
O O11 0.631323 0.000000 0.431685
#
# Coordination Sequence:
#
# PCOD9216959 Si02
#       6
#     8   8   2   4   8   8
#     4  10  23  41  61  91 125 164 215 265 312 378
#     4  11  22  42  65  90 128 163 211 260 316 379
#     4  10  26  40  62  98 126 164 208 262 304 378
#     4  11  21  39  61  96 124 168 202 260 322 372
#     4  11  22  40  67  89 125 169 210 259 325 372
#     4  11  22  39  62  94 129 164 211 263 315 378
#
# _framework density 18.862725999999999
#
# number of rings (size 3 to 8) (size 9 to 14) (size 15 to 20)
#    0.000    1.263    4.211    1.895    1.474    0.000 
#    0.000    1.053    9.263    0.000    0.000    0.000 
#    0.000    0.000    0.000    0.000    0.000    0.000 
#
# Total GULP energy -105824.535479 kJ/mol
# GULP energy per Si atom -5569.712394 kJ/mol
# Density = 1.881979 g / cm^3
# Si number density = 18.862726 Si / 1000 Ang^3
#
#
#
# Elastic Constant Matrix: (Units=GPa)
#
#
# Indices 1 2 3 4 5 6 
#
# 1 89.5700 53.0102 45.6020 0.0000 -19.9430 0.0000
# 2 53.0102 142.4758 65.4700 0.0000 -12.2810 0.0000
# 3 45.6020 65.4700 112.4929 0.0000 -25.5434 0.0000
# 4 0.0000 0.0000 0.0000 16.9833 0.0000 4.4770
# 5 -19.9430 -12.2810 -25.5434 0.0000 29.0631 0.0000
# 6 0.0000 0.0000 0.0000 4.4770 0.0000 -13.4792
#
#
#
# Elastic Compliance Matrix: (Units=1/GPa)
#
#
# Indices 1 2 3 4 5 6 
#
# 1 0.016709 -0.004420 -0.002526 0.000000 0.007378 0.000000
# 2 -0.004420 0.010777 -0.005166 0.000000 -0.003020 0.000000
# 3 -0.002526 -0.005166 0.015030 0.000000 0.009294 0.000000
# 4 0.000000 0.000000 0.000000 0.054141 0.000000 0.017982
# 5 0.007378 -0.003020 0.009294 0.000000 0.046363 0.000000
# 6 0.000000 0.000000 0.000000 0.017982 0.000000 -0.068215
#
#
# Mechanical properties :
#
#
# Convention : Reuss Voigt Hill
#
# Bulk Modulus (GPa) = 54.66663 74.74479 64.70571
# Shear Modulus (GPa) = 47.56206 18.54385 33.05296
#
# Velocity S-wave (km/s) = 5.02689 3.13884 4.19058
# Velocity P-wave (km/s) = 7.92067 7.26967 7.60214
#
# Compressibility (1/GPa) = 0.01829269
#
# Stress axis : x y z
#
# Youngs Moduli (GPa) = 59.84749 92.79109 66.53341
#
# Poissons Ratio (x) = 0.41017 0.16803
# Poissons Ratio (y) = 0.26455 0.34370
# Poissons Ratio (z) = 0.15115 0.47934
#
# Static dielectric constant tensor:
#      x y z
#    x 1.659590 0.000000 0.002240 
#    y 0.000000 1.627430 0.000000 
#    z 0.002240 0.000000 1.621260 
# 
# From -- ./inp_files/28065.got.cif
#   From: 2010.05.17/outbox.cif.g08.bks.cpg/sg12_15_cif.got.tgz:28065.got - 2010.06.03 13:09:07.
