data_PCOD9216762
_publ_section_title
;
Structure prediction by ZEFSAII (Michael W. Deem and Ramdas Pophale) SiO2 
 PCOD9216762
Probable space group: C 2/M
;
_chemical_formula_sum "Si O2"
_cell_formula_units_Z 56
_cell_length_a 15.664746
_cell_length_b 25.039716
_cell_length_c 8.722570
_cell_angle_alpha 90.000000
_cell_angle_beta 131.922166
_cell_angle_gamma 90.000000
_cell_volume 2545.664495
_symmetry_space_group_name_H-M "C 2/M"
_symmetry_group_IT_number 12
_symmetry_cell_setting 'monoclinic'
loop_
_space_group_symop_operation_xyz
x,y,z
-x,y,-z
-x,-y,-z
x,-y,z
1/2+x,1/2+y,z
1/2-x,1/2+y,-z
1/2-x,1/2-y,-z
1/2+x,1/2-y,z
loop_
_atom_site_type_symbol
_atom_site_label
_atom_site_fract_x
_atom_site_fract_y
_atom_site_fract_z
Si Si1 0.043501 0.559542 0.228077
Si Si2 0.133036 0.352048 0.984478
Si Si3 0.137697 0.305564 0.672709
Si Si4 0.754601 0.210644 0.361248
Si Si5 0.470203 0.438865 0.728818
Si Si6 0.170923 0.061730 0.762305
Si Si7 0.730368 0.616672 0.407893
O O1 0.018897 0.500000 0.264897
O O2 0.176061 0.573622 0.419750
O O3 0.979014 0.614230 0.197712
O O4 0.000000 0.556262 0.000000
O O5 0.170672 0.317841 0.885367
O O6 0.140498 0.312294 0.139608
O O7 0.222811 0.399293 0.121228
O O8 0.171871 0.245391 0.667663
O O9 0.207222 0.347966 0.648443
O O10 0.000000 0.310975 0.500000
O O11 0.750000 0.250000 0.500000
O O12 0.803397 0.157934 0.497695
O O13 0.488639 0.500000 0.794220
O O14 0.396619 0.439282 0.480055
O O15 0.591184 0.418351 0.807732
O O16 0.391126 0.411827 0.762963
O O17 0.205117 0.000000 0.832937
#
# Coordination Sequence:
#
# PCOD9216762 Si02
#       7
#     8   8   8   8   8   8   8
#     4  11  21  34  64 100 129 167 210 261 331 396
#     4  12  21  40  64  90 130 164 206 267 321 386
#     4  11  25  42  61  89 127 171 214 264 321 384
#     4  10  23  40  62  84 114 161 216 262 314 366
#     4   9  17  33  60  90 122 158 205 259 314 376
#     4   9  18  33  60  94 123 159 208 256 315 383
#     4  11  20  40  61  90 128 163 208 262 317 383
#
# _framework density 21.998184999999999
#
# number of rings (size 3 to 8) (size 9 to 14) (size 15 to 20)
#    0.000    1.571    4.286    2.143    0.000    3.429 
#    0.000    4.286    3.143    1.714    0.000    0.000 
#    0.000    0.000    0.000    0.000    0.000    0.000 
#
# Total GULP energy -155912.441480 kJ/mol
# GULP energy per Si atom -5568.301481 kJ/mol
# Density = 2.194812 g / cm^3
# Si number density = 21.998185 Si / 1000 Ang^3
#
#
#
# Elastic Constant Matrix: (Units=GPa)
#
#
# Indices 1 2 3 4 5 6 
#
# 1 93.5334 40.2227 16.1147 0.0000 9.1533 0.0000
# 2 40.2227 99.0075 26.4973 0.0000 -3.4425 0.0000
# 3 16.1147 26.4973 51.3946 0.0000 2.7453 0.0000
# 4 0.0000 0.0000 0.0000 15.2258 0.0000 -0.1336
# 5 9.1533 -3.4425 2.7453 0.0000 26.1873 0.0000
# 6 0.0000 0.0000 0.0000 -0.1336 0.0000 34.1611
#
#
#
# Elastic Compliance Matrix: (Units=1/GPa)
#
#
# Indices 1 2 3 4 5 6 
#
# 1 0.013778 -0.005460 -0.001216 0.000000 -0.005406 0.000000
# 2 -0.005460 0.014006 -0.005742 0.000000 0.004351 0.000000
# 3 -0.001216 -0.005742 0.022945 0.000000 -0.002735 0.000000
# 4 0.000000 0.000000 0.000000 0.065680 0.000000 0.000257
# 5 -0.005406 0.004351 -0.002735 0.000000 0.040935 0.000000
# 6 0.000000 0.000000 0.000000 0.000257 0.000000 0.029274
#
#
# Mechanical properties :
#
#
# Convention : Reuss Voigt Hill
#
# Bulk Modulus (GPa) = 38.61982 45.51163 42.06572
# Shear Modulus (GPa) = 22.71846 25.85489 24.28668
#
# Velocity S-wave (km/s) = 3.21712 3.43201 3.32630
# Velocity P-wave (km/s) = 5.60302 6.03644 5.82377
#
# Compressibility (1/GPa) = 0.02589344
#
# Stress axis : x y z
#
# Youngs Moduli (GPa) = 72.58009 71.39651 43.58247
#
# Poissons Ratio (x) = 0.38981 0.05301
# Poissons Ratio (y) = 0.39627 0.25024
# Poissons Ratio (z) = 0.08828 0.40994
#
# Static dielectric constant tensor:
#      x y z
#    x 1.897730 0.000000 -0.028870 
#    y 0.000000 1.845780 0.000000 
#    z -0.028870 0.000000 1.828540 
# 
# From -- ./inp_files/79153.got.cif
#   From: 2010.05.17/outbox.cif.g08.bks.cpg/sg12_40_cif.got.tgz:79153.got - 2010.06.03 13:09:07.
