data_PCOD9216541
_publ_section_title
;
Structure prediction by ZEFSAII (Michael W. Deem and Ramdas Pophale) SiO2 
 PCOD9216541
Probable space group: C 2/M
;
_chemical_formula_sum "Si O2"
_cell_formula_units_Z 40
_cell_length_a 18.748915
_cell_length_b 22.663023
_cell_length_c 5.211499
_cell_angle_alpha 90.000000
_cell_angle_beta 107.471437
_cell_angle_gamma 90.000000
_cell_volume 2112.245259
_symmetry_space_group_name_H-M "C 2/M"
_symmetry_group_IT_number 12
_symmetry_cell_setting 'monoclinic'
loop_
_space_group_symop_operation_xyz
x,y,z
-x,y,-z
-x,-y,-z
x,-y,z
1/2+x,1/2+y,z
1/2-x,1/2+y,-z
1/2-x,1/2-y,-z
1/2+x,1/2-y,z
loop_
_atom_site_type_symbol
_atom_site_label
_atom_site_fract_x
_atom_site_fract_y
_atom_site_fract_z
Si Si1 0.294495 0.668164 0.472609
Si Si2 0.951792 0.726123 0.201844
Si Si3 0.293935 0.569524 0.120368
Si Si4 0.580713 0.352350 0.016616
Si Si5 0.208732 0.672476 0.883478
O O1 0.294232 0.597966 0.405814
O O2 0.234795 0.686319 0.623690
O O3 0.268352 0.693630 0.168638
O O4 0.374547 0.676406 0.692899
O O5 0.935734 0.796338 0.180570
O O6 0.872458 0.693648 0.129471
O O7 0.000000 0.710172 0.500000
O O8 0.000000 0.713195 0.000000
O O9 0.295158 0.500000 0.113134
O O10 0.364855 0.600122 0.054862
O O11 0.221521 0.601642 0.920038
O O12 0.500000 0.377803 0.000000
#
# Coordination Sequence:
#
# PCOD9216541 Si02
#       5
#     8   8   8   8   8
#     4   9  20  36  58  83 116 155 202 236 289 339
#     4  11  24  38  64  91 124 157 188 242 309 361
#     4   9  21  39  61  86 117 160 206 245 292 338
#     4  10  23  37  59  88 128 158 198 239 294 354
#     4   9  20  40  60  89 115 154 199 248 290 357
#
# _framework density 18.937193000000001
#
# number of rings (size 3 to 8) (size 9 to 14) (size 15 to 20)
#    1.200    1.200    0.000    1.200    5.600    7.600 
#    0.000    1.000    0.000    1.200    0.000    0.000 
#    0.000    0.000    0.000    0.000    0.000    0.000 
#
# Total GULP energy -111383.744660 kJ/mol
# GULP energy per Si atom -5569.187233 kJ/mol
# Density = 1.889409 g / cm^3
# Si number density = 18.937193 Si / 1000 Ang^3
#
#
#
# Elastic Constant Matrix: (Units=GPa)
#
#
# Indices 1 2 3 4 5 6 
#
# 1 116.2802 64.1641 48.2059 0.0000 -9.4393 0.0000
# 2 64.1641 102.6404 6.5882 0.0000 -15.3769 0.0000
# 3 48.2059 6.5882 117.9216 0.0000 -13.5608 0.0000
# 4 0.0000 0.0000 0.0000 16.7820 0.0000 -2.8753
# 5 -9.4393 -15.3769 -13.5608 0.0000 34.6129 0.0000
# 6 0.0000 0.0000 0.0000 -2.8753 0.0000 21.2536
#
#
#
# Elastic Compliance Matrix: (Units=1/GPa)
#
#
# Indices 1 2 3 4 5 6 
#
# 1 0.016991 -0.010596 -0.006663 0.000000 -0.002684 0.000000
# 2 -0.010596 0.017046 0.004103 0.000000 0.006290 0.000000
# 3 -0.006663 0.004103 0.011493 0.000000 0.004509 0.000000
# 4 0.000000 0.000000 0.000000 0.061002 0.000000 0.008253
# 5 -0.002684 0.006290 0.004509 0.000000 0.032720 0.000000
# 6 0.000000 0.000000 0.000000 0.008253 0.000000 0.048167
#
#
# Mechanical properties :
#
#
# Convention : Reuss Voigt Hill
#
# Bulk Modulus (GPa) = 52.03453 63.86206 57.94830
# Shear Modulus (GPa) = 22.71311 29.05530 25.88420
#
# Velocity S-wave (km/s) = 3.46698 3.92126 3.70110
# Velocity P-wave (km/s) = 6.60028 7.36872 6.99506
#
# Compressibility (1/GPa) = 0.01921801
#
# Stress axis : x y z
#
# Youngs Moduli (GPa) = 58.85399 58.66517 87.00865
#
# Poissons Ratio (x) = 0.62163 0.57970
# Poissons Ratio (y) = 0.62363 -0.35697
# Poissons Ratio (z) = 0.39212 -0.24069
#
# Static dielectric constant tensor:
#      x y z
#    x 1.674340 0.000000 -0.011870 
#    y 0.000000 1.682990 0.000000 
#    z -0.011870 0.000000 1.741080 
# 
# From -- ./inp_files/20230.got.cif
#   From: 2010.05.17/outbox.cif.g08.bks.cpg/sg12_11_cif.got.tgz:20230.got - 2010.06.03 13:09:07.
