data_PCOD9216601
_publ_section_title
;
Structure prediction by ZEFSAII (Michael W. Deem and Ramdas Pophale) SiO2 
 PCOD9216601
Probable space group: C 2/M
;
_chemical_formula_sum "Si O2"
_cell_formula_units_Z 32
_cell_length_a 15.867644
_cell_length_b 20.672436
_cell_length_c 8.021651
_cell_angle_alpha 90.000000
_cell_angle_beta 33.589877
_cell_angle_gamma 90.000000
_cell_volume 1455.743564
_symmetry_space_group_name_H-M "C 2/M"
_symmetry_group_IT_number 12
_symmetry_cell_setting 'monoclinic'
loop_
_space_group_symop_operation_xyz
x,y,z
-x,y,-z
-x,-y,-z
x,-y,z
1/2+x,1/2+y,z
1/2-x,1/2+y,-z
1/2-x,1/2-y,-z
1/2+x,1/2-y,z
loop_
_atom_site_type_symbol
_atom_site_label
_atom_site_fract_x
_atom_site_fract_y
_atom_site_fract_z
Si Si1 0.833588 0.368279 0.344960
Si Si2 0.162500 0.569130 0.320704
Si Si3 0.205981 0.796566 0.857056
Si Si4 0.101107 0.172269 0.483430
O O1 0.851032 0.423930 0.455613
O O2 0.757453 0.312339 0.583412
O O3 0.712323 0.376565 0.396499
O O4 0.000000 0.352549 0.000000
O O5 0.239289 0.500000 0.156431
O O6 0.236674 0.637275 0.148367
O O7 0.000000 0.568461 0.500000
O O8 0.293693 0.731095 0.756467
O O9 0.026635 0.796140 0.184308
O O10 0.000000 0.144926 0.500000
#
# Coordination Sequence:
#
# PCOD9216601 Si02
#       4
#     8   8   8   8
#     4  10  23  38  62  92 127 159 204 254 304 366
#     4   9  21  41  67  89 120 164 209 253 304 363
#     4  10  23  39  61  91 126 163 203 256 302 365
#     4  12  23  38  63  93 129 163 202 251 315 367
#
# _framework density 21.981894
#
# number of rings (size 3 to 8) (size 9 to 14) (size 15 to 20)
#    1.500    0.250    0.000    4.500    3.500    0.500 
#    0.000    2.500    0.000    1.500    0.000    0.000 
#    0.000    0.000    0.000    0.000    0.000    0.000 
#
# Total GULP energy -89071.524678 kJ/mol
# GULP energy per Si atom -5566.970292 kJ/mol
# Density = 2.193186 g / cm^3
# Si number density = 21.981894 Si / 1000 Ang^3
#
#
#
# Elastic Constant Matrix: (Units=GPa)
#
#
# Indices 1 2 3 4 5 6 
#
# 1 141.8600 35.4579 21.1092 -0.0006 -37.7405 0.0006
# 2 35.4579 96.4574 6.6460 -0.0003 -11.1400 0.0004
# 3 21.1092 6.6460 131.0626 -0.0016 -10.7520 0.0017
# 4 -0.0006 -0.0003 -0.0016 9.2865 0.0004 8.1962
# 5 -37.7405 -11.1400 -10.7520 0.0004 36.8722 -0.0003
# 6 0.0006 0.0004 0.0017 8.1962 -0.0003 -26.1784
#
#
#
# Elastic Compliance Matrix: (Units=1/GPa)
#
#
# Indices 1 2 3 4 5 6 
#
# 1 0.010379 -0.002655 -0.000749 0.000000 0.009603 0.000000
# 2 -0.002655 0.011432 -0.000094 0.000000 0.000709 0.000000
# 3 -0.000749 -0.000094 0.007879 0.000001 0.001502 0.000001
# 4 0.000000 0.000000 0.000001 0.084370 0.000000 0.026415
# 5 0.009603 0.000709 0.001502 0.000000 0.037602 0.000000
# 6 0.000000 0.000000 0.000001 0.026415 0.000000 -0.029929
#
#
# Mechanical properties :
#
#
# Convention : Reuss Voigt Hill
#
# Bulk Modulus (GPa) = 44.06566 55.08958 49.57762
# Shear Modulus (GPa) = 36.68595 24.40717 30.54656
#
# Velocity S-wave (km/s) = 4.08967 3.33578 3.73181
# Velocity P-wave (km/s) = 6.51079 6.32078 6.41649
#
# Compressibility (1/GPa) = 0.02269341
#
# Stress axis : x y z
#
# Youngs Moduli (GPa) = 96.34853 87.47758 126.92595
#
# Poissons Ratio (x) = 0.23222 0.09510
# Poissons Ratio (y) = 0.25577 0.01192
# Poissons Ratio (z) = 0.07219 0.00822
#
# Static dielectric constant tensor:
#      x y z
#    x 1.903580 0.000000 0.072340 
#    y 0.000000 1.775870 0.000000 
#    z 0.072340 0.000000 1.815800 
# 
# From -- ./inp_files/38970.got.cif
#   From: 2010.05.17/outbox.cif.g08.bks.cpg/sg12_20_cif.got.tgz:38970.got - 2010.06.03 13:09:07.
