data_PCOD9216261
_publ_section_title
;
Structure prediction by ZEFSAII (Michael W. Deem and Ramdas Pophale) SiO2 
 PCOD9216261
Probable space group: C 2/M
;
_chemical_formula_sum "Si O2"
_cell_formula_units_Z 50
_cell_length_a 9.399640
_cell_length_b 13.403923
_cell_length_c 17.714793
_cell_angle_alpha 90.000000
_cell_angle_beta 89.972795
_cell_angle_gamma 90.000000
_cell_volume 2231.922848
_symmetry_space_group_name_H-M "C 2/M"
_symmetry_group_IT_number 12
_symmetry_cell_setting 'monoclinic'
loop_
_space_group_symop_operation_xyz
x,y,z
-x,y,-z
-x,-y,-z
x,-y,z
1/2+x,1/2+y,z
1/2-x,1/2+y,-z
1/2-x,1/2-y,-z
1/2+x,1/2-y,z
loop_
_atom_site_type_symbol
_atom_site_label
_atom_site_fract_x
_atom_site_fract_y
_atom_site_fract_z
Si Si1 0.434610 0.391536 0.651574
Si Si2 0.833796 0.614130 0.987769
Si Si3 0.564287 0.117355 0.363423
Si Si4 0.699735 0.752945 0.586151
Si Si5 0.789073 0.784140 0.874351
Si Si6 0.535861 0.238813 0.769079
Si Si7 0.000000 0.000000 0.500000
O O1 0.406484 0.500000 0.685816
O O2 0.290485 0.332707 0.635477
O O3 0.775318 0.350002 0.615765
O O4 0.530700 0.326909 0.707318
O O5 0.830710 0.500000 0.964274
O O6 0.750774 0.630517 0.066259
O O7 0.768383 0.684581 0.924137
O O8 0.000000 0.642765 0.000000
O O9 0.455790 0.193085 0.407856
O O10 0.534018 0.146175 0.275954
O O11 0.540228 0.000000 0.378972
O O12 0.750000 0.750000 0.500000
O O13 0.994399 0.914767 0.567604
O O14 0.687439 0.787830 0.802200
O O15 0.944923 0.776517 0.839888
#
# Coordination Sequence:
#
# PCOD9216261 Si02
#       7
#     8   8   8   8   8   8   2
#     4   9  21  38  61  92 130 183 235 294 364 421
#     4  10  22  43  71 102 137 185 226 268 346 427
#     4  11  26  47  67 101 140 184 238 299 365 439
#     4  11  24  41  69  94 133 179 237 305 371 438
#     4  11  23  42  68 101 139 177 225 286 341 419
#     4  11  23  41  65  98 140 182 230 294 355 415
#     4   8  20  40  64  88 132 190 236 292 374 440
#
# _framework density 22.402208999999999
#
# number of rings (size 3 to 8) (size 9 to 14) (size 15 to 20)
#    0.480    1.120    1.600    2.880    4.480    4.480 
#    0.000    8.000    0.000    0.000    0.000    0.000 
#    0.000    0.000    0.000    0.000    0.000    0.000 
#
# Total GULP energy -139172.936075 kJ/mol
# GULP energy per Si atom -5566.917443 kJ/mol
# Density = 2.235122 g / cm^3
# Si number density = 22.402209 Si / 1000 Ang^3
#
#
#
# Elastic Constant Matrix: (Units=GPa)
#
#
# Indices 1 2 3 4 5 6 
#
# 1 77.0677 6.0457 10.2206 0.0000 -8.7824 0.0000
# 2 6.0457 97.0236 20.3649 0.0000 4.5932 0.0000
# 3 10.2206 20.3649 106.0782 0.0000 -4.0072 0.0000
# 4 0.0000 0.0000 0.0000 10.0528 0.0000 -3.6607
# 5 -8.7824 4.5932 -4.0072 0.0000 45.9160 0.0000
# 6 0.0000 0.0000 0.0000 -3.6607 0.0000 13.8522
#
#
#
# Elastic Compliance Matrix: (Units=1/GPa)
#
#
# Indices 1 2 3 4 5 6 
#
# 1 0.013465 -0.000738 -0.001059 0.000000 0.002557 0.000000
# 2 -0.000738 0.010853 -0.002066 0.000000 -0.001407 0.000000
# 3 -0.001059 -0.002066 0.009959 0.000000 0.000873 0.000000
# 4 0.000000 0.000000 0.000000 0.110067 0.000000 0.029087
# 5 0.002557 -0.001407 0.000873 0.000000 0.022485 0.000000
# 6 0.000000 0.000000 0.000000 0.029087 0.000000 0.079877
#
#
# Mechanical properties :
#
#
# Convention : Reuss Voigt Hill
#
# Bulk Modulus (GPa) = 37.66231 39.27023 38.46627
# Shear Modulus (GPa) = 18.99109 30.20009 24.59559
#
# Velocity S-wave (km/s) = 2.91474 3.67561 3.31707
# Velocity P-wave (km/s) = 5.30811 5.96500 5.64611
#
# Compressibility (1/GPa) = 0.02655174
#
# Stress axis : x y z
#
# Youngs Moduli (GPa) = 74.26482 92.14113 100.41577
#
# Poissons Ratio (x) = 0.06798 0.10636
# Poissons Ratio (y) = 0.05479 0.20742
# Poissons Ratio (z) = 0.07866 0.19033
#
# Static dielectric constant tensor:
#      x y z
#    x 1.895680 0.000000 -0.089170 
#    y 0.000000 1.799680 0.000000 
#    z -0.089170 0.000000 1.882290 
# 
# From -- ./inp_files/299827.got.cif
#   From: 2010.05.17/outbox.cif.g08.bks.cpg/sg12_150_cif.got.tgz:299827.got - 2010.06.03 13:09:07.
