data_PCOD9216335
_publ_section_title
;
Structure prediction by ZEFSAII (Michael W. Deem and Ramdas Pophale) SiO2 
 PCOD9216335
Probable space group: C 2/M
;
_chemical_formula_sum "Si O2"
_cell_formula_units_Z 40
_cell_length_a 9.197472
_cell_length_b 26.204344
_cell_length_c 15.734133
_cell_angle_alpha 90.000000
_cell_angle_beta 30.003292
_cell_angle_gamma 90.000000
_cell_volume 1896.259653
_symmetry_space_group_name_H-M "C 2/M"
_symmetry_group_IT_number 12
_symmetry_cell_setting 'monoclinic'
loop_
_space_group_symop_operation_xyz
x,y,z
-x,y,-z
-x,-y,-z
x,-y,z
1/2+x,1/2+y,z
1/2-x,1/2+y,-z
1/2-x,1/2-y,-z
1/2+x,1/2-y,z
loop_
_atom_site_type_symbol
_atom_site_label
_atom_site_fract_x
_atom_site_fract_y
_atom_site_fract_z
Si Si1 0.362145 0.717463 0.663342
Si Si2 0.657821 0.672768 0.831307
Si Si3 0.420918 0.866567 0.941157
Si Si4 0.885181 0.059706 0.654341
Si Si5 0.802836 0.641916 0.515548
O O1 0.500000 0.717019 0.500000
O O2 0.250925 0.772821 0.746074
O O3 0.603816 0.692373 0.603661
O O4 0.089097 0.679684 0.809563
O O5 0.958147 0.641906 0.680782
O O6 0.500000 0.680709 0.000000
O O7 0.419840 0.642510 0.896858
O O8 0.562763 0.917544 0.830782
O O9 0.500000 0.864188 0.000000
O O10 0.000000 0.067525 0.500000
O O11 0.091953 0.094005 0.609814
O O12 0.898061 0.000000 0.667397
O O13 0.000000 0.642624 0.500000
#
# Coordination Sequence:
#
# PCOD9216335 Si02
#       5
#     8   8   8   8   8
#     4  11  23  41  60  84 123 171 210 239 290 361
#     4  12  23  37  59  90 125 160 203 253 303 350
#     4  11  23  40  61  90 124 157 201 254 306 355
#     4  10  22  44  69  89 116 160 205 245 303 373
#     4  11  23  40  61  89 123 160 203 250 298 357
#
# _framework density 21.094158
#
# number of rings (size 3 to 8) (size 9 to 14) (size 15 to 20)
#    0.000    1.000    0.000    9.600    0.000    4.000 
#    0.000    2.000    0.000    3.600    0.000    0.000 
#    0.000    0.000    0.000    0.000    0.000    0.000 
#
# Total GULP energy -111913.606573 kJ/mol
# GULP energy per Si atom -5595.680329 kJ/mol
# Density = 2.104615 g / cm^3
# Si number density = 21.094158 Si / 1000 Ang^3
#
#
#
# Elastic Constant Matrix: (Units=GPa)
#
#
# Indices 1 2 3 4 5 6 
#
# 1 108.5842 52.7660 21.9667 0.0000 -10.0737 0.0000
# 2 52.7660 135.1952 45.3094 0.0000 -10.9026 0.0000
# 3 21.9667 45.3094 118.0847 -0.0001 -13.7180 0.0000
# 4 0.0000 0.0000 -0.0001 27.6992 0.0000 4.5599
# 5 -10.0737 -10.9026 -13.7180 0.0000 50.0173 0.0000
# 6 0.0000 0.0000 0.0000 4.5599 0.0000 17.3263
#
#
#
# Elastic Compliance Matrix: (Units=1/GPa)
#
#
# Indices 1 2 3 4 5 6 
#
# 1 0.011467 -0.004254 -0.000351 0.000000 0.001286 0.000000
# 2 -0.004254 0.010114 -0.003029 0.000000 0.000517 0.000000
# 3 -0.000351 -0.003029 0.009928 0.000000 0.001992 0.000000
# 4 0.000000 0.000000 0.000000 0.037737 0.000000 -0.009932
# 5 0.001286 0.000517 0.001992 0.000000 0.020911 0.000000
# 6 0.000000 0.000000 0.000000 -0.009932 0.000000 0.060330
#
#
# Mechanical properties :
#
#
# Convention : Reuss Voigt Hill
#
# Bulk Modulus (GPa) = 61.58044 66.88313 64.23179
# Shear Modulus (GPa) = 29.21088 35.13001 32.17044
#
# Velocity S-wave (km/s) = 3.72531 4.08535 3.90947
# Velocity P-wave (km/s) = 6.91089 7.35046 7.13406
#
# Compressibility (1/GPa) = 0.01623892
#
# Stress axis : x y z
#
# Youngs Moduli (GPa) = 87.20616 98.87290 100.72903
#
# Poissons Ratio (x) = 0.42061 0.03541
# Poissons Ratio (y) = 0.37098 0.30514
# Poissons Ratio (z) = 0.03065 0.29952
#
# Static dielectric constant tensor:
#      x y z
#    x 1.826040 0.000000 0.021600 
#    y 0.000000 1.717890 0.000000 
#    z 0.021600 0.000000 1.783470 
# 
# From -- ./inp_files/41867.got.cif
#   From: 2010.05.17/outbox.cif.g08.bks.cpg/sg12_21_cif.got.tgz:41867.got - 2010.06.03 13:09:07.
