data_PCOD9216970
_publ_section_title
;
Structure prediction by ZEFSAII (Michael W. Deem and Ramdas Pophale) SiO2 
 PCOD9216970
Probable space group: C 2/M
;
_chemical_formula_sum "Si O2"
_cell_formula_units_Z 48
_cell_length_a 30.094917
_cell_length_b 8.853239
_cell_length_c 19.188478
_cell_angle_alpha 90.000000
_cell_angle_beta 29.201430
_cell_angle_gamma 90.000000
_cell_volume 2494.308513
_symmetry_space_group_name_H-M "C 2/M"
_symmetry_group_IT_number 12
_symmetry_cell_setting 'monoclinic'
loop_
_space_group_symop_operation_xyz
x,y,z
-x,y,-z
-x,-y,-z
x,-y,z
1/2+x,1/2+y,z
1/2-x,1/2+y,-z
1/2-x,1/2-y,-z
1/2+x,1/2-y,z
loop_
_atom_site_type_symbol
_atom_site_label
_atom_site_fract_x
_atom_site_fract_y
_atom_site_fract_z
Si Si1 0.604733 0.821652 0.380053
Si Si2 0.254258 0.818525 0.071767
Si Si3 0.106595 0.179857 0.530320
Si Si4 0.742514 0.672357 0.584530
Si Si5 0.526963 0.325637 0.889014
Si Si6 0.960040 0.680639 0.836600
O O1 0.500000 0.805250 0.500000
O O2 0.674573 0.748483 0.229425
O O3 0.610344 0.744099 0.447517
O O4 0.625073 0.000000 0.357967
O O5 0.245050 0.000000 0.080728
O O6 0.250000 0.750000 0.000000
O O7 0.354034 0.783530 0.967233
O O8 0.198741 0.232505 0.442071
O O9 0.023623 0.247644 0.689573
O O10 0.098910 0.000000 0.540425
O O11 0.777465 0.500000 0.535529
O O12 0.750000 0.750000 0.500000
O O13 0.635629 0.668888 0.744184
O O14 0.492926 0.500000 0.932196
O O15 0.492565 0.242040 0.867109
O O16 0.500000 0.255865 0.000000
O O17 0.970458 0.500000 0.820196
#
# Coordination Sequence:
#
# PCOD9216970 Si02
#       6
#     8   8   8   8   8   8
#     4  11  25  45  69  97 128 165 210 264 320 377
#     4  11  25  44  67  98 130 167 210 258 319 383
#     4  12  25  41  65  95 129 170 215 262 317 379
#     4  11  22  39  63  93 128 168 213 264 315 372
#     4  10  23  41  62  91 125 166 215 260 312 376
#     4  11  24  42  64  93 128 166 213 263 316 377
#
# _framework density 19.24381
#
# number of rings (size 3 to 8) (size 9 to 14) (size 15 to 20)
#    0.000    1.000    1.667    4.500    2.333    9.000 
#    0.000    0.000    0.000    0.000    0.000    0.000 
#    0.000    0.000    0.000    0.000    0.000    0.000 
#
# Total GULP energy -134187.352298 kJ/mol
# GULP energy per Si atom -5591.139679 kJ/mol
# Density = 1.920001 g / cm^3
# Si number density = 19.243810 Si / 1000 Ang^3
#
#
#
# Elastic Constant Matrix: (Units=GPa)
#
#
# Indices 1 2 3 4 5 6 
#
# 1 135.3365 88.7752 85.4441 0.0010 17.8089 -0.0019
# 2 88.7752 128.8444 78.0823 0.0016 5.4779 -0.0012
# 3 85.4441 78.0823 149.2878 0.0036 21.2476 -0.0008
# 4 0.0010 0.0016 0.0036 27.2968 -0.0017 2.0613
# 5 17.8089 5.4779 21.2476 -0.0017 41.1890 0.0006
# 6 -0.0019 -0.0012 -0.0008 2.0613 0.0006 39.0688
#
#
#
# Elastic Compliance Matrix: (Units=1/GPa)
#
#
# Indices 1 2 3 4 5 6 
#
# 1 0.016013 -0.008251 -0.004338 0.000000 -0.003588 0.000000
# 2 -0.008251 0.015723 -0.004005 0.000000 0.003543 0.000000
# 3 -0.004338 -0.004005 0.011800 -0.000001 -0.003679 0.000000
# 4 0.000000 0.000000 -0.000001 0.036781 0.000002 -0.001941
# 5 -0.003588 0.003543 -0.003679 0.000002 0.027256 -0.000001
# 6 0.000000 0.000000 0.000000 -0.001941 -0.000001 0.025698
#
#
# Mechanical properties :
#
#
# Convention : Reuss Voigt Hill
#
# Bulk Modulus (GPa) = 96.65743 102.00800 99.33272
# Shear Modulus (GPa) = 29.42739 32.25540 30.84140
#
# Velocity S-wave (km/s) = 3.91472 4.09852 4.00767
# Velocity P-wave (km/s) = 8.41251 8.69025 8.55250
#
# Compressibility (1/GPa) = 0.01034582
#
# Stress axis : x y z
#
# Youngs Moduli (GPa) = 62.45086 63.60035 84.74495
#
# Poissons Ratio (x) = 0.52477 0.36766
# Poissons Ratio (y) = 0.51529 0.33944
# Poissons Ratio (z) = 0.27094 0.25475
#
# Static dielectric constant tensor:
#      x y z
#    x 1.568920 0.000010 -0.171570 
#    y 0.000010 1.655340 0.000030 
#    z -0.171570 0.000030 1.180460 
# 
# From -- ./inp_files/274096.got.cif
#   From: 2010.05.17/outbox.cif.g08.bks.cpg/sg12_138_cif.got.tgz:274096.got - 2010.06.03 13:09:07.
