data_PCOD9216966
_publ_section_title
;
Structure prediction by ZEFSAII (Michael W. Deem and Ramdas Pophale) SiO2 
 PCOD9216966
Probable space group: C 2/M
;
_chemical_formula_sum "Si O2"
_cell_formula_units_Z 40
_cell_length_a 27.690916
_cell_length_b 8.733223
_cell_length_c 9.093093
_cell_angle_alpha 90.000000
_cell_angle_beta 70.900465
_cell_angle_gamma 90.000000
_cell_volume 2077.940247
_symmetry_space_group_name_H-M "C 2/M"
_symmetry_group_IT_number 12
_symmetry_cell_setting 'monoclinic'
loop_
_space_group_symop_operation_xyz
x,y,z
-x,y,-z
-x,-y,-z
x,-y,z
1/2+x,1/2+y,z
1/2-x,1/2+y,-z
1/2-x,1/2-y,-z
1/2+x,1/2-y,z
loop_
_atom_site_type_symbol
_atom_site_label
_atom_site_fract_x
_atom_site_fract_y
_atom_site_fract_z
Si Si1 0.897429 0.682909 0.428856
Si Si2 0.903530 0.316274 0.768040
Si Si3 0.201793 0.316233 0.960534
Si Si4 0.201212 0.182700 0.633283
Si Si5 0.497123 0.682557 0.175670
O O1 0.890839 0.500000 0.422397
O O2 0.900103 0.721740 0.599008
O O3 0.849813 0.764882 0.399683
O O4 0.949506 0.733787 0.298605
O O5 0.911266 0.500000 0.772274
O O6 0.950835 0.233063 0.797170
O O7 0.850529 0.277979 0.901626
O O8 0.205803 0.500000 0.948846
O O9 0.200212 0.247738 0.799198
O O10 0.250000 0.250000 0.000000
O O11 0.250000 0.250000 0.500000
O O12 0.204520 0.000000 0.633960
O O13 0.490202 0.500000 0.195702
O O14 0.500000 0.721426 0.000000
#
# Coordination Sequence:
#
# PCOD9216966 Si02
#       5
#     8   8   8   8   8
#     4  11  23  41  64  91 123 159 203 253 307 367
#     4  10  23  41  62  89 121 159 202 250 305 366
#     4  11  23  41  65  93 126 164 206 254 310 368
#     4  12  25  42  64  92 125 162 207 255 308 368
#     4  11  24  40  60  89 123 160 204 252 303 363
#
# _framework density 19.249831
#
# number of rings (size 3 to 8) (size 9 to 14) (size 15 to 20)
#    0.000    1.000    0.000    6.600    0.000   12.000 
#    0.000    0.000    0.000    0.000    0.000    0.000 
#    0.000    0.000    0.000    0.000    0.000    0.000 
#
# Total GULP energy -111966.628076 kJ/mol
# GULP energy per Si atom -5598.331404 kJ/mol
# Density = 1.920602 g / cm^3
# Si number density = 19.249831 Si / 1000 Ang^3
#
#
#
# Elastic Constant Matrix: (Units=GPa)
#
#
# Indices 1 2 3 4 5 6 
#
# 1 167.1609 74.6392 91.7018 0.0000 -0.1713 0.0000
# 2 74.6392 94.9952 82.1371 0.0000 -2.0451 0.0000
# 3 91.7018 82.1371 194.4267 0.0000 -1.7834 0.0000
# 4 0.0000 0.0000 0.0000 32.9579 0.0000 2.1565
# 5 -0.1713 -2.0451 -1.7834 0.0000 40.7041 0.0000
# 6 0.0000 0.0000 0.0000 2.1565 0.0000 43.1615
#
#
#
# Elastic Compliance Matrix: (Units=1/GPa)
#
#
# Indices 1 2 3 4 5 6 
#
# 1 0.009758 -0.005817 -0.002148 0.000000 -0.000345 0.000000
# 2 -0.005817 0.020064 -0.005726 0.000000 0.000733 0.000000
# 3 -0.002148 -0.005726 0.008576 0.000000 0.000079 0.000000
# 4 0.000000 0.000000 0.000000 0.030441 0.000000 -0.001521
# 5 -0.000345 0.000733 0.000079 0.000000 0.024606 0.000000
# 6 0.000000 0.000000 0.000000 -0.001521 0.000000 0.023245
#
#
# Mechanical properties :
#
#
# Convention : Reuss Voigt Hill
#
# Bulk Modulus (GPa) = 90.77624 105.94876 98.36250
# Shear Modulus (GPa) = 33.84246 37.23834 35.54040
#
# Velocity S-wave (km/s) = 4.19748 4.40304 4.30149
# Velocity P-wave (km/s) = 8.41136 9.00041 8.71086
#
# Compressibility (1/GPa) = 0.01101610
#
# Stress axis : x y z
#
# Youngs Moduli (GPa) = 102.48502 49.84077 116.60329
#
# Poissons Ratio (x) = 0.28992 0.25046
# Poissons Ratio (y) = 0.59614 0.66766
# Poissons Ratio (z) = 0.22013 0.28538
#
# Static dielectric constant tensor:
#      x y z
#    x 1.621810 0.000000 -0.002300 
#    y 0.000000 1.644610 0.000000 
#    z -0.002300 0.000000 1.640550 
# 
# From -- ./inp_files/92747.got.cif
#   From: 2010.05.17/outbox.cif.g08.bks.cpg/sg12_47_cif.got.tgz:92747.got - 2010.06.03 13:09:07.
