data_PCOD9216366
_publ_section_title
;
Structure prediction by ZEFSAII (Michael W. Deem and Ramdas Pophale) SiO2 
 PCOD9216366
Probable space group: C 2/M
;
_chemical_formula_sum "Si O2"
_cell_formula_units_Z 28
_cell_length_a 7.171512
_cell_length_b 14.902715
_cell_length_c 12.545207
_cell_angle_alpha 90.000000
_cell_angle_beta 126.765758
_cell_angle_gamma 90.000000
_cell_volume 1074.075593
_symmetry_space_group_name_H-M "C 2/M"
_symmetry_group_IT_number 12
_symmetry_cell_setting 'monoclinic'
loop_
_space_group_symop_operation_xyz
x,y,z
-x,y,-z
-x,-y,-z
x,-y,z
1/2+x,1/2+y,z
1/2-x,1/2+y,-z
1/2-x,1/2-y,-z
1/2+x,1/2-y,z
loop_
_atom_site_type_symbol
_atom_site_label
_atom_site_fract_x
_atom_site_fract_y
_atom_site_fract_z
Si Si1 0.559661 0.500000 0.329289
Si Si2 0.151810 0.137887 0.884474
Si Si3 0.747910 0.354626 0.531406
Si Si4 0.836669 0.651925 0.165077
O O1 0.372487 0.576398 0.224700
O O2 0.740979 0.420519 0.429637
O O3 0.176399 0.240298 0.855426
O O4 0.900203 0.124262 0.856524
O O5 0.331069 0.117432 0.041423
O O6 0.500000 0.377437 0.500000
O O7 0.750000 0.250000 0.500000
O O8 0.950208 0.371081 0.686016
#
# Coordination Sequence:
#
# PCOD9216366 Si02
#       4
#     4   8   8   8
#     4  12  27  42  69 105 134 171 233 271 330 397
#     4  10  23  43  71  99 129 178 226 274 324 402
#     4  12  26  46  69  99 137 178 219 277 337 396
#     4  10  22  44  71  94 137 177 219 269 343 381
#
# _framework density 26.068928
#
# number of rings (size 3 to 8) (size 9 to 14) (size 15 to 20)
#    0.000    1.143    2.857    2.143    0.000    5.714 
#    0.000    1.429    0.000    0.000    0.000    0.000 
#    0.000    0.000    0.000    0.000    0.000    0.000 
#
# Total GULP energy -77948.264300 kJ/mol
# GULP energy per Si atom -5567.733164 kJ/mol
# Density = 2.600959 g / cm^3
# Si number density = 26.068928 Si / 1000 Ang^3
#
#
#
# Elastic Constant Matrix: (Units=GPa)
#
#
# Indices 1 2 3 4 5 6 
#
# 1 61.1865 -25.4179 17.7211 0.0000 8.7436 0.0000
# 2 -25.4179 122.0169 63.4372 0.0000 -10.1611 0.0000
# 3 17.7211 63.4372 309.2774 0.0000 17.1772 0.0000
# 4 0.0000 0.0000 0.0000 -75.7186 0.0000 176.1904
# 5 8.7436 -10.1611 17.1772 0.0000 41.7372 0.0000
# 6 0.0000 0.0000 0.0000 176.1904 0.0000 -212.5280
#
#
#
# Elastic Compliance Matrix: (Units=1/GPa)
#
#
# Indices 1 2 3 4 5 6 
#
# 1 0.019233 0.004872 -0.001989 0.000000 -0.002024 0.000000
# 2 0.004872 0.010811 -0.002647 0.000000 0.002701 0.000000
# 3 -0.001989 -0.002647 0.003994 0.000000 -0.001872 0.000000
# 4 0.000000 0.000000 0.000000 0.014215 0.000000 0.011785
# 5 -0.002024 0.002701 -0.001872 0.000000 0.025811 0.000000
# 6 0.000000 0.000000 0.000000 0.011785 0.000000 0.005065
#
#
# Mechanical properties :
#
#
# Convention : Reuss Voigt Hill
#
# Bulk Modulus (GPa) = 28.97649 67.10685 48.04167
# Shear Modulus (GPa) = 55.45685 -20.18584 17.63550
#
# Velocity S-wave (km/s) = 4.61729 -2.78569 2.60377
# Velocity P-wave (km/s) = 6.29009 3.93080 5.24483
#
# Compressibility (1/GPa) = 0.03451074
#
# Stress axis : x y z
#
# Youngs Moduli (GPa) = 51.99497 92.49487 250.36780
#
# Poissons Ratio (x) = -0.45062 0.49794
# Poissons Ratio (y) = -0.25331 0.66265
# Poissons Ratio (z) = 0.10341 0.24481
#
# Static dielectric constant tensor:
#      x y z
#    x 2.205030 0.000000 -0.057660 
#    y 0.000000 1.972110 0.000000 
#    z -0.057660 0.000000 2.042120 
# 
# From -- ./inp_files/117582.got.cif
#   From: 2010.05.17/outbox.cif.g08.bks.cpg/sg12_59_cif.got.tgz:117582.got - 2010.06.03 13:09:07.
