data_PCOD9216626
_publ_section_title
;
Structure prediction by ZEFSAII (Michael W. Deem and Ramdas Pophale) SiO2 
 PCOD9216626
Probable space group: C 2/M
;
_chemical_formula_sum "Si O2"
_cell_formula_units_Z 32
_cell_length_a 15.241295
_cell_length_b 24.513643
_cell_length_c 8.380799
_cell_angle_alpha 90.000000
_cell_angle_beta 152.295341
_cell_angle_gamma 90.000000
_cell_volume 1455.753398
_symmetry_space_group_name_H-M "C 2/M"
_symmetry_group_IT_number 12
_symmetry_cell_setting 'monoclinic'
loop_
_space_group_symop_operation_xyz
x,y,z
-x,y,-z
-x,-y,-z
x,-y,z
1/2+x,1/2+y,z
1/2-x,1/2+y,-z
1/2-x,1/2-y,-z
1/2+x,1/2-y,z
loop_
_atom_site_type_symbol
_atom_site_label
_atom_site_fract_x
_atom_site_fract_y
_atom_site_fract_z
Si Si1 0.339230 0.500000 0.103219
Si Si2 0.334684 0.602351 0.864480
Si Si3 0.060351 0.615243 0.929744
Si Si4 0.695150 0.686846 0.908102
Si Si5 0.643443 0.000000 0.081838
O O1 0.500000 0.500000 0.500000
O O2 0.360873 0.552740 0.029190
O O3 0.144145 0.500000 0.888851
O O4 0.134068 0.592519 0.456165
O O5 0.500000 0.604123 0.000000
O O6 0.322997 0.657723 0.949584
O O7 0.200964 0.564299 0.191148
O O8 0.150748 0.654778 0.947637
O O9 0.000000 0.641889 0.000000
O O10 0.500000 0.680544 0.500000
O O11 0.750000 0.750000 0.000000
O O12 0.500000 0.000000 0.000000
#
# Coordination Sequence:
#
# PCOD9216626 Si02
#       5
#     4   8   8   8   4
#     4  12  26  42  69 103 145 184 230 281 342 407
#     4  12  26  43  69 103 141 183 230 280 344 408
#     4  11  24  44  70 100 139 180 227 281 344 407
#     4  12  26  47  72 100 136 176 230 285 343 408
#     4  10  23  38  69  98 140 177 226 269 344 396
#
# _framework density 21.981746000000001
#
# number of rings (size 3 to 8) (size 9 to 14) (size 15 to 20)
#    0.000    0.500    2.500    5.625    7.000    2.000 
#    0.000    5.000    0.000    0.000    0.000    0.000 
#    0.000    0.000    0.000    0.000    0.000    0.000 
#
# Total GULP energy -89299.192908 kJ/mol
# GULP energy per Si atom -5581.199557 kJ/mol
# Density = 2.193171 g / cm^3
# Si number density = 21.981746 Si / 1000 Ang^3
#
#
#
# Elastic Constant Matrix: (Units=GPa)
#
#
# Indices 1 2 3 4 5 6 
#
# 1 237.9020 87.2384 38.6082 0.0000 14.8127 0.0000
# 2 87.2384 150.3648 7.8820 0.0000 9.7733 0.0000
# 3 38.6082 7.8820 129.7951 0.0000 -2.0903 0.0000
# 4 0.0000 0.0000 0.0000 23.1745 0.0000 -3.3918
# 5 14.8127 9.7733 -2.0903 0.0000 38.2286 0.0000
# 6 0.0000 0.0000 0.0000 -3.3918 0.0000 13.1473
#
#
#
# Elastic Compliance Matrix: (Units=1/GPa)
#
#
# Indices 1 2 3 4 5 6 
#
# 1 0.005690 -0.003124 -0.001527 0.000000 -0.001489 0.000000
# 2 -0.003124 0.008503 0.000398 0.000000 -0.000942 0.000000
# 3 -0.001527 0.000398 0.008149 0.000000 0.000935 0.000000
# 4 0.000000 0.000000 0.000000 0.044844 0.000000 0.011569
# 5 -0.001489 -0.000942 0.000935 0.000000 0.027027 0.000000
# 6 0.000000 0.000000 0.000000 0.011569 0.000000 0.079046
#
#
# Mechanical properties :
#
#
# Convention : Reuss Voigt Hill
#
# Bulk Modulus (GPa) = 72.27345 87.27991 79.77668
# Shear Modulus (GPa) = 26.82723 40.53230 33.67976
#
# Velocity S-wave (km/s) = 3.49726 4.29873 3.91854
# Velocity P-wave (km/s) = 7.01840 8.02687 7.53952
#
# Compressibility (1/GPa) = 0.01383634
#
# Stress axis : x y z
#
# Youngs Moduli (GPa) = 175.76236 117.60025 122.70739
#
# Poissons Ratio (x) = 0.36739 0.18733
# Poissons Ratio (y) = 0.54910 -0.04880
# Poissons Ratio (z) = 0.26833 -0.04677
#
# Static dielectric constant tensor:
#      x y z
#    x 1.859980 0.000000 0.148240 
#    y 0.000000 1.788990 0.000000 
#    z 0.148240 0.000000 2.079380 
# 
# From -- ./inp_files/65678.got.cif
#   From: 2010.05.17/outbox.cif.g08.bks.cpg/sg12_33_cif.got.tgz:65678.got - 2010.06.03 13:09:07.
