data_PCOD9216846
_publ_section_title
;
Structure prediction by ZEFSAII (Michael W. Deem and Ramdas Pophale) SiO2 
 PCOD9216846
Probable space group: C 2/M
;
_chemical_formula_sum "Si O2"
_cell_formula_units_Z 44
_cell_length_a 8.520811
_cell_length_b 13.370824
_cell_length_c 17.232731
_cell_angle_alpha 90.000000
_cell_angle_beta 92.079902
_cell_angle_gamma 90.000000
_cell_volume 1962.036127
_symmetry_space_group_name_H-M "C 2/M"
_symmetry_group_IT_number 12
_symmetry_cell_setting 'monoclinic'
loop_
_space_group_symop_operation_xyz
x,y,z
-x,y,-z
-x,-y,-z
x,-y,z
1/2+x,1/2+y,z
1/2-x,1/2+y,-z
1/2-x,1/2-y,-z
1/2+x,1/2-y,z
loop_
_atom_site_type_symbol
_atom_site_label
_atom_site_fract_x
_atom_site_fract_y
_atom_site_fract_z
Si Si1 0.331391 0.000000 0.234684
Si Si2 0.513601 0.500000 0.699165
Si Si3 0.907321 0.311360 0.920714
Si Si4 0.311412 0.693831 0.335801
Si Si5 0.313107 0.216584 0.168236
Si Si6 0.490341 0.117294 0.407148
Si Si7 0.685348 0.000000 0.180211
O O1 0.301690 0.101720 0.189030
O O2 0.529914 0.000000 0.234845
O O3 0.172568 0.000000 0.286870
O O4 0.559446 0.604734 0.657744
O O5 0.647905 0.500000 0.771110
O O6 0.769542 0.232276 0.916063
O O7 0.833385 0.407930 0.879005
O O8 0.009524 0.262171 0.852953
O O9 0.000000 0.331671 0.000000
O O10 0.278294 0.721266 0.245436
O O11 0.370113 0.798593 0.373785
O O12 0.156443 0.649676 0.373178
O O13 0.500000 0.123505 0.500000
O O14 0.452007 0.000000 0.387398
#
# Coordination Sequence:
#
# PCOD9216846 Si02
#       7
#     4   4   8   8   8   8   4
#     4  10  24  39  60  96 134 172 238 304 358 429
#     4  12  22  43  69 107 142 182 248 306 361 434
#     4  11  22  40  61  90 130 177 229 293 369 433
#     4  12  24  44  73 104 142 187 239 300 358 430
#     4  11  23  39  63  95 128 174 236 294 353 424
#     4  11  26  48  73 106 148 189 234 293 369 443
#     4  10  23  40  66  90 137 179 234 304 362 429
#
# _framework density 22.425682999999999
#
# number of rings (size 3 to 8) (size 9 to 14) (size 15 to 20)
#    0.000    0.909    2.727    4.636    3.818    0.000 
#    1.636    0.909    0.000    0.000    0.000    0.000 
#    0.000    0.000    0.000    0.000    0.000    0.000 
#
# Total GULP energy -122504.914347 kJ/mol
# GULP energy per Si atom -5568.405198 kJ/mol
# Density = 2.237464 g / cm^3
# Si number density = 22.425683 Si / 1000 Ang^3
#
#
#
# Elastic Constant Matrix: (Units=GPa)
#
#
# Indices 1 2 3 4 5 6 
#
# 1 106.0474 49.9655 36.1140 0.0000 -3.9769 0.0000
# 2 49.9655 126.1738 41.5249 0.0000 0.9545 0.0000
# 3 36.1140 41.5249 79.8917 0.0000 -7.0314 0.0000
# 4 0.0000 0.0000 0.0000 15.3351 0.0000 4.5071
# 5 -3.9769 0.9545 -7.0314 0.0000 26.2516 0.0000
# 6 0.0000 0.0000 0.0000 4.5071 0.0000 21.9618
#
#
#
# Elastic Compliance Matrix: (Units=1/GPa)
#
#
# Indices 1 2 3 4 5 6 
#
# 1 0.012464 -0.003764 -0.003584 0.000000 0.001065 0.000000
# 2 -0.003764 0.010774 -0.004079 0.000000 -0.002055 0.000000
# 3 -0.003584 -0.004079 0.016614 0.000000 0.004055 0.000000
# 4 0.000000 0.000000 0.000000 0.069396 0.000000 -0.014242
# 5 0.001065 -0.002055 0.004055 0.000000 0.039415 0.000000
# 6 0.000000 0.000000 0.000000 -0.014242 0.000000 0.048456
#
#
# Mechanical properties :
#
#
# Convention : Reuss Voigt Hill
#
# Bulk Modulus (GPa) = 58.83258 63.03575 60.93416
# Shear Modulus (GPa) = 22.15917 25.01024 23.58471
#
# Velocity S-wave (km/s) = 3.14684 3.34316 3.24648
# Velocity P-wave (km/s) = 6.28450 6.56293 6.42522
#
# Compressibility (1/GPa) = 0.01699739
#
# Stress axis : x y z
#
# Youngs Moduli (GPa) = 80.23278 92.81288 60.18953
#
# Poissons Ratio (x) = 0.34938 0.21571
# Poissons Ratio (y) = 0.30202 0.24554
# Poissons Ratio (z) = 0.28754 0.37862
#
# Static dielectric constant tensor:
#      x y z
#    x 1.949300 0.000000 0.041710 
#    y 0.000000 1.851820 0.000000 
#    z 0.041710 0.000000 1.841090 
# 
# From -- ./inp_files/255432.got.cif
#   From: 2010.05.17/outbox.cif.g08.bks.cpg/sg12_128_cif.got.tgz:255432.got - 2010.06.03 13:09:07.
