data_PCOD9216363
_publ_section_title
;
Structure prediction by ZEFSAII (Michael W. Deem and Ramdas Pophale) SiO2 
 PCOD9216363
Probable space group: C 2/M
;
_chemical_formula_sum "Si O2"
_cell_formula_units_Z 36
_cell_length_a 10.362383
_cell_length_b 7.583625
_cell_length_c 18.909512
_cell_angle_alpha 90.000000
_cell_angle_beta 88.910977
_cell_angle_gamma 90.000000
_cell_volume 1485.724749
_symmetry_space_group_name_H-M "C 2/M"
_symmetry_group_IT_number 12
_symmetry_cell_setting 'monoclinic'
loop_
_space_group_symop_operation_xyz
x,y,z
-x,y,-z
-x,-y,-z
x,-y,z
1/2+x,1/2+y,z
1/2-x,1/2+y,-z
1/2-x,1/2-y,-z
1/2+x,1/2-y,z
loop_
_atom_site_type_symbol
_atom_site_label
_atom_site_fract_x
_atom_site_fract_y
_atom_site_fract_z
Si Si1 0.248780 0.208656 0.917191
Si Si2 0.376096 0.000000 0.249189
Si Si3 0.246743 0.296715 0.329075
Si Si4 0.500340 0.701220 0.170102
Si Si5 0.994585 0.212300 0.419127
O O1 0.368625 0.292230 0.875540
O O2 0.114124 0.261683 0.882656
O O3 0.260859 0.000000 0.908623
O O4 0.250000 0.250000 0.000000
O O5 0.267748 0.156142 0.267121
O O6 0.484586 0.155783 0.231314
O O7 0.265952 0.500000 0.308116
O O8 0.360956 0.239896 0.382617
O O9 0.114478 0.280876 0.373159
O O10 0.478148 0.500000 0.193062
O O11 0.000000 0.274659 0.500000
O O12 0.002284 0.000000 0.419678
#
# Coordination Sequence:
#
# PCOD9216363 Si02
#       5
#     8   4   8   8   8
#     4  11  24  44  72 105 135 171 223 278 340 402
#     4  12  26  48  67  94 144 184 224 274 336 406
#     4  11  25  44  68 103 133 181 228 276 337 402
#     4  11  26  46  68 103 134 178 224 275 336 401
#     4  10  22  44  71 102 137 174 227 286 342 395
#
# _framework density 24.230599000000002
#
# number of rings (size 3 to 8) (size 9 to 14) (size 15 to 20)
#    0.000    1.111    2.222    2.667    4.667    4.889 
#    0.000    0.000    0.000    0.000    0.000    0.000 
#    0.000    0.000    0.000    0.000    0.000    0.000 
#
# Total GULP energy -100422.367534 kJ/mol
# GULP energy per Si atom -5579.020419 kJ/mol
# Density = 2.417545 g / cm^3
# Si number density = 24.230599 Si / 1000 Ang^3
#
#
#
# Elastic Constant Matrix: (Units=GPa)
#
#
# Indices 1 2 3 4 5 6 
#
# 1 163.2089 29.7326 70.1593 0.0000 -10.7389 0.0000
# 2 29.7326 110.3386 29.3190 0.0000 -14.8910 0.0000
# 3 70.1593 29.3190 135.3697 0.0000 -15.1526 0.0000
# 4 0.0000 0.0000 0.0000 21.5382 0.0000 -16.6921
# 5 -10.7389 -14.8910 -15.1526 0.0000 44.5123 0.0000
# 6 0.0000 0.0000 0.0000 -16.6921 0.0000 39.4662
#
#
#
# Elastic Compliance Matrix: (Units=1/GPa)
#
#
# Indices 1 2 3 4 5 6 
#
# 1 0.008014 -0.001093 -0.003890 0.000000 0.000244 0.000000
# 2 -0.001093 0.010066 -0.001316 0.000000 0.002656 0.000000
# 3 -0.003890 -0.001316 0.009912 0.000000 0.001995 0.000000
# 4 0.000000 0.000000 0.000000 0.069069 0.000000 0.029212
# 5 0.000244 0.002656 0.001995 0.000000 0.024092 0.000000
# 6 0.000000 0.000000 0.000000 0.029212 0.000000 0.037693
#
#
# Mechanical properties :
#
#
# Convention : Reuss Voigt Hill
#
# Bulk Modulus (GPa) = 64.96261 74.14878 69.55570
# Shear Modulus (GPa) = 28.31655 39.75042 34.03348
#
# Velocity S-wave (km/s) = 3.42223 4.05471 3.75182
# Velocity P-wave (km/s) = 6.51797 7.25180 6.89465
#
# Compressibility (1/GPa) = 0.01539347
#
# Stress axis : x y z
#
# Youngs Moduli (GPa) = 124.77615 99.34704 100.89280
#
# Poissons Ratio (x) = 0.10860 0.39244
# Poissons Ratio (y) = 0.13640 0.13280
# Poissons Ratio (z) = 0.48533 0.13077
#
# Static dielectric constant tensor:
#      x y z
#    x 1.985370 0.000000 0.094050 
#    y 0.000000 1.904950 0.000000 
#    z 0.094050 0.000000 1.985690 
# 
# From -- ./inp_files/260907.got.cif
#   From: 2010.05.17/outbox.cif.g08.bks.cpg/sg12_131_cif.got.tgz:260907.got - 2010.06.03 13:09:07.
