data_PCOD9216742
_publ_section_title
;
Structure prediction by ZEFSAII (Michael W. Deem and Ramdas Pophale) SiO2 
 PCOD9216742
Probable space group: C 2/M
;
_chemical_formula_sum "Si O2"
_cell_formula_units_Z 40
_cell_length_a 9.948467
_cell_length_b 28.757212
_cell_length_c 6.466871
_cell_angle_alpha 90.000000
_cell_angle_beta 75.594753
_cell_angle_gamma 90.000000
_cell_volume 1791.941558
_symmetry_space_group_name_H-M "C 2/M"
_symmetry_group_IT_number 12
_symmetry_cell_setting 'monoclinic'
loop_
_space_group_symop_operation_xyz
x,y,z
-x,y,-z
-x,-y,-z
x,-y,z
1/2+x,1/2+y,z
1/2-x,1/2+y,-z
1/2-x,1/2-y,-z
1/2+x,1/2-y,z
loop_
_atom_site_type_symbol
_atom_site_label
_atom_site_fract_x
_atom_site_fract_y
_atom_site_fract_z
Si Si1 0.341570 0.366539 0.129720
Si Si2 0.635542 0.106265 0.840479
Si Si3 0.346248 0.445897 0.460180
Si Si4 0.632276 0.299022 0.524850
Si Si5 0.900777 0.293756 0.228534
O O1 0.342803 0.414357 0.257933
O O2 0.299506 0.326170 0.309424
O O3 0.500000 0.356232 0.000000
O O4 0.235571 0.373283 0.982238
O O5 0.730194 0.074205 0.661046
O O6 0.577714 0.151403 0.736163
O O7 0.500000 0.084223 0.000000
O O8 0.500000 0.442098 0.500000
O O9 0.320071 0.500000 0.426626
O O10 0.500000 0.327801 0.500000
O O11 0.732833 0.292352 0.292358
O O12 0.581179 0.249703 0.628233
O O13 0.000000 0.284031 0.000000
#
# Coordination Sequence:
#
# PCOD9216742 Si02
#       5
#     8   8   8   8   8
#     4  12  23  41  72 100 132 178 230 276 338 396
#     4  11  25  44  67  98 142 180 217 277 343 405
#     4  11  24  46  73 103 133 168 229 285 334 403
#     4  11  23  40  67  96 134 180 232 279 322 396
#     4  10  23  40  59  93 135 176 219 270 333 386
#
# _framework density 22.322157000000001
#
# number of rings (size 3 to 8) (size 9 to 14) (size 15 to 20)
#    0.000    1.000    4.000    2.400    0.000   10.400 
#    0.000    1.000    0.000    0.000    0.000    0.000 
#    0.000    0.000    0.000    0.000    0.000    0.000 
#
# Total GULP energy -111580.012917 kJ/mol
# GULP energy per Si atom -5579.000646 kJ/mol
# Density = 2.227135 g / cm^3
# Si number density = 22.322157 Si / 1000 Ang^3
#
#
#
# Elastic Constant Matrix: (Units=GPa)
#
#
# Indices 1 2 3 4 5 6 
#
# 1 75.0035 12.6797 62.2148 0.0000 -28.3688 0.0000
# 2 12.6797 141.6673 40.0182 0.0000 1.5536 0.0000
# 3 62.2148 40.0182 102.9795 0.0000 -37.6653 0.0000
# 4 0.0000 0.0000 0.0000 28.6761 0.0000 -1.3787
# 5 -28.3688 1.5536 -37.6653 0.0000 61.4218 0.0000
# 6 0.0000 0.0000 0.0000 -1.3787 0.0000 27.5906
#
#
#
# Elastic Compliance Matrix: (Units=1/GPa)
#
#
# Indices 1 2 3 4 5 6 
#
# 1 0.027783 0.002209 -0.016721 0.000000 0.002523 0.000000
# 2 0.002209 0.008467 -0.005582 0.000000 -0.002617 0.000000
# 3 -0.016721 -0.005582 0.024763 0.000000 0.007603 0.000000
# 4 0.000000 0.000000 0.000000 0.034956 0.000000 0.001747
# 5 0.002523 -0.002617 0.007603 0.000000 0.022175 0.000000
# 6 0.000000 0.000000 0.000000 0.001747 0.000000 0.036331
#
#
# Mechanical properties :
#
#
# Convention : Reuss Voigt Hill
#
# Bulk Modulus (GPa) = 48.01914 61.05285 54.53600
# Shear Modulus (GPa) = 24.80110 37.18689 30.99400
#
# Velocity S-wave (km/s) = 3.33686 4.08599 3.73028
# Velocity P-wave (km/s) = 6.03364 7.04774 6.56031
#
# Compressibility (1/GPa) = 0.02082503
#
# Stress axis : x y z
#
# Youngs Moduli (GPa) = 35.99282 118.11245 40.38349
#
# Poissons Ratio (x) = -0.26091 0.67525
# Poissons Ratio (y) = -0.07951 0.22541
# Poissons Ratio (z) = 0.60183 0.65927
#
# Static dielectric constant tensor:
#      x y z
#    x 1.893340 0.000000 -0.013690 
#    y 0.000000 1.814830 0.000000 
#    z -0.013690 0.000000 1.837030 
# 
# From -- ./inp_files/8323.got.cif
#   From: 2010.05.17/outbox.cif.g08.bks.cpg/sg12_5_cif.got.tgz:8323.got - 2010.06.03 13:09:07.
