data_PCOD9216629
_publ_section_title
;
Structure prediction by ZEFSAII (Michael W. Deem and Ramdas Pophale) SiO2 
 PCOD9216629
Probable space group: C 2/M
;
_chemical_formula_sum "Si O2"
_cell_formula_units_Z 48
_cell_length_a 11.013809
_cell_length_b 14.322761
_cell_length_c 14.505463
_cell_angle_alpha 90.000000
_cell_angle_beta 64.592568
_cell_angle_gamma 90.000000
_cell_volume 2066.893531
_symmetry_space_group_name_H-M "C 2/M"
_symmetry_group_IT_number 12
_symmetry_cell_setting 'monoclinic'
loop_
_space_group_symop_operation_xyz
x,y,z
-x,y,-z
-x,-y,-z
x,-y,z
1/2+x,1/2+y,z
1/2-x,1/2+y,-z
1/2-x,1/2-y,-z
1/2+x,1/2-y,z
loop_
_atom_site_type_symbol
_atom_site_label
_atom_site_fract_x
_atom_site_fract_y
_atom_site_fract_z
Si Si1 0.489534 0.897901 0.657014
Si Si2 0.382548 0.391242 0.113416
Si Si3 0.728058 0.101938 0.433908
Si Si4 0.885863 0.753705 0.280327
Si Si5 0.836575 0.610967 0.159540
Si Si6 0.840828 0.388361 0.955335
O O1 0.368842 0.896632 0.624270
O O2 0.627246 0.893773 0.552901
O O3 0.494021 0.807664 0.718145
O O4 0.485826 0.000000 0.706413
O O5 0.367470 0.500000 0.145945
O O6 0.413875 0.328466 0.191279
O O7 0.250306 0.359546 0.100632
O O8 0.500000 0.385225 0.000000
O O9 0.823583 0.188523 0.385118
O O10 0.796143 0.000000 0.414602
O O11 0.793239 0.675256 0.259165
O O12 0.810656 0.500000 0.180100
O O13 0.999233 0.626433 0.102513
O O14 0.789389 0.642698 0.073302
O O15 0.824253 0.500000 0.964425
#
# Coordination Sequence:
#
# PCOD9216629 Si02
#       6
#     8   8   8   8   8   8
#     4   9  20  40  63  86 116 147 189 244 296 352
#     4  10  23  39  53  77 118 165 201 235 284 345
#     4   9  20  40  62  85 114 153 191 236 295 351
#     4  12  22  31  58  92 116 144 197 241 288 341
#     4   9  19  34  55  83 111 147 195 251 296 328
#     4   8  17  37  56  71 107 157 202 241 283 335
#
# _framework density 23.223257
#
# number of rings (size 3 to 8) (size 9 to 14) (size 15 to 20)
#    0.000    2.500    0.000    3.500    4.667    2.000 
#    0.000    0.000    0.000    3.000    0.000   11.667 
#    0.000    0.000    0.000    0.000    0.000    0.000 
#
# Total GULP energy -134066.615352 kJ/mol
# GULP energy per Si atom -5586.108973 kJ/mol
# Density = 2.317040 g / cm^3
# Si number density = 23.223257 Si / 1000 Ang^3
#
#
#
# Elastic Constant Matrix: (Units=GPa)
#
#
# Indices 1 2 3 4 5 6 
#
# 1 52.3846 30.3715 15.9767 0.0000 2.6108 0.0000
# 2 30.3715 145.6598 26.5948 0.0000 -1.6403 0.0000
# 3 15.9767 26.5948 50.9640 0.0000 2.2734 0.0000
# 4 0.0000 0.0000 0.0000 40.7598 0.0000 12.6784
# 5 2.6108 -1.6403 2.2734 0.0000 30.1680 0.0000
# 6 0.0000 0.0000 0.0000 12.6784 0.0000 0.3303
#
#
#
# Elastic Compliance Matrix: (Units=1/GPa)
#
#
# Indices 1 2 3 4 5 6 
#
# 1 0.022986 -0.003882 -0.005099 0.000000 -0.001816 0.000000
# 2 -0.003882 0.008259 -0.003139 0.000000 0.001022 0.000000
# 3 -0.005099 -0.003139 0.022923 0.000000 -0.001457 0.000000
# 4 0.000000 0.000000 0.000000 -0.002242 0.000000 0.086083
# 5 -0.001816 0.001022 -0.001457 0.000000 0.033470 0.000000
# 6 0.000000 0.000000 0.000000 0.086083 0.000000 -0.276747
#
#
# Mechanical properties :
#
#
# Convention : Reuss Voigt Hill
#
# Bulk Modulus (GPa) = 33.41263 43.87714 38.64488
# Shear Modulus (GPa) = -31.81975 25.98932 -2.91521
#
# Velocity S-wave (km/s) = -3.70559 3.34894 -1.12162
# Velocity P-wave (km/s) = 1.97224 5.82138 3.87290
#
# Compressibility (1/GPa) = 0.02992880
#
# Stress axis : x y z
#
# Youngs Moduli (GPa) = 43.50452 121.07485 43.62445
#
# Poissons Ratio (x) = 0.47005 0.22244
# Poissons Ratio (y) = 0.16890 0.13692
# Poissons Ratio (z) = 0.22183 0.38000
#
# Static dielectric constant tensor:
#      x y z
#    x 1.877750 0.000000 -0.003710 
#    y 0.000000 1.901660 0.000000 
#    z -0.003710 0.000000 1.953840 
# 
# From -- ./inp_files/204353.got.cif
#   From: 2010.05.17/outbox.cif.g08.bks.cpg/sg12_103_cif.got.tgz:204353.got - 2010.06.03 13:09:07.
