data_PCOD9216141
_publ_section_title
;
Structure prediction by ZEFSAII (Michael W. Deem and Ramdas Pophale) SiO2 
 PCOD9216141
Probable space group: C 2/M
;
_chemical_formula_sum "Si O2"
_cell_formula_units_Z 32
_cell_length_a 8.961071
_cell_length_b 20.382293
_cell_length_c 7.358934
_cell_angle_alpha 90.000000
_cell_angle_beta 114.517572
_cell_angle_gamma 90.000000
_cell_volume 1222.897482
_symmetry_space_group_name_H-M "C 2/M"
_symmetry_group_IT_number 12
_symmetry_cell_setting 'monoclinic'
loop_
_space_group_symop_operation_xyz
x,y,z
-x,y,-z
-x,-y,-z
x,-y,z
1/2+x,1/2+y,z
1/2-x,1/2+y,-z
1/2-x,1/2-y,-z
1/2+x,1/2-y,z
loop_
_atom_site_type_symbol
_atom_site_label
_atom_site_fract_x
_atom_site_fract_y
_atom_site_fract_z
Si Si1 0.648500 0.382693 0.194830
Si Si2 0.000000 0.104559 0.500000
Si Si3 0.731222 0.000000 0.255652
Si Si4 0.640253 0.755439 0.267155
Si Si5 0.750000 0.250000 0.000000
Si Si6 0.623894 0.000000 0.782607
O O1 0.580956 0.365550 0.360362
O O2 0.680025 0.307552 0.143109
O O3 0.794511 0.434355 0.262244
O O4 0.500000 0.410252 0.000000
O O5 0.851267 0.060093 0.353722
O O6 0.572585 0.000000 0.306972
O O7 0.676894 0.000000 0.020061
O O8 0.750000 0.750000 0.500000
O O9 0.708780 0.805092 0.152900
O O10 0.448987 0.760038 0.186325
#
# Coordination Sequence:
#
# PCOD9216141 Si02
#       6
#     8   4   4   8   4   4
#     4  12  24  45  71 103 147 189 231 296 365 420
#     4  11  24  40  70 100 136 194 232 289 350 428
#     4  10  22  43  67 100 145 190 239 279 345 434
#     4  11  25  46  73 103 141 189 244 300 360 423
#     4  10  22  46  70  98 138 180 240 298 354 416
#     4  11  23  45  71 104 148 187 232 290 356 433
#
# _framework density 26.167362000000001
#
# number of rings (size 3 to 8) (size 9 to 14) (size 15 to 20)
#    0.000    1.000    5.000    2.625    3.500    2.000 
#    9.000    2.500    0.000    0.000    0.000    0.000 
#    0.000    0.000    0.000    0.000    0.000    0.000 
#
# Total GULP energy -89146.883775 kJ/mol
# GULP energy per Si atom -5571.680236 kJ/mol
# Density = 2.610780 g / cm^3
# Si number density = 26.167362 Si / 1000 Ang^3
#
#
#
# Elastic Constant Matrix: (Units=GPa)
#
#
# Indices 1 2 3 4 5 6 
#
# 1 262.9459 57.7300 80.9427 0.0000 15.0104 0.0000
# 2 57.7300 114.8788 10.9531 0.0000 9.1483 0.0000
# 3 80.9427 10.9531 228.3656 0.0000 9.1669 0.0000
# 4 0.0000 0.0000 0.0000 26.2570 0.0000 2.5003
# 5 15.0104 9.1483 9.1669 0.0000 56.6030 0.0000
# 6 0.0000 0.0000 0.0000 2.5003 0.0000 43.8574
#
#
#
# Elastic Compliance Matrix: (Units=1/GPa)
#
#
# Indices 1 2 3 4 5 6 
#
# 1 0.004811 -0.002215 -0.001572 0.000000 -0.000663 0.000000
# 2 -0.002215 0.009869 0.000355 0.000000 -0.001065 0.000000
# 3 -0.001572 0.000355 0.004937 0.000000 -0.000440 0.000000
# 4 0.000000 0.000000 0.000000 0.038293 0.000000 -0.002183
# 5 -0.000663 -0.001065 -0.000440 0.000000 0.018086 0.000000
# 6 0.000000 0.000000 0.000000 -0.002183 0.000000 0.022926
#
#
# Mechanical properties :
#
#
# Convention : Reuss Voigt Hill
#
# Bulk Modulus (GPa) = 78.42407 100.60466 89.51437
# Shear Modulus (GPa) = 45.43866 55.78110 50.60988
#
# Velocity S-wave (km/s) = 4.17161 4.62205 4.40259
# Velocity P-wave (km/s) = 7.29646 8.18624 7.75412
#
# Compressibility (1/GPa) = 0.01275119
#
# Stress axis : x y z
#
# Youngs Moduli (GPa) = 207.84395 101.32753 202.55431
#
# Poissons Ratio (x) = 0.22445 0.31851
# Poissons Ratio (y) = 0.46039 -0.07181
# Poissons Ratio (z) = 0.32683 -0.03592
#
# Static dielectric constant tensor:
#      x y z
#    x 2.101690 0.000000 -0.127200 
#    y 0.000000 2.224140 0.000000 
#    z -0.127200 0.000000 2.201320 
# 
# From -- ./inp_files/39942.got.cif
#   From: 2010.05.17/outbox.cif.g08.bks.cpg/sg12_20_cif.got.tgz:39942.got - 2010.06.03 13:09:07.
