data_PCOD9216545
_publ_section_title
;
Structure prediction by ZEFSAII (Michael W. Deem and Ramdas Pophale) SiO2 
 PCOD9216545
Probable space group: C 2/M
;
_chemical_formula_sum "Si O2"
_cell_formula_units_Z 52
_cell_length_a 19.575431
_cell_length_b 27.484736
_cell_length_c 5.172174
_cell_angle_alpha 90.000000
_cell_angle_beta 74.340337
_cell_angle_gamma 90.000000
_cell_volume 2679.471265
_symmetry_space_group_name_H-M "C 2/M"
_symmetry_group_IT_number 12
_symmetry_cell_setting 'monoclinic'
loop_
_space_group_symop_operation_xyz
x,y,z
-x,y,-z
-x,-y,-z
x,-y,z
1/2+x,1/2+y,z
1/2-x,1/2+y,-z
1/2-x,1/2-y,-z
1/2+x,1/2-y,z
loop_
_atom_site_type_symbol
_atom_site_label
_atom_site_fract_x
_atom_site_fract_y
_atom_site_fract_z
Si Si1 0.742647 0.609425 0.920047
Si Si2 0.660516 0.000000 0.584378
Si Si3 0.247813 0.500000 0.995398
Si Si4 0.047037 0.581133 0.697168
Si Si5 0.141008 0.265930 0.604709
Si Si6 0.000000 0.300004 0.000000
Si Si7 0.726545 0.329354 0.417400
Si Si8 0.112676 0.344244 0.264850
O O1 0.719913 0.553317 0.974509
O O2 0.733621 0.631635 0.642784
O O3 0.827128 0.618446 0.890238
O O4 0.707230 0.643216 0.173750
O O5 0.682441 0.000000 0.263421
O O6 0.612819 0.046519 0.681730
O O7 0.725013 0.000000 0.719640
O O8 0.918959 0.631040 0.444163
O O9 0.000000 0.563693 0.500000
O O10 0.000000 0.579899 0.000000
O O11 0.198912 0.299740 0.694510
O O12 0.170939 0.211956 0.555883
O O13 0.142921 0.292327 0.323166
O O14 0.060693 0.269017 0.790518
O O15 0.951064 0.332173 0.860228
#
# Coordination Sequence:
#
# PCOD9216545 Si02
#       8
#     8   4   4   8   8   4   8   8
#     4  11  23  42  62  86 114 158 200 255 296 359
#     4  12  24  41  54  76 106 156 202 266 295 338
#     4  12  24  39  64  84 114 145 205 259 302 344
#     4  12  26  38  52  73 110 157 211 252 294 339
#     4  10  23  37  60  88 118 159 202 249 290 361
#     4  12  22  40  58  93 124 165 200 250 294 362
#     4  10  23  41  64  84 118 156 204 243 306 354
#     4  11  25  37  59  84 121 160 202 245 300 347
#
# _framework density 19.406811999999999
#
# number of rings (size 3 to 8) (size 9 to 14) (size 15 to 20)
#    0.000    0.923    3.077    3.692    8.615    1.846 
#    0.000    0.000    0.000    0.000    0.000    0.000 
#    0.000    3.692    0.000    0.000    0.000    0.000 
#
# Total GULP energy -145216.145796 kJ/mol
# GULP energy per Si atom -5585.236377 kJ/mol
# Density = 1.936264 g / cm^3
# Si number density = 19.406812 Si / 1000 Ang^3
#
#
#
# Elastic Constant Matrix: (Units=GPa)
#
#
# Indices 1 2 3 4 5 6 
#
# 1 35.3962 14.3121 9.4720 0.0000 -0.6093 0.0000
# 2 14.3121 102.6293 21.0334 0.0000 -2.0745 0.0000
# 3 9.4720 21.0334 86.7019 0.0000 4.0138 0.0000
# 4 0.0000 0.0000 0.0000 18.6705 0.0000 5.7896
# 5 -0.6093 -2.0745 4.0138 0.0000 18.7941 0.0000
# 6 0.0000 0.0000 0.0000 5.7896 0.0000 22.3048
#
#
#
# Elastic Compliance Matrix: (Units=1/GPa)
#
#
# Indices 1 2 3 4 5 6 
#
# 1 0.030435 -0.003715 -0.002475 0.000000 0.001105 0.000000
# 2 -0.003715 0.010760 -0.002276 0.000000 0.001553 0.000000
# 3 -0.002475 -0.002276 0.012495 0.000000 -0.003000 0.000000
# 4 0.000000 0.000000 0.000000 0.058249 0.000000 -0.015120
# 5 0.001105 0.001553 -0.003000 0.000000 0.054056 0.000000
# 6 0.000000 0.000000 0.000000 -0.015120 0.000000 0.048758
#
#
# Mechanical properties :
#
#
# Convention : Reuss Voigt Hill
#
# Bulk Modulus (GPa) = 27.20500 34.92916 31.06708
# Shear Modulus (GPa) = 20.49699 23.94785 22.22242
#
# Velocity S-wave (km/s) = 3.25341 3.51663 3.38758
# Velocity P-wave (km/s) = 5.30675 5.87592 5.59857
#
# Compressibility (1/GPa) = 0.03675794
#
# Stress axis : x y z
#
# Youngs Moduli (GPa) = 32.85696 92.93879 80.03023
#
# Poissons Ratio (x) = 0.34524 0.19807
# Poissons Ratio (y) = 0.12205 0.18218
# Poissons Ratio (z) = 0.08132 0.21156
#
# Static dielectric constant tensor:
#      x y z
#    x 1.707140 0.000000 0.006290 
#    y 0.000000 1.738050 0.000000 
#    z 0.006290 0.000000 1.750210 
# 
# From -- ./inp_files/21600.got.cif
#   From: 2010.05.17/outbox.cif.g08.bks.cpg/sg12_11_cif.got.tgz:21600.got - 2010.06.03 13:09:07.
