data_PCOD9216292
_publ_section_title
;
Structure prediction by ZEFSAII (Michael W. Deem and Ramdas Pophale) SiO2 
 PCOD9216292
Probable space group: C 2/M
;
_chemical_formula_sum "Si O2"
_cell_formula_units_Z 50
_cell_length_a 12.539184
_cell_length_b 23.608323
_cell_length_c 9.397252
_cell_angle_alpha 90.000000
_cell_angle_beta 123.892269
_cell_angle_gamma 90.000000
_cell_volume 2309.187400
_symmetry_space_group_name_H-M "C 2/M"
_symmetry_group_IT_number 12
_symmetry_cell_setting 'monoclinic'
loop_
_space_group_symop_operation_xyz
x,y,z
-x,y,-z
-x,-y,-z
x,-y,z
1/2+x,1/2+y,z
1/2-x,1/2+y,-z
1/2-x,1/2-y,-z
1/2+x,1/2-y,z
loop_
_atom_site_type_symbol
_atom_site_label
_atom_site_fract_x
_atom_site_fract_y
_atom_site_fract_z
Si Si1 0.193487 0.095214 0.181721
Si Si2 0.574889 0.226700 0.192405
Si Si3 0.491150 0.000000 0.823784
Si Si4 0.293040 0.349089 0.275112
Si Si5 0.932941 0.161689 0.662008
Si Si6 0.386534 0.120298 0.098306
Si Si7 0.000000 0.000000 0.000000
Si Si8 0.856427 0.500000 0.458507
O O1 0.109218 0.132868 0.223896
O O2 0.280420 0.131378 0.139860
O O3 0.283049 0.055172 0.346947
O O4 0.104390 0.049810 0.035310
O O5 0.715481 0.209058 0.243022
O O6 0.583211 0.271207 0.325224
O O7 0.493032 0.169943 0.171850
O O8 0.500000 0.251368 0.000000
O O9 0.557133 0.058763 0.827513
O O10 0.361923 0.000000 0.634228
O O11 0.500000 0.000000 0.000000
O O12 0.420016 0.346574 0.274154
O O13 0.344335 0.363669 0.470085
O O14 0.186903 0.384095 0.108274
O O15 0.000000 0.500000 0.500000
#
# Coordination Sequence:
#
# PCOD9216292 Si02
#       8
#     8   8   4   8   8   8   2   4
#     4  11  24  41  74  97 140 177 227 286 341 408
#     4  10  24  42  67  97 134 177 232 284 329 410
#     4  12  24  42  72 101 136 188 213 279 366 397
#     4  10  24  45  59  97 141 165 237 274 329 425
#     4  11  25  41  68  94 133 191 214 282 348 393
#     4  11  24  43  71 102 134 179 228 285 336 415
#     4  10  22  44  62 102 132 168 222 274 332 410
#     4  11  23  45  62 110 137 166 241 295 327 416
#
# _framework density 21.652639000000001
#
# number of rings (size 3 to 8) (size 9 to 14) (size 15 to 20)
#    0.000    1.280    1.600    3.360   10.080    1.280 
#    0.000    0.000    0.000    3.840    0.000    0.000 
#    0.000    0.000    0.000    0.000    0.000    0.000 
#
# Total GULP energy -139259.325121 kJ/mol
# GULP energy per Si atom -5570.373005 kJ/mol
# Density = 2.160336 g / cm^3
# Si number density = 21.652639 Si / 1000 Ang^3
#
#
#
# Elastic Constant Matrix: (Units=GPa)
#
#
# Indices 1 2 3 4 5 6 
#
# 1 103.2806 33.9595 13.3010 0.0000 -16.3449 0.0000
# 2 33.9595 95.6285 27.7803 0.0000 -0.6678 0.0000
# 3 13.3010 27.7803 85.7428 0.0000 -3.7788 0.0000
# 4 0.0000 0.0000 0.0000 16.6602 0.0000 -4.3726
# 5 -16.3449 -0.6678 -3.7788 0.0000 35.7517 0.0000
# 6 0.0000 0.0000 0.0000 -4.3726 0.0000 7.3655
#
#
#
# Elastic Compliance Matrix: (Units=1/GPa)
#
#
# Indices 1 2 3 4 5 6 
#
# 1 0.011916 -0.004113 -0.000281 0.000000 0.005341 0.000000
# 2 -0.004113 0.012964 -0.003652 0.000000 -0.002024 0.000000
# 3 -0.000281 -0.003652 0.012941 0.000000 0.001171 0.000000
# 4 0.000000 0.000000 0.000000 0.071101 0.000000 0.042210
# 5 0.005341 -0.002024 0.001171 0.000000 0.030499 0.000000
# 6 0.000000 0.000000 0.000000 0.042210 0.000000 0.160826
#
#
# Mechanical properties :
#
#
# Convention : Reuss Voigt Hill
#
# Bulk Modulus (GPa) = 46.01613 48.30372 47.15992
# Shear Modulus (GPa) = 15.45206 25.92955 20.69081
#
# Velocity S-wave (km/s) = 2.67429 3.46428 3.09460
# Velocity P-wave (km/s) = 5.55283 6.19343 5.88185
#
# Compressibility (1/GPa) = 0.02173151
#
# Stress axis : x y z
#
# Youngs Moduli (GPa) = 83.91986 77.13466 77.27356
#
# Poissons Ratio (x) = 0.31724 0.02168
# Poissons Ratio (y) = 0.34515 0.28217
# Poissons Ratio (z) = 0.02355 0.28166
#
# Static dielectric constant tensor:
#      x y z
#    x 1.792360 0.000000 0.008230 
#    y 0.000000 1.767310 0.000000 
#    z 0.008230 0.000000 1.851970 
# 
# From -- ./inp_files/53397.got.cif
#   From: 2010.05.17/outbox.cif.g08.bks.cpg/sg12_27_cif.got.tgz:53397.got - 2010.06.03 13:09:07.
