data_PCOD9216486
_publ_section_title
;
Structure prediction by ZEFSAII (Michael W. Deem and Ramdas Pophale) SiO2 
 PCOD9216486
Probable space group: C 2/M
;
_chemical_formula_sum "Si O2"
_cell_formula_units_Z 40
_cell_length_a 14.024517
_cell_length_b 23.638090
_cell_length_c 10.512752
_cell_angle_alpha 90.000000
_cell_angle_beta 32.656558
_cell_angle_gamma 90.000000
_cell_volume 1880.573739
_symmetry_space_group_name_H-M "C 2/M"
_symmetry_group_IT_number 12
_symmetry_cell_setting 'monoclinic'
loop_
_space_group_symop_operation_xyz
x,y,z
-x,y,-z
-x,-y,-z
x,-y,z
1/2+x,1/2+y,z
1/2-x,1/2+y,-z
1/2-x,1/2-y,-z
1/2+x,1/2-y,z
loop_
_atom_site_type_symbol
_atom_site_label
_atom_site_fract_x
_atom_site_fract_y
_atom_site_fract_z
Si Si1 0.291783 0.000000 0.280152
Si Si2 0.062268 0.120089 0.071785
Si Si3 0.706515 0.625740 0.283428
Si Si4 0.477922 0.500000 0.183777
Si Si5 0.164411 0.313290 0.112301
Si Si6 0.216327 0.315699 0.551031
O O1 0.223833 0.059410 0.298165
O O2 0.210446 0.000000 0.521057
O O3 0.500000 0.000000 0.000000
O O4 0.897229 0.152492 0.316661
O O5 0.235596 0.157723 0.883651
O O6 0.074119 0.057569 0.117224
O O7 0.000000 0.112365 0.000000
O O8 0.500000 0.640198 0.500000
O O9 0.781914 0.647144 0.066104
O O10 0.808232 0.661507 0.278206
O O11 0.500000 0.500000 0.000000
O O12 0.250000 0.250000 0.000000
O O13 0.954638 0.321118 0.346530
O O14 0.250000 0.250000 0.500000
#
# Coordination Sequence:
#
# PCOD9216486 Si02
#       6
#     4   8   8   4   8   8
#     4  12  23  41  72 112 143 184 245 313 362 430
#     4  11  25  46  69  98 136 190 236 289 357 432
#     4  12  24  44  69 102 141 185 235 301 365 429
#     4  10  22  47  74  98 145 194 243 292 367 441
#     4  12  25  43  66 102 140 184 230 291 366 431
#     4  12  24  42  67 100 140 180 233 291 361 432
#
# _framework density 21.270105000000001
#
# number of rings (size 3 to 8) (size 9 to 14) (size 15 to 20)
#    0.000    0.400    6.000    2.100    2.800    1.600 
#    0.000    2.000    0.000    3.600    0.000    0.000 
#    0.000    0.000    0.000    0.000    0.000    0.000 
#
# Total GULP energy -111341.615111 kJ/mol
# GULP energy per Si atom -5567.080756 kJ/mol
# Density = 2.122169 g / cm^3
# Si number density = 21.270105 Si / 1000 Ang^3
#
#
#
# Elastic Constant Matrix: (Units=GPa)
#
#
# Indices 1 2 3 4 5 6 
#
# 1 90.8937 46.2031 24.8070 -0.0004 -25.2533 0.0001
# 2 46.2031 167.4022 7.5325 -0.0002 -8.4012 0.0001
# 3 24.8070 7.5325 88.9777 -0.0022 -14.1774 0.0007
# 4 -0.0004 -0.0002 -0.0022 32.3257 0.0009 3.2374
# 5 -25.2533 -8.4012 -14.1774 0.0009 55.6970 -0.0002
# 6 0.0001 0.0001 0.0007 3.2374 -0.0002 32.8211
#
#
#
# Elastic Compliance Matrix: (Units=1/GPa)
#
#
# Indices 1 2 3 4 5 6 
#
# 1 0.015330 -0.003812 -0.003059 0.000000 0.005597 0.000000
# 2 -0.003812 0.006980 0.000380 0.000000 -0.000579 0.000000
# 3 -0.003059 0.000380 0.012349 0.000001 0.001813 0.000000
# 4 0.000000 0.000000 0.000001 0.031244 0.000000 -0.003082
# 5 0.005597 -0.000579 0.001813 0.000000 0.020866 0.000000
# 6 0.000000 0.000000 0.000000 -0.003082 0.000000 0.030772
#
#
# Mechanical properties :
#
#
# Convention : Reuss Voigt Hill
#
# Bulk Modulus (GPa) = 46.13873 56.03987 51.08930
# Shear Modulus (GPa) = 36.29790 42.08416 39.19103
#
# Velocity S-wave (km/s) = 4.13549 4.45293 4.29714
# Velocity P-wave (km/s) = 6.67397 7.26925 6.97796
#
# Compressibility (1/GPa) = 0.02167377
#
# Stress axis : x y z
#
# Youngs Moduli (GPa) = 65.23249 143.27194 80.98136
#
# Poissons Ratio (x) = 0.54622 0.24776
# Poissons Ratio (y) = 0.24870 -0.03075
# Poissons Ratio (z) = 0.19957 -0.05441
#
# Static dielectric constant tensor:
#      x y z
#    x 1.799030 0.000000 -0.133220 
#    y 0.000000 1.749650 0.000000 
#    z -0.133220 0.000000 1.536330 
# 
# From -- ./inp_files/148810.got.cif
#   From: 2010.05.17/outbox.cif.g08.bks.cpg/sg12_75_cif.got.tgz:148810.got - 2010.06.03 13:09:07.
