data_PCOD9216246
_publ_section_title
;
Structure prediction by ZEFSAII (Michael W. Deem and Ramdas Pophale) SiO2 
 PCOD9216246
Probable space group: C 2/M
;
_chemical_formula_sum "Si O2"
_cell_formula_units_Z 42
_cell_length_a 9.773367
_cell_length_b 9.867835
_cell_length_c 21.651847
_cell_angle_alpha 90.000000
_cell_angle_beta 103.302937
_cell_angle_gamma 90.000000
_cell_volume 2032.115764
_symmetry_space_group_name_H-M "C 2/M"
_symmetry_group_IT_number 12
_symmetry_cell_setting 'monoclinic'
loop_
_space_group_symop_operation_xyz
x,y,z
-x,y,-z
-x,-y,-z
x,-y,z
1/2+x,1/2+y,z
1/2-x,1/2+y,-z
1/2-x,1/2-y,-z
1/2+x,1/2-y,z
loop_
_atom_site_type_symbol
_atom_site_label
_atom_site_fract_x
_atom_site_fract_y
_atom_site_fract_z
Si Si1 0.810523 0.500000 0.421946
Si Si2 0.135079 0.839438 0.738393
Si Si3 0.000000 0.500000 0.000000
Si Si4 0.659901 0.248389 0.344523
Si Si5 0.393654 0.159562 0.142450
Si Si6 0.097832 0.231150 0.059919
Si Si7 0.857778 0.500000 0.565476
O O1 0.748320 0.371316 0.380965
O O2 0.777989 0.500000 0.491772
O O3 0.977174 0.500000 0.431875
O O4 0.271772 0.804338 0.712014
O O5 0.127707 0.743124 0.797180
O O6 0.997827 0.799822 0.684053
O O7 0.132434 0.000000 0.752984
O O8 0.112257 0.379459 0.030053
O O9 0.670326 0.129919 0.395574
O O10 0.510405 0.233910 0.112918
O O11 0.245272 0.165881 0.091352
O O12 0.431459 0.000000 0.154560
O O13 0.000000 0.155656 0.000000
#
# Coordination Sequence:
#
# PCOD9216246 Si02
#       7
#     4   8   2   8   8   8   4
#     4  11  24  43  71 106 134 167 225 275 328 401
#     4  12  28  43  67  93 135 179 224 271 331 389
#     4   8  20  40  68  94 128 180 198 266 344 404
#     4  12  24  46  67  98 134 178 219 276 329 396
#     4  12  26  43  66 102 129 175 230 276 322 402
#     4  10  22  43  70  94 137 169 214 273 342 390
#     4  11  24  43  72 102 136 177 211 275 342 393
#
# _framework density 20.668113000000002
#
# number of rings (size 3 to 8) (size 9 to 14) (size 15 to 20)
#    0.571    0.190    4.762    2.286    4.000    4.190 
#    0.000    0.952    0.000    0.000    0.000    0.000 
#    0.000    0.000    0.000    0.000    0.000    0.000 
#
# Total GULP energy -117091.308537 kJ/mol
# GULP energy per Si atom -5575.776597 kJ/mol
# Density = 2.062107 g / cm^3
# Si number density = 20.668113 Si / 1000 Ang^3
#
#
#
# Elastic Constant Matrix: (Units=GPa)
#
#
# Indices 1 2 3 4 5 6 
#
# 1 54.0917 1.9402 -5.7742 0.0000 -16.7121 0.0000
# 2 1.9402 123.8665 23.6854 0.0000 -12.8976 0.0000
# 3 -5.7742 23.6854 74.3268 0.0000 -19.2168 0.0000
# 4 0.0000 0.0000 0.0000 34.9592 0.0000 16.6451
# 5 -16.7121 -12.8976 -19.2168 0.0000 43.0782 0.0000
# 6 0.0000 0.0000 0.0000 16.6451 0.0000 15.1149
#
#
#
# Elastic Compliance Matrix: (Units=1/GPa)
#
#
# Indices 1 2 3 4 5 6 
#
# 1 0.022250 -0.000105 0.004505 0.000000 0.010610 0.000000
# 2 -0.000105 0.008687 -0.002390 0.000000 0.001494 0.000000
# 3 0.004505 -0.002390 0.016766 0.000000 0.008511 0.000000
# 4 0.000000 0.000000 0.000000 0.060136 0.000000 -0.066224
# 5 0.010610 0.001494 0.008511 0.000000 0.031574 0.000000
# 6 0.000000 0.000000 0.000000 -0.066224 0.000000 0.139088
#
#
# Mechanical properties :
#
#
# Convention : Reuss Voigt Hill
#
# Bulk Modulus (GPa) = 19.33374 32.44309 25.88841
# Shear Modulus (GPa) = 17.13950 34.12604 25.63277
#
# Velocity S-wave (km/s) = 2.88283 4.06784 3.52548
# Velocity P-wave (km/s) = 4.52279 6.14771 5.39676
#
# Compressibility (1/GPa) = 0.05172306
#
# Stress axis : x y z
#
# Youngs Moduli (GPa) = 44.94406 115.10822 59.64309
#
# Poissons Ratio (x) = 0.01211 -0.26870
# Poissons Ratio (y) = 0.00473 0.14257
# Poissons Ratio (z) = -0.20248 0.27515
#
# Static dielectric constant tensor:
#      x y z
#    x 1.742440 0.000000 -0.001760 
#    y 0.000000 1.585300 0.000000 
#    z -0.001760 0.000000 1.789010 
# 
# From -- ./inp_files/303699.got.cif
#   From: 2010.05.17/outbox.cif.g08.bks.cpg/sg12_152_cif.got.tgz:303699.got - 2010.06.03 13:09:07.
