data_PCOD9216039
_publ_section_title
;
Structure prediction by ZEFSAII (Michael W. Deem and Ramdas Pophale) SiO2 
 PCOD9216039
Probable space group: C 2/M
;
_chemical_formula_sum "Si O2"
_cell_formula_units_Z 50
_cell_length_a 9.517743
_cell_length_b 16.822905
_cell_length_c 16.541867
_cell_angle_alpha 90.000000
_cell_angle_beta 58.746859
_cell_angle_gamma 90.000000
_cell_volume 2264.260499
_symmetry_space_group_name_H-M "C 2/M"
_symmetry_group_IT_number 12
_symmetry_cell_setting 'monoclinic'
loop_
_space_group_symop_operation_xyz
x,y,z
-x,y,-z
-x,-y,-z
x,-y,z
1/2+x,1/2+y,z
1/2-x,1/2+y,-z
1/2-x,1/2-y,-z
1/2+x,1/2-y,z
loop_
_atom_site_type_symbol
_atom_site_label
_atom_site_fract_x
_atom_site_fract_y
_atom_site_fract_z
Si Si1 0.741227 0.670397 0.116192
Si Si2 0.511283 0.590502 0.692784
Si Si3 0.591894 0.089982 0.267796
Si Si4 0.833990 0.313990 0.599168
Si Si5 0.090327 0.662583 0.100457
Si Si6 0.288893 0.374057 0.608891
Si Si7 0.500000 0.500000 0.500000
O O1 0.592146 0.621138 0.199182
O O2 0.665240 0.755567 0.113852
O O3 0.897968 0.673937 0.131421
O O4 0.815919 0.638800 0.009595
O O5 0.567615 0.500000 0.686853
O O6 0.659898 0.648957 0.625830
O O7 0.375326 0.591596 0.662990
O O8 0.660439 0.155181 0.309795
O O9 0.624210 0.102666 0.163464
O O10 0.399551 0.106317 0.331761
O O11 0.633207 0.000000 0.279934
O O12 0.821379 0.219149 0.594288
O O13 0.000000 0.338642 0.500000
O O14 0.366992 0.429927 0.518404
#
# Coordination Sequence:
#
# PCOD9216039 Si02
#       7
#     8   8   8   8   8   8   2
#     4  10  22  42  71 104 138 179 228 282 344 415
#     4  12  26  44  66 102 140 179 228 286 340 407
#     4  12  26  44  66 102 140 179 228 286 340 407
#     4  12  29  46  69  96 136 188 234 281 346 415
#     4  10  22  42  71 104 138 179 228 282 344 415
#     4  12  24  45  71  97 134 173 231 283 349 410
#     4  12  24  40  72 106 128 176 224 310 340 400
#
# _framework density 22.082263999999999
#
# number of rings (size 3 to 8) (size 9 to 14) (size 15 to 20)
#    0.000    0.640    4.000    3.360    4.480    3.200 
#    0.000    1.600    0.000    1.920    0.000    0.000 
#    0.000    0.000    0.000    0.000    0.000    0.000 
#
# Total GULP energy -139405.833983 kJ/mol
# GULP energy per Si atom -5576.233359 kJ/mol
# Density = 2.203200 g / cm^3
# Si number density = 22.082264 Si / 1000 Ang^3
#
#
#
# Elastic Constant Matrix: (Units=GPa)
#
#
# Indices 1 2 3 4 5 6 
#
# 1 93.8092 40.0996 18.4135 0.0000 7.8564 0.0000
# 2 40.0996 164.9809 53.0501 0.0000 -2.5036 0.0000
# 3 18.4135 53.0501 87.4723 0.0000 2.7357 0.0000
# 4 0.0000 0.0000 0.0000 33.8519 0.0000 1.2434
# 5 7.8564 -2.5036 2.7357 0.0000 37.2017 0.0000
# 6 0.0000 0.0000 0.0000 1.2434 0.0000 17.9240
#
#
#
# Elastic Compliance Matrix: (Units=1/GPa)
#
#
# Indices 1 2 3 4 5 6 
#
# 1 0.012222 -0.002747 -0.000822 0.000000 -0.002706 0.000000
# 2 -0.002747 0.008174 -0.004424 0.000000 0.001456 0.000000
# 3 -0.000822 -0.004424 0.014325 0.000000 -0.001178 0.000000
# 4 0.000000 0.000000 0.000000 0.029616 0.000000 -0.002054
# 5 -0.002706 0.001456 -0.001178 0.000000 0.027636 0.000000
# 6 0.000000 0.000000 0.000000 -0.002054 0.000000 0.055934
#
#
# Mechanical properties :
#
#
# Convention : Reuss Voigt Hill
#
# Bulk Modulus (GPa) = 53.37948 63.26542 58.32245
# Shear Modulus (GPa) = 29.38755 33.44212 31.41484
#
# Velocity S-wave (km/s) = 3.65200 3.89579 3.77587
# Velocity P-wave (km/s) = 6.48138 6.99631 6.74376
#
# Compressibility (1/GPa) = 0.01873379
#
# Stress axis : x y z
#
# Youngs Moduli (GPa) = 81.81773 122.34096 69.80609
#
# Poissons Ratio (x) = 0.33613 0.05738
# Poissons Ratio (y) = 0.22479 0.30885
# Poissons Ratio (z) = 0.06725 0.54129
#
# Static dielectric constant tensor:
#      x y z
#    x 1.854450 0.000000 0.002680 
#    y 0.000000 0.960420 0.000000 
#    z 0.002680 0.000000 2.042170 
# 
# From -- ./inp_files/256940.got.cif
#   From: 2010.05.17/outbox.cif.g08.bks.cpg/sg12_129_cif.got.tgz:256940.got - 2010.06.03 13:09:07.
