data_PCOD9216155
_publ_section_title
;
Structure prediction by ZEFSAII (Michael W. Deem and Ramdas Pophale) SiO2 
 PCOD9216155
Probable space group: C 2/M
;
_chemical_formula_sum "Si O2"
_cell_formula_units_Z 32
_cell_length_a 17.316268
_cell_length_b 13.348190
_cell_length_c 14.101796
_cell_angle_alpha 90.000000
_cell_angle_beta 150.560755
_cell_angle_gamma 90.000000
_cell_volume 1602.045935
_symmetry_space_group_name_H-M "C 2/M"
_symmetry_group_IT_number 12
_symmetry_cell_setting 'monoclinic'
loop_
_space_group_symop_operation_xyz
x,y,z
-x,y,-z
-x,-y,-z
x,-y,z
1/2+x,1/2+y,z
1/2-x,1/2+y,-z
1/2-x,1/2-y,-z
1/2+x,1/2-y,z
loop_
_atom_site_type_symbol
_atom_site_label
_atom_site_fract_x
_atom_site_fract_y
_atom_site_fract_z
Si Si1 0.100279 0.615473 0.010929
Si Si2 0.379211 0.176903 0.596780
Si Si3 0.681990 0.781527 0.825391
Si Si4 0.182859 0.000000 0.078955
Si Si5 0.324501 0.500000 0.702884
O O1 0.158018 0.500000 0.065266
O O2 0.987084 0.636522 0.799130
O O3 0.235708 0.700454 0.154817
O O4 0.000000 0.624421 0.000000
O O5 0.250000 0.250000 0.500000
O O6 0.495735 0.222355 0.642123
O O7 0.276095 0.092606 0.438638
O O8 0.732125 0.896682 0.859590
O O9 0.750000 0.750000 0.000000
O O10 0.171169 0.000000 0.179552
O O11 0.001409 0.000000 0.850926
#
# Coordination Sequence:
#
# PCOD9216155 Si02
#       5
#     8   8   8   4   4
#     4  10  22  43  67  92 129 177 216 258 324 394
#     4  11  23  42  63  97 129 167 213 274 326 381
#     4  10  23  40  67  92 129 169 212 263 326 393
#     4  11  25  41  67 100 123 173 217 268 341 384
#     4  11  23  41  66  96 133 160 217 281 322 386
#
# _framework density 19.974457000000001
#
# number of rings (size 3 to 8) (size 9 to 14) (size 15 to 20)
#    0.000    1.500    1.250    3.750   12.250    2.000 
#    2.250    0.000    0.000    3.000    0.000    0.000 
#    0.000    0.000    0.000    0.000    0.000    0.000 
#
# Total GULP energy -89308.238955 kJ/mol
# GULP energy per Si atom -5581.764935 kJ/mol
# Density = 1.992899 g / cm^3
# Si number density = 19.974457 Si / 1000 Ang^3
#
#
#
# Elastic Constant Matrix: (Units=GPa)
#
#
# Indices 1 2 3 4 5 6 
#
# 1 105.9818 79.8262 38.6508 0.0000 31.7123 0.0000
# 2 79.8262 185.7169 49.7608 0.0000 38.1422 0.0000
# 3 38.6508 49.7608 88.6836 0.0000 30.0070 0.0000
# 4 0.0000 0.0000 0.0000 23.1843 0.0000 -14.4048
# 5 31.7123 38.1422 30.0070 0.0000 46.7677 0.0000
# 6 0.0000 0.0000 0.0000 -14.4048 0.0000 41.6755
#
#
#
# Elastic Compliance Matrix: (Units=1/GPa)
#
#
# Indices 1 2 3 4 5 6 
#
# 1 0.015560 -0.005061 -0.002258 0.000000 -0.004974 0.000000
# 2 -0.005061 0.008524 -0.001770 0.000000 -0.002384 0.000000
# 3 -0.002258 -0.001770 0.015643 0.000000 -0.007062 0.000000
# 4 0.000000 0.000000 0.000000 0.054929 0.000000 0.018986
# 5 -0.004974 -0.002384 -0.007062 0.000000 0.031230 0.000000
# 6 0.000000 0.000000 0.000000 0.018986 0.000000 0.030557
#
#
# Mechanical properties :
#
#
# Convention : Reuss Voigt Hill
#
# Bulk Modulus (GPa) = 46.41117 79.65087 63.03102
# Shear Modulus (GPa) = 27.50195 36.46847 31.98521
#
# Velocity S-wave (km/s) = 3.71463 4.27752 4.00597
# Velocity P-wave (km/s) = 6.45629 8.02242 7.28158
#
# Compressibility (1/GPa) = 0.02154654
#
# Stress axis : x y z
#
# Youngs Moduli (GPa) = 64.26828 117.31560 63.92601
#
# Poissons Ratio (x) = 0.59378 0.14438
# Poissons Ratio (y) = 0.32528 0.11317
# Poissons Ratio (z) = 0.14515 0.20769
#
# Static dielectric constant tensor:
#      x y z
#    x 1.741070 0.000000 0.026440 
#    y 0.000000 1.661010 0.000000 
#    z 0.026440 0.000000 1.745790 
# 
# From -- ./inp_files/56810.got.cif
#   From: 2010.05.17/outbox.cif.g08.bks.cpg/sg12_29_cif.got.tgz:56810.got - 2010.06.03 13:09:07.
