data_PCOD9216553
_publ_section_title
;
Structure prediction by ZEFSAII (Michael W. Deem and Ramdas Pophale) SiO2 
 PCOD9216553
Probable space group: C 2/M
;
_chemical_formula_sum "Si O2"
_cell_formula_units_Z 44
_cell_length_a 22.868079
_cell_length_b 14.276307
_cell_length_c 5.388937
_cell_angle_alpha 90.000000
_cell_angle_beta 102.006489
_cell_angle_gamma 90.000000
_cell_volume 1720.848371
_symmetry_space_group_name_H-M "C 2/M"
_symmetry_group_IT_number 12
_symmetry_cell_setting 'monoclinic'
loop_
_space_group_symop_operation_xyz
x,y,z
-x,y,-z
-x,-y,-z
x,-y,z
1/2+x,1/2+y,z
1/2-x,1/2+y,-z
1/2-x,1/2-y,-z
1/2+x,1/2-y,z
loop_
_atom_site_type_symbol
_atom_site_label
_atom_site_fract_x
_atom_site_fract_y
_atom_site_fract_z
Si Si1 0.149200 0.346609 0.188387
Si Si2 0.913463 0.500000 0.516382
Si Si3 0.470684 0.643458 0.721606
Si Si4 0.964959 0.342150 0.189327
Si Si5 0.262287 0.638626 0.025599
Si Si6 0.670902 0.650166 0.410156
O O1 0.119539 0.419585 0.343620
O O2 0.196677 0.395150 0.047058
O O3 0.176695 0.262974 0.376820
O O4 0.097716 0.301846 0.969415
O O5 0.944216 0.417037 0.370832
O O6 0.500000 0.603510 0.500000
O O7 0.490820 0.754233 0.729167
O O8 0.399744 0.630690 0.661463
O O9 0.500000 0.608083 0.000000
O O10 0.000000 0.395738 0.000000
O O11 0.303605 0.620746 0.301442
O O12 0.250000 0.750000 0.000000
O O13 0.292449 0.609776 0.793533
#
# Coordination Sequence:
#
# PCOD9216553 Si02
#       6
#     8   4   8   8   8   8
#     4  11  23  40  54  83 109 156 208 253 295 345
#     4  12  27  37  59  77 119 164 214 249 288 340
#     4  11  21  36  58  81 117 153 194 240 291 354
#     4  11  24  39  53  78 117 163 206 246 288 344
#     4  10  23  37  63  82 107 145 207 258 303 352
#     4  11  21  40  61  84 109 154 204 250 305 347
#
# _framework density 25.568781000000001
#
# number of rings (size 3 to 8) (size 9 to 14) (size 15 to 20)
#    0.000    1.091    3.636    5.182   10.182    0.727 
#    0.000    0.000    0.000    0.000    0.000    0.000 
#    0.000    0.000    0.000   16.364    3.636    0.182 
#
# Total GULP energy -122606.215618 kJ/mol
# GULP energy per Si atom -5573.009801 kJ/mol
# Density = 2.551059 g / cm^3
# Si number density = 25.568781 Si / 1000 Ang^3
#
#
#
# Elastic Constant Matrix: (Units=GPa)
#
#
# Indices 1 2 3 4 5 6 
#
# 1 219.7568 5.6318 97.2122 0.0000 -37.6589 0.0000
# 2 5.6318 108.7494 -2.1641 0.0000 -20.0018 0.0000
# 3 97.2122 -2.1641 161.6470 0.0000 -41.6910 0.0000
# 4 0.0000 0.0000 0.0000 -36.0934 0.0000 13.5495
# 5 -37.6589 -20.0018 -41.6910 0.0000 69.2806 0.0000
# 6 0.0000 0.0000 0.0000 13.5495 0.0000 -67.1232
#
#
#
# Elastic Compliance Matrix: (Units=1/GPa)
#
#
# Indices 1 2 3 4 5 6 
#
# 1 0.006308 -0.000156 -0.003460 0.000000 0.001302 0.000000
# 2 -0.000156 0.009856 0.001110 0.000000 0.003429 0.000000
# 3 -0.003460 0.001110 0.009327 0.000000 0.004053 0.000000
# 4 0.000000 0.000000 0.000000 -0.029978 0.000000 -0.006051
# 5 0.001302 0.003429 0.004053 0.000000 0.018570 0.000000
# 6 0.000000 0.000000 0.000000 -0.006051 0.000000 -0.016119
#
#
# Mechanical properties :
#
#
# Convention : Reuss Voigt Hill
#
# Bulk Modulus (GPa) = 48.82873 76.83478 62.83176
# Shear Modulus (GPa) = 510.03575 19.17767 264.60671
#
# Velocity S-wave (km/s) = 14.13892 2.74166 10.18395
# Velocity P-wave (km/s) = 16.90218 6.33544 12.76365
#
# Compressibility (1/GPa) = 0.02047975
#
# Stress axis : x y z
#
# Youngs Moduli (GPa) = 158.52580 101.45826 107.21356
#
# Poissons Ratio (x) = 0.01584 0.37096
# Poissons Ratio (y) = 0.02475 -0.11902
# Poissons Ratio (z) = 0.54849 -0.11264
#
# Static dielectric constant tensor:
#      x y z
#    x 2.045550 0.000000 0.068720 
#    y 0.000000 2.019830 0.000000 
#    z 0.068720 0.000000 2.258380 
# 
# From -- ./inp_files/20462.got.cif
#   From: 2010.05.17/outbox.cif.g08.bks.cpg/sg12_11_cif.got.tgz:20462.got - 2010.06.03 13:09:07.
