data_PCOD9216535
_publ_section_title
;
Structure prediction by ZEFSAII (Michael W. Deem and Ramdas Pophale) SiO2 
 PCOD9216535
Probable space group: C 2/M
;
_chemical_formula_sum "Si O2"
_cell_formula_units_Z 40
_cell_length_a 9.187218
_cell_length_b 30.881187
_cell_length_c 14.250569
_cell_angle_alpha 90.000000
_cell_angle_beta 154.087098
_cell_angle_gamma 90.000000
_cell_volume 1766.834879
_symmetry_space_group_name_H-M "C 2/M"
_symmetry_group_IT_number 12
_symmetry_cell_setting 'monoclinic'
loop_
_space_group_symop_operation_xyz
x,y,z
-x,y,-z
-x,-y,-z
x,-y,z
1/2+x,1/2+y,z
1/2-x,1/2+y,-z
1/2-x,1/2-y,-z
1/2+x,1/2-y,z
loop_
_atom_site_type_symbol
_atom_site_label
_atom_site_fract_x
_atom_site_fract_y
_atom_site_fract_z
Si Si1 0.638081 0.890255 0.925760
Si Si2 0.173648 0.548510 0.379536
Si Si3 0.372282 0.712869 0.678169
Si Si4 0.314495 0.200926 0.117121
Si Si5 0.515249 0.621926 0.324706
O O1 0.619955 0.934242 0.857416
O O2 0.602047 0.849635 0.834704
O O3 0.316384 0.886416 0.806555
O O4 0.947004 0.886447 0.174927
O O5 0.500000 0.547940 0.500000
O O6 0.128546 0.500000 0.389509
O O7 0.234422 0.585929 0.491190
O O8 0.417498 0.764445 0.690569
O O9 0.421211 0.673573 0.633920
O O10 0.000000 0.706168 0.500000
O O11 0.674266 0.706929 0.929479
O O12 0.000000 0.208890 0.000000
#
# Coordination Sequence:
#
# PCOD9216535 Si02
#       5
#     8   8   8   8   8
#     4   9  19  36  55  82 115 152 184 237 288 331
#     4   9  18  33  56  87 112 140 188 238 289 343
#     4  10  23  37  56  83 113 157 195 234 283 339
#     4  10  23  38  55  84 119 151 194 239 277 342
#     4   9  19  35  57  81 116 149 190 236 282 341
#
# _framework density 22.639353
#
# number of rings (size 3 to 8) (size 9 to 14) (size 15 to 20)
#    0.000    2.600    0.000    0.000   11.200    4.000 
#    0.000    4.000    0.000    1.200    0.000    0.000 
#    0.000    0.000    0.000    0.000    0.000    0.000 
#
# Total GULP energy -111488.710254 kJ/mol
# GULP energy per Si atom -5574.435513 kJ/mol
# Density = 2.258782 g / cm^3
# Si number density = 22.639353 Si / 1000 Ang^3
#
#
#
# Elastic Constant Matrix: (Units=GPa)
#
#
# Indices 1 2 3 4 5 6 
#
# 1 23.7471 27.6027 8.9913 0.0000 -10.7088 0.0000
# 2 27.6027 180.8101 63.4881 0.0000 -40.4212 0.0000
# 3 8.9913 63.4881 60.4382 0.0000 -27.7251 0.0000
# 4 0.0000 0.0000 0.0000 29.5230 0.0000 -10.8302
# 5 -10.7088 -40.4212 -27.7251 0.0000 27.4698 0.0000
# 6 0.0000 0.0000 0.0000 -10.8302 0.0000 34.6733
#
#
#
# Elastic Compliance Matrix: (Units=1/GPa)
#
#
# Indices 1 2 3 4 5 6 
#
# 1 0.056055 -0.006971 0.008012 0.000000 0.019681 0.000000
# 2 -0.006971 0.010349 -0.007625 0.000000 0.004814 0.000000
# 3 0.008012 -0.007625 0.036591 0.000000 0.028834 0.000000
# 4 0.000000 0.000000 0.000000 0.038255 0.000000 0.011949
# 5 0.019681 0.004814 0.028834 0.000000 0.080262 0.000000
# 6 0.000000 0.000000 0.000000 0.011949 0.000000 0.032573
#
#
# Mechanical properties :
#
#
# Convention : Reuss Voigt Hill
#
# Bulk Modulus (GPa) = 11.13266 51.68440 31.40853
# Shear Modulus (GPa) = 16.82397 29.32743 23.07570
#
# Velocity S-wave (km/s) = 2.72900 3.60310 3.19607
# Velocity P-wave (km/s) = 3.85460 6.33946 5.24627
#
# Compressibility (1/GPa) = 0.08982575
#
# Stress axis : x y z
#
# Youngs Moduli (GPa) = 17.83974 96.63219 27.32886
#
# Poissons Ratio (x) = 0.67359 -0.21895
# Poissons Ratio (y) = 0.12436 0.20839
# Poissons Ratio (z) = -0.14293 0.73686
#
# Static dielectric constant tensor:
#      x y z
#    x 1.864040 0.000000 -0.055480 
#    y 0.000000 1.868380 0.000000 
#    z -0.055480 0.000000 1.905010 
# 
# From -- ./inp_files/266234.got.cif
#   From: 2010.05.17/outbox.cif.g08.bks.cpg/sg12_134_cif.got.tgz:266234.got - 2010.06.03 13:09:07.
