data_PCOD9216759
_publ_section_title
;
Structure prediction by ZEFSAII (Michael W. Deem and Ramdas Pophale) SiO2 
 PCOD9216759
Probable space group: C 2/M
;
_chemical_formula_sum "Si O2"
_cell_formula_units_Z 52
_cell_length_a 9.204996
_cell_length_b 22.595979
_cell_length_c 13.683561
_cell_angle_alpha 90.000000
_cell_angle_beta 118.180656
_cell_angle_gamma 90.000000
_cell_volume 2508.753308
_symmetry_space_group_name_H-M "C 2/M"
_symmetry_group_IT_number 12
_symmetry_cell_setting 'monoclinic'
loop_
_space_group_symop_operation_xyz
x,y,z
-x,y,-z
-x,-y,-z
x,-y,z
1/2+x,1/2+y,z
1/2-x,1/2+y,-z
1/2-x,1/2-y,-z
1/2+x,1/2-y,z
loop_
_atom_site_type_symbol
_atom_site_label
_atom_site_fract_x
_atom_site_fract_y
_atom_site_fract_z
Si Si1 0.076866 0.606938 0.621582
Si Si2 0.139092 0.793066 0.864728
Si Si3 0.342987 0.067411 0.139827
Si Si4 0.000000 0.129973 0.000000
Si Si5 0.955586 0.673668 0.857997
Si Si6 0.203878 0.313279 0.392084
Si Si7 0.134167 0.822408 0.369891
O O1 0.086873 0.572925 0.726969
O O2 0.257339 0.630075 0.652462
O O3 0.000000 0.577162 0.500000
O O4 0.960217 0.664372 0.602925
O O5 0.067952 0.829434 0.933491
O O6 0.083835 0.725047 0.864602
O O7 0.038028 0.814811 0.737896
O O8 0.332134 0.803610 0.903482
O O9 0.445260 0.112623 0.104000
O O10 0.155094 0.090500 0.081825
O O11 0.352119 0.000000 0.109746
O O12 0.832420 0.663460 0.726811
O O13 0.215260 0.242795 0.385124
O O14 0.348170 0.334893 0.509446
#
# Coordination Sequence:
#
# PCOD9216759 Si02
#       7
#     8   8   8   4   8   8   8
#     4   9  17  34  57  89 122 160 208 254 307 366
#     4  11  23  38  64  92 130 159 207 254 319 370
#     4  11  24  44  65  89 124 165 214 259 305 367
#     4  12  25  44  68  94 121 166 204 266 306 372
#     4  10  23  40  61  95 123 165 201 258 314 375
#     4   8  17  27  52  86 127 160 194 239 313 369
#     4   9  16  29  51  87 125 162 193 247 302 375
#
# _framework density 20.727428
#
# number of rings (size 3 to 8) (size 9 to 14) (size 15 to 20)
#    0.000    2.154    1.538    1.154   10.769    4.000 
#    0.000    2.308    0.000    0.000    0.000    3.231 
#    0.000    0.000    0.000    0.000    0.000    0.000 
#
# Total GULP energy -145035.928860 kJ/mol
# GULP energy per Si atom -5578.304956 kJ/mol
# Density = 2.068025 g / cm^3
# Si number density = 20.727428 Si / 1000 Ang^3
#
#
#
# Elastic Constant Matrix: (Units=GPa)
#
#
# Indices 1 2 3 4 5 6 
#
# 1 142.9186 56.3783 32.3644 0.0000 11.0278 0.0000
# 2 56.3783 115.2961 28.8535 0.0000 10.9476 0.0000
# 3 32.3644 28.8535 107.9470 0.0000 5.7962 0.0000
# 4 0.0000 0.0000 0.0000 13.2844 0.0000 -1.5432
# 5 11.0278 10.9476 5.7962 0.0000 23.9400 0.0000
# 6 0.0000 0.0000 0.0000 -1.5432 0.0000 15.4989
#
#
#
# Elastic Compliance Matrix: (Units=1/GPa)
#
#
# Indices 1 2 3 4 5 6 
#
# 1 0.009018 -0.003824 -0.001573 0.000000 -0.002025 0.000000
# 2 -0.003824 0.011251 -0.001701 0.000000 -0.002972 0.000000
# 3 -0.001573 -0.001701 0.010243 0.000000 -0.000977 0.000000
# 4 0.000000 0.000000 0.000000 0.076157 0.000000 0.007583
# 5 -0.002025 -0.002972 -0.000977 0.000000 0.044299 0.000000
# 6 0.000000 0.000000 0.000000 0.007583 0.000000 0.065276
#
#
# Mechanical properties :
#
#
# Convention : Reuss Voigt Hill
#
# Bulk Modulus (GPa) = 61.29153 66.81714 64.05434
# Shear Modulus (GPa) = 21.19745 27.11571 24.15658
#
# Velocity S-wave (km/s) = 3.20140 3.62083 3.41756
# Velocity P-wave (km/s) = 6.58025 7.05597 6.82226
#
# Compressibility (1/GPa) = 0.01631547
#
# Stress axis : x y z
#
# Youngs Moduli (GPa) = 110.89214 88.88102 97.63119
#
# Poissons Ratio (x) = 0.33985 0.15357
# Poissons Ratio (y) = 0.42402 0.16610
# Poissons Ratio (z) = 0.17443 0.15122
#
# Static dielectric constant tensor:
#      x y z
#    x 1.777180 0.000000 -0.020080 
#    y 0.000000 1.687130 0.000000 
#    z -0.020080 0.000000 1.846400 
# 
# From -- ./inp_files/146612.got.cif
#   From: 2010.05.17/outbox.cif.g08.bks.cpg/sg12_74_cif.got.tgz:146612.got - 2010.06.03 13:09:07.
