data_PCOD9216616
_publ_section_title
;
Structure prediction by ZEFSAII (Michael W. Deem and Ramdas Pophale) SiO2 
 PCOD9216616
Probable space group: C 2/M
;
_chemical_formula_sum "Si O2"
_cell_formula_units_Z 44
_cell_length_a 5.471067
_cell_length_b 22.890852
_cell_length_c 18.235116
_cell_angle_alpha 90.000000
_cell_angle_beta 55.435850
_cell_angle_gamma 90.000000
_cell_volume 1880.622578
_symmetry_space_group_name_H-M "C 2/M"
_symmetry_group_IT_number 12
_symmetry_cell_setting 'monoclinic'
loop_
_space_group_symop_operation_xyz
x,y,z
-x,y,-z
-x,-y,-z
x,-y,z
1/2+x,1/2+y,z
1/2-x,1/2+y,-z
1/2-x,1/2-y,-z
1/2+x,1/2-y,z
loop_
_atom_site_type_symbol
_atom_site_label
_atom_site_fract_x
_atom_site_fract_y
_atom_site_fract_z
Si Si1 0.500000 0.098995 0.000000
Si Si2 0.617350 0.218707 0.196595
Si Si3 0.500000 0.674026 0.000000
Si Si4 0.500000 0.653306 0.500000
Si Si5 0.991021 0.500000 0.737473
Si Si6 0.226454 0.000000 0.148572
Si Si7 0.987992 0.375561 0.668113
Si Si8 0.818245 0.932665 0.405296
O O1 0.341296 0.057013 0.085850
O O2 0.248392 0.136335 0.001039
O O3 0.297970 0.240036 0.222228
O O4 0.584700 0.158501 0.245994
O O5 0.824948 0.210919 0.090463
O O6 0.829297 0.671274 0.417030
O O7 0.539361 0.612186 0.562910
O O8 0.630843 0.500000 0.795202
O O9 0.115636 0.500000 0.798832
O O10 0.085230 0.440958 0.679029
O O11 0.715325 0.396768 0.663739
O O12 0.500000 0.938657 0.500000
O O13 0.907489 0.000000 0.379352
#
# Coordination Sequence:
#
# PCOD9216616 Si02
#       8
#     4   8   4   4   4   4   8   8
#     4  11  22  41  72  99 142 187 224 286 348 424
#     4  12  28  49  75 103 138 182 235 292 349 414
#     4  12  24  48  76 103 132 176 240 297 348 396
#     4  10  23  38  66  98 142 186 228 293 340 414
#     4  12  26  40  67 105 146 187 228 284 343 417
#     4  11  24  40  58 104 151 189 228 266 351 431
#     4  11  25  41  68 101 141 184 235 287 349 411
#     4   9  18  35  59  96 137 176 225 278 342 404
#
# _framework density 23.396505999999999
#
# number of rings (size 3 to 8) (size 9 to 14) (size 15 to 20)
#    0.000    1.091    0.909    5.182    7.636    1.455 
#    0.000    0.909    0.000    0.000    0.000    0.000 
#    0.000    0.000    0.000    0.000    0.000    0.000 
#
# Total GULP energy -122599.484471 kJ/mol
# GULP energy per Si atom -5572.703840 kJ/mol
# Density = 2.334325 g / cm^3
# Si number density = 23.396506 Si / 1000 Ang^3
#
#
#
# Elastic Constant Matrix: (Units=GPa)
#
#
# Indices 1 2 3 4 5 6 
#
# 1 104.5429 9.8571 8.2469 0.0000 39.6981 0.0000
# 2 9.8571 39.6329 -5.0574 0.0000 16.8463 0.0000
# 3 8.2469 -5.0574 80.0001 0.0000 11.1286 0.0000
# 4 0.0000 0.0000 0.0000 46.2257 0.0000 46.8703
# 5 39.6981 16.8463 11.1286 0.0000 49.0763 0.0000
# 6 0.0000 0.0000 0.0000 46.8703 0.0000 66.0129
#
#
#
# Elastic Compliance Matrix: (Units=1/GPa)
#
#
# Indices 1 2 3 4 5 6 
#
# 1 0.013895 0.001632 0.000322 0.000000 -0.011873 0.000000
# 2 0.001632 0.030649 0.003528 0.000000 -0.012641 0.000000
# 3 0.000322 0.003528 0.013314 0.000000 -0.004491 0.000000
# 4 0.000000 0.000000 0.000000 0.077238 0.000000 -0.054840
# 5 -0.011873 -0.012641 -0.004491 0.000000 0.035338 0.000000
# 6 0.000000 0.000000 0.000000 -0.054840 0.000000 0.054086
#
#
# Mechanical properties :
#
#
# Convention : Reuss Voigt Hill
#
# Bulk Modulus (GPa) = 14.53017 27.80769 21.16893
# Shear Modulus (GPa) = 21.14199 46.33826 33.74013
#
# Velocity S-wave (km/s) = 3.00932 4.45518 3.80162
# Velocity P-wave (km/s) = 4.27768 6.19484 5.32328
#
# Compressibility (1/GPa) = 0.06882231
#
# Stress axis : x y z
#
# Youngs Moduli (GPa) = 71.97056 32.62760 75.10612
#
# Poissons Ratio (x) = -0.05325 -0.02422
# Poissons Ratio (y) = -0.11746 -0.26495
# Poissons Ratio (z) = -0.02320 -0.11510
#
# Static dielectric constant tensor:
#      x y z
#    x 1.453740 0.000000 0.179330 
#    y 0.000000 1.910920 0.000000 
#    z 0.179330 0.000000 1.720130 
# 
# From -- ./inp_files/253218.got.cif
#   From: 2010.05.17/outbox.cif.g08.bks.cpg/sg12_127_cif.got.tgz:253218.got - 2010.06.03 13:09:07.
