data_PCOD9216390
_publ_section_title
;
Structure prediction by ZEFSAII (Michael W. Deem and Ramdas Pophale) SiO2 
 PCOD9216390
Probable space group: C 2/M
;
_chemical_formula_sum "Si O2"
_cell_formula_units_Z 32
_cell_length_a 14.734506
_cell_length_b 18.378582
_cell_length_c 14.851613
_cell_angle_alpha 90.000000
_cell_angle_beta 160.939120
_cell_angle_gamma 90.000000
_cell_volume 1313.412054
_symmetry_space_group_name_H-M "C 2/M"
_symmetry_group_IT_number 12
_symmetry_cell_setting 'monoclinic'
loop_
_space_group_symop_operation_xyz
x,y,z
-x,y,-z
-x,-y,-z
x,-y,z
1/2+x,1/2+y,z
1/2-x,1/2+y,-z
1/2-x,1/2-y,-z
1/2+x,1/2-y,z
loop_
_atom_site_type_symbol
_atom_site_label
_atom_site_fract_x
_atom_site_fract_y
_atom_site_fract_z
Si Si1 0.500000 0.000000 0.000000
Si Si2 0.127828 0.630031 0.742878
Si Si3 0.435107 0.412338 0.709679
Si Si4 0.259174 0.379521 0.344393
Si Si5 0.000000 0.248863 0.000000
Si Si6 0.500000 0.000000 0.500000
O O1 0.479670 0.063056 0.902322
O O2 0.799534 0.629693 0.452843
O O3 0.168785 0.563383 0.713747
O O4 0.273925 0.610143 0.974400
O O5 0.269029 0.700217 0.832573
O O6 0.390817 0.500000 0.678643
O O7 0.382633 0.388946 0.558532
O O8 0.500000 0.403151 0.500000
O O9 0.148976 0.301046 0.212488
#
# Coordination Sequence:
#
# PCOD9216390 Si02
#       6
#     2   8   8   8   4   2
#     4  10  22  44  74 106 146 200 258 316 358 474
#     4  12  28  47  79 111 157 199 256 322 383 461
#     4  12  26  48  77 120 150 194 265 328 378 448
#     4  11  27  47  79 110 157 210 256 311 397 462
#     4  11  30  50  72 113 158 216 250 311 402 470
#     4  12  24  50  82 108 152 204 260 310 390 458
#
# _framework density 24.364021000000001
#
# number of rings (size 3 to 8) (size 9 to 14) (size 15 to 20)
#    0.000    0.500    3.750    1.875   12.250    3.500 
#    0.000    0.000    0.000    0.000    0.000    0.000 
#    0.000    0.000    0.000    0.000    0.000    0.000 
#
# Total GULP energy -89183.344491 kJ/mol
# GULP energy per Si atom -5573.959031 kJ/mol
# Density = 2.430857 g / cm^3
# Si number density = 24.364021 Si / 1000 Ang^3
#
#
#
# Elastic Constant Matrix: (Units=GPa)
#
#
# Indices 1 2 3 4 5 6 
#
# 1 82.5053 26.6242 7.9364 -0.0018 -26.7672 -0.0006
# 2 26.6242 147.8020 11.3382 0.0001 -25.0316 -0.0005
# 3 7.9364 11.3382 74.1867 0.0022 -32.7215 -0.0006
# 4 -0.0018 0.0001 0.0022 40.4073 0.0025 -12.3514
# 5 -26.7672 -25.0316 -32.7215 0.0025 62.4055 -0.0002
# 6 -0.0006 -0.0005 -0.0006 -12.3514 -0.0002 7.8769
#
#
#
# Elastic Compliance Matrix: (Units=1/GPa)
#
#
# Indices 1 2 3 4 5 6 
#
# 1 0.014581 -0.001662 0.001507 0.000001 0.006378 0.000003
# 2 -0.001662 0.007451 0.000056 0.000000 0.002305 0.000000
# 3 0.001507 0.000056 0.017698 -0.000002 0.009948 -0.000001
# 4 0.000001 0.000000 -0.000002 0.047529 -0.000002 0.074529
# 5 0.006378 0.002305 0.009948 -0.000002 0.024901 -0.000002
# 6 0.000003 0.000000 -0.000001 0.074529 -0.000002 0.243819
#
#
# Mechanical properties :
#
#
# Convention : Reuss Voigt Hill
#
# Bulk Modulus (GPa) = 25.29616 44.03239 34.66428
# Shear Modulus (GPa) = 13.53715 39.37761 26.45738
#
# Velocity S-wave (km/s) = 2.35972 4.02458 3.29891
# Velocity P-wave (km/s) = 4.22250 6.30145 5.36367
#
# Compressibility (1/GPa) = 0.03953169
#
# Stress axis : x y z
#
# Youngs Moduli (GPa) = 68.58287 134.20444 56.50460
#
# Poissons Ratio (x) = 0.22305 -0.08516
# Poissons Ratio (y) = 0.11399 -0.00315
# Poissons Ratio (z) = -0.10337 -0.00748
#
# Static dielectric constant tensor:
#      x y z
#    x 1.995570 0.000000 0.028420 
#    y 0.000000 1.873130 0.000000 
#    z 0.028420 0.000000 2.034020 
# 
# From -- ./inp_files/217841.got.cif
#   From: 2010.05.17/outbox.cif.g08.bks.cpg/sg12_109_cif.got.tgz:217841.got - 2010.06.03 13:09:07.
