data_PCOD9216249
_publ_section_title
;
Structure prediction by ZEFSAII (Michael W. Deem and Ramdas Pophale) SiO2 
 PCOD9216249
Probable space group: C 2/M
;
_chemical_formula_sum "Si O2"
_cell_formula_units_Z 44
_cell_length_a 9.570578
_cell_length_b 24.000861
_cell_length_c 11.732256
_cell_angle_alpha 90.000000
_cell_angle_beta 54.788624
_cell_angle_gamma 90.000000
_cell_volume 2201.834909
_symmetry_space_group_name_H-M "C 2/M"
_symmetry_group_IT_number 12
_symmetry_cell_setting 'monoclinic'
loop_
_space_group_symop_operation_xyz
x,y,z
-x,y,-z
-x,-y,-z
x,-y,z
1/2+x,1/2+y,z
1/2-x,1/2+y,-z
1/2-x,1/2-y,-z
1/2+x,1/2-y,z
loop_
_atom_site_type_symbol
_atom_site_label
_atom_site_fract_x
_atom_site_fract_y
_atom_site_fract_z
Si Si1 0.531655 0.000000 0.625500
Si Si2 0.500000 0.785553 0.500000
Si Si3 0.333719 0.598385 0.019526
Si Si4 0.768532 0.289468 0.279821
Si Si5 0.140154 0.500000 0.033454
Si Si6 0.904394 0.785517 0.876453
Si Si7 0.476973 0.124024 0.311041
O O1 0.500000 0.000000 0.500000
O O2 0.421605 0.000000 0.802006
O O3 0.595018 0.935577 0.611096
O O4 0.339005 0.744386 0.576824
O O5 0.507617 0.827591 0.602481
O O6 0.253322 0.555108 0.969085
O O7 0.171213 0.614889 0.174728
O O8 0.500000 0.571537 0.000000
O O9 0.405046 0.654096 0.930556
O O10 0.639299 0.293334 0.235362
O O11 0.926034 0.248831 0.178009
O O12 0.851965 0.348103 0.276441
O O13 0.000000 0.500000 0.000000
O O14 0.750000 0.750000 0.000000
#
# Coordination Sequence:
#
# PCOD9216249 Si02
#       7
#     4   4   8   8   4   8   8
#     4  10  22  43  70  96 125 184 225 281 333 415
#     4  12  22  43  62  95 130 168 226 276 336 414
#     4  11  23  42  64  96 132 175 222 276 341 412
#     4  12  25  40  62  99 132 179 214 287 342 417
#     4  10  25  41  70 103 134 173 229 290 345 398
#     4  12  23  38  64  93 135 169 221 270 348 405
#     4  11  23  40  68  94 129 170 232 276 338 404
#
# _framework density 19.983332999999998
#
# number of rings (size 3 to 8) (size 9 to 14) (size 15 to 20)
#    0.000    0.727    4.545    3.545    5.091    0.000 
#    0.000    0.000    0.000    0.545    0.000    0.000 
#    0.000    0.000    0.000    0.000    0.000    0.000 
#
# Total GULP energy -122517.449537 kJ/mol
# GULP energy per Si atom -5568.974979 kJ/mol
# Density = 1.993785 g / cm^3
# Si number density = 19.983333 Si / 1000 Ang^3
#
#
#
# Elastic Constant Matrix: (Units=GPa)
#
#
# Indices 1 2 3 4 5 6 
#
# 1 82.2393 46.6202 9.5996 0.0000 6.9368 0.0000
# 2 46.6202 138.2627 28.3696 0.0000 2.1291 0.0000
# 3 9.5996 28.3696 49.6063 0.0000 -3.6243 0.0000
# 4 0.0000 0.0000 0.0000 19.8713 0.0000 18.4003
# 5 6.9368 2.1291 -3.6243 0.0000 39.0456 0.0000
# 6 0.0000 0.0000 0.0000 18.4003 0.0000 31.1020
#
#
#
# Elastic Compliance Matrix: (Units=1/GPa)
#
#
# Indices 1 2 3 4 5 6 
#
# 1 0.015263 -0.005059 -0.000240 0.000000 -0.002458 0.000000
# 2 -0.005059 0.009902 -0.004689 0.000000 -0.000076 0.000000
# 3 -0.000240 -0.004689 0.023065 0.000000 0.002439 0.000000
# 4 0.000000 0.000000 0.000000 0.111290 0.000000 -0.065840
# 5 -0.002458 -0.000076 0.002439 0.000000 0.026278 0.000000
# 6 0.000000 0.000000 0.000000 -0.065840 0.000000 0.071104
#
#
# Mechanical properties :
#
#
# Convention : Reuss Voigt Hill
#
# Bulk Modulus (GPa) = 35.39442 48.80970 42.10206
# Shear Modulus (GPa) = 17.46435 30.37171 23.91803
#
# Velocity S-wave (km/s) = 2.95946 3.90276 3.46338
# Velocity P-wave (km/s) = 5.42479 6.69230 6.09160
#
# Compressibility (1/GPa) = 0.02825304
#
# Stress axis : x y z
#
# Youngs Moduli (GPa) = 65.51757 100.99019 43.35537
#
# Poissons Ratio (x) = 0.51095 0.01040
# Poissons Ratio (y) = 0.33148 0.20331
# Poissons Ratio (z) = 0.01571 0.47358
#
# Static dielectric constant tensor:
#      x y z
#    x 1.757420 0.000000 0.059810 
#    y 0.000000 1.784030 0.000000 
#    z 0.059810 0.000000 1.774600 
# 
# From -- ./inp_files/122393.got.cif
#   From: 2010.05.17/outbox.cif.g08.bks.cpg/sg12_62_cif.got.tgz:122393.got - 2010.06.03 13:09:07.
