data_PCOD9216967
_publ_section_title
;
Structure prediction by ZEFSAII (Michael W. Deem and Ramdas Pophale) SiO2 
 PCOD9216967
Probable space group: C 2/M
;
_chemical_formula_sum "Si O2"
_cell_formula_units_Z 64
_cell_length_a 12.020806
_cell_length_b 27.959921
_cell_length_c 14.450475
_cell_angle_alpha 90.000000
_cell_angle_beta 140.497023
_cell_angle_gamma 90.000000
_cell_volume 3089.509599
_symmetry_space_group_name_H-M "C 2/M"
_symmetry_group_IT_number 12
_symmetry_cell_setting 'monoclinic'
loop_
_space_group_symop_operation_xyz
x,y,z
-x,y,-z
-x,-y,-z
x,-y,z
1/2+x,1/2+y,z
1/2-x,1/2+y,-z
1/2-x,1/2-y,-z
1/2+x,1/2-y,z
loop_
_atom_site_type_symbol
_atom_site_label
_atom_site_fract_x
_atom_site_fract_y
_atom_site_fract_z
Si Si1 0.335135 0.800877 0.069540
Si Si2 0.734662 0.199909 0.287293
Si Si3 0.634827 0.804758 0.689828
Si Si4 0.600064 0.556489 0.326680
Si Si5 0.984843 0.556645 0.601411
Si Si6 0.107139 0.854433 0.782424
Si Si7 0.666710 0.397122 0.173726
Si Si8 0.248827 0.807219 0.490240
O O1 0.526516 0.797251 0.148923
O O2 0.346373 0.804826 0.186658
O O3 0.250000 0.750000 0.000000
O O4 0.222153 0.841190 0.945577
O O5 0.819558 0.252538 0.322519
O O6 0.800596 0.165678 0.249229
O O7 0.767269 0.179234 0.411303
O O8 0.772896 0.845325 0.751330
O O9 0.428717 0.818939 0.551025
O O10 0.576217 0.500000 0.323241
O O11 0.784882 0.570999 0.494218
O O12 0.444570 0.590356 0.259347
O O13 0.621821 0.569001 0.231781
O O14 0.999774 0.500000 0.627206
O O15 0.000000 0.564266 0.500000
O O16 0.151335 0.582561 0.752803
O O17 0.924314 0.825726 0.669316
O O18 0.500000 0.394562 0.000000
O O19 0.250000 0.750000 0.500000
#
# Coordination Sequence:
#
# PCOD9216967 Si02
#       8
#     8   8   8   8   8   8   8   8
#     4  11  23  40  58  86 126 170 207 247 304 378
#     4  11  24  40  60  85 125 169 204 251 310 375
#     4  11  24  37  57  86 131 168 207 245 307 382
#     4  10  23  41  62  89 123 164 215 264 315 371
#     4   8  16  35  54  74 110 156 199 250 313 365
#     4  12  22  39  64  89 123 166 209 261 308 364
#     4  11  22  33  56  92 125 163 207 259 312 376
#     4  11  23  41  57  90 125 163 205 259 310 366
#
# _framework density 20.715261000000002
#
# number of rings (size 3 to 8) (size 9 to 14) (size 15 to 20)
#    0.000    1.375    2.500    4.125    5.250    1.000 
#    0.000    0.000    0.000    3.000    0.000    3.500 
#    0.000    0.000    0.000    0.000    0.000    0.000 
#
# Total GULP energy -178858.289072 kJ/mol
# GULP energy per Si atom -5589.321533 kJ/mol
# Density = 2.066811 g / cm^3
# Si number density = 20.715261 Si / 1000 Ang^3
#
#
#
# Elastic Constant Matrix: (Units=GPa)
#
#
# Indices 1 2 3 4 5 6 
#
# 1 108.6889 37.2762 50.7152 0.0000 12.9038 0.0000
# 2 37.2762 96.5919 28.9776 0.0000 14.1520 0.0000
# 3 50.7152 28.9776 133.9021 0.0000 25.5413 0.0000
# 4 0.0000 0.0000 0.0000 26.9303 0.0000 10.2334
# 5 12.9038 14.1520 25.5413 0.0000 25.7626 0.0000
# 6 0.0000 0.0000 0.0000 10.2334 0.0000 27.1234
#
#
#
# Elastic Compliance Matrix: (Units=1/GPa)
#
#
# Indices 1 2 3 4 5 6 
#
# 1 0.012226 -0.003518 -0.003786 0.000000 -0.000438 0.000000
# 2 -0.003518 0.012538 -0.000497 0.000000 -0.004632 0.000000
# 3 -0.003786 -0.000497 0.010600 0.000000 -0.008340 0.000000
# 4 0.000000 0.000000 0.000000 0.043348 0.000000 -0.016355
# 5 -0.000438 -0.004632 -0.008340 0.000000 0.049848 0.000000
# 6 0.000000 0.000000 0.000000 -0.016355 0.000000 0.043039
#
#
# Mechanical properties :
#
#
# Convention : Reuss Voigt Hill
#
# Bulk Modulus (GPa) = 50.60136 63.68007 57.14072
# Shear Modulus (GPa) = 25.80130 30.77753 28.28942
#
# Velocity S-wave (km/s) = 3.53302 3.85871 3.69945
# Velocity P-wave (km/s) = 6.41273 7.11760 6.77434
#
# Compressibility (1/GPa) = 0.01976231
#
# Stress axis : x y z
#
# Youngs Moduli (GPa) = 81.79614 79.75459 94.33657
#
# Poissons Ratio (x) = 0.28059 0.35711
# Poissons Ratio (y) = 0.28777 0.04691
# Poissons Ratio (z) = 0.30964 0.03966
#
# Static dielectric constant tensor:
#      x y z
#    x 2.419520 0.000000 -1.047000 
#    y 0.000000 1.741160 0.000000 
#    z -1.047000 0.000000 3.485960 
# 
# From -- ./inp_files/209890.got.cif
#   From: 2010.05.17/outbox.cif.g08.bks.cpg/sg12_105_cif.got.tgz:209890.got - 2010.06.03 13:09:07.
