data_PCOD9216688
_publ_section_title
;
Structure prediction by ZEFSAII (Michael W. Deem and Ramdas Pophale) SiO2 
 PCOD9216688
Probable space group: C 2/M
;
_chemical_formula_sum "Si O2"
_cell_formula_units_Z 32
_cell_length_a 11.114533
_cell_length_b 8.244022
_cell_length_c 25.350195
_cell_angle_alpha 90.000000
_cell_angle_beta 39.996964
_cell_angle_gamma 90.000000
_cell_volume 1492.972252
_symmetry_space_group_name_H-M "C 2/M"
_symmetry_group_IT_number 12
_symmetry_cell_setting 'monoclinic'
loop_
_space_group_symop_operation_xyz
x,y,z
-x,y,-z
-x,-y,-z
x,-y,z
1/2+x,1/2+y,z
1/2-x,1/2+y,-z
1/2-x,1/2-y,-z
1/2+x,1/2-y,z
loop_
_atom_site_type_symbol
_atom_site_label
_atom_site_fract_x
_atom_site_fract_y
_atom_site_fract_z
Si Si1 0.356994 0.000000 0.630955
Si Si2 0.675279 0.305055 0.179919
Si Si3 0.524978 0.183795 0.651018
Si Si4 0.422317 0.194507 0.905991
Si Si5 0.230396 0.000000 0.559951
O O1 0.345195 0.151406 0.673845
O O2 0.234545 0.000000 0.621858
O O3 0.566199 0.000000 0.534562
O O4 0.668293 0.500000 0.185241
O O5 0.537446 0.230473 0.270036
O O6 0.618050 0.255788 0.139955
O O7 0.883575 0.253435 0.130263
O O8 0.632210 0.327176 0.584817
O O9 0.612797 0.000000 0.623351
O O10 0.428064 0.000000 0.901704
O O11 0.250000 0.250000 0.000000
#
# Coordination Sequence:
#
# PCOD9216688 Si02
#       5
#     4   8   8   8   4
#     4   9  24  40  65  95 124 172 220 258 335 395
#     4  11  24  42  65  93 133 173 213 273 329 384
#     4  10  23  39  63  95 125 169 216 263 324 388
#     4  11  25  43  66  96 128 170 219 268 328 392
#     4  11  20  46  63  89 136 166 210 282 319 383
#
# _framework density 21.433755000000001
#
# number of rings (size 3 to 8) (size 9 to 14) (size 15 to 20)
#    0.750    0.750    1.250    3.000    3.500    7.000 
#    2.250    1.250    0.000    0.000    0.000    0.000 
#    0.000    0.000    0.000    0.000    0.000    0.000 
#
# Total GULP energy -89101.325572 kJ/mol
# GULP energy per Si atom -5568.832848 kJ/mol
# Density = 2.138497 g / cm^3
# Si number density = 21.433755 Si / 1000 Ang^3
#
#
#
# Elastic Constant Matrix: (Units=GPa)
#
#
# Indices 1 2 3 4 5 6 
#
# 1 121.2527 29.3741 35.5761 0.0000 24.7527 0.0000
# 2 29.3741 111.2271 29.8375 -0.0001 -6.7028 0.0000
# 3 35.5761 29.8375 98.6233 0.0000 15.0392 0.0000
# 4 0.0000 -0.0001 0.0000 216.6965 0.0000 11.4180
# 5 24.7527 -6.7028 15.0392 0.0000 46.0334 0.0000
# 6 0.0000 0.0000 0.0000 11.4180 0.0000 32.8895
#
#
#
# Elastic Compliance Matrix: (Units=1/GPa)
#
#
# Indices 1 2 3 4 5 6 
#
# 1 0.010607 -0.002519 -0.002251 0.000000 -0.005335 0.000000
# 2 -0.002519 0.010668 -0.002907 0.000000 0.003858 0.000000
# 3 -0.002251 -0.002907 0.012325 0.000000 -0.003240 0.000000
# 4 0.000000 0.000000 0.000000 0.004701 0.000000 -0.001632
# 5 -0.005335 0.003858 -0.003240 0.000000 0.026212 0.000000
# 6 0.000000 0.000000 0.000000 -0.001632 0.000000 0.030971
#
#
# Mechanical properties :
#
#
# Convention : Reuss Voigt Hill
#
# Bulk Modulus (GPa) = 54.80440 57.85319 56.32879
# Shear Modulus (GPa) = 42.76429 74.87822 58.82126
#
# Velocity S-wave (km/s) = 4.47159 5.91697 5.24432
# Velocity P-wave (km/s) = 7.23083 8.58667 7.93775
#
# Compressibility (1/GPa) = 0.01824671
#
# Stress axis : x y z
#
# Youngs Moduli (GPa) = 94.27842 93.73669 81.13590
#
# Poissons Ratio (x) = 0.23612 0.18260
# Poissons Ratio (y) = 0.23748 0.23587
# Poissons Ratio (z) = 0.21218 0.27251
#
# Static dielectric constant tensor:
#      x y z
#    x 1.858790 0.000000 -0.026770 
#    y 0.000000 1.647700 0.000000 
#    z -0.026770 0.000000 1.765270 
# 
# From -- ./inp_files/334571.got.cif
#   From: 2010.05.17/outbox.cif.g08.bks.cpg/sg12_168_cif.got.tgz:334571.got - 2010.06.03 13:09:07.
