data_PCOD9216873
_publ_section_title
;
Structure prediction by ZEFSAII (Michael W. Deem and Ramdas Pophale) SiO2 
 PCOD9216873
Probable space group: C 2/M
;
_chemical_formula_sum "Si O2"
_cell_formula_units_Z 38
_cell_length_a 7.092954
_cell_length_b 21.857682
_cell_length_c 10.990320
_cell_angle_alpha 90.000000
_cell_angle_beta 92.713013
_cell_angle_gamma 90.000000
_cell_volume 1701.980314
_symmetry_space_group_name_H-M "C 2/M"
_symmetry_group_IT_number 12
_symmetry_cell_setting 'monoclinic'
loop_
_space_group_symop_operation_xyz
x,y,z
-x,y,-z
-x,-y,-z
x,-y,z
1/2+x,1/2+y,z
1/2-x,1/2+y,-z
1/2-x,1/2-y,-z
1/2+x,1/2-y,z
loop_
_atom_site_type_symbol
_atom_site_label
_atom_site_fract_x
_atom_site_fract_y
_atom_site_fract_z
Si Si1 0.000000 0.617747 0.500000
Si Si2 0.000000 0.000000 0.000000
Si Si3 0.324853 0.325458 0.211537
Si Si4 0.140464 0.066829 0.618127
Si Si5 0.894795 0.685512 0.269946
Si Si6 0.721972 0.883157 0.966399
O O1 0.850499 0.577725 0.571063
O O2 0.875367 0.660349 0.405996
O O3 0.837537 0.054150 0.973185
O O4 0.416056 0.380468 0.290156
O O5 0.384170 0.258199 0.253446
O O6 0.108318 0.330366 0.244644
O O7 0.317611 0.338396 0.068805
O O8 0.000000 0.067428 0.500000
O O9 0.131046 0.000000 0.679070
O O10 0.774792 0.650626 0.163974
O O11 0.500000 0.891746 0.000000
#
# Coordination Sequence:
#
# PCOD9216873 Si02
#       6
#     4   2   8   8   8   8
#     4  10  23  42  64  94 127 172 218 266 316 391
#     4  12  26  40  76  96 126 178 206 260 324 404
#     4  10  23  40  68  93 133 167 216 272 320 383
#     4  10  23  41  63  92 128 174 212 268 323 379
#     4  10  23  41  67  95 129 174 212 273 324 373
#     4  10  24  46  63 101 133 165 215 271 321 381
#
# _framework density 22.326934000000001
#
# number of rings (size 3 to 8) (size 9 to 14) (size 15 to 20)
#    0.000    1.895    0.000    1.263    8.842    1.684 
#   17.053    0.000    0.000    0.000    0.000    0.000 
#    0.000    0.000    0.000    0.000    0.000    0.000 
#
# Total GULP energy -105906.321047 kJ/mol
# GULP energy per Si atom -5574.016897 kJ/mol
# Density = 2.227612 g / cm^3
# Si number density = 22.326934 Si / 1000 Ang^3
#
#
#
# Elastic Constant Matrix: (Units=GPa)
#
#
# Indices 1 2 3 4 5 6 
#
# 1 76.5366 35.4057 19.1153 0.0000 -0.2639 0.0000
# 2 35.4057 180.6186 61.6326 0.0000 20.7762 0.0000
# 3 19.1153 61.6326 99.1199 0.0000 22.9897 0.0000
# 4 0.0000 0.0000 0.0000 20.3527 0.0000 10.8364
# 5 -0.2639 20.7762 22.9897 0.0000 30.4585 0.0000
# 6 0.0000 0.0000 0.0000 10.8364 0.0000 45.4978
#
#
#
# Elastic Compliance Matrix: (Units=1/GPa)
#
#
# Indices 1 2 3 4 5 6 
#
# 1 0.014788 -0.002601 -0.002032 0.000000 0.003436 0.000000
# 2 -0.002601 0.007569 -0.003639 0.000000 -0.002439 0.000000
# 3 -0.002032 -0.003639 0.014755 0.000000 -0.008672 0.000000
# 4 0.000000 0.000000 0.000000 0.056269 0.000000 -0.013402
# 5 0.003436 -0.002439 -0.008672 0.000000 0.041070 0.000000
# 6 0.000000 0.000000 0.000000 -0.013402 0.000000 0.025171
#
#
# Mechanical properties :
#
#
# Convention : Reuss Voigt Hill
#
# Bulk Modulus (GPa) = 48.61770 65.39802 57.00786
# Shear Modulus (GPa) = 27.31937 35.26990 31.29464
#
# Velocity S-wave (km/s) = 3.50180 3.97886 3.74793
# Velocity P-wave (km/s) = 6.17841 7.10374 6.65717
#
# Compressibility (1/GPa) = 0.02056864
#
# Stress axis : x y z
#
# Youngs Moduli (GPa) = 67.62245 132.12526 67.77517
#
# Poissons Ratio (x) = 0.34363 0.13769
# Poissons Ratio (y) = 0.17587 0.24663
# Poissons Ratio (z) = 0.13738 0.48080
#
# Static dielectric constant tensor:
#      x y z
#    x 1.874700 0.000000 -0.006510 
#    y 0.000000 1.876140 0.000000 
#    z -0.006510 0.000000 1.882560 
# 
# From -- ./inp_files/119183.got.cif
#   From: 2010.05.17/outbox.cif.g08.bks.cpg/sg12_60_cif.got.tgz:119183.got - 2010.06.03 13:09:07.
