data_PCOD9216410
_publ_section_title
;
Structure prediction by ZEFSAII (Michael W. Deem and Ramdas Pophale) SiO2 
 PCOD9216410
Probable space group: C 2/M
;
_chemical_formula_sum "Si O2"
_cell_formula_units_Z 34
_cell_length_a 9.811446
_cell_length_b 30.563364
_cell_length_c 7.211918
_cell_angle_alpha 90.000000
_cell_angle_beta 134.947205
_cell_angle_gamma 90.000000
_cell_volume 1530.628391
_symmetry_space_group_name_H-M "C 2/M"
_symmetry_group_IT_number 12
_symmetry_cell_setting 'monoclinic'
loop_
_space_group_symop_operation_xyz
x,y,z
-x,y,-z
-x,-y,-z
x,-y,z
1/2+x,1/2+y,z
1/2-x,1/2+y,-z
1/2-x,1/2-y,-z
1/2+x,1/2-y,z
loop_
_atom_site_type_symbol
_atom_site_label
_atom_site_fract_x
_atom_site_fract_y
_atom_site_fract_z
Si Si1 0.465680 0.418809 0.189112
Si Si2 0.848940 0.796542 0.099279
Si Si3 0.000000 0.000000 0.500000
Si Si4 0.397399 0.130496 0.223142
Si Si5 0.210043 0.166218 0.545276
O O1 0.509976 0.461592 0.347947
O O2 0.596761 0.378791 0.389565
O O3 0.500000 0.423060 0.000000
O O4 0.240942 0.404986 0.003102
O O5 0.802258 0.818437 0.254091
O O6 0.080454 0.797147 0.314454
O O7 0.750000 0.750000 0.000000
O O8 0.750538 0.830675 0.864049
O O9 0.500000 0.110047 0.500000
O O10 0.570166 0.155331 0.287014
#
# Coordination Sequence:
#
# PCOD9216410 Si02
#       5
#     8   8   2   8   8
#     4  11  23  47  73 101 139 181 230 287 357 427
#     4  10  23  39  62  99 136 178 231 292 349 392
#     4  12  26  44  76 108 140 178 222 292 366 430
#     4  11  22  41  69  93 128 187 233 278 346 415
#     4  10  22  45  67  92 137 185 233 280 342 422
#
# _framework density 22.213099
#
# number of rings (size 3 to 8) (size 9 to 14) (size 15 to 20)
#    0.000    1.412    2.353    3.882    3.294    0.941 
#    4.235    2.941    0.000    0.000    0.000    0.000 
#    0.000    0.000    0.000    0.000    0.000    0.000 
#
# Total GULP energy -94647.135843 kJ/mol
# GULP energy per Si atom -5567.478579 kJ/mol
# Density = 2.216254 g / cm^3
# Si number density = 22.213099 Si / 1000 Ang^3
#
#
#
# Elastic Constant Matrix: (Units=GPa)
#
#
# Indices 1 2 3 4 5 6 
#
# 1 118.1593 14.7912 43.3648 0.0000 2.0975 0.0000
# 2 14.7912 146.0365 52.4595 0.0000 -13.2181 0.0000
# 3 43.3648 52.4595 129.2139 0.0000 10.4906 0.0000
# 4 0.0000 0.0000 0.0000 6.6421 0.0000 -14.1471
# 5 2.0975 -13.2181 10.4906 0.0000 48.6308 0.0000
# 6 0.0000 0.0000 0.0000 -14.1471 0.0000 14.1371
#
#
#
# Elastic Compliance Matrix: (Units=1/GPa)
#
#
# Indices 1 2 3 4 5 6 
#
# 1 0.009665 0.000272 -0.003386 0.000000 0.000387 0.000000
# 2 0.000272 0.008458 -0.003777 0.000000 0.003102 0.000000
# 3 -0.003386 -0.003777 0.010667 0.000000 -0.003182 0.000000
# 4 0.000000 0.000000 0.000000 -0.133066 0.000000 -0.133160
# 5 0.000387 0.003102 -0.003182 0.000000 0.022076 0.000000
# 6 0.000000 0.000000 0.000000 -0.133160 0.000000 -0.062519
#
#
# Mechanical properties :
#
#
# Convention : Reuss Voigt Hill
#
# Bulk Modulus (GPa) = 66.62660 68.29343 67.46002
# Shear Modulus (GPa) = -39.70265 32.73494 -3.48385
#
# Velocity S-wave (km/s) = -4.23230 3.84302 -1.25371
# Velocity P-wave (km/s) = 2.48521 7.10655 5.32350
#
# Compressibility (1/GPa) = 0.01500902
#
# Stress axis : x y z
#
# Youngs Moduli (GPa) = 103.46951 118.23806 93.74706
#
# Poissons Ratio (x) = -0.03220 0.31739
# Poissons Ratio (y) = -0.02818 0.35407
# Poissons Ratio (z) = 0.35030 0.44657
#
# Static dielectric constant tensor:
#      x y z
#    x 1.960220 0.000000 -0.043680 
#    y 0.000000 1.734680 0.000000 
#    z -0.043680 0.000000 1.911340 
# 
# From -- ./inp_files/52936.got.cif
#   From: 2010.05.17/outbox.cif.g08.bks.cpg/sg12_27_cif.got.tgz:52936.got - 2010.06.03 13:09:07.
