data_PCOD9216086
_publ_section_title
;
Structure prediction by ZEFSAII (Michael W. Deem and Ramdas Pophale) SiO2 
 PCOD9216086
Probable space group: C 2/M
;
_chemical_formula_sum "Si O2"
_cell_formula_units_Z 42
_cell_length_a 5.487451
_cell_length_b 14.256553
_cell_length_c 23.687952
_cell_angle_alpha 90.000000
_cell_angle_beta 78.034713
_cell_angle_gamma 90.000000
_cell_volume 1812.896210
_symmetry_space_group_name_H-M "C 2/M"
_symmetry_group_IT_number 12
_symmetry_cell_setting 'monoclinic'
loop_
_space_group_symop_operation_xyz
x,y,z
-x,y,-z
-x,-y,-z
x,-y,z
1/2+x,1/2+y,z
1/2-x,1/2+y,-z
1/2-x,1/2-y,-z
1/2+x,1/2-y,z
loop_
_atom_site_type_symbol
_atom_site_label
_atom_site_fract_x
_atom_site_fract_y
_atom_site_fract_z
Si Si1 0.265273 0.841603 0.538866
Si Si2 0.048544 0.000000 0.885588
Si Si3 0.683981 0.157298 0.333554
Si Si4 0.612424 0.000000 0.814055
Si Si5 0.500000 0.500000 0.500000
Si Si6 0.945132 0.205857 0.068520
Si Si7 0.224413 0.865336 0.289381
O O1 0.500000 0.895886 0.500000
O O2 0.250000 0.750000 0.500000
O O3 0.320457 0.815540 0.600368
O O4 0.043251 0.915317 0.544790
O O5 0.808464 0.000000 0.856020
O O6 0.320494 0.000000 0.842900
O O7 0.039696 0.095400 0.921563
O O8 0.429473 0.109176 0.326789
O O9 0.701501 0.252631 0.295979
O O10 0.940359 0.103155 0.311645
O O11 0.674356 0.090776 0.772822
O O12 0.666515 0.244049 0.092762
O O13 0.000000 0.225581 0.000000
#
# Coordination Sequence:
#
# PCOD9216086 Si02
#       7
#     8   4   8   4   2   8   8
#     4  12  25  46  71 104 139 171 215 285 350 447
#     4  12  25  46  69 113 147 198 232 318 360 409
#     4  10  23  44  69  93 126 179 227 269 366 417
#     4  12  26  44  66 101 146 172 255 300 358 413
#     4  12  30  40  68 104 136 170 208 260 362 410
#     4  10  22  44  73 111 153 201 250 290 353 433
#     4  10  22  43  64  94 123 179 227 289 334 419
#
# _framework density 23.167348
#
# number of rings (size 3 to 8) (size 9 to 14) (size 15 to 20)
#    0.000    1.143    0.952    5.143    2.667    1.524 
#   20.571    3.810    0.000    0.000    0.000    0.000 
#    0.000    0.000    0.000    0.000    0.000    0.000 
#
# Total GULP energy -117033.816102 kJ/mol
# GULP energy per Si atom -5573.038862 kJ/mol
# Density = 2.311462 g / cm^3
# Si number density = 23.167348 Si / 1000 Ang^3
#
#
#
# Elastic Constant Matrix: (Units=GPa)
#
#
# Indices 1 2 3 4 5 6 
#
# 1 154.5211 27.8954 13.7045 0.0000 20.0135 0.0000
# 2 27.8954 135.5333 -27.5237 0.0000 18.6334 0.0000
# 3 13.7045 -27.5237 -13.0987 0.0000 4.0359 0.0000
# 4 0.0000 0.0000 0.0000 -384.2480 0.0000 124.0666
# 5 20.0135 18.6334 4.0359 0.0000 20.1929 0.0000
# 6 0.0000 0.0000 0.0000 124.0666 0.0000 -31.3013
#
#
#
# Elastic Compliance Matrix: (Units=1/GPa)
#
#
# Indices 1 2 3 4 5 6 
#
# 1 0.007110 0.000467 0.003913 0.000000 -0.008260 0.000000
# 2 0.000467 0.005334 -0.011661 0.000000 -0.003054 0.000000
# 3 0.003913 -0.011661 -0.042980 0.000000 0.015472 0.000000
# 4 0.000000 0.000000 0.000000 0.009302 0.000000 0.036869
# 5 -0.008260 -0.003054 0.015472 0.000000 0.057435 0.000000
# 6 0.000000 0.000000 0.000000 0.036869 0.000000 0.114188
#
#
# Mechanical properties :
#
#
# Convention : Reuss Voigt Hill
#
# Bulk Modulus (GPa) = -22.17413 33.90091 5.86339
# Shear Modulus (GPa) = 33.35157 -61.54598 -14.09720
#
# Velocity S-wave (km/s) = 3.79831 -5.15980 -2.46944
# Velocity P-wave (km/s) = 3.10551 4.56434 2.36527
#
# Compressibility (1/GPa) = -0.04509759
#
# Stress axis : x y z
#
# Youngs Moduli (GPa) = 140.64534 187.47511 -23.26666
#
# Poissons Ratio (x) = -0.08752 0.09104
# Poissons Ratio (y) = -0.06566 -0.27131
# Poissons Ratio (z) = -0.55035 2.18610
#
# Static dielectric constant tensor:
#      x y z
#    x 2.125830 0.000000 -0.014390 
#    y 0.000000 1.860210 0.000000 
#    z -0.014390 0.000000 1.846800 
# 
# From -- ./inp_files/330877.got.cif
#   From: 2010.05.17/outbox.cif.g08.bks.cpg/sg12_166_cif.got.tgz:330877.got - 2010.06.03 13:09:07.
