data_PCOD9216731
_publ_section_title
;
Structure prediction by ZEFSAII (Michael W. Deem and Ramdas Pophale) SiO2 
 PCOD9216731
Probable space group: C 2/M
;
_chemical_formula_sum "Si O2"
_cell_formula_units_Z 48
_cell_length_a 14.976803
_cell_length_b 8.437547
_cell_length_c 19.004893
_cell_angle_alpha 90.000000
_cell_angle_beta 84.509662
_cell_angle_gamma 90.000000
_cell_volume 2390.582712
_symmetry_space_group_name_H-M "C 2/M"
_symmetry_group_IT_number 12
_symmetry_cell_setting 'monoclinic'
loop_
_space_group_symop_operation_xyz
x,y,z
-x,y,-z
-x,-y,-z
x,-y,z
1/2+x,1/2+y,z
1/2-x,1/2+y,-z
1/2-x,1/2-y,-z
1/2+x,1/2-y,z
loop_
_atom_site_type_symbol
_atom_site_label
_atom_site_fract_x
_atom_site_fract_y
_atom_site_fract_z
Si Si1 0.689300 0.685581 0.332970
Si Si2 0.894269 0.316109 0.521917
Si Si3 0.636068 0.685966 0.623520
Si Si4 0.979733 0.191205 0.736257
Si Si5 0.512213 0.808850 0.888884
Si Si6 0.148981 0.691248 0.996657
O O1 0.709830 0.500000 0.321836
O O2 0.638621 0.710341 0.411203
O O3 0.779972 0.783463 0.332423
O O4 0.620403 0.740129 0.278124
O O5 0.877131 0.500000 0.540969
O O6 0.848838 0.273537 0.451270
O O7 0.000000 0.293687 0.500000
O O8 0.625770 0.500000 0.609256
O O9 0.548124 0.746732 0.670538
O O10 0.009552 0.248153 0.810056
O O11 0.981788 0.000000 0.734661
O O12 0.421353 0.759267 0.936964
O O13 0.512860 0.000000 0.888274
O O14 0.598761 0.757830 0.928248
O O15 0.151375 0.500000 0.996378
O O16 0.250000 0.750000 0.000000
#
# Coordination Sequence:
#
# PCOD9216731 Si02
#       6
#     8   8   8   8   8   8
#     4  11  23  40  59  82 113 150 191 238 289 341
#     4  11  22  37  60  86 110 144 192 241 289 343
#     4  11  23  40  59  82 113 150 191 238 289 341
#     4  10  23  40  58  82 116 152 189 232 282 336
#     4   9  20  38  59  83 117 152 186 227 276 332
#     4   9  19  37  60  88 116 149 187 227 274 328
#
# _framework density 20.078786000000001
#
# number of rings (size 3 to 8) (size 9 to 14) (size 15 to 20)
#    0.000    1.833    1.667    3.000    0.000    6.000 
#    0.000    8.333    0.000    0.000    0.000    0.000 
#    0.000    0.000    0.000    0.000    0.000    0.000 
#
# Total GULP energy -134067.004298 kJ/mol
# GULP energy per Si atom -5586.125179 kJ/mol
# Density = 2.003309 g / cm^3
# Si number density = 20.078786 Si / 1000 Ang^3
#
#
#
# Elastic Constant Matrix: (Units=GPa)
#
#
# Indices 1 2 3 4 5 6 
#
# 1 103.6810 2.1337 18.7026 0.0000 23.1804 0.0000
# 2 2.1337 8.3545 -8.2797 0.0000 0.8959 0.0000
# 3 18.7026 -8.2797 77.8625 0.0000 22.0412 0.0000
# 4 0.0000 0.0000 0.0000 29.0688 0.0000 -0.2104
# 5 23.1804 0.8959 22.0412 0.0000 21.7806 0.0000
# 6 0.0000 0.0000 0.0000 -0.2104 0.0000 28.4147
#
#
#
# Elastic Compliance Matrix: (Units=1/GPa)
#
#
# Indices 1 2 3 4 5 6 
#
# 1 0.012726 -0.000737 0.000967 0.000000 -0.014492 0.000000
# 2 -0.000737 0.147129 0.024264 0.000000 -0.029822 0.000000
# 3 0.000967 0.024264 0.022094 0.000000 -0.024386 0.000000
# 4 0.000000 0.000000 0.000000 0.034403 0.000000 0.000255
# 5 -0.014492 -0.029822 -0.024386 0.000000 0.087241 0.000000
# 6 0.000000 0.000000 0.000000 0.000255 0.000000 0.035195
#
#
# Mechanical properties :
#
#
# Convention : Reuss Voigt Hill
#
# Bulk Modulus (GPa) = 4.33017 23.89014 14.11015
# Shear Modulus (GPa) = 13.63221 27.67557 20.65389
#
# Velocity S-wave (km/s) = 2.60847 3.71664 3.21073
# Velocity P-wave (km/s) = 3.35163 5.50835 4.55935
#
# Compressibility (1/GPa) = 0.23093775
#
# Stress axis : x y z
#
# Youngs Moduli (GPa) = 78.58089 6.79676 45.26061
#
# Poissons Ratio (x) = 0.00501 -0.04378
# Poissons Ratio (y) = 0.05794 -1.09822
# Poissons Ratio (z) = -0.07601 -0.16492
#
# Static dielectric constant tensor:
#      x y z
#    x 1.741530 0.000000 0.010280 
#    y 0.000000 1.686090 0.000000 
#    z 0.010280 0.000000 1.687360 
# 
# From -- ./inp_files/267688.got.cif
#   From: 2010.05.17/outbox.cif.g08.bks.cpg/sg12_134_cif.got.tgz:267688.got - 2010.06.03 13:09:07.
