data_PCOD9216898
_publ_section_title
;
Structure prediction by ZEFSAII (Michael W. Deem and Ramdas Pophale) SiO2 
 PCOD9216898
Probable space group: C 2/M
;
_chemical_formula_sum "Si O2"
_cell_formula_units_Z 64
_cell_length_a 22.375832
_cell_length_b 8.323811
_cell_length_c 24.749406
_cell_angle_alpha 90.000000
_cell_angle_beta 132.461473
_cell_angle_gamma 90.000000
_cell_volume 3400.669943
_symmetry_space_group_name_H-M "C 2/M"
_symmetry_group_IT_number 12
_symmetry_cell_setting 'monoclinic'
loop_
_space_group_symop_operation_xyz
x,y,z
-x,y,-z
-x,-y,-z
x,-y,z
1/2+x,1/2+y,z
1/2-x,1/2+y,-z
1/2-x,1/2-y,-z
1/2+x,1/2-y,z
loop_
_atom_site_type_symbol
_atom_site_label
_atom_site_fract_x
_atom_site_fract_y
_atom_site_fract_z
Si Si1 0.899325 0.188421 0.291609
Si Si2 0.801181 0.183807 0.080724
Si Si3 0.341917 0.805986 0.547682
Si Si4 0.472777 0.191986 0.714531
Si Si5 0.260676 0.683798 0.850721
Si Si6 0.038226 0.688584 0.863592
Si Si7 0.070642 0.814496 0.999868
Si Si8 0.023781 0.308554 0.454981
O O1 0.949319 0.230041 0.267322
O O2 0.804721 0.234801 0.228556
O O3 0.948669 0.277333 0.368813
O O4 0.905388 0.000000 0.304467
O O5 0.784636 0.301631 0.119820
O O6 0.891863 0.198309 0.116350
O O7 0.780336 0.000000 0.082370
O O8 0.750000 0.250000 0.000000
O O9 0.250000 0.750000 0.500000
O O10 0.395309 0.756172 0.632477
O O11 0.395061 0.749505 0.527633
O O12 0.340975 0.000000 0.544944
O O13 0.468118 0.218435 0.776290
O O14 0.481965 0.000000 0.712254
O O15 0.272360 0.500000 0.840537
O O16 0.348936 0.753103 0.921128
O O17 0.059975 0.500000 0.871624
O O18 0.036986 0.726725 0.926183
O O19 0.090885 0.000000 0.996781
O O20 0.000000 0.816878 0.000000
O O21 0.034797 0.500000 0.467328
O O22 0.000000 0.243863 0.500000
#
# Coordination Sequence:
#
# PCOD9216898 Si02
#       8
#     8   8   8   8   8   8   8   8
#     4  11  21  32  53  85 116 141 176 227 281 332
#     4  12  22  32  50  81 112 137 172 219 273 328
#     4   9  18  34  56  83 113 147 185 227 278 339
#     4   9  19  35  54  78 111 145 180 220 275 335
#     4  11  21  35  55  77 108 143 178 224 277 330
#     4  11  21  34  56  80 106 141 179 225 279 331
#     4  10  23  41  57  73 101 145 192 236 278 326
#     4   9  19  38  61  82 111 152 193 230 279 342
#
# _framework density 18.81982
#
# number of rings (size 3 to 8) (size 9 to 14) (size 15 to 20)
#    0.000    1.750    2.500    3.750    0.000    3.500 
#    0.000    1.250    0.000    4.500    0.000    0.000 
#    0.000    0.000    0.000    0.000    0.000    0.000 
#
# Total GULP energy -178192.531130 kJ/mol
# GULP energy per Si atom -5568.516598 kJ/mol
# Density = 1.877699 g / cm^3
# Si number density = 18.819820 Si / 1000 Ang^3
#
#
#
# Elastic Constant Matrix: (Units=GPa)
#
#
# Indices 1 2 3 4 5 6 
#
# 1 86.1561 8.3118 62.6008 0.0000 3.9024 0.0000
# 2 8.3118 25.4356 3.2000 0.0000 5.5047 0.0000
# 3 62.6008 3.2000 116.0959 0.0000 6.4063 0.0000
# 4 0.0000 0.0000 0.0000 -3.6507 0.0000 6.0549
# 5 3.9024 5.5047 6.4063 0.0000 19.8428 0.0000
# 6 0.0000 0.0000 0.0000 6.0549 0.0000 17.5177
#
#
#
# Elastic Compliance Matrix: (Units=1/GPa)
#
#
# Indices 1 2 3 4 5 6 
#
# 1 0.019747 -0.005343 -0.010556 0.000000 0.001007 0.000000
# 2 -0.005343 0.043303 0.002334 0.000000 -0.011716 0.000000
# 3 -0.010556 0.002334 0.014419 0.000000 -0.003227 0.000000
# 4 0.000000 0.000000 0.000000 -0.174107 0.000000 0.060179
# 5 0.001007 -0.011716 -0.003227 0.000000 0.054490 0.000000
# 6 0.000000 0.000000 0.000000 0.060179 0.000000 0.036284
#
#
# Mechanical properties :
#
#
# Convention : Reuss Voigt Hill
#
# Bulk Modulus (GPa) = 19.86536 41.76809 30.81673
# Shear Modulus (GPa) = 131.42407 16.98030 74.20218
#
# Velocity S-wave (km/s) = 8.36567 3.00702 6.28596
# Velocity P-wave (km/s) = 10.19269 5.85645 8.31231
#
# Compressibility (1/GPa) = 0.05033887
#
# Stress axis : x y z
#
# Youngs Moduli (GPa) = 50.64166 23.09322 69.35180
#
# Poissons Ratio (x) = 0.12338 0.73208
# Poissons Ratio (y) = 0.27056 -0.16185
# Poissons Ratio (z) = 0.53457 -0.05389
#
# Static dielectric constant tensor:
#      x y z
#    x 1.653780 0.000000 0.004950 
#    y 0.000000 1.668980 0.000000 
#    z 0.004950 0.000000 1.696410 
# 
# From -- ./inp_files/346290.got.cif
#   From: 2010.05.17/outbox.cif.g08.bks.cpg/sg12_174_cif.got.tgz:346290.got - 2010.06.03 13:09:07.
