data_PCOD9216755
_publ_section_title
;
Structure prediction by ZEFSAII (Michael W. Deem and Ramdas Pophale) SiO2 
 PCOD9216755
Probable space group: C 2/M
;
_chemical_formula_sum "Si O2"
_cell_formula_units_Z 48
_cell_length_a 10.025148
_cell_length_b 25.266624
_cell_length_c 12.977696
_cell_angle_alpha 90.000000
_cell_angle_beta 142.919644
_cell_angle_gamma 90.000000
_cell_volume 1982.009542
_symmetry_space_group_name_H-M "C 2/M"
_symmetry_group_IT_number 12
_symmetry_cell_setting 'monoclinic'
loop_
_space_group_symop_operation_xyz
x,y,z
-x,y,-z
-x,-y,-z
x,-y,z
1/2+x,1/2+y,z
1/2-x,1/2+y,-z
1/2-x,1/2-y,-z
1/2+x,1/2-y,z
loop_
_atom_site_type_symbol
_atom_site_label
_atom_site_fract_x
_atom_site_fract_y
_atom_site_fract_z
Si Si1 0.352089 0.861594 0.606144
Si Si2 0.242249 0.785897 0.846726
Si Si3 0.254151 0.556735 0.297861
Si Si4 0.817431 0.253462 0.674079
Si Si5 0.332265 0.354014 0.807320
Si Si6 0.059916 0.899033 0.777384
O O1 0.357293 0.891485 0.720090
O O2 0.274631 0.799630 0.561723
O O3 0.593180 0.866396 0.705588
O O4 0.165288 0.891549 0.426954
O O5 0.193637 0.780079 0.695349
O O6 0.197010 0.844452 0.857982
O O7 0.083881 0.748318 0.816055
O O8 0.500000 0.774728 0.000000
O O9 0.500000 0.555880 0.500000
O O10 0.147485 0.500000 0.257401
O O11 0.292380 0.561831 0.198856
O O12 0.786928 0.192448 0.694287
O O13 0.463282 0.401978 0.832399
O O14 0.500000 0.335556 0.000000
#
# Coordination Sequence:
#
# PCOD9216755 Si02
#       6
#     8   8   8   8   8   8
#     4  11  22  40  61  91 126 154 201 255 305 351
#     4  11  22  34  54  82 123 164 204 236 286 353
#     4   9  19  39  68  94 116 149 196 251 311 368
#     4  11  22  35  57  83 120 163 205 239 281 353
#     4  11  25  40  60  87 125 173 206 235 291 364
#     4  10  23  40  61  91 122 156 202 256 303 345
#
# _framework density 24.217846999999999
#
# number of rings (size 3 to 8) (size 9 to 14) (size 15 to 20)
#    0.000    1.500    3.333    1.500    4.667    2.667 
#    6.000    0.833    0.000    9.500    0.000    0.000 
#    0.000    0.000    0.000    0.000    0.000    0.000 
#
# Total GULP energy -133659.857989 kJ/mol
# GULP energy per Si atom -5569.160750 kJ/mol
# Density = 2.416273 g / cm^3
# Si number density = 24.217847 Si / 1000 Ang^3
#
#
#
# Elastic Constant Matrix: (Units=GPa)
#
#
# Indices 1 2 3 4 5 6 
#
# 1 160.4426 35.1502 34.3999 0.0000 35.0059 0.0000
# 2 35.1502 73.3222 -0.9100 0.0000 9.2179 0.0000
# 3 34.3999 -0.9100 79.9053 0.0000 21.2343 0.0000
# 4 0.0000 0.0000 0.0000 4.4754 0.0000 1.4411
# 5 35.0059 9.2179 21.2343 0.0000 47.6509 0.0000
# 6 0.0000 0.0000 0.0000 1.4411 0.0000 22.4554
#
#
#
# Elastic Compliance Matrix: (Units=1/GPa)
#
#
# Indices 1 2 3 4 5 6 
#
# 1 0.008525 -0.003559 -0.002529 0.000000 -0.004447 0.000000
# 2 -0.003559 0.015534 0.002056 0.000000 -0.001307 0.000000
# 3 -0.002529 0.002056 0.015017 0.000000 -0.005232 0.000000
# 4 0.000000 0.000000 0.000000 0.228156 0.000000 -0.014642
# 5 -0.004447 -0.001307 -0.005232 0.000000 0.026838 0.000000
# 6 0.000000 0.000000 0.000000 -0.014642 0.000000 0.045472
#
#
# Mechanical properties :
#
#
# Convention : Reuss Voigt Hill
#
# Bulk Modulus (GPa) = 32.24361 50.10559 41.17460
# Shear Modulus (GPa) = 13.96868 31.25168 22.61018
#
# Velocity S-wave (km/s) = 2.40426 3.59617 3.05883
# Velocity P-wave (km/s) = 4.58804 6.16260 5.43267
#
# Compressibility (1/GPa) = 0.03101390
#
# Stress axis : x y z
#
# Youngs Moduli (GPa) = 117.30165 64.37295 66.58990
#
# Poissons Ratio (x) = 0.22911 0.16839
# Poissons Ratio (y) = 0.41749 -0.13694
# Poissons Ratio (z) = 0.29663 -0.13238
#
# Static dielectric constant tensor:
#      x y z
#    x 2.079080 0.000000 -0.345940 
#    y 0.000000 1.931760 0.000000 
#    z -0.345940 0.000000 2.623040 
# 
# From -- ./inp_files/200219.got.cif
#   From: 2010.05.17/outbox.cif.g08.bks.cpg/sg12_101_cif.got.tgz:200219.got - 2010.06.03 13:09:07.
