data_PCOD9216561
_publ_section_title
;
Structure prediction by ZEFSAII (Michael W. Deem and Ramdas Pophale) SiO2 
 PCOD9216561
Probable space group: C 2/M
;
_chemical_formula_sum "Si O2"
_cell_formula_units_Z 48
_cell_length_a 15.519004
_cell_length_b 32.743196
_cell_length_c 8.601577
_cell_angle_alpha 90.000000
_cell_angle_beta 37.149358
_cell_angle_gamma 90.000000
_cell_volume 2639.516130
_symmetry_space_group_name_H-M "C 2/M"
_symmetry_group_IT_number 12
_symmetry_cell_setting 'monoclinic'
loop_
_space_group_symop_operation_xyz
x,y,z
-x,y,-z
-x,-y,-z
x,-y,z
1/2+x,1/2+y,z
1/2-x,1/2+y,-z
1/2-x,1/2-y,-z
1/2+x,1/2-y,z
loop_
_atom_site_type_symbol
_atom_site_label
_atom_site_fract_x
_atom_site_fract_y
_atom_site_fract_z
Si Si1 0.691714 0.384238 0.597725
Si Si2 0.078665 0.452243 0.720082
Si Si3 0.136299 0.327410 0.877824
Si Si4 0.094796 0.388925 0.217744
Si Si5 0.380763 0.634809 0.947077
Si Si6 0.648744 0.283702 0.219532
O O1 0.771970 0.427563 0.496801
O O2 0.798135 0.356690 0.345858
O O3 0.539635 0.383933 0.727571
O O4 0.667561 0.364806 0.802959
O O5 0.098412 0.500000 0.660869
O O6 0.975287 0.430193 0.745255
O O7 0.000000 0.447646 0.000000
O O8 0.261970 0.300331 0.763272
O O9 0.087333 0.355676 0.091943
O O10 0.000000 0.305307 0.000000
O O11 0.000000 0.375035 0.500000
O O12 0.259684 0.391281 0.032269
O O13 0.380345 0.678585 0.858818
O O14 0.500000 0.267529 0.500000
O O15 0.750000 0.250000 0.000000
#
# Coordination Sequence:
#
# PCOD9216561 Si02
#       6
#     8   8   8   8   8   8
#     4  11  19  41  62  88 119 160 217 243 301 372
#     4  11  22  38  60  89 126 162 202 260 311 357
#     4  11  20  38  66  89 116 165 210 247 302 373
#     4  11  19  35  59  91 118 156 211 247 301 366
#     4  10  23  37  66  87 117 163 207 254 297 369
#     4  11  25  44  61  95 131 162 199 264 321 364
#
# _framework density 18.185151999999999
#
# number of rings (size 3 to 8) (size 9 to 14) (size 15 to 20)
#    0.000    1.167    6.667    0.000    0.000    4.333 
#    3.000    4.167    0.000    2.000    0.000    0.000 
#    0.000    0.000    0.000    0.000    0.000    0.000 
#
# Total GULP energy -133881.935149 kJ/mol
# GULP energy per Si atom -5578.413965 kJ/mol
# Density = 1.814376 g / cm^3
# Si number density = 18.185152 Si / 1000 Ang^3
#
#
#
# Elastic Constant Matrix: (Units=GPa)
#
#
# Indices 1 2 3 4 5 6 
#
# 1 130.1662 30.1279 43.1741 0.0000 -39.8269 0.0000
# 2 30.1279 61.5273 32.3770 0.0000 -24.0951 0.0000
# 3 43.1741 32.3770 111.3259 0.0000 -16.7396 0.0000
# 4 0.0000 0.0000 0.0000 15.7270 0.0000 -16.7620
# 5 -39.8269 -24.0951 -16.7396 0.0000 38.1923 0.0000
# 6 0.0000 0.0000 0.0000 -16.7620 0.0000 -6.3763
#
#
#
# Elastic Compliance Matrix: (Units=1/GPa)
#
#
# Indices 1 2 3 4 5 6 
#
# 1 0.012155 0.000115 -0.003030 0.000000 0.011420 0.000000
# 2 0.000115 0.023954 -0.005054 0.000000 0.013017 0.000000
# 3 -0.003030 -0.005054 0.011426 0.000000 -0.001340 0.000000
# 4 0.000000 0.000000 0.000000 0.016725 0.000000 -0.043967
# 5 0.011420 0.013017 -0.001340 0.000000 0.045716 0.000000
# 6 0.000000 0.000000 0.000000 -0.043967 0.000000 -0.041252
#
#
# Mechanical properties :
#
#
# Convention : Reuss Voigt Hill
#
# Bulk Modulus (GPa) = 31.64916 57.15306 44.40111
# Shear Modulus (GPa) = 52.52397 22.66463 37.59430
#
# Velocity S-wave (km/s) = 5.38011 3.53416 4.55170
# Velocity P-wave (km/s) = 7.48570 6.93905 7.21755
#
# Compressibility (1/GPa) = 0.03159641
#
# Stress axis : x y z
#
# Youngs Moduli (GPa) = 82.27046 41.74721 87.51940
#
# Poissons Ratio (x) = -0.00479 0.26520
# Poissons Ratio (y) = -0.00944 0.44229
# Poissons Ratio (z) = 0.24929 0.21098
#
# Static dielectric constant tensor:
#      x y z
#    x 1.703110 0.000000 0.003800 
#    y 0.000000 1.618680 0.000000 
#    z 0.003800 0.000000 1.650270 
# 
# From -- ./inp_files/68039.got.cif
#   From: 2010.05.17/outbox.cif.g08.bks.cpg/sg12_35_cif.got.tgz:68039.got - 2010.06.03 13:09:07.
