data_PCOD9216708
_publ_section_title
;
Structure prediction by ZEFSAII (Michael W. Deem and Ramdas Pophale) SiO2 
 PCOD9216708
Probable space group: C 2/M
;
_chemical_formula_sum "Si O2"
_cell_formula_units_Z 40
_cell_length_a 16.115852
_cell_length_b 26.929766
_cell_length_c 9.199346
_cell_angle_alpha 90.000000
_cell_angle_beta 149.560221
_cell_angle_gamma 90.000000
_cell_volume 2022.720231
_symmetry_space_group_name_H-M "C 2/M"
_symmetry_group_IT_number 12
_symmetry_cell_setting 'monoclinic'
loop_
_space_group_symop_operation_xyz
x,y,z
-x,y,-z
-x,-y,-z
x,-y,z
1/2+x,1/2+y,z
1/2-x,1/2+y,-z
1/2-x,1/2-y,-z
1/2+x,1/2-y,z
loop_
_atom_site_type_symbol
_atom_site_label
_atom_site_fract_x
_atom_site_fract_y
_atom_site_fract_z
Si Si1 0.832668 0.942178 0.828784
Si Si2 0.108506 0.789219 0.808063
Si Si3 0.576557 0.775623 0.265439
Si Si4 0.483593 0.876518 0.650642
Si Si5 0.161284 0.902923 0.842955
O O1 0.672702 0.910268 0.546318
O O2 0.807728 0.000000 0.755208
O O3 0.847130 0.936387 0.025818
O O4 0.000000 0.925716 0.000000
O O5 0.154117 0.846172 0.888301
O O6 0.000000 0.785148 0.500000
O O7 0.023209 0.770696 0.823279
O O8 0.250000 0.750000 0.000000
O O9 0.750000 0.750000 0.500000
O O10 0.553818 0.821710 0.341858
O O11 0.500000 0.793953 0.000000
O O12 0.500000 0.873755 0.500000
O O13 0.658430 0.901660 0.961102
O O14 0.000000 0.911513 0.500000
#
# Coordination Sequence:
#
# PCOD9216708 Si02
#       5
#     8   8   8   8   8
#     4  10  24  45  70  95 124 160 208 269 329 375
#     4  11  22  39  60  84 129 171 213 244 306 367
#     4  12  27  36  57  93 128 170 210 261 306 369
#     4  10  23  43  65  89 126 169 217 255 311 377
#     4  10  23  39  67  93 126 169 209 264 304 378
#
# _framework density 19.775348999999999
#
# number of rings (size 3 to 8) (size 9 to 14) (size 15 to 20)
#    0.000    1.400    2.000    1.800   14.000    4.000 
#    0.000    0.000    0.000    3.000    0.000    0.000 
#    0.000    0.000    0.000    0.000    0.000    0.000 
#
# Total GULP energy -111560.263390 kJ/mol
# GULP energy per Si atom -5578.013170 kJ/mol
# Density = 1.973034 g / cm^3
# Si number density = 19.775349 Si / 1000 Ang^3
#
#
#
# Elastic Constant Matrix: (Units=GPa)
#
#
# Indices 1 2 3 4 5 6 
#
# 1 84.5726 23.2573 31.6216 0.0000 38.2561 0.0000
# 2 23.2573 62.2752 31.7425 0.0000 11.6072 0.0000
# 3 31.6216 31.7425 111.5024 0.0000 36.0089 0.0000
# 4 0.0000 0.0000 0.0000 26.8558 0.0000 6.9785
# 5 38.2561 11.6072 36.0089 0.0000 39.2730 0.0000
# 6 0.0000 0.0000 0.0000 6.9785 0.0000 33.0756
#
#
#
# Elastic Compliance Matrix: (Units=1/GPa)
#
#
# Indices 1 2 3 4 5 6 
#
# 1 0.022709 -0.005501 0.002478 0.000000 -0.022768 0.000000
# 2 -0.005501 0.020139 -0.005656 0.000000 0.004592 0.000000
# 3 0.002478 -0.005656 0.014371 0.000000 -0.013919 0.000000
# 4 0.000000 0.000000 0.000000 0.039396 0.000000 -0.008312
# 5 -0.022768 0.004592 -0.013919 0.000000 0.059046 0.000000
# 6 0.000000 0.000000 0.000000 -0.008312 0.000000 0.031988
#
#
# Mechanical properties :
#
#
# Convention : Reuss Voigt Hill
#
# Bulk Modulus (GPa) = 25.08647 47.95475 36.52061
# Shear Modulus (GPa) = 22.90504 31.28945 27.09725
#
# Velocity S-wave (km/s) = 3.40702 3.98206 3.70571
# Velocity P-wave (km/s) = 5.30945 6.74128 6.06775
#
# Compressibility (1/GPa) = 0.03986212
#
# Stress axis : x y z
#
# Youngs Moduli (GPa) = 44.03526 49.65444 69.58559
#
# Poissons Ratio (x) = 0.27313 -0.17246
# Poissons Ratio (y) = 0.24222 0.39360
# Poissons Ratio (z) = -0.10914 0.28086
#
# Static dielectric constant tensor:
#      x y z
#    x 1.752530 0.000000 0.047730 
#    y 0.000000 1.670040 0.000000 
#    z 0.047730 0.000000 1.849410 
# 
# From -- ./inp_files/68460.got.cif
#   From: 2010.05.17/outbox.cif.g08.bks.cpg/sg12_35_cif.got.tgz:68460.got - 2010.06.03 13:09:07.
