data_PCOD9216164
_publ_section_title
;
Structure prediction by ZEFSAII (Michael W. Deem and Ramdas Pophale) SiO2 
 PCOD9216164
Probable space group: C 2/M
;
_chemical_formula_sum "Si O2"
_cell_formula_units_Z 36
_cell_length_a 14.997739
_cell_length_b 11.107493
_cell_length_c 9.472291
_cell_angle_alpha 90.000000
_cell_angle_beta 107.346897
_cell_angle_gamma 90.000000
_cell_volume 1506.192822
_symmetry_space_group_name_H-M "C 2/M"
_symmetry_group_IT_number 12
_symmetry_cell_setting 'monoclinic'
loop_
_space_group_symop_operation_xyz
x,y,z
-x,y,-z
-x,-y,-z
x,-y,z
1/2+x,1/2+y,z
1/2-x,1/2+y,-z
1/2-x,1/2-y,-z
1/2+x,1/2-y,z
loop_
_atom_site_type_symbol
_atom_site_label
_atom_site_fract_x
_atom_site_fract_y
_atom_site_fract_z
Si Si1 0.847133 0.721218 0.362699
Si Si2 0.656152 0.000000 0.037537
Si Si3 0.500000 0.813462 0.000000
Si Si4 0.714294 0.500000 0.656718
Si Si5 0.403087 0.500000 0.657764
Si Si6 0.732192 0.500000 0.183190
Si Si7 0.457304 0.754671 0.672820
O O1 0.776421 0.623684 0.266410
O O2 0.867359 0.702591 0.540618
O O3 0.947511 0.690582 0.340631
O O4 0.823028 0.862688 0.320872
O O5 0.586939 0.110588 0.981052
O O6 0.743069 0.000000 0.971424
O O7 0.687754 0.000000 0.215327
O O8 0.544076 0.756766 0.159949
O O9 0.691934 0.500000 0.479954
O O10 0.372573 0.500000 0.806358
O O11 0.460487 0.614377 0.640054
#
# Coordination Sequence:
#
# PCOD9216164 Si02
#       7
#     8   4   4   4   4   4   8
#     4  10  23  43  70  98 132 176 222 271 327 394
#     4  11  26  42  61  95 137 172 219 278 336 385
#     4  11  24  41  64  94 128 181 220 271 330 395
#     4  10  24  44  69  94 137 178 213 268 344 396
#     4  10  25  41  69 101 132 175 219 273 332 395
#     4  12  25  41  64 108 131 165 228 280 330 373
#     4  10  22  43  67  94 135 175 222 263 329 404
#
# _framework density 23.901320999999999
#
# number of rings (size 3 to 8) (size 9 to 14) (size 15 to 20)
#    0.000    1.556    2.222    0.667    6.222   10.222 
#    0.000    0.000    0.000    0.000    0.000    0.000 
#    0.000    0.000    0.000    0.000    0.000    0.000 
#
# Total GULP energy -100289.854813 kJ/mol
# GULP energy per Si atom -5571.658601 kJ/mol
# Density = 2.384692 g / cm^3
# Si number density = 23.901321 Si / 1000 Ang^3
#
#
#
# Elastic Constant Matrix: (Units=GPa)
#
#
# Indices 1 2 3 4 5 6 
#
# 1 51.4260 -1.9929 -5.7978 0.0000 -4.6122 0.0000
# 2 -1.9929 84.7514 28.9007 0.0000 4.1525 0.0000
# 3 -5.7978 28.9007 127.6423 0.0000 -5.1109 0.0000
# 4 0.0000 0.0000 0.0000 18.7104 0.0000 9.3130
# 5 -4.6122 4.1525 -5.1109 0.0000 34.0820 0.0000
# 6 0.0000 0.0000 0.0000 9.3130 0.0000 25.5342
#
#
#
# Elastic Compliance Matrix: (Units=1/GPa)
#
#
# Indices 1 2 3 4 5 6 
#
# 1 0.019814 -0.000020 0.001018 0.000000 0.002836 0.000000
# 2 -0.000020 0.012924 -0.003008 0.000000 -0.002029 0.000000
# 3 0.001018 -0.003008 0.008634 0.000000 0.001799 0.000000
# 4 0.000000 0.000000 0.000000 0.065301 0.000000 -0.023817
# 5 0.002836 -0.002029 0.001799 0.000000 0.030242 0.000000
# 6 0.000000 0.000000 0.000000 -0.023817 0.000000 0.047850
#
#
# Mechanical properties :
#
#
# Convention : Reuss Voigt Hill
#
# Bulk Modulus (GPa) = 26.77329 34.00442 30.38886
# Shear Modulus (GPa) = 24.84647 31.84595 28.34621
#
# Velocity S-wave (km/s) = 3.22769 3.65416 3.44753
# Velocity P-wave (km/s) = 5.01165 5.66230 5.34688
#
# Compressibility (1/GPa) = 0.03735065
#
# Stress axis : x y z
#
# Youngs Moduli (GPa) = 50.46983 77.37532 115.82340
#
# Poissons Ratio (x) = 0.00157 -0.11793
# Poissons Ratio (y) = 0.00102 0.34844
# Poissons Ratio (z) = -0.05139 0.23278
#
# Static dielectric constant tensor:
#      x y z
#    x 1.890240 0.000000 -0.027010 
#    y 0.000000 1.903860 0.000000 
#    z -0.027010 0.000000 1.940610 
# 
# From -- ./inp_files/70997.got.cif
#   From: 2010.05.17/outbox.cif.g08.bks.cpg/sg12_36_cif.got.tgz:70997.got - 2010.06.03 13:09:07.
