data_PCOD9216855
_publ_section_title
;
Structure prediction by ZEFSAII (Michael W. Deem and Ramdas Pophale) SiO2 
 PCOD9216855
Probable space group: C 2/M
;
_chemical_formula_sum "Si O2"
_cell_formula_units_Z 44
_cell_length_a 18.218043
_cell_length_b 15.860791
_cell_length_c 23.777125
_cell_angle_alpha 90.000000
_cell_angle_beta 18.857406
_cell_angle_gamma 90.000000
_cell_volume 2220.629347
_symmetry_space_group_name_H-M "C 2/M"
_symmetry_group_IT_number 12
_symmetry_cell_setting 'monoclinic'
loop_
_space_group_symop_operation_xyz
x,y,z
-x,y,-z
-x,-y,-z
x,-y,z
1/2+x,1/2+y,z
1/2-x,1/2+y,-z
1/2-x,1/2-y,-z
1/2+x,1/2-y,z
loop_
_atom_site_type_symbol
_atom_site_label
_atom_site_fract_x
_atom_site_fract_y
_atom_site_fract_z
Si Si1 0.416862 0.000000 0.496225
Si Si2 0.947889 0.321740 0.418542
Si Si3 0.483779 0.230618 0.755529
Si Si4 0.629597 0.347017 0.346888
Si Si5 0.218255 0.000000 0.203394
Si Si6 0.111308 0.000000 0.149454
Si Si7 0.920270 0.657959 0.914745
O O1 0.500000 0.000000 0.500000
O O2 0.495874 0.087139 0.409809
O O3 0.143327 0.000000 0.688555
O O4 0.676688 0.302716 0.614038
O O5 0.020421 0.314623 0.301069
O O6 0.059925 0.244234 0.372249
O O7 0.543683 0.174883 0.766195
O O8 0.238333 0.266559 0.948799
O O9 0.500000 0.362763 0.500000
O O10 0.613025 0.418755 0.311497
O O11 0.892469 0.353370 0.173839
O O12 0.131062 0.000000 0.202817
O O13 0.500000 0.000000 0.000000
O O14 0.252404 0.919241 0.027817
#
# Coordination Sequence:
#
# PCOD9216855 Si02
#       7
#     4   8   8   8   4   4   8
#     4  12  28  45  70  99 140 192 240 279 333 410
#     4  11  24  44  67  98 136 180 234 284 337 405
#     4  10  23  40  66  98 127 180 229 278 346 399
#     4  12  24  41  66 102 143 173 221 286 356 414
#     4  12  25  40  68 108 139 172 221 280 360 421
#     4  12  24  43  67 100 138 177 227 282 343 418
#     4  11  22  41  68  97 135 175 221 284 350 409
#
# _framework density 19.814202999999999
#
# number of rings (size 3 to 8) (size 9 to 14) (size 15 to 20)
#    0.000    0.727    5.455    1.909    2.545    0.727 
#    0.000    0.000    0.000    3.273    0.000    0.000 
#    0.000    0.000    0.000    0.000    0.000    0.000 
#
# Total GULP energy -122853.640184 kJ/mol
# GULP energy per Si atom -5584.256372 kJ/mol
# Density = 1.976911 g / cm^3
# Si number density = 19.814203 Si / 1000 Ang^3
#
#
#
# Elastic Constant Matrix: (Units=GPa)
#
#
# Indices 1 2 3 4 5 6 
#
# 1 125.7506 49.3277 38.3604 0.0373 26.0861 -0.0702
# 2 49.3277 133.5702 24.6363 -0.0162 23.0336 -0.0174
# 3 38.3604 24.6363 65.3753 -0.1748 8.7844 0.0501
# 4 0.0373 -0.0162 -0.1748 20.8958 0.0027 0.8464
# 5 26.0861 23.0336 8.7844 0.0027 45.4875 0.0325
# 6 -0.0702 -0.0174 0.0501 0.8464 0.0325 27.0577
#
#
#
# Elastic Compliance Matrix: (Units=1/GPa)
#
#
# Indices 1 2 3 4 5 6 
#
# 1 0.011403 -0.002523 -0.005167 -0.000067 -0.004264 0.000045
# 2 -0.002523 0.009216 -0.001602 -0.000002 -0.002911 0.000006
# 3 -0.005167 -0.001602 0.018916 0.000168 0.000121 -0.000055
# 4 -0.000067 -0.000002 0.000168 0.047919 0.000005 -0.001499
# 5 -0.004264 -0.002911 0.000121 0.000005 0.025880 -0.000044
# 6 0.000045 0.000006 -0.000055 -0.001499 -0.000044 0.037005
#
#
# Mechanical properties :
#
#
# Convention : Reuss Voigt Hill
#
# Bulk Modulus (GPa) = 47.72993 61.03831 54.38412
# Shear Modulus (GPa) = 28.42444 32.84634 30.63539
#
# Velocity S-wave (km/s) = 3.79165 4.07592 3.93636
# Velocity P-wave (km/s) = 6.58102 7.28169 6.94021
#
# Compressibility (1/GPa) = 0.02095121
#
# Stress axis : x y z
#
# Youngs Moduli (GPa) = 87.69866 108.51138 52.86499
#
# Poissons Ratio (x) = 0.27373 0.27318
# Poissons Ratio (y) = 0.22123 0.08467
# Poissons Ratio (z) = 0.45318 0.17379
#
# Static dielectric constant tensor:
#      x y z
#    x 1.702640 -0.000020 -0.011690 
#    y -0.000020 1.728760 0.000040 
#    z -0.011690 0.000040 1.707180 
# 
# From -- ./inp_files/343941.got.cif
#   From: 2010.05.17/outbox.cif.g08.bks.cpg/sg12_172_cif.got.tgz:343941.got - 2010.06.03 13:09:07.
