data_PCOD9216056
_publ_section_title
;
Structure prediction by ZEFSAII (Michael W. Deem and Ramdas Pophale) SiO2 
 PCOD9216056
Probable space group: C 2/M
;
_chemical_formula_sum "Si O2"
_cell_formula_units_Z 44
_cell_length_a 10.572361
_cell_length_b 23.336487
_cell_length_c 11.419248
_cell_angle_alpha 90.000000
_cell_angle_beta 41.152153
_cell_angle_gamma 90.000000
_cell_volume 1854.005653
_symmetry_space_group_name_H-M "C 2/M"
_symmetry_group_IT_number 12
_symmetry_cell_setting 'monoclinic'
loop_
_space_group_symop_operation_xyz
x,y,z
-x,y,-z
-x,-y,-z
x,-y,z
1/2+x,1/2+y,z
1/2-x,1/2+y,-z
1/2-x,1/2-y,-z
1/2+x,1/2-y,z
loop_
_atom_site_type_symbol
_atom_site_label
_atom_site_fract_x
_atom_site_fract_y
_atom_site_fract_z
Si Si1 0.726821 0.565516 0.323988
Si Si2 0.336446 0.380965 0.872564
Si Si3 0.038882 0.657805 0.726759
Si Si4 0.534012 0.270075 0.114826
Si Si5 0.631098 0.435480 0.801090
Si Si6 0.500000 0.857889 0.500000
O O1 0.500000 0.562351 0.500000
O O2 0.802525 0.500000 0.264170
O O3 0.755738 0.603798 0.187155
O O4 0.818627 0.604265 0.361221
O O5 0.478725 0.326693 0.796052
O O6 0.475340 0.433558 0.806127
O O7 0.160665 0.368327 0.083213
O O8 0.090856 0.714619 0.763540
O O9 0.018851 0.676591 0.606625
O O10 0.500000 0.280990 0.000000
O O11 0.750000 0.250000 0.000000
O O12 0.692376 0.500000 0.784667
O O13 0.815336 0.397705 0.649018
O O14 0.500000 0.413885 0.000000
#
# Coordination Sequence:
#
# PCOD9216056 Si02
#       6
#     8   8   8   8   8   4
#     4  11  25  46  68 100 146 189 239 303 365 438
#     4  11  22  43  73 100 135 185 238 289 365 432
#     4  11  24  43  69 104 138 186 240 297 363 425
#     4  10  22  42  73 103 143 189 239 304 365 439
#     4  11  23  41  65  97 137 181 229 285 357 424
#     4  12  25  44  66 104 142 180 243 298 350 432
#
# _framework density 23.732396999999999
#
# number of rings (size 3 to 8) (size 9 to 14) (size 15 to 20)
#    0.000    1.091    1.818    5.182    2.545    5.091 
#    1.636    1.818    0.000    0.000    0.000    0.000 
#    0.000    0.000    0.000    0.000    0.000    0.000 
#
# Total GULP energy -122886.017450 kJ/mol
# GULP energy per Si atom -5585.728066 kJ/mol
# Density = 2.367838 g / cm^3
# Si number density = 23.732397 Si / 1000 Ang^3
#
#
#
# Elastic Constant Matrix: (Units=GPa)
#
#
# Indices 1 2 3 4 5 6 
#
# 1 77.2410 26.9753 4.7341 0.0000 20.7781 0.0000
# 2 26.9753 148.6353 17.5537 0.0000 8.9478 0.0000
# 3 4.7341 17.5537 73.1118 0.0000 8.0709 0.0000
# 4 0.0000 0.0000 0.0000 33.9616 0.0000 36.1375
# 5 20.7781 8.9478 8.0709 0.0000 52.7747 0.0000
# 6 0.0000 0.0000 0.0000 36.1375 0.0000 131.6712
#
#
#
# Elastic Compliance Matrix: (Units=1/GPa)
#
#
# Indices 1 2 3 4 5 6 
#
# 1 0.015312 -0.002466 0.000224 0.000000 -0.005645 0.000000
# 2 -0.002466 0.007367 -0.001605 0.000000 -0.000033 0.000000
# 3 0.000224 -0.001605 0.014269 0.000000 -0.001998 0.000000
# 4 0.000000 0.000000 0.000000 0.041591 0.000000 -0.011415
# 5 -0.005645 -0.000033 -0.001998 0.000000 0.021482 0.000000
# 6 0.000000 0.000000 0.000000 -0.011415 0.000000 0.010727
#
#
# Mechanical properties :
#
#
# Convention : Reuss Voigt Hill
#
# Bulk Modulus (GPa) = 34.18384 44.16826 39.17605
# Shear Modulus (GPa) = 39.00299 60.32984 49.66641
#
# Velocity S-wave (km/s) = 4.05835 5.04738 4.57964
# Velocity P-wave (km/s) = 6.03286 7.25393 6.67139
#
# Compressibility (1/GPa) = 0.02925359
#
# Stress axis : x y z
#
# Youngs Moduli (GPa) = 65.30688 135.74188 70.08087
#
# Poissons Ratio (x) = 0.33468 -0.01567
# Poissons Ratio (y) = 0.16102 0.11251
# Poissons Ratio (z) = -0.01460 0.21793
#
# Static dielectric constant tensor:
#      x y z
#    x 2.052770 0.000000 0.038700 
#    y 0.000000 1.965100 0.000000 
#    z 0.038700 0.000000 1.927080 
# 
# From -- ./inp_files/135753.got.cif
#   From: 2010.05.17/outbox.cif.g08.bks.cpg/sg12_68_cif.got.tgz:135753.got - 2010.06.03 13:09:07.
