data_PCOD9216523
_publ_section_title
;
Structure prediction by ZEFSAII (Michael W. Deem and Ramdas Pophale) SiO2 
 PCOD9216523
Probable space group: C 2/M
;
_chemical_formula_sum "Si O2"
_cell_formula_units_Z 48
_cell_length_a 10.709801
_cell_length_b 15.966520
_cell_length_c 27.364714
_cell_angle_alpha 90.000000
_cell_angle_beta 32.572612
_cell_angle_gamma 90.000000
_cell_volume 2519.195315
_symmetry_space_group_name_H-M "C 2/M"
_symmetry_group_IT_number 12
_symmetry_cell_setting 'monoclinic'
loop_
_space_group_symop_operation_xyz
x,y,z
-x,y,-z
-x,-y,-z
x,-y,z
1/2+x,1/2+y,z
1/2-x,1/2+y,-z
1/2-x,1/2-y,-z
1/2+x,1/2-y,z
loop_
_atom_site_type_symbol
_atom_site_label
_atom_site_fract_x
_atom_site_fract_y
_atom_site_fract_z
Si Si1 0.169939 0.825968 0.160089
Si Si2 0.884418 0.500000 0.836040
Si Si3 0.168007 0.333734 0.002128
Si Si4 0.322050 0.098124 0.691973
Si Si5 0.998604 0.266275 0.559002
Si Si6 0.655563 0.500000 0.014023
Si Si7 0.957448 0.340507 0.277324
O O1 0.407668 0.856017 0.106238
O O2 0.087361 0.741094 0.213066
O O3 0.953703 0.886750 0.222991
O O4 0.273518 0.811288 0.072686
O O5 0.843684 0.500000 0.907786
O O6 0.003766 0.418165 0.772493
O O7 0.613464 0.500000 0.911102
O O8 0.310566 0.416038 0.967031
O O9 0.250000 0.250000 0.000000
O O10 0.417395 0.151366 0.614968
O O11 0.430395 0.134876 0.706949
O O12 0.376210 0.000000 0.672419
O O13 0.809784 0.191461 0.630166
O O14 0.000000 0.278635 0.500000
O O15 0.250000 0.250000 0.500000
#
# Coordination Sequence:
#
# PCOD9216523 Si02
#       7
#     8   4   8   8   8   4   8
#     4  10  23  36  61  88 129 175 229 269 339 391
#     4  11  22  40  61  98 127 175 229 279 331 392
#     4  11  22  38  56  87 129 180 229 279 333 400
#     4  11  23  41  69  99 133 172 222 283 340 416
#     4  11  24  48  72 101 136 175 222 277 357 416
#     4  11  24  37  62  86 141 179 229 284 334 392
#     4  11  22  41  69  97 131 174 226 282 337 411
#
# _framework density 19.053702999999999
#
# number of rings (size 3 to 8) (size 9 to 14) (size 15 to 20)
#    0.000    1.167    2.500    4.000    2.333    5.000 
#    1.500    1.250    0.000    0.000    0.000    0.000 
#    0.000    0.000    0.000    0.000    0.000    0.000 
#
# Total GULP energy -133693.826693 kJ/mol
# GULP energy per Si atom -5570.576112 kJ/mol
# Density = 1.901034 g / cm^3
# Si number density = 19.053703 Si / 1000 Ang^3
#
#
#
# Elastic Constant Matrix: (Units=GPa)
#
#
# Indices 1 2 3 4 5 6 
#
# 1 97.8938 52.6040 58.7362 -0.0041 -3.8547 0.0029
# 2 52.6040 120.4336 42.6561 0.0002 5.7286 0.0035
# 3 58.7362 42.6561 122.7006 -0.0281 -0.4673 0.0116
# 4 -0.0041 0.0002 -0.0281 25.2491 0.0065 2.1751
# 5 -3.8547 5.7286 -0.4673 0.0065 43.4042 -0.0010
# 6 0.0029 0.0035 0.0116 2.1751 -0.0010 24.0590
#
#
#
# Elastic Compliance Matrix: (Units=1/GPa)
#
#
# Indices 1 2 3 4 5 6 
#
# 1 0.016868 -0.005259 -0.006238 -0.000005 0.002125 0.000002
# 2 -0.005259 0.011181 -0.001377 -0.000002 -0.001958 0.000000
# 3 -0.006238 -0.001377 0.011614 0.000012 -0.000247 -0.000006
# 4 -0.000005 -0.000002 0.000012 0.039916 -0.000006 -0.003609
# 5 0.002125 -0.001958 -0.000247 -0.000006 0.023484 0.000002
# 6 0.000002 0.000000 -0.000006 -0.003609 0.000002 0.041891
#
#
# Mechanical properties :
#
#
# Convention : Reuss Voigt Hill
#
# Bulk Modulus (GPa) = 71.86872 72.11340 71.99106
# Shear Modulus (GPa) = 28.51595 31.01124 29.76360
#
# Velocity S-wave (km/s) = 3.87280 4.03869 3.95662
# Velocity P-wave (km/s) = 7.60257 7.72513 7.66409
#
# Compressibility (1/GPa) = 0.01391426
#
# Stress axis : x y z
#
# Youngs Moduli (GPa) = 59.28456 89.43462 86.10422
#
# Poissons Ratio (x) = 0.47036 0.53713
# Poissons Ratio (y) = 0.31179 0.11856
# Poissons Ratio (z) = 0.36982 0.12315
#
# Static dielectric constant tensor:
#      x y z
#    x 2.360480 0.000010 -0.267560 
#    y 0.000010 1.624570 0.000000 
#    z -0.267560 0.000000 1.782330 
# 
# From -- ./inp_files/374056.got.cif
#   From: 2010.05.17/outbox.cif.g08.bks.cpg/sg12_188_cif.got.tgz:374056.got - 2010.06.03 13:09:07.
