data_PCOD9216100
_publ_section_title
;
Structure prediction by ZEFSAII (Michael W. Deem and Ramdas Pophale) SiO2 
 PCOD9216100
Probable space group: C 2/M
;
_chemical_formula_sum "Si O2"
_cell_formula_units_Z 28
_cell_length_a 7.423533
_cell_length_b 19.499990
_cell_length_c 10.775198
_cell_angle_alpha 90.000000
_cell_angle_beta 39.326695
_cell_angle_gamma 90.000000
_cell_volume 988.512885
_symmetry_space_group_name_H-M "C 2/M"
_symmetry_group_IT_number 12
_symmetry_cell_setting 'monoclinic'
loop_
_space_group_symop_operation_xyz
x,y,z
-x,y,-z
-x,-y,-z
x,-y,z
1/2+x,1/2+y,z
1/2-x,1/2+y,-z
1/2-x,1/2-y,-z
1/2+x,1/2-y,z
loop_
_atom_site_type_symbol
_atom_site_label
_atom_site_fract_x
_atom_site_fract_y
_atom_site_fract_z
Si Si1 0.164698 0.500000 0.698355
Si Si2 0.331835 0.647585 0.326293
Si Si3 0.250000 0.250000 0.000000
Si Si4 0.322573 0.500000 0.221777
Si Si5 0.658585 0.848785 0.786226
O O1 0.500000 0.500000 0.500000
O O2 0.089589 0.428352 0.805015
O O3 0.999395 0.500000 0.656826
O O4 0.380474 0.568195 0.266443
O O5 0.509781 0.657960 0.360024
O O6 0.000000 0.661800 0.500000
O O7 0.512617 0.689821 0.131863
O O8 0.017790 0.299859 0.207020
O O9 0.500000 0.500000 0.000000
O O10 0.500000 0.818004 0.000000
#
# Coordination Sequence:
#
# PCOD9216100 Si02
#       5
#     4   8   4   4   8
#     4  12  24  38  64  98 128 160 210 270 317 375
#     4  11  24  44  69  95 131 176 218 266 331 397
#     4  10  24  40  64  94 122 168 220 266 312 376
#     4  12  24  40  68 100 132 166 217 278 322 381
#     4  10  22  43  65  89 128 172 213 259 322 391
#
# _framework density 28.325375000000001
#
# number of rings (size 3 to 8) (size 9 to 14) (size 15 to 20)
#    0.000    1.143    0.000    6.857    0.000   12.571 
#    0.000    0.000    0.000    0.000    0.000    0.000 
#    0.000    0.000    0.000    0.000    0.000    0.000 
#
# Total GULP energy -78055.946815 kJ/mol
# GULP energy per Si atom -5575.424773 kJ/mol
# Density = 2.826090 g / cm^3
# Si number density = 28.325375 Si / 1000 Ang^3
#
#
#
# Elastic Constant Matrix: (Units=GPa)
#
#
# Indices 1 2 3 4 5 6 
#
# 1 151.4556 50.9734 58.2452 0.0000 -33.7124 0.0000
# 2 50.9734 229.7066 92.8941 0.0000 -29.4454 0.0000
# 3 58.2452 92.8941 186.4299 0.0000 -58.6521 0.0000
# 4 0.0000 0.0000 0.0000 46.8253 0.0000 -26.7566
# 5 -33.7124 -29.4454 -58.6521 0.0000 68.6990 0.0000
# 6 0.0000 0.0000 0.0000 -26.7566 0.0000 0.7019
#
#
#
# Elastic Compliance Matrix: (Units=1/GPa)
#
#
# Indices 1 2 3 4 5 6 
#
# 1 0.007941 -0.000947 -0.001245 0.000000 0.002428 0.000000
# 2 -0.000947 0.005565 -0.002561 0.000000 -0.000266 0.000000
# 3 -0.001245 -0.002561 0.008875 0.000000 0.005869 0.000000
# 4 0.000000 0.000000 0.000000 -0.001028 0.000000 -0.039172
# 5 0.002428 -0.000266 0.005869 0.000000 0.020644 0.000000
# 6 0.000000 0.000000 0.000000 -0.039172 0.000000 -0.068553
#
#
# Mechanical properties :
#
#
# Convention : Reuss Voigt Hill
#
# Bulk Modulus (GPa) = 77.67078 107.97970 92.82524
# Shear Modulus (GPa) = -391.89791 47.61052 -172.14369
#
# Velocity S-wave (km/s) = -11.77523 4.10426 -7.80420
# Velocity P-wave (km/s) = 12.54569 7.78870 6.95451
#
# Compressibility (1/GPa) = 0.01287485
#
# Stress axis : x y z
#
# Youngs Moduli (GPa) = 125.93484 179.69301 112.67437
#
# Poissons Ratio (x) = 0.17024 0.14028
# Poissons Ratio (y) = 0.11931 0.28851
# Poissons Ratio (z) = 0.15679 0.46011
#
# Static dielectric constant tensor:
#      x y z
#    x 1.070190 0.000000 0.337110 
#    y 0.000000 3.346340 0.000000 
#    z 0.337110 0.000000 2.210870 
# 
# From -- ./inp_files/197430.got.cif
#   From: 2010.05.17/outbox.cif.g08.bks.cpg/sg12_99_cif.got.tgz:197430.got - 2010.06.03 13:09:07.
