data_PCOD9216871
_publ_section_title
;
Structure prediction by ZEFSAII (Michael W. Deem and Ramdas Pophale) SiO2 
 PCOD9216871
Probable space group: C 2/M
;
_chemical_formula_sum "Si O2"
_cell_formula_units_Z 44
_cell_length_a 14.940855
_cell_length_b 10.455248
_cell_length_c 22.248691
_cell_angle_alpha 90.000000
_cell_angle_beta 138.844815
_cell_angle_gamma 90.000000
_cell_volume 2287.213128
_symmetry_space_group_name_H-M "C 2/M"
_symmetry_group_IT_number 12
_symmetry_cell_setting 'monoclinic'
loop_
_space_group_symop_operation_xyz
x,y,z
-x,y,-z
-x,-y,-z
x,-y,z
1/2+x,1/2+y,z
1/2-x,1/2+y,-z
1/2-x,1/2-y,-z
1/2+x,1/2-y,z
loop_
_atom_site_type_symbol
_atom_site_label
_atom_site_fract_x
_atom_site_fract_y
_atom_site_fract_z
Si Si1 0.685062 0.855796 0.816954
Si Si2 0.154049 0.851179 0.985185
Si Si3 0.900727 0.765430 0.680449
Si Si4 0.748419 0.500000 0.593021
Si Si5 0.647182 0.278241 0.207370
Si Si6 0.935446 0.000000 0.613251
Si Si7 0.757378 0.000000 0.268785
O O1 0.561634 0.762021 0.768989
O O2 0.738132 0.840751 0.776277
O O3 0.634786 0.000000 0.801761
O O4 0.809146 0.836256 0.925848
O O5 0.998988 0.821806 0.890526
O O6 0.183345 0.000000 0.983991
O O7 0.250000 0.750000 0.000000
O O8 0.833398 0.630946 0.627326
O O9 0.844485 0.805571 0.717378
O O10 0.885073 0.875448 0.623633
O O11 0.625469 0.500000 0.484189
O O12 0.708435 0.500000 0.642908
O O13 0.670245 0.126298 0.212010
O O14 0.099594 0.000000 0.693503
#
# Coordination Sequence:
#
# PCOD9216871 Si02
#       7
#     8   8   8   4   8   4   4
#     4  11  22  41  64  87 127 172 209 245 310 375
#     4  11  24  39  64  92 127 172 212 258 300 365
#     4  11  23  39  67  92 123 166 201 259 316 368
#     4  10  23  44  65  89 127 168 199 255 324 394
#     4  11  23  41  61  93 128 163 216 250 311 363
#     4  12  23  42  64 100 120 153 218 265 318 366
#     4  10  23  40  68  90 124 171 201 262 319 375
#
# _framework density 19.237385
#
# number of rings (size 3 to 8) (size 9 to 14) (size 15 to 20)
#    0.000    1.091    4.545    1.909    3.818    1.455 
#    1.636    0.909    0.000    1.091    0.000    0.000 
#    0.000    0.000    0.000    0.000    0.000    0.000 
#
# Total GULP energy -122872.016194 kJ/mol
# GULP energy per Si atom -5585.091645 kJ/mol
# Density = 1.919360 g / cm^3
# Si number density = 19.237385 Si / 1000 Ang^3
#
#
#
# Elastic Constant Matrix: (Units=GPa)
#
#
# Indices 1 2 3 4 5 6 
#
# 1 78.2981 32.3101 0.4908 0.0000 -7.5268 0.0000
# 2 32.3101 110.1445 32.2463 0.0000 -12.2115 0.0000
# 3 0.4908 32.2463 54.9017 0.0000 -4.9824 0.0000
# 4 0.0000 0.0000 0.0000 22.7462 0.0000 -0.3922
# 5 -7.5268 -12.2115 -4.9824 0.0000 20.6592 0.0000
# 6 0.0000 0.0000 0.0000 -0.3922 0.0000 28.4239
#
#
#
# Elastic Compliance Matrix: (Units=1/GPa)
#
#
# Indices 1 2 3 4 5 6 
#
# 1 0.015123 -0.004972 0.003086 0.000000 0.003315 0.000000
# 2 -0.004972 0.013137 -0.007291 0.000000 0.004195 0.000000
# 3 0.003086 -0.007291 0.022676 0.000000 0.002284 0.000000
# 4 0.000000 0.000000 0.000000 0.043974 0.000000 0.000607
# 5 0.003315 0.004195 0.002284 0.000000 0.052643 0.000000
# 6 0.000000 0.000000 0.000000 0.000607 0.000000 0.035190
#
#
# Mechanical properties :
#
#
# Convention : Reuss Voigt Hill
#
# Bulk Modulus (GPa) = 30.69155 41.49320 36.09237
# Shear Modulus (GPa) = 23.58961 26.25234 24.92098
#
# Velocity S-wave (km/s) = 3.50557 3.69813 3.60313
# Velocity P-wave (km/s) = 5.68982 6.31274 6.00936
#
# Compressibility (1/GPa) = 0.03258226
#
# Stress axis : x y z
#
# Youngs Moduli (GPa) = 66.12539 76.12005 44.09897
#
# Poissons Ratio (x) = 0.37848 -0.13609
# Poissons Ratio (y) = 0.32878 0.32152
# Poissons Ratio (z) = -0.20406 0.55498
#
# Static dielectric constant tensor:
#      x y z
#    x 1.663330 0.000000 -0.009590 
#    y 0.000000 1.668080 0.000000 
#    z -0.009590 0.000000 1.652320 
# 
# From -- ./inp_files/310105.got.cif
#   From: 2010.05.17/outbox.cif.g08.bks.cpg/sg12_156_cif.got.tgz:310105.got - 2010.06.03 13:09:07.
