data_PCOD9216565
_publ_section_title
;
Structure prediction by ZEFSAII (Michael W. Deem and Ramdas Pophale) SiO2 
 PCOD9216565
Probable space group: C 2/M
;
_chemical_formula_sum "Si O2"
_cell_formula_units_Z 28
_cell_length_a 5.113158
_cell_length_b 28.857144
_cell_length_c 11.683584
_cell_angle_alpha 90.000000
_cell_angle_beta 60.727592
_cell_angle_gamma 90.000000
_cell_volume 1503.789087
_symmetry_space_group_name_H-M "C 2/M"
_symmetry_group_IT_number 12
_symmetry_cell_setting 'monoclinic'
loop_
_space_group_symop_operation_xyz
x,y,z
-x,y,-z
-x,-y,-z
x,-y,z
1/2+x,1/2+y,z
1/2-x,1/2+y,-z
1/2-x,1/2-y,-z
1/2+x,1/2-y,z
loop_
_atom_site_type_symbol
_atom_site_label
_atom_site_fract_x
_atom_site_fract_y
_atom_site_fract_z
Si Si1 0.809976 0.349396 0.359408
Si Si2 0.000000 0.284216 0.500000
Si Si3 0.356475 0.949402 0.405296
Si Si4 0.309541 0.217935 0.150899
O O1 0.500000 0.349456 0.500000
O O2 0.043748 0.319848 0.385662
O O3 0.915315 0.402322 0.323837
O O4 0.760948 0.322488 0.252341
O O5 0.750000 0.250000 0.500000
O O6 0.500000 0.943690 0.500000
O O7 0.000000 0.951390 0.500000
O O8 0.453047 0.000000 0.338550
O O9 0.511933 0.257099 0.169576
O O10 0.500000 0.201931 0.000000
#
# Coordination Sequence:
#
# PCOD9216565 Si02
#       4
#     8   4   8   8
#     4  11  22  34  55  80 103 135 176 215 259 300
#     4  12  22  30  43  76 107 126 158 214 254 286
#     4   9  18  32  49  74 105 131 163 210 263 309
#     4  10  23  38  51  71 105 144 174 205 253 311
#
# _framework density 18.619634000000001
#
# number of rings (size 3 to 8) (size 9 to 14) (size 15 to 20)
#    0.000    1.714    2.857    1.714    4.000    0.000 
#    0.000    0.000    0.000    0.857    0.000    0.000 
#    0.000   19.429    0.000    0.000    0.000    3.143 
#
# Total GULP energy -78097.736648 kJ/mol
# GULP energy per Si atom -5578.409761 kJ/mol
# Density = 1.857725 g / cm^3
# Si number density = 18.619634 Si / 1000 Ang^3
#
#
#
# Elastic Constant Matrix: (Units=GPa)
#
#
# Indices 1 2 3 4 5 6 
#
# 1 117.4436 17.5925 17.0717 0.0000 11.9858 0.0000
# 2 17.5925 168.4385 57.7560 0.0000 12.7948 0.0000
# 3 17.0717 57.7560 90.4466 0.0000 16.4647 0.0000
# 4 0.0000 0.0000 0.0000 14.9538 0.0000 -0.6445
# 5 11.9858 12.7948 16.4647 0.0000 22.7667 0.0000
# 6 0.0000 0.0000 0.0000 -0.6445 0.0000 18.4172
#
#
#
# Elastic Compliance Matrix: (Units=1/GPa)
#
#
# Indices 1 2 3 4 5 6 
#
# 1 0.009092 -0.000392 -0.000730 0.000000 -0.004038 0.000000
# 2 -0.000392 0.007633 -0.004672 0.000000 -0.000705 0.000000
# 3 -0.000730 -0.004672 0.015696 0.000000 -0.008341 0.000000
# 4 0.000000 0.000000 0.000000 0.066974 0.000000 0.002344
# 5 -0.004038 -0.000705 -0.008341 0.000000 0.052477 0.000000
# 6 0.000000 0.000000 0.000000 0.002344 0.000000 0.054379
#
#
# Mechanical properties :
#
#
# Convention : Reuss Voigt Hill
#
# Bulk Modulus (GPa) = 48.00512 62.35211 55.17862
# Shear Modulus (GPa) = 22.24348 30.15478 26.19913
#
# Velocity S-wave (km/s) = 3.46008 4.02869 3.75516
# Velocity P-wave (km/s) = 6.46536 7.42970 6.96424
#
# Compressibility (1/GPa) = 0.02083111
#
# Stress axis : x y z
#
# Youngs Moduli (GPa) = 109.98973 131.00313 63.71083
#
# Poissons Ratio (x) = 0.05141 0.04654
# Poissons Ratio (y) = 0.04316 0.29766
# Poissons Ratio (z) = 0.08034 0.61206
#
# Static dielectric constant tensor:
#      x y z
#    x 1.696260 0.000000 -0.042680 
#    y 0.000000 1.702770 0.000000 
#    z -0.042680 0.000000 1.656020 
# 
# From -- ./inp_files/115691.got.cif
#   From: 2010.05.17/outbox.cif.g08.bks.cpg/sg12_58_cif.got.tgz:115691.got - 2010.06.03 13:09:07.
