data_PCOD9216761
_publ_section_title
;
Structure prediction by ZEFSAII (Michael W. Deem and Ramdas Pophale) SiO2 
 PCOD9216761
Probable space group: C 2/M
;
_chemical_formula_sum "Si O2"
_cell_formula_units_Z 56
_cell_length_a 31.507120
_cell_length_b 18.356431
_cell_length_c 9.210243
_cell_angle_alpha 90.000000
_cell_angle_beta 148.483289
_cell_angle_gamma 90.000000
_cell_volume 2784.580503
_symmetry_space_group_name_H-M "C 2/M"
_symmetry_group_IT_number 12
_symmetry_cell_setting 'monoclinic'
loop_
_space_group_symop_operation_xyz
x,y,z
-x,y,-z
-x,-y,-z
x,-y,z
1/2+x,1/2+y,z
1/2-x,1/2+y,-z
1/2-x,1/2-y,-z
1/2+x,1/2-y,z
loop_
_atom_site_type_symbol
_atom_site_label
_atom_site_fract_x
_atom_site_fract_y
_atom_site_fract_z
Si Si1 0.828259 0.323319 0.707981
Si Si2 0.012517 0.850742 0.200645
Si Si3 0.919176 0.414487 0.186555
Si Si4 0.826942 0.584778 0.203586
Si Si5 0.647208 0.584790 0.798163
Si Si6 0.420370 0.192440 0.687522
Si Si7 0.343879 0.667935 0.875201
O O1 0.855310 0.296397 0.627482
O O2 0.740680 0.361350 0.438605
O O3 0.828063 0.254555 0.815859
O O4 0.895015 0.376490 0.968390
O O5 0.074090 0.896927 0.476738
O O6 0.050646 0.769218 0.295861
O O7 0.000000 0.878035 0.000000
O O8 0.924964 0.847362 0.021385
O O9 0.931799 0.500000 0.198414
O O10 0.847511 0.404463 0.094771
O O11 0.000000 0.384875 0.500000
O O12 0.846800 0.500000 0.294967
O O13 0.881764 0.638545 0.458613
O O14 0.733140 0.596649 0.968616
O O15 0.643276 0.500000 0.831927
O O16 0.644696 0.636503 0.931252
O O17 0.500000 0.161747 0.000000
#
# Coordination Sequence:
#
# PCOD9216761 Si02
#       7
#     8   8   8   8   8   8   8
#     4  11  23  40  66  95 131 170 215 267 324 380
#     4  11  25  43  67  97 130 162 219 275 326 390
#     4  10  23  40  61  95 134 175 218 261 319 387
#     4  10  23  42  64  97 134 171 218 263 319 393
#     4  11  26  46  69  96 128 174 221 268 331 390
#     4  11  21  41  65  97 130 167 213 265 321 389
#     4  11  24  43  64  98 128 166 219 269 319 392
#
# _framework density 20.110748000000001
#
# number of rings (size 3 to 8) (size 9 to 14) (size 15 to 20)
#    0.000    1.286    4.286    1.286    4.000    3.429 
#    0.000    0.000    0.000    0.000    0.000    0.000 
#    0.000    0.000    0.000    0.000    0.000    0.000 
#
# Total GULP energy -156412.550223 kJ/mol
# GULP energy per Si atom -5586.162508 kJ/mol
# Density = 2.006498 g / cm^3
# Si number density = 20.110748 Si / 1000 Ang^3
#
#
#
# Elastic Constant Matrix: (Units=GPa)
#
#
# Indices 1 2 3 4 5 6 
#
# 1 111.2654 25.0366 25.2599 0.0000 14.5824 0.0000
# 2 25.0366 22.1618 18.3360 0.0000 -4.8283 0.0000
# 3 25.2599 18.3360 97.3890 0.0000 4.3909 0.0000
# 4 0.0000 0.0000 0.0000 21.8994 0.0000 23.6228
# 5 14.5824 -4.8283 4.3909 0.0000 34.6003 0.0000
# 6 0.0000 0.0000 0.0000 23.6228 0.0000 -34.3470
#
#
#
# Elastic Compliance Matrix: (Units=1/GPa)
#
#
# Indices 1 2 3 4 5 6 
#
# 1 0.014082 -0.017813 0.000081 0.000000 -0.008431 0.000000
# 2 -0.017813 0.078775 -0.011109 0.000000 0.019910 0.000000
# 3 0.000081 -0.011109 0.012481 0.000000 -0.003168 0.000000
# 4 0.000000 0.000000 0.000000 0.026215 0.000000 0.018030
# 5 -0.008431 0.019910 -0.003168 0.000000 0.035635 0.000000
# 6 0.000000 0.000000 0.000000 0.018030 0.000000 -0.016714
#
#
# Mechanical properties :
#
#
# Convention : Reuss Voigt Hill
#
# Bulk Modulus (GPa) = 20.98303 40.89789 30.94046
# Shear Modulus (GPa) = 22.31725 15.24278 18.78001
#
# Velocity S-wave (km/s) = 3.33486 2.75606 3.05918
# Velocity P-wave (km/s) = 5.02839 5.52343 5.28172
#
# Compressibility (1/GPa) = 0.04765756
#
# Stress axis : x y z
#
# Youngs Moduli (GPa) = 71.01120 12.69434 80.11934
#
# Poissons Ratio (x) = 0.22613 -0.00652
# Poissons Ratio (y) = 1.26493 0.89004
# Poissons Ratio (z) = -0.00578 0.14102
#
# Static dielectric constant tensor:
#      x y z
#    x 1.724480 0.000000 0.034040 
#    y 0.000000 1.700260 0.000000 
#    z 0.034040 0.000000 1.712050 
# 
# From -- ./inp_files/113418.got.cif
#   From: 2010.05.17/outbox.cif.g08.bks.cpg/sg12_57_cif.got.tgz:113418.got - 2010.06.03 13:09:07.
