data_PCOD9216994
_publ_section_title
;
Structure prediction by ZEFSAII (Michael W. Deem and Ramdas Pophale) SiO2 
 PCOD9216994
Probable space group: C 2/M
;
_chemical_formula_sum "Si O2"
_cell_formula_units_Z 56
_cell_length_a 26.213489
_cell_length_b 18.414341
_cell_length_c 18.752485
_cell_angle_alpha 90.000000
_cell_angle_beta 161.511382
_cell_angle_gamma 90.000000
_cell_volume 2870.505288
_symmetry_space_group_name_H-M "C 2/M"
_symmetry_group_IT_number 12
_symmetry_cell_setting 'monoclinic'
loop_
_space_group_symop_operation_xyz
x,y,z
-x,y,-z
-x,-y,-z
x,-y,z
1/2+x,1/2+y,z
1/2-x,1/2+y,-z
1/2-x,1/2-y,-z
1/2+x,1/2-y,z
loop_
_atom_site_type_symbol
_atom_site_label
_atom_site_fract_x
_atom_site_fract_y
_atom_site_fract_z
Si Si1 0.705233 0.581969 0.444395
Si Si2 0.175316 0.779877 0.208941
Si Si3 0.047094 0.339534 0.324259
Si Si4 0.230999 0.163542 0.983923
Si Si5 0.919565 0.805184 0.073491
Si Si6 0.980392 0.083097 0.554725
Si Si7 0.317166 0.109525 0.751450
O O1 0.658449 0.500000 0.362565
O O2 0.864048 0.606795 0.612299
O O3 0.565185 0.640894 0.246602
O O4 0.743450 0.584880 0.579087
O O5 0.321315 0.819097 0.441587
O O6 0.182976 0.696886 0.245500
O O7 0.176137 0.783598 0.124470
O O8 0.000000 0.808787 0.000000
O O9 0.994689 0.267262 0.210034
O O10 0.890069 0.368333 0.157601
O O11 0.192226 0.155176 0.015985
O O12 0.079231 0.133488 0.739343
O O13 0.250000 0.250000 0.000000
O O14 0.000000 0.108902 0.500000
O O15 0.796139 0.084215 0.334904
O O16 0.040188 0.000000 0.638289
O O17 0.500000 0.085004 0.000000
#
# Coordination Sequence:
#
# PCOD9216994 Si02
#       7
#     8   8   8   8   8   8   8
#     4  12  24  40  64  92 131 174 214 265 321 385
#     4  11  21  37  68  95 126 168 208 275 325 364
#     4  11  22  42  62  96 127 164 227 265 322 379
#     4  10  23  41  63  91 127 169 216 268 315 386
#     4  11  22  42  65  93 127 173 218 264 324 382
#     4  11  25  42  61  90 135 178 208 259 332 391
#     4  11  23  39  63  98 126 167 218 263 312 389
#
# _framework density 19.508761
#
# number of rings (size 3 to 8) (size 9 to 14) (size 15 to 20)
#    0.000    1.000    4.286    3.429    6.000    2.286 
#    0.000    1.429    0.000    0.000    0.000    3.000 
#    0.000    0.000    0.000    0.000    0.000    0.000 
#
# Total GULP energy -156419.717515 kJ/mol
# GULP energy per Si atom -5586.418483 kJ/mol
# Density = 1.946436 g / cm^3
# Si number density = 19.508761 Si / 1000 Ang^3
#
#
#
# Elastic Constant Matrix: (Units=GPa)
#
#
# Indices 1 2 3 4 5 6 
#
# 1 127.6636 0.5971 41.7347 -0.0007 10.1800 -0.0003
# 2 0.5971 38.7993 11.2744 -0.0003 -1.1041 -0.0002
# 3 41.7347 11.2744 66.8086 -0.0020 7.7838 -0.0011
# 4 -0.0007 -0.0003 -0.0020 -29.1886 -0.0013 -22.6389
# 5 10.1800 -1.1041 7.7838 -0.0013 48.1340 -0.0007
# 6 -0.0003 -0.0002 -0.0011 -22.6389 -0.0007 3.5963
#
#
#
# Elastic Compliance Matrix: (Units=1/GPa)
#
#
# Indices 1 2 3 4 5 6 
#
# 1 0.010004 0.001680 -0.006412 0.000000 -0.001040 0.000000
# 2 0.001680 0.027476 -0.005828 0.000000 0.001217 0.000000
# 3 -0.006412 -0.005828 0.020195 -0.000001 -0.002043 0.000000
# 4 0.000000 0.000000 -0.000001 -0.005824 -0.000001 -0.036663
# 5 -0.001040 0.001217 -0.002043 -0.000001 0.021354 0.000000
# 6 0.000000 0.000000 0.000000 -0.036663 0.000000 0.047270
#
#
# Mechanical properties :
#
#
# Convention : Reuss Voigt Hill
#
# Bulk Modulus (GPa) = 27.35585 37.83154 32.59370
# Shear Modulus (GPa) = 32.51397 16.48602 24.49999
#
# Velocity S-wave (km/s) = 4.08687 2.91014 3.54764
# Velocity P-wave (km/s) = 6.02684 5.54311 5.79003
#
# Compressibility (1/GPa) = 0.03655526
#
# Stress axis : x y z
#
# Youngs Moduli (GPa) = 99.95715 36.39546 49.51700
#
# Poissons Ratio (x) = -0.06113 0.31749
# Poissons Ratio (y) = -0.16789 0.28858
# Poissons Ratio (z) = 0.64091 0.21211
#
# Static dielectric constant tensor:
#      x y z
#    x 1.705240 0.000000 0.033320 
#    y 0.000000 1.681330 0.000000 
#    z 0.033320 0.000000 1.676340 
# 
# From -- ./inp_files/290856.got.cif
#   From: 2010.05.17/outbox.cif.g08.bks.cpg/sg12_146_cif.got.tgz:290856.got - 2010.06.03 13:09:07.
