data_PCOD9216864
_publ_section_title
;
Structure prediction by ZEFSAII (Michael W. Deem and Ramdas Pophale) SiO2 
 PCOD9216864
Probable space group: C 2/M
;
_chemical_formula_sum "Si O2"
_cell_formula_units_Z 44
_cell_length_a 8.682755
_cell_length_b 16.725274
_cell_length_c 19.988238
_cell_angle_alpha 90.000000
_cell_angle_beta 47.745678
_cell_angle_gamma 90.000000
_cell_volume 2148.499500
_symmetry_space_group_name_H-M "C 2/M"
_symmetry_group_IT_number 12
_symmetry_cell_setting 'monoclinic'
loop_
_space_group_symop_operation_xyz
x,y,z
-x,y,-z
-x,-y,-z
x,-y,z
1/2+x,1/2+y,z
1/2-x,1/2+y,-z
1/2-x,1/2-y,-z
1/2+x,1/2-y,z
loop_
_atom_site_type_symbol
_atom_site_label
_atom_site_fract_x
_atom_site_fract_y
_atom_site_fract_z
Si Si1 0.434255 0.840427 0.727840
Si Si2 0.882556 0.500000 0.272072
Si Si3 0.645531 0.837846 0.522997
Si Si4 0.826131 0.358825 0.099370
Si Si5 0.593561 0.500000 0.579280
Si Si6 0.978005 0.750504 0.170918
Si Si7 0.117730 0.000000 0.223754
O O1 0.488327 0.923689 0.745357
O O2 0.516760 0.844567 0.628832
O O3 0.195492 0.815359 0.796104
O O4 0.544825 0.775878 0.744681
O O5 0.649156 0.500000 0.373448
O O6 0.821082 0.500000 0.212532
O O7 0.500000 0.838366 0.500000
O O8 0.750000 0.750000 0.500000
O O9 0.795024 0.916748 0.473748
O O10 0.930339 0.322828 0.135644
O O11 0.707721 0.286138 0.097272
O O12 0.647328 0.421078 0.172067
O O13 0.000000 0.393745 0.000000
O O14 0.569025 0.500000 0.668175
#
# Coordination Sequence:
#
# PCOD9216864 Si02
#       7
#     8   4   8   8   4   8   4
#     4  11  23  41  64  92 131 174 214 263 326 386
#     4  10  23  42  66  88 125 177 212 265 323 386
#     4  12  28  42  68  99 134 173 230 273 322 390
#     4  11  22  42  69  98 127 166 214 271 327 393
#     4  10  26  46  64  96 137 175 224 276 327 383
#     4  10  23  40  67  97 130 167 214 265 327 394
#     4  10  23  40  68  88 134 165 213 259 333 385
#
# _framework density 20.479409
#
# number of rings (size 3 to 8) (size 9 to 14) (size 15 to 20)
#    0.545    0.727    1.818    2.727   12.727    1.455 
#    0.000    0.000    0.000    1.091    0.000    0.000 
#    0.000    0.000    0.000    0.000    0.000    0.000 
#
# Total GULP energy -122724.413991 kJ/mol
# GULP energy per Si atom -5578.382454 kJ/mol
# Density = 2.043280 g / cm^3
# Si number density = 20.479409 Si / 1000 Ang^3
#
#
#
# Elastic Constant Matrix: (Units=GPa)
#
#
# Indices 1 2 3 4 5 6 
#
# 1 101.6242 34.6584 6.1037 0.0002 14.1017 -0.0001
# 2 34.6584 96.9330 4.6511 0.0000 -3.1942 0.0002
# 3 6.1037 4.6511 72.7502 -0.0003 5.5782 0.0008
# 4 0.0002 0.0000 -0.0003 15.1525 0.0001 10.2021
# 5 14.1017 -3.1942 5.5782 0.0001 19.8711 -0.0004
# 6 -0.0001 0.0002 0.0008 10.2021 -0.0004 19.1889
#
#
#
# Elastic Compliance Matrix: (Units=1/GPa)
#
#
# Indices 1 2 3 4 5 6 
#
# 1 0.012907 -0.004943 -0.000004 0.000000 -0.009953 0.000000
# 2 -0.004943 0.012311 -0.000811 0.000000 0.005714 0.000000
# 3 -0.000004 -0.000811 0.014111 0.000001 -0.004089 -0.000001
# 4 0.000000 0.000000 0.000001 0.102792 -0.000002 -0.054651
# 5 -0.009953 0.005714 -0.004089 -0.000002 0.059454 0.000002
# 6 0.000000 0.000000 -0.000001 -0.054651 0.000002 0.081170
#
#
# Mechanical properties :
#
#
# Convention : Reuss Voigt Hill
#
# Bulk Modulus (GPa) = 35.95128 40.23706 38.09417
# Shear Modulus (GPa) = 16.47280 25.90211 21.18745
#
# Velocity S-wave (km/s) = 2.83920 3.56024 3.21997
# Velocity P-wave (km/s) = 5.32363 6.04902 5.69788
#
# Compressibility (1/GPa) = 0.02781542
#
# Stress axis : x y z
#
# Youngs Moduli (GPa) = 77.47574 81.22890 70.86508
#
# Poissons Ratio (x) = 0.40150 0.00026
# Poissons Ratio (y) = 0.38295 0.05744
# Poissons Ratio (z) = 0.00029 0.06584
#
# Static dielectric constant tensor:
#      x y z
#    x 1.709010 0.000000 0.016190 
#    y 0.000000 1.799220 0.000000 
#    z 0.016190 0.000000 1.748220 
# 
# From -- ./inp_files/256913.got.cif
#   From: 2010.05.17/outbox.cif.g08.bks.cpg/sg12_129_cif.got.tgz:256913.got - 2010.06.03 13:09:07.
