data_PCOD9216891
_publ_section_title
;
Structure prediction by ZEFSAII (Michael W. Deem and Ramdas Pophale) SiO2 
 PCOD9216891
Probable space group: C 2/M
;
_chemical_formula_sum "Si O2"
_cell_formula_units_Z 56
_cell_length_a 28.001014
_cell_length_b 15.150806
_cell_length_c 7.460417
_cell_angle_alpha 90.000000
_cell_angle_beta 125.871740
_cell_angle_gamma 90.000000
_cell_volume 2564.690264
_symmetry_space_group_name_H-M "C 2/M"
_symmetry_group_IT_number 12
_symmetry_cell_setting 'monoclinic'
loop_
_space_group_symop_operation_xyz
x,y,z
-x,y,-z
-x,-y,-z
x,-y,z
1/2+x,1/2+y,z
1/2-x,1/2+y,-z
1/2-x,1/2-y,-z
1/2+x,1/2-y,z
loop_
_atom_site_type_symbol
_atom_site_label
_atom_site_fract_x
_atom_site_fract_y
_atom_site_fract_z
Si Si1 0.797400 0.322544 0.325949
Si Si2 0.076521 0.604012 0.506945
Si Si3 0.548442 0.105126 0.866929
Si Si4 0.815723 0.817974 0.076043
Si Si5 0.144609 0.264407 0.212722
Si Si6 0.062554 0.901628 0.664653
Si Si7 0.931731 0.099624 0.895492
O O1 0.859992 0.361952 0.406777
O O2 0.794283 0.232430 0.205328
O O3 0.804086 0.303429 0.549908
O O4 0.739259 0.373171 0.127354
O O5 0.075281 0.500000 0.472480
O O6 0.066049 0.616367 0.696092
O O7 0.019097 0.638410 0.274849
O O8 0.551522 0.000000 0.915698
O O9 0.593707 0.162687 0.078200
O O10 0.877042 0.861430 0.269499
O O11 0.833190 0.759874 0.938285
O O12 0.114410 0.178549 0.241044
O O13 0.000000 0.853492 0.500000
O O14 0.056506 0.000000 0.573271
O O15 0.070226 0.906539 0.893864
O O16 0.918485 0.000000 0.796675
O O17 0.000000 0.120498 0.000000
#
# Coordination Sequence:
#
# PCOD9216891 Si02
#       7
#     8   8   8   8   8   8   8
#     4  11  23  37  60  84 114 161 203 242 298 356
#     4   9  19  37  60  87 122 160 197 247 305 358
#     4   9  19  37  60  91 128 157 195 253 304 352
#     4  10  23  41  54  84 122 151 197 252 293 363
#     4  11  22  37  63  87 118 161 203 244 308 352
#     4   9  19  36  60  83 109 149 191 243 305 353
#     4   9  20  36  54  85 123 149 190 250 299 356
#
# _framework density 21.834993999999998
#
# number of rings (size 3 to 8) (size 9 to 14) (size 15 to 20)
#    0.000    2.286    1.429    1.286    4.000    2.286 
#    0.000    1.429    0.000    3.429    0.000    0.000 
#    0.000    0.000    0.000    0.000    0.000    0.000 
#
# Total GULP energy -156122.954061 kJ/mol
# GULP energy per Si atom -5575.819788 kJ/mol
# Density = 2.178530 g / cm^3
# Si number density = 21.834994 Si / 1000 Ang^3
#
#
#
# Elastic Constant Matrix: (Units=GPa)
#
#
# Indices 1 2 3 4 5 6 
#
# 1 59.1251 12.7725 11.2487 0.0000 17.2643 0.0000
# 2 12.7725 31.7186 29.2055 0.0000 4.9117 0.0000
# 3 11.2487 29.2055 128.1330 0.0000 26.9768 0.0000
# 4 0.0000 0.0000 0.0000 32.5938 0.0000 30.1805
# 5 17.2643 4.9117 26.9768 0.0000 41.8858 0.0000
# 6 0.0000 0.0000 0.0000 30.1805 0.0000 22.4303
#
#
#
# Elastic Compliance Matrix: (Units=1/GPa)
#
#
# Indices 1 2 3 4 5 6 
#
# 1 0.021089 -0.009034 0.002099 0.000000 -0.008985 0.000000
# 2 -0.009034 0.043839 -0.010297 0.000000 0.005215 0.000000
# 3 0.002099 -0.010297 0.011447 0.000000 -0.007031 0.000000
# 4 0.000000 0.000000 0.000000 -0.124770 0.000000 0.167881
# 5 -0.008985 0.005215 -0.007031 0.000000 0.031494 0.000000
# 6 0.000000 0.000000 0.000000 0.167881 0.000000 -0.181305
#
#
# Mechanical properties :
#
#
# Convention : Reuss Voigt Hill
#
# Bulk Modulus (GPa) = 23.85947 36.15891 30.00919
# Shear Modulus (GPa) = -33.38404 30.43199 -1.47603
#
# Velocity S-wave (km/s) = -3.91439 3.73731 -0.82308
# Velocity P-wave (km/s) = 3.07880 5.93459 3.58750
#
# Compressibility (1/GPa) = 0.04191208
#
# Stress axis : x y z
#
# Youngs Moduli (GPa) = 47.41801 22.81096 87.35706
#
# Poissons Ratio (x) = 0.20607 -0.18340
# Poissons Ratio (y) = 0.42837 0.89951
# Poissons Ratio (z) = -0.09955 0.23488
#
# Static dielectric constant tensor:
#      x y z
#    x 1.842700 0.000000 0.036670 
#    y 0.000000 1.838330 0.000000 
#    z 0.036670 0.000000 1.826030 
# 
# From -- ./inp_files/112663.got.cif
#   From: 2010.05.17/outbox.cif.g08.bks.cpg/sg12_57_cif.got.tgz:112663.got - 2010.06.03 13:09:07.
