data_PCOD9216015
_publ_section_title
;
Structure prediction by ZEFSAII (Michael W. Deem and Ramdas Pophale) SiO2 
 PCOD9216015
Probable space group: C 2/M
;
_chemical_formula_sum "Si O2"
_cell_formula_units_Z 40
_cell_length_a 17.802507
_cell_length_b 11.583298
_cell_length_c 8.297506
_cell_angle_alpha 90.000000
_cell_angle_beta 92.302036
_cell_angle_gamma 90.000000
_cell_volume 1709.662315
_symmetry_space_group_name_H-M "C 2/M"
_symmetry_group_IT_number 12
_symmetry_cell_setting 'monoclinic'
loop_
_space_group_symop_operation_xyz
x,y,z
-x,y,-z
-x,-y,-z
x,-y,z
1/2+x,1/2+y,z
1/2-x,1/2+y,-z
1/2-x,1/2-y,-z
1/2+x,1/2-y,z
loop_
_atom_site_type_symbol
_atom_site_label
_atom_site_fract_x
_atom_site_fract_y
_atom_site_fract_z
Si Si1 0.206763 0.240101 0.665219
Si Si2 0.057680 0.000000 0.266575
Si Si3 0.455065 0.131612 0.641465
Si Si4 0.900037 0.370822 0.150381
Si Si5 0.856579 0.224281 0.842538
Si Si6 0.114733 0.000000 0.643462
O O1 0.250000 0.250000 0.500000
O O2 0.142483 0.335217 0.689373
O O3 0.267672 0.276612 0.806847
O O4 0.165677 0.114915 0.678252
O O5 0.095157 0.890546 0.182238
O O6 0.089099 0.000000 0.453352
O O7 0.965997 0.000000 0.267731
O O8 0.500000 0.191254 0.500000
O O9 0.512659 0.131356 0.796478
O O10 0.383121 0.193851 0.699071
O O11 0.438856 0.000000 0.594583
O O12 0.879356 0.500000 0.097421
O O13 0.878719 0.280457 0.012724
#
# Coordination Sequence:
#
# PCOD9216015 Si02
#       6
#     8   4   8   8   8   4
#     4  12  26  45  71 104 142 191 244 301 361 431
#     4  11  26  47  75 105 149 194 251 296 364 438
#     4  10  22  42  70 102 134 182 238 297 353 426
#     4  11  26  46  71 104 147 184 236 300 369 434
#     4  12  25  44  72 102 146 189 239 299 362 436
#     4  11  26  47  73 109 144 195 247 309 361 434
#
# _framework density 23.396433999999999
#
# number of rings (size 3 to 8) (size 9 to 14) (size 15 to 20)
#    0.000    0.800    2.000    4.200    8.400    2.400 
#    0.000    3.000    0.000    0.000    0.000    0.000 
#    0.000    0.000    0.000    0.000    0.000    0.000 
#
# Total GULP energy -111866.349297 kJ/mol
# GULP energy per Si atom -5593.317465 kJ/mol
# Density = 2.334318 g / cm^3
# Si number density = 23.396434 Si / 1000 Ang^3
#
#
#
# Elastic Constant Matrix: (Units=GPa)
#
#
# Indices 1 2 3 4 5 6 
#
# 1 134.5807 53.9900 19.5934 0.0000 -13.1430 0.0000
# 2 53.9900 125.4204 28.7470 0.0000 -13.9410 0.0000
# 3 19.5934 28.7470 91.2513 0.0000 -7.5158 0.0000
# 4 0.0000 0.0000 0.0000 38.9496 0.0000 5.4976
# 5 -13.1430 -13.9410 -7.5158 0.0000 35.8567 0.0000
# 6 0.0000 0.0000 0.0000 5.4976 0.0000 55.3946
#
#
#
# Elastic Compliance Matrix: (Units=1/GPa)
#
#
# Indices 1 2 3 4 5 6 
#
# 1 0.009143 -0.003576 -0.000687 0.000000 0.001817 0.000000
# 2 -0.003576 0.010283 -0.002290 0.000000 0.002207 0.000000
# 3 -0.000687 -0.002290 0.011940 0.000000 0.001361 0.000000
# 4 0.000000 0.000000 0.000000 0.026039 0.000000 -0.002584
# 5 0.001817 0.002207 0.001361 0.000000 0.029698 0.000000
# 6 0.000000 0.000000 0.000000 -0.002584 0.000000 0.018309
#
#
# Mechanical properties :
#
#
# Convention : Reuss Voigt Hill
#
# Bulk Modulus (GPa) = 54.76632 61.76816 58.26724
# Shear Modulus (GPa) = 40.12747 42.63497 41.38122
#
# Velocity S-wave (km/s) = 4.14588 4.27345 4.21015
# Velocity P-wave (km/s) = 6.81004 7.12796 6.97081
#
# Compressibility (1/GPa) = 0.01825940
#
# Stress axis : x y z
#
# Youngs Moduli (GPa) = 109.37803 97.24957 83.75471
#
# Poissons Ratio (x) = 0.34779 0.05752
# Poissons Ratio (y) = 0.39117 0.19178
# Poissons Ratio (z) = 0.07512 0.22268
#
# Static dielectric constant tensor:
#      x y z
#    x 2.062190 0.000000 0.055020 
#    y 0.000000 2.000530 0.000000 
#    z 0.055020 0.000000 1.916630 
# 
# From -- ./inp_files/71275.got.cif
#   From: 2010.05.17/outbox.cif.g08.bks.cpg/sg12_36_cif.got.tgz:71275.got - 2010.06.03 13:09:07.
