data_PCOD9216613
_publ_section_title
;
Structure prediction by ZEFSAII (Michael W. Deem and Ramdas Pophale) SiO2 
 PCOD9216613
Probable space group: C 2/M
;
_chemical_formula_sum "Si O2"
_cell_formula_units_Z 52
_cell_length_a 8.621667
_cell_length_b 17.896305
_cell_length_c 21.460359
_cell_angle_alpha 90.000000
_cell_angle_beta 54.778711
_cell_angle_gamma 90.000000
_cell_volume 2705.059340
_symmetry_space_group_name_H-M "C 2/M"
_symmetry_group_IT_number 12
_symmetry_cell_setting 'monoclinic'
loop_
_space_group_symop_operation_xyz
x,y,z
-x,y,-z
-x,-y,-z
x,-y,z
1/2+x,1/2+y,z
1/2-x,1/2+y,-z
1/2-x,1/2-y,-z
1/2+x,1/2-y,z
loop_
_atom_site_type_symbol
_atom_site_label
_atom_site_fract_x
_atom_site_fract_y
_atom_site_fract_z
Si Si1 0.674705 0.500000 0.771079
Si Si2 0.472594 0.747270 0.841464
Si Si3 0.657501 0.842829 0.243985
Si Si4 0.884897 0.846518 0.428128
Si Si5 0.089758 0.000000 0.651229
Si Si6 0.113405 0.353950 0.911975
Si Si7 0.734367 0.500000 0.180446
Si Si8 0.222854 0.690439 0.598965
O O1 0.761794 0.425789 0.779444
O O2 0.709072 0.500000 0.687963
O O3 0.445301 0.500000 0.825988
O O4 0.406222 0.807387 0.806401
O O5 0.669457 0.709849 0.773725
O O6 0.315802 0.682781 0.881962
O O7 0.504953 0.789809 0.898586
O O8 0.475690 0.839993 0.330337
O O9 0.874562 0.925439 0.396167
O O10 0.800621 0.779368 0.406220
O O11 0.775603 0.843981 0.519426
O O12 0.103241 0.827427 0.395193
O O13 0.872657 0.000000 0.728232
O O14 0.149676 0.425298 0.859845
O O15 0.000000 0.375070 0.000000
#
# Coordination Sequence:
#
# PCOD9216613 Si02
#       8
#     4   8   8   8   4   8   4   8
#     4  10  24  40  58  91 123 158 202 265 297 356
#     4  10  23  38  66  96 120 163 205 253 300 367
#     4  11  22  39  62  89 125 160 212 251 301 364
#     4  10  23  42  60  92 125 162 205 262 308 369
#     4  10  24  40  64  87 129 161 207 262 308 359
#     4  11  22  42  66  95 127 159 200 250 312 375
#     4  10  23  39  62  90 121 165 200 246 315 357
#     4  10  23  38  66  88 123 163 211 253 313 357
#
# _framework density 19.223237999999998
#
# number of rings (size 3 to 8) (size 9 to 14) (size 15 to 20)
#    0.462    1.231    1.538    1.615   10.769    3.077 
#    0.000    0.769    0.000    0.923    0.000    0.000 
#    0.000    0.000    0.000    0.000    0.000    0.000 
#
# Total GULP energy -145209.861590 kJ/mol
# GULP energy per Si atom -5584.994677 kJ/mol
# Density = 1.917949 g / cm^3
# Si number density = 19.223238 Si / 1000 Ang^3
#
#
#
# Elastic Constant Matrix: (Units=GPa)
#
#
# Indices 1 2 3 4 5 6 
#
# 1 51.8328 15.2651 12.6096 0.0001 -6.6324 -0.0001
# 2 15.2651 106.2618 15.3637 0.0000 11.0350 0.0000
# 3 12.6096 15.3637 57.8475 0.0000 -6.4235 0.0000
# 4 0.0001 0.0000 0.0000 21.0313 0.0000 0.5732
# 5 -6.6324 11.0350 -6.4235 0.0000 12.6745 0.0000
# 6 -0.0001 0.0000 0.0000 0.5732 0.0000 23.5305
#
#
#
# Elastic Compliance Matrix: (Units=1/GPa)
#
#
# Indices 1 2 3 4 5 6 
#
# 1 0.023072 -0.004554 -0.002160 0.000000 0.014943 0.000000
# 2 -0.004554 0.012184 -0.003906 0.000000 -0.014971 0.000000
# 3 -0.002160 -0.003906 0.020183 0.000000 0.012499 0.000000
# 4 0.000000 0.000000 0.000000 0.047580 0.000000 -0.001159
# 5 0.014943 -0.014971 0.012499 0.000000 0.106087 0.000000
# 6 0.000000 0.000000 0.000000 -0.001159 0.000000 0.042526
#
#
# Mechanical properties :
#
#
# Convention : Reuss Voigt Hill
#
# Bulk Modulus (GPa) = 29.24069 33.60213 31.42141
# Shear Modulus (GPa) = 17.58882 22.96082 20.27482
#
# Velocity S-wave (km/s) = 3.02814 3.45980 3.25114
# Velocity P-wave (km/s) = 5.24121 5.78604 5.52035
#
# Compressibility (1/GPa) = 0.03419892
#
# Stress axis : x y z
#
# Youngs Moduli (GPa) = 43.34335 82.07308 49.54667
#
# Poissons Ratio (x) = 0.37374 0.10704
# Poissons Ratio (y) = 0.19738 0.19352
# Poissons Ratio (z) = 0.09364 0.32056
#
# Static dielectric constant tensor:
#      x y z
#    x 1.677350 0.000000 -0.005430 
#    y 0.000000 1.633380 0.000000 
#    z -0.005430 0.000000 1.658320 
# 
# From -- ./inp_files/301078.got.cif
#   From: 2010.05.17/outbox.cif.g08.bks.cpg/sg12_151_cif.got.tgz:301078.got - 2010.06.03 13:09:07.
