data_PCOD9216169
_publ_section_title
;
Structure prediction by ZEFSAII (Michael W. Deem and Ramdas Pophale) SiO2 
 PCOD9216169
Probable space group: C 2/M
;
_chemical_formula_sum "Si O2"
_cell_formula_units_Z 40
_cell_length_a 9.176580
_cell_length_b 9.794774
_cell_length_c 21.342444
_cell_angle_alpha 90.000000
_cell_angle_beta 78.979031
_cell_angle_gamma 90.000000
_cell_volume 1882.933908
_symmetry_space_group_name_H-M "C 2/M"
_symmetry_group_IT_number 12
_symmetry_cell_setting 'monoclinic'
loop_
_space_group_symop_operation_xyz
x,y,z
-x,y,-z
-x,-y,-z
x,-y,z
1/2+x,1/2+y,z
1/2-x,1/2+y,-z
1/2-x,1/2-y,-z
1/2+x,1/2-y,z
loop_
_atom_site_type_symbol
_atom_site_label
_atom_site_fract_x
_atom_site_fract_y
_atom_site_fract_z
Si Si1 0.171090 0.162302 0.762504
Si Si2 0.881580 0.000000 0.915719
Si Si3 0.611425 0.770562 0.153752
Si Si4 0.273557 0.500000 0.065723
Si Si5 0.349151 0.840873 0.360623
Si Si6 0.387383 0.154645 0.567054
O O1 0.327110 0.179568 0.784451
O O2 0.161437 0.242839 0.698494
O O3 0.060513 0.240305 0.819267
O O4 0.136501 0.000000 0.758810
O O5 0.835890 0.872610 0.877811
O O6 0.061212 0.000000 0.915661
O O7 0.803871 0.000000 0.989584
O O8 0.674218 0.875156 0.097974
O O9 0.510399 0.837330 0.379289
O O10 0.233487 0.773041 0.418827
O O11 0.313780 0.000000 0.349957
O O12 0.500000 0.168956 0.500000
O O13 0.322779 0.000000 0.569421
#
# Coordination Sequence:
#
# PCOD9216169 Si02
#       6
#     8   4   8   4   8   8
#     4  12  26  44  64  90 135 169 214 266 319 382
#     4  11  24  45  67  97 131 163 210 265 323 385
#     4  12  22  45  65  95 123 174 208 264 324 377
#     4  11  24  45  67  95 133 163 208 267 321 385
#     4  11  25  40  64 100 125 172 220 264 315 379
#     4  10  22  43  67  95 134 171 212 264 322 378
#
# _framework density 21.243445999999999
#
# number of rings (size 3 to 8) (size 9 to 14) (size 15 to 20)
#    0.000    0.800    4.000    3.000    2.800    5.200 
#    0.000    1.000    0.000    0.000    0.000    0.000 
#    0.000    0.000    0.000    0.000    0.000    0.000 
#
# Total GULP energy -111679.312385 kJ/mol
# GULP energy per Si atom -5583.965619 kJ/mol
# Density = 2.119509 g / cm^3
# Si number density = 21.243446 Si / 1000 Ang^3
#
#
#
# Elastic Constant Matrix: (Units=GPa)
#
#
# Indices 1 2 3 4 5 6 
#
# 1 44.6580 33.1416 -4.1241 0.0000 -9.1866 0.0000
# 2 33.1416 158.4536 25.8520 0.0000 -15.5528 0.0000
# 3 -4.1241 25.8520 83.1050 0.0000 -2.6728 0.0000
# 4 0.0000 0.0000 0.0000 39.9566 0.0000 -4.7831
# 5 -9.1866 -15.5528 -2.6728 0.0000 29.3582 0.0000
# 6 0.0000 0.0000 0.0000 -4.7831 0.0000 26.1054
#
#
#
# Elastic Compliance Matrix: (Units=1/GPa)
#
#
# Indices 1 2 3 4 5 6 
#
# 1 0.028327 -0.005890 0.003433 0.000000 0.006056 0.000000
# 2 -0.005890 0.008217 -0.002776 0.000000 0.002257 0.000000
# 3 0.003433 -0.002776 0.013092 0.000000 0.000796 0.000000
# 4 0.000000 0.000000 0.000000 0.025588 0.000000 0.004688
# 5 0.006056 0.002257 0.000796 0.000000 0.037225 0.000000
# 6 0.000000 0.000000 0.000000 0.004688 0.000000 0.039165
#
#
# Mechanical properties :
#
#
# Convention : Reuss Voigt Hill
#
# Bulk Modulus (GPa) = 25.53008 43.99504 34.76256
# Shear Modulus (GPa) = 28.54878 34.50719 31.52798
#
# Velocity S-wave (km/s) = 3.66988 4.03472 3.85662
# Velocity P-wave (km/s) = 5.47735 6.51615 6.01920
#
# Compressibility (1/GPa) = 0.03916949
#
# Stress axis : x y z
#
# Youngs Moduli (GPa) = 35.30260 121.69202 76.37990
#
# Poissons Ratio (x) = 0.71681 -0.26220
# Poissons Ratio (y) = 0.20794 0.21203
# Poissons Ratio (z) = -0.12119 0.33781
#
# Static dielectric constant tensor:
#      x y z
#    x 1.759620 0.000000 -0.026380 
#    y 0.000000 1.690130 0.000000 
#    z -0.026380 0.000000 1.793430 
# 
# From -- ./inp_files/331759.got.cif
#   From: 2010.05.17/outbox.cif.g08.bks.cpg/sg12_166_cif.got.tgz:331759.got - 2010.06.03 13:09:07.
