data_PCOD9216574
_publ_section_title
;
Structure prediction by ZEFSAII (Michael W. Deem and Ramdas Pophale) SiO2 
 PCOD9216574
Probable space group: C 2/M
;
_chemical_formula_sum "Si O2"
_cell_formula_units_Z 56
_cell_length_a 10.903024
_cell_length_b 27.310042
_cell_length_c 9.883372
_cell_angle_alpha 90.000000
_cell_angle_beta 63.544668
_cell_angle_gamma 90.000000
_cell_volume 2634.719013
_symmetry_space_group_name_H-M "C 2/M"
_symmetry_group_IT_number 12
_symmetry_cell_setting 'monoclinic'
loop_
_space_group_symop_operation_xyz
x,y,z
-x,y,-z
-x,-y,-z
x,-y,z
1/2+x,1/2+y,z
1/2-x,1/2+y,-z
1/2-x,1/2-y,-z
1/2+x,1/2-y,z
loop_
_atom_site_type_symbol
_atom_site_label
_atom_site_fract_x
_atom_site_fract_y
_atom_site_fract_z
Si Si1 0.432730 0.262257 0.681046
Si Si2 0.997035 0.874184 0.664563
Si Si3 0.625773 0.054751 0.235976
Si Si4 0.214642 0.054765 0.093049
Si Si5 0.264205 0.443708 0.443989
Si Si6 0.119360 0.401893 0.775761
Si Si7 0.111184 0.287526 0.823746
O O1 0.500000 0.254444 0.500000
O O2 0.474751 0.317456 0.703204
O O3 0.263329 0.261160 0.762612
O O4 0.519746 0.228325 0.739660
O O5 0.881531 0.905227 0.794821
O O6 0.000000 0.879895 0.500000
O O7 0.132783 0.900890 0.647831
O O8 0.651874 0.057432 0.381302
O O9 0.527552 0.094883 0.222469
O O10 0.568149 0.000000 0.235625
O O11 0.763038 0.058011 0.078370
O O12 0.355749 0.066668 0.101799
O O13 0.168424 0.000000 0.148309
O O14 0.317387 0.500000 0.421732
O O15 0.211794 0.427984 0.616260
O O16 0.148172 0.345092 0.790874
O O17 0.000000 0.280894 0.000000
#
# Coordination Sequence:
#
# PCOD9216574 Si02
#       7
#     8   8   8   8   8   8   8
#     4  11  25  48  72 101 138 180 235 296 353 418
#     4  11  22  41  65  93 128 167 226 274 329 401
#     4  10  23  38  56  92 135 170 214 270 329 399
#     4  11  21  37  63  91 127 171 213 262 324 391
#     4  11  23  40  63  96 136 176 218 273 333 402
#     4  12  22  39  66  93 128 173 222 268 329 409
#     4  12  26  47  73 102 141 180 234 298 357 414
#
# _framework density 21.254638
#
# number of rings (size 3 to 8) (size 9 to 14) (size 15 to 20)
#    0.000    0.857    2.857    5.143    0.000    5.714 
#    2.571    2.143    0.000    0.000    0.000    0.000 
#    0.000    0.000    0.000    0.000    0.000    0.000 
#
# Total GULP energy -156133.770208 kJ/mol
# GULP energy per Si atom -5576.206079 kJ/mol
# Density = 2.120626 g / cm^3
# Si number density = 21.254638 Si / 1000 Ang^3
#
#
#
# Elastic Constant Matrix: (Units=GPa)
#
#
# Indices 1 2 3 4 5 6 
#
# 1 69.3135 16.2137 28.8902 0.0000 -7.4398 0.0000
# 2 16.2137 58.7436 23.6960 0.0000 3.9766 0.0000
# 3 28.8902 23.6960 66.2649 0.0000 1.9175 0.0000
# 4 0.0000 0.0000 0.0000 41.4448 0.0000 22.1748
# 5 -7.4398 3.9766 1.9175 0.0000 30.2363 0.0000
# 6 0.0000 0.0000 0.0000 22.1748 0.0000 39.2377
#
#
#
# Elastic Compliance Matrix: (Units=1/GPa)
#
#
# Indices 1 2 3 4 5 6 
#
# 1 0.018682 -0.002540 -0.007393 0.000000 0.005400 0.000000
# 2 -0.002540 0.020381 -0.006096 0.000000 -0.002919 0.000000
# 3 -0.007393 -0.006096 0.020561 0.000000 -0.002321 0.000000
# 4 0.000000 0.000000 0.000000 0.034587 0.000000 -0.019546
# 5 0.005400 -0.002919 -0.002321 0.000000 0.034933 0.000000
# 6 0.000000 0.000000 0.000000 -0.019546 0.000000 0.036532
#
#
# Mechanical properties :
#
#
# Convention : Reuss Voigt Hill
#
# Bulk Modulus (GPa) = 36.27647 36.88019 36.57833
# Shear Modulus (GPa) = 24.16356 30.55190 27.35773
#
# Velocity S-wave (km/s) = 3.37539 3.79545 3.59157
# Velocity P-wave (km/s) = 5.68293 6.04950 5.86908
#
# Compressibility (1/GPa) = 0.02756608
#
# Stress axis : x y z
#
# Youngs Moduli (GPa) = 53.52630 49.06563 48.63476
#
# Poissons Ratio (x) = 0.12461 0.35957
# Poissons Ratio (y) = 0.13594 0.29650
# Poissons Ratio (z) = 0.39573 0.29912
#
# Static dielectric constant tensor:
#      x y z
#    x 1.901530 0.000000 -0.079710 
#    y 0.000000 1.729310 0.000000 
#    z -0.079710 0.000000 1.782540 
# 
# From -- ./inp_files/53181.got.cif
#   From: 2010.05.17/outbox.cif.g08.bks.cpg/sg12_27_cif.got.tgz:53181.got - 2010.06.03 13:09:07.
