data_PCOD9216254
_publ_section_title
;
Structure prediction by ZEFSAII (Michael W. Deem and Ramdas Pophale) SiO2 
 PCOD9216254
Probable space group: C 2/M
;
_chemical_formula_sum "Si O2"
_cell_formula_units_Z 60
_cell_length_a 19.905725
_cell_length_b 9.568881
_cell_length_c 16.510761
_cell_angle_alpha 90.000000
_cell_angle_beta 125.245111
_cell_angle_gamma 90.000000
_cell_volume 2568.407370
_symmetry_space_group_name_H-M "C 2/M"
_symmetry_group_IT_number 12
_symmetry_cell_setting 'monoclinic'
loop_
_space_group_symop_operation_xyz
x,y,z
-x,y,-z
-x,-y,-z
x,-y,z
1/2+x,1/2+y,z
1/2-x,1/2+y,-z
1/2-x,1/2-y,-z
1/2+x,1/2-y,z
loop_
_atom_site_type_symbol
_atom_site_label
_atom_site_fract_x
_atom_site_fract_y
_atom_site_fract_z
Si Si1 0.587383 0.830509 0.456858
Si Si2 0.629645 0.649643 0.031224
Si Si3 0.329919 0.339504 0.630069
Si Si4 0.803754 0.165963 0.359914
Si Si5 0.279125 0.661222 0.149668
Si Si6 0.526743 0.000000 0.172582
Si Si7 0.055021 0.207714 0.148456
Si Si8 0.069410 0.348355 0.754504
O O1 0.644807 0.757206 0.428159
O O2 0.613504 0.747630 0.555372
O O3 0.495001 0.807380 0.360218
O O4 0.599061 0.000000 0.469446
O O5 0.664685 0.500000 0.031095
O O6 0.695782 0.768510 0.060698
O O7 0.609561 0.648904 0.112892
O O8 0.539682 0.669491 0.931238
O O9 0.304509 0.500000 0.592004
O O10 0.265381 0.251480 0.638698
O O11 0.408510 0.347976 0.742947
O O12 0.785471 0.175654 0.252060
O O13 0.805781 0.000000 0.382488
O O14 0.280660 0.500000 0.129670
O O15 0.360320 0.740308 0.176783
O O16 0.565227 0.125320 0.146259
O O17 0.486323 0.117477 0.206060
O O18 0.107097 0.500000 0.757306
#
# Coordination Sequence:
#
# PCOD9216254 Si02
#       8
#     8   8   8   8   8   4   8   8
#     4  11  22  41  64  91 125 167 218 263 323 387
#     4  11  24  41  66 103 137 166 212 272 329 391
#     4  12  22  37  62  93 130 168 209 264 328 387
#     4  11  25  40  59  92 128 166 214 267 329 381
#     4  11  25  43  65  93 130 175 220 270 321 384
#     4  10  22  43  70  99 130 173 213 275 321 390
#     4  11  22  39  70  98 133 166 214 265 329 394
#     4   9  21  44  67  88 124 170 216 264 317 375
#
# _framework density 23.360780999999999
#
# number of rings (size 3 to 8) (size 9 to 14) (size 15 to 20)
#    0.400    0.800    2.667    3.600    2.800    3.733 
#    0.000    3.333    0.000    0.000    0.000    0.000 
#    0.000    0.000    0.000    0.000    0.000    0.000 
#
# Total GULP energy -167250.528532 kJ/mol
# GULP energy per Si atom -5575.017618 kJ/mol
# Density = 2.330761 g / cm^3
# Si number density = 23.360781 Si / 1000 Ang^3
#
#
#
# Elastic Constant Matrix: (Units=GPa)
#
#
# Indices 1 2 3 4 5 6 
#
# 1 54.8030 28.9002 8.8365 0.0000 -0.1555 0.0000
# 2 28.9002 184.3636 32.3492 0.0000 13.0171 0.0000
# 3 8.8365 32.3492 80.1614 0.0000 9.5314 0.0000
# 4 0.0000 0.0000 0.0000 -63.9535 0.0000 -35.6485
# 5 -0.1555 13.0171 9.5314 0.0000 34.4176 0.0000
# 6 0.0000 0.0000 0.0000 -35.6485 0.0000 16.9400
#
#
#
# Elastic Compliance Matrix: (Units=1/GPa)
#
#
# Indices 1 2 3 4 5 6 
#
# 1 0.020047 -0.003049 -0.001166 0.000000 0.001566 0.000000
# 2 -0.003049 0.006388 -0.002020 0.000000 -0.001871 0.000000
# 3 -0.001166 -0.002020 0.013782 0.000000 -0.003058 0.000000
# 4 0.000000 0.000000 0.000000 -0.007196 0.000000 -0.015143
# 5 0.001566 -0.001871 -0.003058 0.000000 0.030616 0.000000
# 6 0.000000 0.000000 0.000000 -0.015143 0.000000 0.027166
#
#
# Mechanical properties :
#
#
# Convention : Reuss Voigt Hill
#
# Bulk Modulus (GPa) = 36.03657 51.05553 43.54605
# Shear Modulus (GPa) = 44.43575 14.09695 29.26635
#
# Velocity S-wave (km/s) = 4.36610 2.45918 3.54333
# Velocity P-wave (km/s) = 6.39349 5.47413 5.95159
#
# Compressibility (1/GPa) = 0.02774959
#
# Stress axis : x y z
#
# Youngs Moduli (GPa) = 49.88206 156.53407 72.55860
#
# Poissons Ratio (x) = 0.47721 0.08460
# Poissons Ratio (y) = 0.15207 0.14654
# Poissons Ratio (z) = 0.05816 0.31613
#
# Static dielectric constant tensor:
#      x y z
#    x 1.904750 0.000000 -0.002430 
#    y 0.000000 1.909300 0.000000 
#    z -0.002430 0.000000 1.925350 
# 
# From -- ./inp_files/324614.got.cif
#   From: 2010.05.17/outbox.cif.g08.bks.cpg/sg12_163_cif.got.tgz:324614.got - 2010.06.03 13:09:07.
