data_PCOD9216930
_publ_section_title
;
Structure prediction by ZEFSAII (Michael W. Deem and Ramdas Pophale) SiO2 
 PCOD9216930
Probable space group: C 2/M
;
_chemical_formula_sum "Si O2"
_cell_formula_units_Z 48
_cell_length_a 9.253700
_cell_length_b 11.283245
_cell_length_c 18.897895
_cell_angle_alpha 90.000000
_cell_angle_beta 74.358228
_cell_angle_gamma 90.000000
_cell_volume 1900.088954
_symmetry_space_group_name_H-M "C 2/M"
_symmetry_group_IT_number 12
_symmetry_cell_setting 'monoclinic'
loop_
_space_group_symop_operation_xyz
x,y,z
-x,y,-z
-x,-y,-z
x,-y,z
1/2+x,1/2+y,z
1/2-x,1/2+y,-z
1/2-x,1/2-y,-z
1/2+x,1/2-y,z
loop_
_atom_site_type_symbol
_atom_site_label
_atom_site_fract_x
_atom_site_fract_y
_atom_site_fract_z
Si Si1 0.932564 0.373368 0.333773
Si Si2 0.179672 0.867441 0.473812
Si Si3 0.016232 0.873940 0.308610
Si Si4 0.347160 0.632336 0.973403
Si Si5 0.085502 0.127176 0.832135
Si Si6 0.335662 0.875000 0.191124
O O1 0.997719 0.500000 0.349346
O O2 0.762385 0.370614 0.386112
O O3 0.942766 0.372293 0.247057
O O4 0.000894 0.250046 0.349926
O O5 0.250000 0.750000 0.500000
O O6 0.000000 0.859149 0.500000
O O7 0.219997 0.000000 0.497980
O O8 0.905886 0.871139 0.254302
O O9 0.175438 0.878025 0.249553
O O10 0.990609 0.000000 0.349122
O O11 0.278880 0.500000 0.995087
O O12 0.416242 0.629655 0.884903
O O13 0.500000 0.637503 0.000000
O O14 0.250000 0.750000 0.000000
O O15 0.150178 0.250990 0.849794
O O16 0.150490 0.000000 0.846714
O O17 0.365285 0.000000 0.149529
#
# Coordination Sequence:
#
# PCOD9216930 Si02
#       6
#     8   8   8   8   8   8
#     4   9  19  35  52  78 110 141 183 231 282 341
#     4  10  23  41  62  87 118 157 198 242 291 344
#     4   9  18  32  54  80 105 140 181 228 284 340
#     4  10  23  41  60  86 119 157 200 245 292 347
#     4   9  19  35  52  77 111 142 183 235 285 339
#     4   9  18  32  54  80 106 139 181 228 282 343
#
# _framework density 25.261973999999999
#
# number of rings (size 3 to 8) (size 9 to 14) (size 15 to 20)
#    0.000    2.667    0.000    0.000    4.667    2.667 
#    0.000    0.000    0.000    0.000    0.000    0.000 
#    0.000    0.000    0.000    0.000    0.000    0.000 
#
# Total GULP energy -133772.124186 kJ/mol
# GULP energy per Si atom -5573.838508 kJ/mol
# Density = 2.520448 g / cm^3
# Si number density = 25.261974 Si / 1000 Ang^3
#
#
#
# Elastic Constant Matrix: (Units=GPa)
#
#
# Indices 1 2 3 4 5 6 
#
# 1 33.1718 67.7451 -4.6904 0.0000 -0.2343 0.0000
# 2 67.7451 382.9167 34.2498 0.0000 -19.6570 0.0000
# 3 -4.6904 34.2498 76.2683 0.0000 5.1768 0.0000
# 4 0.0000 0.0000 0.0000 14.0588 0.0000 -19.9520
# 5 -0.2343 -19.6570 5.1768 0.0000 29.6391 0.0000
# 6 0.0000 0.0000 0.0000 -19.9520 0.0000 31.2947
#
#
#
# Elastic Compliance Matrix: (Units=1/GPa)
#
#
# Indices 1 2 3 4 5 6 
#
# 1 0.052747 -0.010505 0.008507 0.000000 -0.008036 0.000000
# 2 -0.010505 0.004941 -0.003119 0.000000 0.003739 0.000000
# 3 0.008507 -0.003119 0.015353 0.000000 -0.004683 0.000000
# 4 0.000000 0.000000 0.000000 0.747184 0.000000 0.476368
# 5 -0.008036 0.003739 -0.004683 0.000000 0.036973 0.000000
# 6 0.000000 0.000000 0.000000 0.476368 0.000000 0.335664
#
#
# Mechanical properties :
#
#
# Convention : Reuss Voigt Hill
#
# Bulk Modulus (GPa) = 15.92189 76.32953 46.12571
# Shear Modulus (GPa) = 4.08486 41.33536 22.71011
#
# Velocity S-wave (km/s) = 1.27299 4.04947 3.00156
# Velocity P-wave (km/s) = 2.91154 7.22115 5.50555
#
# Compressibility (1/GPa) = 0.06280661
#
# Stress axis : x y z
#
# Youngs Moduli (GPa) = 18.95855 202.38896 65.13343
#
# Poissons Ratio (x) = 2.12615 -0.55408
# Poissons Ratio (y) = 0.19917 0.20313
# Poissons Ratio (z) = -0.16128 0.63118
#
# Static dielectric constant tensor:
#      x y z
#    x 2.027280 0.000000 0.092720 
#    y 0.000000 2.050110 0.000000 
#    z 0.092720 0.000000 2.034130 
# 
# From -- ./inp_files/334791.got.cif
#   From: 2010.05.17/outbox.cif.g08.bks.cpg/sg12_168_cif.got.tgz:334791.got - 2010.06.03 13:09:07.
