data_PCOD9216904
_publ_section_title
;
Structure prediction by ZEFSAII (Michael W. Deem and Ramdas Pophale) SiO2 
 PCOD9216904
Probable space group: C 2/M
;
_chemical_formula_sum "Si O2"
_cell_formula_units_Z 56
_cell_length_a 18.923037
_cell_length_b 9.033754
_cell_length_c 20.117552
_cell_angle_alpha 90.000000
_cell_angle_beta 65.878923
_cell_angle_gamma 90.000000
_cell_volume 3138.734806
_symmetry_space_group_name_H-M "C 2/M"
_symmetry_group_IT_number 12
_symmetry_cell_setting 'monoclinic'
loop_
_space_group_symop_operation_xyz
x,y,z
-x,y,-z
-x,-y,-z
x,-y,z
1/2+x,1/2+y,z
1/2-x,1/2+y,-z
1/2-x,1/2-y,-z
1/2+x,1/2-y,z
loop_
_atom_site_type_symbol
_atom_site_label
_atom_site_fract_x
_atom_site_fract_y
_atom_site_fract_z
Si Si1 0.550309 0.821102 0.916017
Si Si2 0.497091 0.326289 0.798678
Si Si3 0.716899 0.169116 0.820259
Si Si4 0.219581 0.169814 0.446879
Si Si5 0.576617 0.178645 0.427842
Si Si6 0.881580 0.677526 0.740429
Si Si7 0.137660 0.661024 0.706726
O O1 0.513609 0.746622 0.864506
O O2 0.641141 0.778150 0.890412
O O3 0.550028 0.000000 0.906716
O O4 0.500000 0.785625 0.000000
O O5 0.483399 0.500000 0.810628
O O6 0.430894 0.248825 0.780910
O O7 0.575945 0.290641 0.728093
O O8 0.793539 0.266538 0.784943
O O9 0.679614 0.163334 0.761392
O O10 0.737383 0.000000 0.832193
O O11 0.303206 0.500000 0.531278
O O12 0.250000 0.250000 0.500000
O O13 0.149790 0.253599 0.437859
O O14 0.294212 0.169914 0.371250
O O15 0.500000 0.221682 0.500000
O O16 0.584894 0.221528 0.346121
O O17 0.580339 0.000000 0.427907
O O18 0.884297 0.500000 0.742646
O O19 0.097278 0.500000 0.714959
#
# Coordination Sequence:
#
# PCOD9216904 Si02
#       7
#     8   8   8   8   8   8   8
#     4   9  19  39  65  90 119 153 186 225 280 343
#     4  11  23  36  57  87 118 149 191 238 280 333
#     4   9  17  34  59  85 111 143 186 230 279 334
#     4  11  23  38  57  81 111 146 189 240 291 345
#     4  10  23  41  58  80 112 153 197 244 296 343
#     4  11  22  37  58  82 115 154 195 239 288 345
#     4   9  19  37  57  77 108 148 188 233 285 340
#
# _framework density 17.841584000000001
#
# number of rings (size 3 to 8) (size 9 to 14) (size 15 to 20)
#    0.000    2.000    1.429    3.000    2.000    4.571 
#    0.000    0.714    0.000    0.000    0.000    0.000 
#    0.000    0.000    0.000    0.000    0.000    0.000 
#
# Total GULP energy -156070.085572 kJ/mol
# GULP energy per Si atom -5573.931628 kJ/mol
# Density = 1.780098 g / cm^3
# Si number density = 17.841584 Si / 1000 Ang^3
#
#
#
# Elastic Constant Matrix: (Units=GPa)
#
#
# Indices 1 2 3 4 5 6 
#
# 1 105.5155 49.8931 58.5239 0.0000 -3.7276 0.0000
# 2 49.8931 62.2192 45.6248 0.0000 -2.8705 0.0000
# 3 58.5239 45.6248 117.0085 0.0000 -14.9262 0.0000
# 4 0.0000 0.0000 0.0000 19.8983 0.0000 -5.6426
# 5 -3.7276 -2.8705 -14.9262 0.0000 21.1629 0.0000
# 6 0.0000 0.0000 0.0000 -5.6426 0.0000 31.0195
#
#
#
# Elastic Compliance Matrix: (Units=1/GPa)
#
#
# Indices 1 2 3 4 5 6 
#
# 1 0.016793 -0.010119 -0.004672 0.000000 -0.001710 0.000000
# 2 -0.010119 0.028837 -0.006496 0.000000 -0.002452 0.000000
# 3 -0.004672 -0.006496 0.014503 0.000000 0.008525 0.000000
# 4 0.000000 0.000000 0.000000 0.052989 0.000000 0.009639
# 5 -0.001710 -0.002452 0.008525 0.000000 0.052632 0.000000
# 6 0.000000 0.000000 0.000000 0.009639 0.000000 0.033991
#
#
# Mechanical properties :
#
#
# Convention : Reuss Voigt Hill
#
# Bulk Modulus (GPa) = 56.94804 65.86963 61.40883
# Shear Modulus (GPa) = 20.14735 23.12958 21.63846
#
# Velocity S-wave (km/s) = 3.36406 3.60444 3.48632
# Velocity P-wave (km/s) = 6.86128 7.37034 7.12036
#
# Compressibility (1/GPa) = 0.01755987
#
# Stress axis : x y z
#
# Youngs Moduli (GPa) = 59.54903 34.67766 68.94960
#
# Poissons Ratio (x) = 0.35092 0.32210
# Poissons Ratio (y) = 0.60260 0.44788
# Poissons Ratio (z) = 0.27818 0.22526
#
# Static dielectric constant tensor:
#      x y z
#    x 1.587380 0.000000 -0.036450 
#    y 0.000000 1.619620 0.000000 
#    z -0.036450 0.000000 1.558100 
# 
# From -- ./inp_files/313785.got.cif
#   From: 2010.05.17/outbox.cif.g08.bks.cpg/sg12_157_cif.got.tgz:313785.got - 2010.06.03 13:09:07.
