data_PCOD9216764
_publ_section_title
;
Structure prediction by ZEFSAII (Michael W. Deem and Ramdas Pophale) SiO2 
 PCOD9216764
Probable space group: C 2/M
;
_chemical_formula_sum "Si O2"
_cell_formula_units_Z 40
_cell_length_a 12.524234
_cell_length_b 20.361618
_cell_length_c 12.127039
_cell_angle_alpha 90.000000
_cell_angle_beta 145.466745
_cell_angle_gamma 90.000000
_cell_volume 1753.124641
_symmetry_space_group_name_H-M "C 2/M"
_symmetry_group_IT_number 12
_symmetry_cell_setting 'monoclinic'
loop_
_space_group_symop_operation_xyz
x,y,z
-x,y,-z
-x,-y,-z
x,-y,z
1/2+x,1/2+y,z
1/2-x,1/2+y,-z
1/2-x,1/2-y,-z
1/2+x,1/2-y,z
loop_
_atom_site_type_symbol
_atom_site_label
_atom_site_fract_x
_atom_site_fract_y
_atom_site_fract_z
Si Si1 0.177491 0.302685 0.730759
Si Si2 0.024203 0.620787 0.276178
Si Si3 0.798571 0.075373 0.699596
Si Si4 0.846006 0.926114 0.154965
Si Si5 0.798602 0.659850 0.787058
O O1 0.277740 0.369267 0.775013
O O2 0.289958 0.236446 0.808356
O O3 0.000000 0.293649 0.500000
O O4 0.089588 0.315658 0.775637
O O5 0.125988 0.586345 0.466285
O O6 0.186031 0.642846 0.328400
O O7 0.857089 0.579336 0.078330
O O8 0.989349 0.086556 0.792913
O O9 0.795376 0.000000 0.737462
O O10 0.849294 0.876869 0.261123
O O11 0.871565 0.000000 0.218379
O O12 0.000000 0.634409 0.000000
#
# Coordination Sequence:
#
# PCOD9216764 Si02
#       5
#     8   8   8   8   8
#     4  10  24  39  62  91 122 161 202 249 299 363
#     4  10  23  40  62  88 121 164 196 254 303 350
#     4  10  23  41  63  92 122 158 204 249 298 361
#     4  10  23  41  63  92 122 158 204 249 298 361
#     4  10  24  39  62  91 122 161 202 249 299 363
#
# _framework density 22.816403999999999
#
# number of rings (size 3 to 8) (size 9 to 14) (size 15 to 20)
#    0.000    2.000    0.000    0.600    8.400   12.000 
#    0.000    4.000    0.000    0.000    0.000    0.000 
#    0.000    0.000    0.000    0.000    0.000    0.000 
#
# Total GULP energy -111719.310652 kJ/mol
# GULP energy per Si atom -5585.965533 kJ/mol
# Density = 2.276447 g / cm^3
# Si number density = 22.816404 Si / 1000 Ang^3
#
#
#
# Elastic Constant Matrix: (Units=GPa)
#
#
# Indices 1 2 3 4 5 6 
#
# 1 103.6032 60.0425 23.3568 0.0000 11.7105 0.0000
# 2 60.0425 79.9012 8.4234 0.0000 0.8809 0.0000
# 3 23.3568 8.4234 54.0353 0.0000 14.1929 0.0000
# 4 0.0000 0.0000 0.0000 12.2734 0.0000 4.1260
# 5 11.7105 0.8809 14.1929 0.0000 34.2189 0.0000
# 6 0.0000 0.0000 0.0000 4.1260 0.0000 28.6928
#
#
#
# Elastic Compliance Matrix: (Units=1/GPa)
#
#
# Indices 1 2 3 4 5 6 
#
# 1 0.019369 -0.013971 -0.005104 0.000000 -0.004152 0.000000
# 2 -0.013971 0.022812 0.001550 0.000000 0.003551 0.000000
# 3 -0.005104 0.001550 0.022471 0.000000 -0.007613 0.000000
# 4 0.000000 0.000000 0.000000 0.085616 0.000000 -0.012312
# 5 -0.004152 0.003551 -0.007613 0.000000 0.033711 0.000000
# 6 0.000000 0.000000 0.000000 -0.012312 0.000000 0.036622
#
#
# Mechanical properties :
#
#
# Convention : Reuss Voigt Hill
#
# Bulk Modulus (GPa) = 33.78161 46.79834 40.28998
# Shear Modulus (GPa) = 18.83119 24.75149 21.79134
#
# Velocity S-wave (km/s) = 2.87598 3.29722 3.09378
# Velocity P-wave (km/s) = 5.08590 5.92038 5.51893
#
# Compressibility (1/GPa) = 0.02960190
#
# Stress axis : x y z
#
# Youngs Moduli (GPa) = 51.62874 43.83717 44.50270
#
# Poissons Ratio (x) = 0.61246 0.22713
# Poissons Ratio (y) = 0.72132 -0.06899
# Poissons Ratio (z) = 0.26350 -0.06796
#
# Static dielectric constant tensor:
#      x y z
#    x 1.906490 0.000000 -0.009330 
#    y 0.000000 1.840770 0.000000 
#    z -0.009330 0.000000 1.887670 
# 
# From -- ./inp_files/29303.got.cif
#   From: 2010.05.17/outbox.cif.g08.bks.cpg/sg12_15_cif.got.tgz:29303.got - 2010.06.03 13:09:07.
