data_PCOD9216126
_publ_section_title
;
Structure prediction by ZEFSAII (Michael W. Deem and Ramdas Pophale) SiO2 
 PCOD9216126
Probable space group: C 2/M
;
_chemical_formula_sum "Si O2"
_cell_formula_units_Z 28
_cell_length_a 5.084198
_cell_length_b 13.610419
_cell_length_c 18.061337
_cell_angle_alpha 90.000000
_cell_angle_beta 57.804925
_cell_angle_gamma 90.000000
_cell_volume 1057.637563
_symmetry_space_group_name_H-M "C 2/M"
_symmetry_group_IT_number 12
_symmetry_cell_setting 'monoclinic'
loop_
_space_group_symop_operation_xyz
x,y,z
-x,y,-z
-x,-y,-z
x,-y,z
1/2+x,1/2+y,z
1/2-x,1/2+y,-z
1/2-x,1/2-y,-z
1/2+x,1/2-y,z
loop_
_atom_site_type_symbol
_atom_site_label
_atom_site_fract_x
_atom_site_fract_y
_atom_site_fract_z
Si Si1 0.506977 0.209442 0.098248
Si Si2 0.016048 0.000000 0.585485
Si Si3 0.170552 0.177187 0.660633
Si Si4 0.219403 0.500000 0.255139
Si Si5 0.838121 0.500000 0.912120
O O1 0.197354 0.270862 0.143496
O O2 0.478729 0.095677 0.090491
O O3 0.750000 0.250000 0.000000
O O4 0.650332 0.000000 0.666981
O O5 0.000000 0.000000 0.500000
O O6 0.190697 0.903832 0.591330
O O7 0.437215 0.244202 0.657875
O O8 0.113754 0.095788 0.734495
O O9 0.217164 0.500000 0.167122
O O10 0.500000 0.500000 0.000000
#
# Coordination Sequence:
#
# PCOD9216126 Si02
#       5
#     8   4   8   4   4
#     4  10  22  43  65  98 133 176 239 296 366 430
#     4  11  26  50  78 120 159 197 253 314 376 466
#     4  11  24  50  78 113 156 205 252 313 384 456
#     4  11  27  49  73 114 153 203 257 320 379 458
#     4  12  25  47  75 104 146 196 252 316 379 439
#
# _framework density 26.474097
#
# number of rings (size 3 to 8) (size 9 to 14) (size 15 to 20)
#    0.000    1.143    5.714    0.000    0.000    9.143 
#   10.286    0.000    0.000    0.000    0.000    0.000 
#    0.000    0.000    0.000    0.000    0.000    0.000 
#
# Total GULP energy -78278.093419 kJ/mol
# GULP energy per Si atom -5591.292387 kJ/mol
# Density = 2.641384 g / cm^3
# Si number density = 26.474097 Si / 1000 Ang^3
#
#
#
# Elastic Constant Matrix: (Units=GPa)
#
#
# Indices 1 2 3 4 5 6 
#
# 1 169.1642 49.1184 35.4520 0.0000 22.6127 0.0000
# 2 49.1184 263.3925 20.2583 0.0000 18.4542 0.0000
# 3 35.4520 20.2583 171.0459 0.0000 24.8289 0.0000
# 4 0.0000 0.0000 0.0000 15.2424 0.0000 33.1652
# 5 22.6127 18.4542 24.8289 0.0000 57.5497 0.0000
# 6 0.0000 0.0000 0.0000 33.1652 0.0000 64.4019
#
#
#
# Elastic Compliance Matrix: (Units=1/GPa)
#
#
# Indices 1 2 3 4 5 6 
#
# 1 0.006669 -0.001037 -0.000989 0.000000 -0.001861 0.000000
# 2 -0.001037 0.004059 -0.000145 0.000000 -0.000832 0.000000
# 3 -0.000989 -0.000145 0.006407 0.000000 -0.002329 0.000000
# 4 0.000000 0.000000 0.000000 -0.544443 0.000000 0.280373
# 5 -0.001861 -0.000832 -0.002329 0.000000 0.019379 0.000000
# 6 0.000000 0.000000 0.000000 0.280373 0.000000 -0.128857
#
#
# Mechanical properties :
#
#
# Convention : Reuss Voigt Hill
#
# Bulk Modulus (GPa) = 78.17501 90.36221 84.26861
# Shear Modulus (GPa) = -7.95950 60.69039 26.36544
#
# Velocity S-wave (km/s) = -1.73581 4.79314 3.15921
# Velocity P-wave (km/s) = 5.05723 8.05225 6.72362
#
# Compressibility (1/GPa) = 0.01279181
#
# Stress axis : x y z
#
# Youngs Moduli (GPa) = 149.95605 246.33891 156.08769
#
# Poissons Ratio (x) = 0.25548 0.15440
# Poissons Ratio (y) = 0.15552 0.02265
# Poissons Ratio (z) = 0.14834 0.03575
#
# Static dielectric constant tensor:
#      x y z
#    x 0.021740 0.000000 -1.235010 
#    y 0.000000 2.045320 0.000000 
#    z -1.235010 0.000000 1.441120 
# 
# From -- ./inp_files/252270.got.cif
#   From: 2010.05.17/outbox.cif.g08.bks.cpg/sg12_127_cif.got.tgz:252270.got - 2010.06.03 13:09:07.
