data_PCOD9216264
_publ_section_title
;
Structure prediction by ZEFSAII (Michael W. Deem and Ramdas Pophale) SiO2 
 PCOD9216264
Probable space group: C 2/M
;
_chemical_formula_sum "Si O2"
_cell_formula_units_Z 64
_cell_length_a 15.799767
_cell_length_b 31.445338
_cell_length_c 8.702925
_cell_angle_alpha 90.000000
_cell_angle_beta 49.611716
_cell_angle_gamma 90.000000
_cell_volume 3293.362294
_symmetry_space_group_name_H-M "C 2/M"
_symmetry_group_IT_number 12
_symmetry_cell_setting 'monoclinic'
loop_
_space_group_symop_operation_xyz
x,y,z
-x,y,-z
-x,-y,-z
x,-y,z
1/2+x,1/2+y,z
1/2-x,1/2+y,-z
1/2-x,1/2-y,-z
1/2+x,1/2-y,z
loop_
_atom_site_type_symbol
_atom_site_label
_atom_site_fract_x
_atom_site_fract_y
_atom_site_fract_z
Si Si1 0.402934 0.449804 0.238412
Si Si2 0.793095 0.383225 0.547388
Si Si3 0.034066 0.260658 0.780770
Si Si4 0.010065 0.640940 0.170378
Si Si5 0.021935 0.110862 0.297697
Si Si6 0.840276 0.217809 0.825288
Si Si7 0.852280 0.184434 0.456858
Si Si8 0.255349 0.867046 0.942374
O O1 0.385876 0.500000 0.254545
O O2 0.289479 0.423441 0.354572
O O3 0.454946 0.431147 0.331952
O O4 0.500000 0.438503 0.000000
O O5 0.919857 0.390297 0.350688
O O6 0.745255 0.346637 0.488616
O O7 0.791360 0.368449 0.724807
O O8 0.027566 0.310431 0.745247
O O9 0.137260 0.228156 0.650432
O O10 0.954526 0.238294 0.747872
O O11 0.000000 0.259350 0.000000
O O12 0.135024 0.632264 0.081260
O O13 0.000000 0.637241 0.000000
O O14 0.000000 0.119863 0.500000
O O15 0.957907 0.152347 0.301148
O O16 0.151180 0.102597 0.106046
O O17 0.838084 0.201316 0.650287
O O18 0.750000 0.250000 0.000000
O O19 0.809190 0.176327 0.954787
#
# Coordination Sequence:
#
# PCOD9216264 Si02
#       8
#     8   8   8   8   8   8   8   8
#     4  10  22  43  71 103 134 155 191 257 330 401
#     4  11  25  41  66  93 124 167 215 257 324 392
#     4  11  23  37  54  81 119 164 220 272 315 361
#     4  11  26  42  59  86 125 174 223 264 309 366
#     4  11  21  37  66  99 129 162 204 258 327 383
#     4  12  23  37  57  83 125 173 219 272 321 359
#     4  11  23  37  59  88 125 167 213 273 321 371
#     4  12  22  40  61  91 124 171 215 263 315 376
#
# _framework density 19.433028
#
# number of rings (size 3 to 8) (size 9 to 14) (size 15 to 20)
#    0.000    0.875    5.000    2.250    5.250    1.750 
#    0.000    0.000    0.000    2.625    0.000    0.000 
#    0.000    0.000    0.000    0.000    0.000    0.000 
#
# Total GULP energy -178241.480357 kJ/mol
# GULP energy per Si atom -5570.046261 kJ/mol
# Density = 1.938880 g / cm^3
# Si number density = 19.433028 Si / 1000 Ang^3
#
#
#
# Elastic Constant Matrix: (Units=GPa)
#
#
# Indices 1 2 3 4 5 6 
#
# 1 105.8585 25.3211 32.5028 0.0000 -13.1732 0.0000
# 2 25.3211 43.1632 25.0044 0.0000 1.1775 0.0000
# 3 32.5028 25.0044 79.3864 0.0000 -11.7918 0.0000
# 4 0.0000 0.0000 0.0000 24.2916 0.0000 -80.2262
# 5 -13.1732 1.1775 -11.7918 0.0000 35.1539 0.0000
# 6 0.0000 0.0000 0.0000 -80.2262 0.0000 1934.7155
#
#
#
# Elastic Compliance Matrix: (Units=1/GPa)
#
#
# Indices 1 2 3 4 5 6 
#
# 1 0.012081 -0.005698 -0.002579 0.000000 0.003853 0.000000
# 2 -0.005698 0.031613 -0.008523 0.000000 -0.006053 0.000000
# 3 -0.002579 -0.008523 0.017087 0.000000 0.005051 0.000000
# 4 0.000000 0.000000 0.000000 0.047699 0.000000 0.001978
# 5 0.003853 -0.006053 0.005051 0.000000 0.031787 0.000000
# 6 0.000000 0.000000 0.000000 0.001978 0.000000 0.000599
#
#
# Mechanical properties :
#
#
# Convention : Reuss Voigt Hill
#
# Bulk Modulus (GPa) = 36.79146 43.78496 40.28821
# Shear Modulus (GPa) = 27.24379 408.53751 217.89065
#
# Velocity S-wave (km/s) = 3.74830 14.51499 10.60034
# Velocity P-wave (km/s) = 6.14057 17.42106 13.06139
#
# Compressibility (1/GPa) = 0.02718022
#
# Stress axis : x y z
#
# Youngs Moduli (GPa) = 82.77526 31.63223 58.52238
#
# Poissons Ratio (x) = 0.18024 0.15094
# Poissons Ratio (y) = 0.47166 0.49881
# Poissons Ratio (z) = 0.21350 0.26962
#
# Static dielectric constant tensor:
#      x y z
#    x 1.825030 0.000000 -0.100300 
#    y 0.000000 1.493180 0.000000 
#    z -0.100300 0.000000 1.760500 
# 
# From -- ./inp_files/68579.got.cif
#   From: 2010.05.17/outbox.cif.g08.bks.cpg/sg12_35_cif.got.tgz:68579.got - 2010.06.03 13:09:07.
