data_PCOD9216800
_publ_section_title
;
Structure prediction by ZEFSAII (Michael W. Deem and Ramdas Pophale) SiO2 
 PCOD9216800
Probable space group: C 2/M
;
_chemical_formula_sum "Si O2"
_cell_formula_units_Z 42
_cell_length_a 15.600988
_cell_length_b 18.389686
_cell_length_c 7.116711
_cell_angle_alpha 90.000000
_cell_angle_beta 76.047896
_cell_angle_gamma 90.000000
_cell_volume 1981.528036
_symmetry_space_group_name_H-M "C 2/M"
_symmetry_group_IT_number 12
_symmetry_cell_setting 'monoclinic'
loop_
_space_group_symop_operation_xyz
x,y,z
-x,y,-z
-x,-y,-z
x,-y,z
1/2+x,1/2+y,z
1/2-x,1/2+y,-z
1/2-x,1/2-y,-z
1/2+x,1/2-y,z
loop_
_atom_site_type_symbol
_atom_site_label
_atom_site_fract_x
_atom_site_fract_y
_atom_site_fract_z
Si Si1 0.367783 0.000000 0.892644
Si Si2 0.000000 0.500000 0.500000
Si Si3 0.368021 0.302676 0.799424
Si Si4 0.490330 0.420301 0.278287
Si Si5 0.294660 0.158019 0.851000
Si Si6 0.305037 0.629861 0.454474
Si Si7 0.321165 0.000000 0.352392
O O1 0.321351 0.925194 0.854979
O O2 0.460875 0.000000 0.737085
O O3 0.361558 0.000000 0.122287
O O4 0.897709 0.500000 0.468630
O O5 0.449096 0.353522 0.818397
O O6 0.374140 0.216169 0.829152
O O7 0.348828 0.320747 0.591692
O O8 0.280539 0.325979 0.957269
O O9 0.500000 0.422449 0.500000
O O10 0.519981 0.500000 0.194929
O O11 0.386822 0.407586 0.301672
O O12 0.252231 0.171075 0.669318
O O13 0.242776 0.569589 0.583654
#
# Coordination Sequence:
#
# PCOD9216800 Si02
#       7
#     4   2   8   8   8   8   4
#     4  12  25  45  70  96 128 172 226 285 336 395
#     4  12  26  48  68 100 120 166 240 288 316 406
#     4  10  23  40  63  98 138 177 226 270 333 398
#     4   9  19  35  63 100 132 168 213 265 328 399
#     4  11  23  41  67  95 131 182 226 274 328 398
#     4  11  20  41  68  97 133 175 216 271 345 408
#     4  12  23  43  73  98 128 169 221 282 347 407
#
# _framework density 21.195764
#
# number of rings (size 3 to 8) (size 9 to 14) (size 15 to 20)
#    0.000    1.333    4.762    0.857    2.667    0.762 
#    5.143    0.952    4.190    0.000    0.000    0.000 
#    0.000    0.000    0.000    0.000    0.000    0.000 
#
# Total GULP energy -116977.232213 kJ/mol
# GULP energy per Si atom -5570.344391 kJ/mol
# Density = 2.114752 g / cm^3
# Si number density = 21.195764 Si / 1000 Ang^3
#
#
#
# Elastic Constant Matrix: (Units=GPa)
#
#
# Indices 1 2 3 4 5 6 
#
# 1 87.2353 48.2119 18.1840 0.0000 -11.7836 0.0000
# 2 48.2119 144.8807 22.2596 0.0000 -16.9576 0.0000
# 3 18.1840 22.2596 71.0840 0.0000 3.2238 0.0000
# 4 0.0000 0.0000 0.0000 0.1764 0.0000 11.5043
# 5 -11.7836 -16.9576 3.2238 0.0000 30.2939 0.0000
# 6 0.0000 0.0000 0.0000 11.5043 0.0000 2.9781
#
#
#
# Elastic Compliance Matrix: (Units=1/GPa)
#
#
# Indices 1 2 3 4 5 6 
#
# 1 0.014776 -0.004066 -0.002677 0.000000 0.003756 0.000000
# 2 -0.004066 0.008980 -0.001938 0.000000 0.003652 0.000000
# 3 -0.002677 -0.001938 0.015531 0.000000 -0.003779 0.000000
# 4 0.000000 0.000000 0.000000 -0.022592 0.000000 0.087271
# 5 0.003756 0.003652 -0.003779 0.000000 0.036917 0.000000
# 6 0.000000 0.000000 0.000000 0.087271 0.000000 -0.001338
#
#
# Mechanical properties :
#
#
# Convention : Reuss Voigt Hill
#
# Bulk Modulus (GPa) = 45.60828 53.39010 49.49919
# Shear Modulus (GPa) = 64.98256 20.99265 42.98760
#
# Velocity S-wave (km/s) = 5.54300 3.15050 4.50835
# Velocity P-wave (km/s) = 7.90764 6.20306 7.10664
#
# Compressibility (1/GPa) = 0.02192584
#
# Stress axis : x y z
#
# Youngs Moduli (GPa) = 67.67837 111.35395 64.38833
#
# Poissons Ratio (x) = 0.45276 0.17236
# Poissons Ratio (y) = 0.27518 0.12476
# Poissons Ratio (z) = 0.18117 0.21576
#
# Static dielectric constant tensor:
#      x y z
#    x 1.751510 0.000000 0.013970 
#    y 0.000000 1.792090 0.000000 
#    z 0.013970 0.000000 1.779790 
# 
# From -- ./inp_files/61020.got.cif
#   From: 2010.05.17/outbox.cif.g08.bks.cpg/sg12_31_cif.got.tgz:61020.got - 2010.06.03 13:09:07.
