data_PCOD9216570
_publ_section_title
;
Structure prediction by ZEFSAII (Michael W. Deem and Ramdas Pophale) SiO2 
 PCOD9216570
Probable space group: C 2/M
;
_chemical_formula_sum "Si O2"
_cell_formula_units_Z 40
_cell_length_a 10.140854
_cell_length_b 27.637819
_cell_length_c 7.368645
_cell_angle_alpha 90.000000
_cell_angle_beta 104.509023
_cell_angle_gamma 90.000000
_cell_volume 1999.354619
_symmetry_space_group_name_H-M "C 2/M"
_symmetry_group_IT_number 12
_symmetry_cell_setting 'monoclinic'
loop_
_space_group_symop_operation_xyz
x,y,z
-x,y,-z
-x,-y,-z
x,-y,z
1/2+x,1/2+y,z
1/2-x,1/2+y,-z
1/2-x,1/2-y,-z
1/2+x,1/2-y,z
loop_
_atom_site_type_symbol
_atom_site_label
_atom_site_fract_x
_atom_site_fract_y
_atom_site_fract_z
Si Si1 0.500000 0.602346 0.000000
Si Si2 0.500000 0.845382 0.500000
Si Si3 0.807794 0.812746 0.049248
Si Si4 0.119662 0.615398 0.173170
Si Si5 0.304568 0.238886 0.318310
Si Si6 0.098926 0.943117 0.688690
O O1 0.377938 0.639932 0.990320
O O2 0.491486 0.567415 0.166611
O O3 0.435292 0.875028 0.643141
O O4 0.605719 0.808716 0.629170
O O5 0.671080 0.834559 0.095242
O O6 0.876771 0.784657 0.243883
O O7 0.800772 0.776365 0.876227
O O8 0.254673 0.582516 0.240460
O O9 0.000000 0.595938 0.000000
O O10 0.250000 0.250000 0.500000
O O11 0.000000 0.922448 0.500000
O O12 0.120577 0.000000 0.666664
#
# Coordination Sequence:
#
# PCOD9216570 Si02
#       6
#     4   4   8   8   8   8
#     4  10  23  38  66  90 124 160 210 268 315 374
#     4  12  24  38  63  86 132 176 219 262 320 362
#     4  10  23  38  55  89 126 167 219 257 307 365
#     4  11  23  42  63  94 128 166 209 265 323 386
#     4  11  23  36  56  85 126 177 216 257 300 361
#     4  10  24  45  70  97 124 159 209 266 330 403
#
# _framework density 20.006454999999999
#
# number of rings (size 3 to 8) (size 9 to 14) (size 15 to 20)
#    0.000    1.400    4.000    0.300    5.600    0.400 
#    1.800    0.500    0.000    0.000    0.000    0.000 
#    0.000    0.000    0.000    0.000    0.000    0.000 
#
# Total GULP energy -111360.296729 kJ/mol
# GULP energy per Si atom -5568.014836 kJ/mol
# Density = 1.996092 g / cm^3
# Si number density = 20.006455 Si / 1000 Ang^3
#
#
#
# Elastic Constant Matrix: (Units=GPa)
#
#
# Indices 1 2 3 4 5 6 
#
# 1 87.0469 28.9847 70.2922 0.0000 -17.1918 0.0000
# 2 28.9847 49.1018 21.1940 0.0000 8.0506 0.0000
# 3 70.2922 21.1940 149.7438 0.0000 -11.3395 0.0000
# 4 0.0000 0.0000 0.0000 23.3122 0.0000 -0.1707
# 5 -17.1918 8.0506 -11.3395 0.0000 36.0002 0.0000
# 6 0.0000 0.0000 0.0000 -0.1707 0.0000 31.5095
#
#
#
# Elastic Compliance Matrix: (Units=1/GPa)
#
#
# Indices 1 2 3 4 5 6 
#
# 1 0.025907 -0.013295 -0.009340 0.000000 0.012403 0.000000
# 2 -0.013295 0.029838 0.001057 0.000000 -0.012689 0.000000
# 3 -0.009340 0.001057 0.010815 0.000000 -0.001290 0.000000
# 4 0.000000 0.000000 0.000000 0.042898 0.000000 0.000232
# 5 0.012403 -0.012689 -0.001290 0.000000 0.036132 0.000000
# 6 0.000000 0.000000 0.000000 0.000232 0.000000 0.031738
#
#
# Mechanical properties :
#
#
# Convention : Reuss Voigt Hill
#
# Bulk Modulus (GPa) = 42.72823 58.53715 50.63269
# Shear Modulus (GPa) = 21.90247 29.19249 25.54748
#
# Velocity S-wave (km/s) = 3.31232 3.82403 3.57734
# Velocity P-wave (km/s) = 6.00268 6.98715 6.51354
#
# Compressibility (1/GPa) = 0.02340373
#
# Stress axis : x y z
#
# Youngs Moduli (GPa) = 38.59973 33.51440 92.46182
#
# Poissons Ratio (x) = 0.44557 0.86362
# Poissons Ratio (y) = 0.51317 -0.09772
# Poissons Ratio (z) = 0.36053 -0.03542
#
# Static dielectric constant tensor:
#      x y z
#    x 1.765270 0.000000 0.024420 
#    y 0.000000 1.755580 0.000000 
#    z 0.024420 0.000000 1.827040 
# 
# From -- ./inp_files/8566.got.cif
#   From: 2010.05.17/outbox.cif.g08.bks.cpg/sg12_5_cif.got.tgz:8566.got - 2010.06.03 13:09:07.
