data_PCOD9216863
_publ_section_title
;
Structure prediction by ZEFSAII (Michael W. Deem and Ramdas Pophale) SiO2 
 PCOD9216863
Probable space group: C 2/M
;
_chemical_formula_sum "Si O2"
_cell_formula_units_Z 52
_cell_length_a 9.060301
_cell_length_b 16.255711
_cell_length_c 17.909199
_cell_angle_alpha 90.000000
_cell_angle_beta 58.482891
_cell_angle_gamma 90.000000
_cell_volume 2248.593999
_symmetry_space_group_name_H-M "C 2/M"
_symmetry_group_IT_number 12
_symmetry_cell_setting 'monoclinic'
loop_
_space_group_symop_operation_xyz
x,y,z
-x,y,-z
-x,-y,-z
x,-y,z
1/2+x,1/2+y,z
1/2-x,1/2+y,-z
1/2-x,1/2-y,-z
1/2+x,1/2-y,z
loop_
_atom_site_type_symbol
_atom_site_label
_atom_site_fract_x
_atom_site_fract_y
_atom_site_fract_z
Si Si1 0.205903 0.862788 0.941549
Si Si2 0.515810 0.831706 0.411097
Si Si3 0.661469 0.349126 0.414496
Si Si4 0.912272 0.774504 0.822748
Si Si5 0.198161 0.907580 0.775426
Si Si6 0.170353 0.635789 0.770314
Si Si7 0.568609 0.000000 0.086884
O O1 0.291959 0.773198 0.913460
O O2 0.251071 0.906101 0.848952
O O3 0.293281 0.926326 0.975174
O O4 0.000000 0.858253 0.000000
O O5 0.500000 0.866107 0.500000
O O6 0.588446 0.738843 0.403160
O O7 0.324977 0.834206 0.425377
O O8 0.652148 0.877585 0.320645
O O9 0.500000 0.387526 0.500000
O O10 0.722739 0.399827 0.326501
O O11 0.791425 0.809609 0.790997
O O12 0.035230 0.847161 0.816270
O O13 0.042630 0.702033 0.765019
O O14 0.149810 0.000000 0.768113
O O15 0.066008 0.571802 0.847467
#
# Coordination Sequence:
#
# PCOD9216863 Si02
#       7
#     8   8   8   8   8   8   4
#     4  11  23  45  73 100 131 177 224 270 335 410
#     4  11  23  39  65  95 133 176 225 277 327 393
#     4  11  21  35  62  98 127 173 227 282 322 390
#     4  11  23  43  67  98 131 178 223 271 329 406
#     4  12  26  42  69  99 138 176 222 275 341 395
#     4  11  22  41  67  94 134 176 224 272 338 398
#     4  10  23  40  67  95 133 172 216 271 334 400
#
# _framework density 23.125561000000001
#
# number of rings (size 3 to 8) (size 9 to 14) (size 15 to 20)
#    0.000    0.923    3.846    4.846    3.231    0.923 
#    0.000    0.385    0.000    1.385    0.000    0.000 
#    0.000    0.000    0.000    0.000    0.000    0.000 
#
# Total GULP energy -144839.174657 kJ/mol
# GULP energy per Si atom -5570.737487 kJ/mol
# Density = 2.307293 g / cm^3
# Si number density = 23.125561 Si / 1000 Ang^3
#
#
#
# Elastic Constant Matrix: (Units=GPa)
#
#
# Indices 1 2 3 4 5 6 
#
# 1 106.6485 40.3590 29.5984 0.0000 -19.7888 0.0000
# 2 40.3590 114.0402 18.3363 0.0000 -16.1951 0.0000
# 3 29.5984 18.3363 117.4582 0.0000 -10.3753 0.0000
# 4 0.0000 0.0000 0.0000 8.4504 0.0000 -0.4940
# 5 -19.7888 -16.1951 -10.3753 0.0000 30.2908 0.0000
# 6 0.0000 0.0000 0.0000 -0.4940 0.0000 -22.8560
#
#
#
# Elastic Compliance Matrix: (Units=1/GPa)
#
#
# Indices 1 2 3 4 5 6 
#
# 1 0.012192 -0.003192 -0.002084 0.000000 0.005544 0.000000
# 2 -0.003192 0.010456 -0.000534 0.000000 0.003322 0.000000
# 3 -0.002084 -0.000534 0.009257 0.000000 0.001523 0.000000
# 4 0.000000 0.000000 0.000000 0.118188 0.000000 -0.002554
# 5 0.005544 0.003322 0.001523 0.000000 0.038933 0.000000
# 6 0.000000 0.000000 0.000000 -0.002554 0.000000 -0.043697
#
#
# Mechanical properties :
#
#
# Convention : Reuss Voigt Hill
#
# Bulk Modulus (GPa) = 49.30188 57.19270 53.24729
# Shear Modulus (GPa) = 30.54146 19.83392 25.18769
#
# Velocity S-wave (km/s) = 3.63806 2.93176 3.30384
# Velocity P-wave (km/s) = 6.24602 6.02041 6.13426
#
# Compressibility (1/GPa) = 0.02028320
#
# Stress axis : x y z
#
# Youngs Moduli (GPa) = 82.02239 95.63637 108.02808
#
# Poissons Ratio (x) = 0.30529 0.22515
# Poissons Ratio (y) = 0.26183 0.05774
# Poissons Ratio (z) = 0.17095 0.05112
#
# Static dielectric constant tensor:
#      x y z
#    x 1.954200 0.000000 0.041710 
#    y 0.000000 1.844260 0.000000 
#    z 0.041710 0.000000 1.941000 
# 
# From -- ./inp_files/301045.got.cif
#   From: 2010.05.17/outbox.cif.g08.bks.cpg/sg12_151_cif.got.tgz:301045.got - 2010.06.03 13:09:07.
