data_PCOD9216322
_publ_section_title
;
Structure prediction by ZEFSAII (Michael W. Deem and Ramdas Pophale) SiO2 
 PCOD9216322
Probable space group: C 2/M
;
_chemical_formula_sum "Si O2"
_cell_formula_units_Z 38
_cell_length_a 14.212972
_cell_length_b 13.020132
_cell_length_c 24.840082
_cell_angle_alpha 90.000000
_cell_angle_beta 158.508328
_cell_angle_gamma 90.000000
_cell_volume 1684.102260
_symmetry_space_group_name_H-M "C 2/M"
_symmetry_group_IT_number 12
_symmetry_cell_setting 'monoclinic'
loop_
_space_group_symop_operation_xyz
x,y,z
-x,y,-z
-x,-y,-z
x,-y,z
1/2+x,1/2+y,z
1/2-x,1/2+y,-z
1/2-x,1/2-y,-z
1/2+x,1/2-y,z
loop_
_atom_site_type_symbol
_atom_site_label
_atom_site_fract_x
_atom_site_fract_y
_atom_site_fract_z
Si Si1 0.101087 0.337109 0.236966
Si Si2 0.000000 0.000000 0.500000
Si Si3 0.526819 0.202766 0.637243
Si Si4 0.672718 0.000000 0.661224
Si Si5 0.747709 0.000000 0.008183
Si Si6 0.051548 0.000000 0.769453
Si Si7 0.197977 0.219937 0.832525
O O1 0.283475 0.410816 0.369337
O O2 0.288892 0.279788 0.296200
O O3 0.894601 0.402917 0.093360
O O4 0.952015 0.254310 0.193934
O O5 0.523815 0.099894 0.601137
O O6 0.642211 0.194012 0.758229
O O7 0.250000 0.250000 0.500000
O O8 0.780695 0.000000 0.657664
O O9 0.946991 0.000000 0.839710
O O10 0.743762 0.000000 0.071342
O O11 0.094796 0.893617 0.761789
O O12 0.500000 0.212691 0.000000
#
# Coordination Sequence:
#
# PCOD9216322 Si02
#       7
#     8   2   8   4   4   4   8
#     4  11  22  45  63 101 137 185 223 294 338 405
#     4  10  24  40  70  86 136 186 230 268 352 406
#     4  12  27  44  70  99 141 186 230 278 348 413
#     4  10  23  47  69  98 136 180 223 285 342 406
#     4   9  20  38  75  90 134 181 218 278 358 385
#     4  10  22  44  68 103 136 176 221 288 339 405
#     4  12  25  41  73 106 136 178 238 281 345 413
#
# _framework density 22.563952
#
# number of rings (size 3 to 8) (size 9 to 14) (size 15 to 20)
#    0.632    0.421    2.105    4.105    0.000   10.105 
#    0.000    4.737    0.000    0.000    0.000    0.000 
#    0.000    0.000    0.000    0.000    0.000    0.000 
#
# Total GULP energy -106044.511986 kJ/mol
# GULP energy per Si atom -5581.290105 kJ/mol
# Density = 2.251260 g / cm^3
# Si number density = 22.563952 Si / 1000 Ang^3
#
#
#
# Elastic Constant Matrix: (Units=GPa)
#
#
# Indices 1 2 3 4 5 6 
#
# 1 95.0711 18.7213 27.5669 -0.0078 28.7063 0.0001
# 2 18.7213 74.3119 14.6334 -0.0057 10.0590 -0.0002
# 3 27.5669 14.6334 121.0101 -0.0124 24.5634 0.0023
# 4 -0.0078 -0.0057 -0.0124 17.1218 0.0144 14.4051
# 5 28.7063 10.0590 24.5634 0.0144 40.1278 -0.0007
# 6 0.0001 -0.0002 0.0023 14.4051 -0.0007 30.7299
#
#
#
# Elastic Compliance Matrix: (Units=1/GPa)
#
#
# Indices 1 2 3 4 5 6 
#
# 1 0.013894 -0.002096 -0.001143 0.000020 -0.008714 -0.000010
# 2 -0.002096 0.014378 -0.000952 0.000007 -0.001522 -0.000003
# 3 -0.001143 -0.000952 0.009620 0.000018 -0.004833 -0.000009
# 4 0.000020 0.000007 0.000018 0.096440 -0.000063 -0.045208
# 5 -0.008714 -0.001522 -0.004833 -0.000063 0.034494 0.000031
# 6 -0.000010 -0.000003 -0.000009 -0.045208 0.000031 0.053733
#
#
# Mechanical properties :
#
#
# Convention : Reuss Voigt Hill
#
# Bulk Modulus (GPa) = 33.88589 45.80403 39.84496
# Shear Modulus (GPa) = 20.76602 32.89400 26.83001
#
# Velocity S-wave (km/s) = 3.03697 3.82227 3.45202
# Velocity P-wave (km/s) = 5.22952 6.31058 5.79531
#
# Compressibility (1/GPa) = 0.02951080
#
# Stress axis : x y z
#
# Youngs Moduli (GPa) = 71.97489 69.54913 103.94771
#
# Poissons Ratio (x) = 0.14575 0.11879
# Poissons Ratio (y) = 0.15083 0.09900
# Poissons Ratio (z) = 0.08225 0.06624
#
# Static dielectric constant tensor:
#      x y z
#    x 1.825010 0.000000 -0.031580 
#    y 0.000000 1.819170 0.000010 
#    z -0.031580 0.000010 1.945190 
# 
# From -- ./inp_files/361532.got.cif
#   From: 2010.05.17/outbox.cif.g08.bks.cpg/sg12_181_cif.got.tgz:361532.got - 2010.06.03 13:09:07.
