data_PCOD9216599
_publ_section_title
;
Structure prediction by ZEFSAII (Michael W. Deem and Ramdas Pophale) SiO2 
 PCOD9216599
Probable space group: C 2/M
;
_chemical_formula_sum "Si O2"
_cell_formula_units_Z 50
_cell_length_a 7.642331
_cell_length_b 27.827767
_cell_length_c 14.536511
_cell_angle_alpha 90.000000
_cell_angle_beta 126.811258
_cell_angle_gamma 90.000000
_cell_volume 2475.069370
_symmetry_space_group_name_H-M "C 2/M"
_symmetry_group_IT_number 12
_symmetry_cell_setting 'monoclinic'
loop_
_space_group_symop_operation_xyz
x,y,z
-x,y,-z
-x,-y,-z
x,-y,z
1/2+x,1/2+y,z
1/2-x,1/2+y,-z
1/2-x,1/2-y,-z
1/2+x,1/2-y,z
loop_
_atom_site_type_symbol
_atom_site_label
_atom_site_fract_x
_atom_site_fract_y
_atom_site_fract_z
Si Si1 0.426008 0.186980 0.872340
Si Si2 0.645950 0.443157 0.358439
Si Si3 0.350118 0.920326 0.802951
Si Si4 0.073438 0.414184 0.380432
Si Si5 0.006592 0.305897 0.612178
Si Si6 0.000000 0.500000 0.000000
Si Si7 0.533758 0.732138 0.255013
O O1 0.456102 0.132039 0.852387
O O2 0.531651 0.226897 0.839243
O O3 0.169154 0.199099 0.785440
O O4 0.500000 0.193177 0.000000
O O5 0.611623 0.500000 0.337044
O O6 0.413586 0.418136 0.270018
O O7 0.745647 0.432786 0.490721
O O8 0.836852 0.426885 0.348804
O O9 0.396053 0.934346 0.711637
O O10 0.441558 0.958065 0.904493
O O11 0.087003 0.356332 0.383120
O O12 0.262891 0.298637 0.716302
O O13 0.000000 0.305929 0.500000
O O14 0.896589 0.262242 0.632520
#
# Coordination Sequence:
#
# PCOD9216599 Si02
#       7
#     8   8   8   8   8   2   8
#     4  11  22  41  64  89 123 166 221 269 316 376
#     4  11  24  42  68  97 127 168 217 274 332 400
#     4  12  25  46  68  96 133 175 218 271 337 385
#     4  11  23  41  69  98 133 166 214 272 332 394
#     4  11  20  39  58  95 133 166 209 257 322 396
#     4  12  28  48  72  92 136 174 224 286 318 398
#     4  10  23  38  62  90 130 173 208 264 320 387
#
# _framework density 20.201453000000001
#
# number of rings (size 3 to 8) (size 9 to 14) (size 15 to 20)
#    0.000    0.960    4.800    3.360    2.240    0.640 
#    0.000    1.600    0.000    0.000    0.000    0.000 
#    0.000    0.000    0.000    0.000    0.000    0.000 
#
# Total GULP energy -139432.697714 kJ/mol
# GULP energy per Si atom -5577.307909 kJ/mol
# Density = 2.015547 g / cm^3
# Si number density = 20.201453 Si / 1000 Ang^3
#
#
#
# Elastic Constant Matrix: (Units=GPa)
#
#
# Indices 1 2 3 4 5 6 
#
# 1 43.9870 -5.5707 19.7072 0.0000 -12.8589 0.0000
# 2 -5.5707 80.6887 20.9656 0.0000 -3.8328 0.0000
# 3 19.7072 20.9656 101.9350 0.0000 -37.9379 0.0000
# 4 0.0000 0.0000 0.0000 18.6669 0.0000 -4.6230
# 5 -12.8589 -3.8328 -37.9379 0.0000 22.7387 0.0000
# 6 0.0000 0.0000 0.0000 -4.6230 0.0000 -0.6469
#
#
#
# Elastic Compliance Matrix: (Units=1/GPa)
#
#
# Indices 1 2 3 4 5 6 
#
# 1 0.027806 0.002641 0.000261 0.000000 0.016606 0.000000
# 2 0.002641 0.013665 -0.005034 0.000000 -0.004602 0.000000
# 3 0.000261 -0.005034 0.027791 0.000000 0.045667 0.000000
# 4 0.000000 0.000000 0.000000 0.019341 0.000000 -0.138214
# 5 0.016606 -0.004602 0.045667 0.000000 0.128784 0.000000
# 6 0.000000 0.000000 0.000000 -0.138214 0.000000 -0.558081
#
#
# Mechanical properties :
#
#
# Convention : Reuss Voigt Hill
#
# Bulk Modulus (GPa) = 15.38504 32.97944 24.18224
# Shear Modulus (GPa) = -15.88491 20.91898 2.51704
#
# Velocity S-wave (km/s) = -2.80719 3.22144 1.11744
# Velocity P-wave (km/s) = 1.69551 5.49524 3.69614
#
# Compressibility (1/GPa) = 0.06499819
#
# Stress axis : x y z
#
# Youngs Moduli (GPa) = 35.96392 73.17993 35.98272
#
# Poissons Ratio (x) = -0.19324 -0.00941
# Poissons Ratio (y) = -0.09496 0.18113
# Poissons Ratio (z) = -0.00940 0.36837
#
# Static dielectric constant tensor:
#      x y z
#    x 1.725110 0.000000 -0.013490 
#    y 0.000000 1.704920 0.000000 
#    z -0.013490 0.000000 1.702840 
# 
# From -- ./inp_files/199981.got.cif
#   From: 2010.05.17/outbox.cif.g08.bks.cpg/sg12_100_cif.got.tgz:199981.got - 2010.06.03 13:09:07.
