data_PCOD9216182
_publ_section_title
;
Structure prediction by ZEFSAII (Michael W. Deem and Ramdas Pophale) SiO2 
 PCOD9216182
Probable space group: C 2/M
;
_chemical_formula_sum "Si O2"
_cell_formula_units_Z 64
_cell_length_a 18.824521
_cell_length_b 18.736353
_cell_length_c 8.138130
_cell_angle_alpha 90.000000
_cell_angle_beta 129.993192
_cell_angle_gamma 90.000000
_cell_volume 2199.028608
_symmetry_space_group_name_H-M "C 2/M"
_symmetry_group_IT_number 12
_symmetry_cell_setting 'monoclinic'
loop_
_space_group_symop_operation_xyz
x,y,z
-x,y,-z
-x,-y,-z
x,-y,z
1/2+x,1/2+y,z
1/2-x,1/2+y,-z
1/2-x,1/2-y,-z
1/2+x,1/2-y,z
loop_
_atom_site_type_symbol
_atom_site_label
_atom_site_fract_x
_atom_site_fract_y
_atom_site_fract_z
Si Si1 0.644718 0.764364 0.667435
Si Si2 0.262874 0.583331 0.474170
Si Si3 0.623759 0.583078 0.037193
Si Si4 0.813433 0.281338 0.738793
Si Si5 0.195076 0.420022 0.858099
Si Si6 0.021386 0.260818 0.796577
Si Si7 0.954019 0.085933 0.600794
Si Si8 0.464990 0.923869 0.135310
O O1 0.745599 0.730460 0.793349
O O2 0.657859 0.850422 0.706629
O O3 0.590929 0.742439 0.750913
O O4 0.579940 0.737616 0.418784
O O5 0.237137 0.500000 0.444783
O O6 0.314536 0.608030 0.718794
O O7 0.181112 0.636798 0.310838
O O8 0.345674 0.593788 0.467148
O O9 0.608181 0.500000 0.057770
O O10 0.586243 0.753967 0.056062
O O11 0.693156 0.586717 0.984830
O O12 0.750000 0.250000 0.500000
O O13 0.179381 0.500000 0.760474
O O14 0.142093 0.422807 0.953400
O O15 0.023902 0.115349 0.845996
O O16 0.004898 0.346703 0.759740
O O17 0.000000 0.107827 0.500000
O O18 0.966668 0.000000 0.628095
O O19 0.499906 0.000000 0.259394
O O20 0.500000 0.927006 0.000000
#
# Coordination Sequence:
#
# PCOD9216182 Si02
#       8
#     8   8   8   8   8   8   8   8
#     4  10  23  47  70 102 136 186 233 289 355 419
#     4  10  22  43  67  99 141 187 237 298 365 430
#     4   9  17  34  60  91 135 185 233 288 349 421
#     4  12  27  46  69 106 141 182 238 298 357 429
#     4   9  18  36  67 104 141 186 240 290 349 428
#     4  10  24  46  74  94 139 187 237 289 348 435
#     4   9  18  34  59  94 136 178 228 291 356 423
#     4   9  19  36  64 105 144 185 232 291 358 416
#
# _framework density 29.103757999999999
#
# number of rings (size 3 to 8) (size 9 to 14) (size 15 to 20)
#    0.000    2.250    0.000    1.500    1.750    4.500 
#    9.000    6.250    0.000    0.000    0.000    0.000 
#    0.000    0.000    0.000    0.000    0.000    0.000 
#
# Total GULP energy -178998.238833 kJ/mol
# GULP energy per Si atom -5593.694964 kJ/mol
# Density = 2.903752 g / cm^3
# Si number density = 29.103758 Si / 1000 Ang^3
#
#
#
# Elastic Constant Matrix: (Units=GPa)
#
#
# Indices 1 2 3 4 5 6 
#
# 1 181.9860 13.9945 45.1364 0.0000 5.3155 0.0000
# 2 13.9945 142.3676 40.3872 0.0000 20.8037 0.0000
# 3 45.1364 40.3872 144.5478 0.0000 25.8374 0.0000
# 4 0.0000 0.0000 0.0000 31.0331 0.0000 -1.1107
# 5 5.3155 20.8037 25.8374 0.0000 54.7887 0.0000
# 6 0.0000 0.0000 0.0000 -1.1107 0.0000 27.4378
#
#
#
# Elastic Compliance Matrix: (Units=1/GPa)
#
#
# Indices 1 2 3 4 5 6 
#
# 1 0.005963 -0.000100 -0.001897 0.000000 0.000354 0.000000
# 2 -0.000100 0.007851 -0.001781 0.000000 -0.002131 0.000000
# 3 -0.001897 -0.001781 0.008578 0.000000 -0.003185 0.000000
# 4 0.000000 0.000000 0.000000 0.032270 0.000000 0.001306
# 5 0.000354 -0.002131 -0.003185 0.000000 0.020529 0.000000
# 6 0.000000 0.000000 0.000000 0.001306 0.000000 0.036499
#
#
# Mechanical properties :
#
#
# Convention : Reuss Voigt Hill
#
# Bulk Modulus (GPa) = 67.41222 74.21528 70.81375
# Shear Modulus (GPa) = 40.26067 47.27748 43.76907
#
# Velocity S-wave (km/s) = 3.72338 4.03481 3.88222
# Velocity P-wave (km/s) = 6.45738 6.87473 6.66932
#
# Compressibility (1/GPa) = 0.01483411
#
# Stress axis : x y z
#
# Youngs Moduli (GPa) = 167.70522 127.37789 116.58308
#
# Poissons Ratio (x) = 0.01269 0.22121
# Poissons Ratio (y) = 0.01671 0.20769
# Poissons Ratio (z) = 0.31821 0.22692
#
# Static dielectric constant tensor:
#      x y z
#    x 2.206540 0.000000 -0.028890 
#    y 0.000000 2.388060 0.000000 
#    z -0.028890 0.000000 2.285620 
# 
# From -- ./inp_files/168101.got.cif
#   From: 2010.05.17/outbox.cif.g08.bks.cpg/sg12_85_cif.got.tgz:168101.got - 2010.06.03 13:09:07.
