data_PCOD9216165
_publ_section_title
;
Structure prediction by ZEFSAII (Michael W. Deem and Ramdas Pophale) SiO2 
 PCOD9216165
Probable space group: C 2/M
;
_chemical_formula_sum "Si O2"
_cell_formula_units_Z 56
_cell_length_a 8.808870
_cell_length_b 13.798320
_cell_length_c 21.898944
_cell_angle_alpha 90.000000
_cell_angle_beta 63.989015
_cell_angle_gamma 90.000000
_cell_volume 2392.154097
_symmetry_space_group_name_H-M "C 2/M"
_symmetry_group_IT_number 12
_symmetry_cell_setting 'monoclinic'
loop_
_space_group_symop_operation_xyz
x,y,z
-x,y,-z
-x,-y,-z
x,-y,z
1/2+x,1/2+y,z
1/2-x,1/2+y,-z
1/2-x,1/2-y,-z
1/2+x,1/2-y,z
loop_
_atom_site_type_symbol
_atom_site_label
_atom_site_fract_x
_atom_site_fract_y
_atom_site_fract_z
Si Si1 0.567033 0.102045 0.270981
Si Si2 0.187768 0.890914 0.338706
Si Si3 0.410377 0.263843 0.429149
Si Si4 0.258832 0.273375 0.796824
Si Si5 0.101457 0.198591 0.108749
Si Si6 0.652677 0.888757 0.022531
Si Si7 0.694621 0.111952 0.377657
O O1 0.377724 0.103448 0.330506
O O2 0.591054 0.195073 0.226996
O O3 0.699073 0.108624 0.303267
O O4 0.586785 0.000000 0.234604
O O5 0.212217 0.831013 0.271290
O O6 0.063967 0.841155 0.409193
O O7 0.129960 0.000000 0.335069
O O8 0.250000 0.250000 0.500000
O O9 0.514780 0.164386 0.419019
O O10 0.332453 0.315484 0.381798
O O11 0.291210 0.335424 0.851278
O O12 0.093073 0.208739 0.838096
O O13 0.168481 0.130151 0.043021
O O14 0.143568 0.307329 0.076611
O O15 0.637579 0.000000 0.045660
O O16 0.500000 0.870391 0.000000
O O17 0.703538 0.000000 0.397978
#
# Coordination Sequence:
#
# PCOD9216165 Si02
#       7
#     8   8   8   8   8   8   8
#     4  10  23  43  68  99 139 179 223 286 353 419
#     4  11  25  45  71 103 139 184 235 290 357 430
#     4  12  26  45  72 103 139 185 236 292 356 428
#     4  12  23  41  67 101 139 175 226 284 353 408
#     4  11  24  40  66 102 136 176 228 283 336 408
#     4  10  22  43  67  94 135 183 229 277 333 402
#     4  11  25  46  72 103 140 182 232 291 357 426
#
# _framework density 23.409863000000001
#
# number of rings (size 3 to 8) (size 9 to 14) (size 15 to 20)
#    0.000    1.000    4.286    1.714    2.000    4.000 
#    0.000    1.429    0.000    6.857    0.000    0.000 
#    0.000    0.000    0.000    0.000    0.000    0.000 
#
# Total GULP energy -156036.320298 kJ/mol
# GULP energy per Si atom -5572.725725 kJ/mol
# Density = 2.335658 g / cm^3
# Si number density = 23.409863 Si / 1000 Ang^3
#
#
#
# Elastic Constant Matrix: (Units=GPa)
#
#
# Indices 1 2 3 4 5 6 
#
# 1 70.4490 12.4218 12.5163 0.0000 -5.1379 0.0000
# 2 12.4218 129.3056 24.7129 0.0000 -6.3695 0.0000
# 3 12.5163 24.7129 82.0045 0.0000 -25.0789 0.0000
# 4 0.0000 0.0000 0.0000 8.7521 0.0000 -2.9526
# 5 -5.1379 -6.3695 -25.0789 0.0000 42.9807 0.0000
# 6 0.0000 0.0000 0.0000 -2.9526 0.0000 26.0746
#
#
#
# Elastic Compliance Matrix: (Units=1/GPa)
#
#
# Indices 1 2 3 4 5 6 
#
# 1 0.014734 -0.001052 -0.001754 0.000000 0.000582 0.000000
# 2 -0.001052 0.008284 -0.002433 0.000000 -0.000318 0.000000
# 3 -0.001754 -0.002433 0.015849 0.000000 0.008678 0.000000
# 4 0.000000 0.000000 0.000000 0.118797 0.000000 0.013452
# 5 0.000582 -0.000318 0.008678 0.000000 0.028352 0.000000
# 6 0.000000 0.000000 0.000000 0.013452 0.000000 0.039875
#
#
# Mechanical properties :
#
#
# Convention : Reuss Voigt Hill
#
# Bulk Modulus (GPa) = 35.22362 42.34014 38.78188
# Shear Modulus (GPa) = 20.33912 31.03536 25.68724
#
# Velocity S-wave (km/s) = 2.95078 3.64502 3.31612
# Velocity P-wave (km/s) = 5.16611 5.98670 5.59148
#
# Compressibility (1/GPa) = 0.02839004
#
# Stress axis : x y z
#
# Youngs Moduli (GPa) = 67.86955 120.71453 63.09448
#
# Poissons Ratio (x) = 0.12694 0.11067
# Poissons Ratio (y) = 0.07137 0.15352
# Poissons Ratio (z) = 0.11904 0.29372
#
# Static dielectric constant tensor:
#      x y z
#    x 1.979590 0.000000 0.031620 
#    y 0.000000 1.909660 0.000000 
#    z 0.031620 0.000000 1.928820 
# 
# From -- ./inp_files/332823.got.cif
#   From: 2010.05.17/outbox.cif.g08.bks.cpg/sg12_167_cif.got.tgz:332823.got - 2010.06.03 13:09:07.
