data_PCOD9216730
_publ_section_title
;
Structure prediction by ZEFSAII (Michael W. Deem and Ramdas Pophale) SiO2 
 PCOD9216730
Probable space group: C 2/M
;
_chemical_formula_sum "Si O2"
_cell_formula_units_Z 58
_cell_length_a 24.140160
_cell_length_b 9.707652
_cell_length_c 11.836865
_cell_angle_alpha 90.000000
_cell_angle_beta 87.979259
_cell_angle_gamma 90.000000
_cell_volume 2772.176505
_symmetry_space_group_name_H-M "C 2/M"
_symmetry_group_IT_number 12
_symmetry_cell_setting 'monoclinic'
loop_
_space_group_symop_operation_xyz
x,y,z
-x,y,-z
-x,-y,-z
x,-y,z
1/2+x,1/2+y,z
1/2-x,1/2+y,-z
1/2-x,1/2-y,-z
1/2+x,1/2-y,z
loop_
_atom_site_type_symbol
_atom_site_label
_atom_site_fract_x
_atom_site_fract_y
_atom_site_fract_z
Si Si1 0.615569 0.835840 0.916527
Si Si2 0.800820 0.844327 0.687676
Si Si3 0.508794 0.842067 0.798549
Si Si4 0.198332 0.157661 0.042404
Si Si5 0.500000 0.500000 0.500000
Si Si6 0.430983 0.764525 0.431948
Si Si7 0.676107 0.836379 0.670910
Si Si8 0.906590 0.342930 0.675813
O O1 0.553199 0.789383 0.886638
O O2 0.654258 0.821999 0.801525
O O3 0.614844 0.000000 0.944959
O O4 0.643752 0.739844 0.007095
O O5 0.797867 0.851711 0.823615
O O6 0.740079 0.796226 0.653382
O O7 0.851993 0.745602 0.662745
O O8 0.810959 0.000000 0.644289
O O9 0.542769 0.839502 0.678262
O O10 0.449368 0.781570 0.766013
O O11 0.497966 0.000000 0.831545
O O12 0.200025 0.000000 0.997440
O O13 0.250000 0.250000 0.000000
O O14 0.460925 0.620219 0.446025
O O15 0.366231 0.754917 0.404428
O O16 0.435732 0.840605 0.551246
O O17 0.671677 0.000000 0.644544
O O18 0.893439 0.500000 0.707452
#
# Coordination Sequence:
#
# PCOD9216730 Si02
#       8
#     8   8   8   8   2   8   8   8
#     4   9  17  34  61  87 111 143 189 244 294 342
#     4  10  23  40  58  81 119 157 191 234 298 349
#     4   9  18  36  61  85 110 146 191 243 290 335
#     4  11  21  37  59  86 114 150 189 239 292 349
#     4  12  24  36  54  92 120 158 194 236 296 344
#     4  11  21  37  57  84 117 150 198 234 286 337
#     4   9  18  38  60  83 112 153 194 239 290 344
#     4  11  22  37  59  85 114 154 201 241 282 343
#
# _framework density 20.922188999999999
#
# number of rings (size 3 to 8) (size 9 to 14) (size 15 to 20)
#    0.000    1.931    2.759    2.483    0.966    2.759 
#    6.207    0.690    0.000    4.138    0.000    0.000 
#    0.000    0.000    0.000    0.000    0.000    0.000 
#
# Total GULP energy -161526.703334 kJ/mol
# GULP energy per Si atom -5569.886322 kJ/mol
# Density = 2.087457 g / cm^3
# Si number density = 20.922189 Si / 1000 Ang^3
#
#
#
# Elastic Constant Matrix: (Units=GPa)
#
#
# Indices 1 2 3 4 5 6 
#
# 1 138.3447 36.3833 18.6688 0.0000 38.7779 0.0000
# 2 36.3833 71.4220 10.3507 0.0000 11.0462 0.0000
# 3 18.6688 10.3507 30.3241 0.0000 18.0563 0.0000
# 4 0.0000 0.0000 0.0000 10.7095 0.0000 13.8720
# 5 38.7779 11.0462 18.0563 0.0000 43.5909 0.0000
# 6 0.0000 0.0000 0.0000 13.8720 0.0000 25.8036
#
#
#
# Elastic Compliance Matrix: (Units=1/GPa)
#
#
# Indices 1 2 3 4 5 6 
#
# 1 0.010688 -0.004121 -0.000177 0.000000 -0.008390 0.000000
# 2 -0.004121 0.016478 -0.003696 0.000000 0.001021 0.000000
# 3 -0.000177 -0.003696 0.044728 0.000000 -0.017433 0.000000
# 4 0.000000 0.000000 0.000000 0.307514 0.000000 -0.165319
# 5 -0.008390 0.001021 -0.017433 0.000000 0.037366 0.000000
# 6 0.000000 0.000000 0.000000 -0.165319 0.000000 0.127630
#
#
# Mechanical properties :
#
#
# Convention : Reuss Voigt Hill
#
# Bulk Modulus (GPa) = 17.88722 41.21070 29.54896
# Shear Modulus (GPa) = 8.63516 27.66666 18.15091
#
# Velocity S-wave (km/s) = 2.03377 3.64037 2.94860
# Velocity P-wave (km/s) = 3.75272 6.11634 5.07408
#
# Compressibility (1/GPa) = 0.05590585
#
# Stress axis : x y z
#
# Youngs Moduli (GPa) = 93.56490 60.68589 22.35732
#
# Poissons Ratio (x) = 0.25010 0.00397
# Poissons Ratio (y) = 0.38560 0.08262
# Poissons Ratio (z) = 0.01660 0.22427
#
# Static dielectric constant tensor:
#      x y z
#    x 1.815840 0.000000 -0.006520 
#    y 0.000000 1.710170 0.000000 
#    z -0.006520 0.000000 1.776320 
# 
# From -- ./inp_files/237638.got.cif
#   From: 2010.05.17/outbox.cif.g08.bks.cpg/sg12_119_cif.got.tgz:237638.got - 2010.06.03 13:09:07.
