data_PCOD9216868
_publ_section_title
;
Structure prediction by ZEFSAII (Michael W. Deem and Ramdas Pophale) SiO2 
 PCOD9216868
Probable space group: C 2/M
;
_chemical_formula_sum "Si O2"
_cell_formula_units_Z 36
_cell_length_a 11.186632
_cell_length_b 24.781993
_cell_length_c 6.400673
_cell_angle_alpha 90.000000
_cell_angle_beta 85.239909
_cell_angle_gamma 90.000000
_cell_volume 1768.319389
_symmetry_space_group_name_H-M "C 2/M"
_symmetry_group_IT_number 12
_symmetry_cell_setting 'monoclinic'
loop_
_space_group_symop_operation_xyz
x,y,z
-x,y,-z
-x,-y,-z
x,-y,z
1/2+x,1/2+y,z
1/2-x,1/2+y,-z
1/2-x,1/2-y,-z
1/2+x,1/2-y,z
loop_
_atom_site_type_symbol
_atom_site_label
_atom_site_fract_x
_atom_site_fract_y
_atom_site_fract_z
Si Si1 0.225060 0.439098 0.683577
Si Si2 0.000000 0.576798 0.000000
Si Si3 0.372702 0.740919 0.616406
Si Si4 0.634495 0.355966 0.062398
Si Si5 0.159989 0.361969 0.302737
O O1 0.259230 0.500000 0.606938
O O2 0.326235 0.406672 0.799259
O O3 0.186845 0.398163 0.502766
O O4 0.112608 0.446593 0.856115
O O5 0.933544 0.607847 0.827294
O O6 0.500000 0.721048 0.500000
O O7 0.250000 0.750000 0.500000
O O8 0.346042 0.698586 0.804956
O O9 0.395495 0.802717 0.670358
O O10 0.500000 0.359086 0.000000
O O11 0.718724 0.355321 0.847424
#
# Coordination Sequence:
#
# PCOD9216868 Si02
#       5
#     8   4   8   8   8
#     4  11  24  44  68  96 136 182 228 281 338 403
#     4  10  23  40  68 102 136 168 227 282 346 410
#     4  12  24  42  72 100 139 181 224 284 349 415
#     4  11  26  44  67  99 139 178 228 279 344 411
#     4  11  24  42  67 102 137 175 225 281 346 412
#
# _framework density 20.358315000000001
#
# number of rings (size 3 to 8) (size 9 to 14) (size 15 to 20)
#    0.000    0.889    2.222    4.333    4.667    5.778 
#    0.000    1.111    0.000    0.000    0.000    0.000 
#    0.000    0.000    0.000    0.000    0.000    0.000 
#
# Total GULP energy -100308.742959 kJ/mol
# GULP energy per Si atom -5572.707942 kJ/mol
# Density = 2.031198 g / cm^3
# Si number density = 20.358315 Si / 1000 Ang^3
#
#
#
# Elastic Constant Matrix: (Units=GPa)
#
#
# Indices 1 2 3 4 5 6 
#
# 1 136.2449 35.1380 46.2603 0.0000 25.3340 0.0000
# 2 35.1380 152.3371 64.6235 0.0000 3.2806 0.0000
# 3 46.2603 64.6235 104.5198 0.0000 13.8536 0.0000
# 4 0.0000 0.0000 0.0000 -36.8235 0.0000 47.6694
# 5 25.3340 3.2806 13.8536 0.0000 24.9847 0.0000
# 6 0.0000 0.0000 0.0000 47.6694 0.0000 -437.6253
#
#
#
# Elastic Compliance Matrix: (Units=1/GPa)
#
#
# Indices 1 2 3 4 5 6 
#
# 1 0.010125 -0.000994 -0.002723 0.000000 -0.008626 0.000000
# 2 -0.000994 0.009093 -0.005566 0.000000 0.002901 0.000000
# 3 -0.002723 -0.005566 0.014842 0.000000 -0.004738 0.000000
# 4 0.000000 0.000000 0.000000 -0.031615 0.000000 -0.003444
# 5 -0.008626 0.002901 -0.004738 0.000000 0.051017 0.000000
# 6 0.000000 0.000000 0.000000 -0.003444 0.000000 -0.002660
#
#
# Mechanical properties :
#
#
# Convention : Reuss Voigt Hill
#
# Bulk Modulus (GPa) = 64.54852 76.12727 70.33789
# Shear Modulus (GPa) = 67.08421 -73.42081 -3.16830
#
# Velocity S-wave (km/s) = 5.74659 -6.01187 -1.24886
# Velocity P-wave (km/s) = 8.70667 3.27341 5.70486
#
# Compressibility (1/GPa) = 0.01549222
#
# Stress axis : x y z
#
# Youngs Moduli (GPa) = 98.76852 109.98012 67.37526
#
# Poissons Ratio (x) = 0.10937 0.18346
# Poissons Ratio (y) = 0.09822 0.37502
# Poissons Ratio (z) = 0.26895 0.61217
#
# Static dielectric constant tensor:
#      x y z
#    x 1.765100 0.000000 -0.034020 
#    y 0.000000 1.383860 0.000000 
#    z -0.034020 0.000000 1.726770 
# 
# From -- ./inp_files/7010.got.cif
#   From: 2010.05.17/outbox.cif.g08.bks.cpg/sg12_4_cif.got.tgz:7010.got - 2010.06.03 13:09:07.
