data_PCOD9216291
_publ_section_title
;
Structure prediction by ZEFSAII (Michael W. Deem and Ramdas Pophale) SiO2 
 PCOD9216291
Probable space group: C 2/M
;
_chemical_formula_sum "Si O2"
_cell_formula_units_Z 40
_cell_length_a 18.068212
_cell_length_b 19.737319
_cell_length_c 5.221438
_cell_angle_alpha 90.000000
_cell_angle_beta 109.030253
_cell_angle_gamma 90.000000
_cell_volume 1760.291136
_symmetry_space_group_name_H-M "C 2/M"
_symmetry_group_IT_number 12
_symmetry_cell_setting 'monoclinic'
loop_
_space_group_symop_operation_xyz
x,y,z
-x,y,-z
-x,-y,-z
x,-y,z
1/2+x,1/2+y,z
1/2-x,1/2+y,-z
1/2-x,1/2-y,-z
1/2+x,1/2-y,z
loop_
_atom_site_type_symbol
_atom_site_label
_atom_site_fract_x
_atom_site_fract_y
_atom_site_fract_z
Si Si1 0.746358 0.187543 0.693521
Si Si2 0.000000 0.744655 0.000000
Si Si3 0.144189 0.920361 0.384829
Si Si4 0.395968 0.652854 0.149965
Si Si5 0.582955 0.147262 0.445869
Si Si6 0.054175 0.500000 0.309813
O O1 0.750000 0.250000 0.500000
O O2 0.774997 0.120649 0.568305
O O3 0.688501 0.311686 0.008796
O O4 0.657900 0.174324 0.680512
O O5 0.962139 0.792163 0.172155
O O6 0.066929 0.697630 0.193340
O O7 0.104290 0.883306 0.579402
O O8 0.153154 0.000000 0.434649
O O9 0.098761 0.902932 0.070996
O O10 0.500000 0.147069 0.500000
O O11 0.598705 0.070920 0.370804
O O12 0.000000 0.500000 0.500000
O O13 0.000000 0.500000 0.000000
#
# Coordination Sequence:
#
# PCOD9216291 Si02
#       6
#     8   4   8   8   8   4
#     4  10  23  44  65 104 134 181 224 283 335 405
#     4  12  24  41  69 102 134 182 226 288 336 412
#     4  10  23  47  71 100 137 179 225 280 345 406
#     4  10  25  42  72  98 140 172 234 272 342 400
#     4  11  24  41  68  96 140 179 229 278 342 405
#     4  10  22  44  58  96 128 177 219 271 329 406
#
# _framework density 22.723514000000002
#
# number of rings (size 3 to 8) (size 9 to 14) (size 15 to 20)
#    1.200    0.400    3.000    0.600    7.000    2.400 
#    0.000    3.000    0.000    0.000    0.000    0.000 
#    0.000    0.000    0.000    0.000    0.000    0.000 
#
# Total GULP energy -111719.195895 kJ/mol
# GULP energy per Si atom -5585.959795 kJ/mol
# Density = 2.267179 g / cm^3
# Si number density = 22.723514 Si / 1000 Ang^3
#
#
#
# Elastic Constant Matrix: (Units=GPa)
#
#
# Indices 1 2 3 4 5 6 
#
# 1 98.1760 48.2632 20.5795 0.0000 2.2791 0.0000
# 2 48.2632 164.6446 24.0496 0.0000 0.1228 0.0000
# 3 20.5795 24.0496 90.1449 0.0000 -17.3066 0.0000
# 4 0.0000 0.0000 0.0000 27.7320 0.0000 5.4423
# 5 2.2791 0.1228 -17.3066 0.0000 31.3510 0.0000
# 6 0.0000 0.0000 0.0000 5.4423 0.0000 -0.4381
#
#
#
# Elastic Compliance Matrix: (Units=1/GPa)
#
#
# Indices 1 2 3 4 5 6 
#
# 1 0.012340 -0.003270 -0.002365 0.000000 -0.002190 0.000000
# 2 -0.003270 0.007219 -0.001274 0.000000 -0.000494 0.000000
# 3 -0.002365 -0.001274 0.013430 0.000000 0.007591 0.000000
# 4 0.000000 0.000000 0.000000 0.010490 0.000000 0.130296
# 5 -0.002190 -0.000494 0.007591 0.000000 0.036248 0.000000
# 6 0.000000 0.000000 0.000000 0.130296 0.000000 -0.663945
#
#
# Mechanical properties :
#
#
# Convention : Reuss Voigt Hill
#
# Bulk Modulus (GPa) = 52.16389 59.86112 56.01250
# Shear Modulus (GPa) = -8.86511 29.06720 10.10104
#
# Velocity S-wave (km/s) = -1.97731 3.58043 2.11065
# Velocity P-wave (km/s) = 4.21814 6.59493 5.53560
#
# Compressibility (1/GPa) = 0.01917035
#
# Stress axis : x y z
#
# Youngs Moduli (GPa) = 81.03710 138.52749 74.45753
#
# Poissons Ratio (x) = 0.45301 0.17610
# Poissons Ratio (y) = 0.26501 0.09487
# Poissons Ratio (z) = 0.19166 0.17650
#
# Static dielectric constant tensor:
#      x y z
#    x 1.871140 0.000000 -0.007560 
#    y 0.000000 1.841670 0.000000 
#    z -0.007560 0.000000 1.846770 
# 
# From -- ./inp_files/20240.got.cif
#   From: 2010.05.17/outbox.cif.g08.bks.cpg/sg12_11_cif.got.tgz:20240.got - 2010.06.03 13:09:07.
