data_PCOD9216796
_publ_section_title
;
Structure prediction by ZEFSAII (Michael W. Deem and Ramdas Pophale) SiO2 
 PCOD9216796
Probable space group: C 2/M
;
_chemical_formula_sum "Si O2"
_cell_formula_units_Z 48
_cell_length_a 21.711919
_cell_length_b 22.350645
_cell_length_c 6.941694
_cell_angle_alpha 90.000000
_cell_angle_beta 39.678619
_cell_angle_gamma 90.000000
_cell_volume 2150.807196
_symmetry_space_group_name_H-M "C 2/M"
_symmetry_group_IT_number 12
_symmetry_cell_setting 'monoclinic'
loop_
_space_group_symop_operation_xyz
x,y,z
-x,y,-z
-x,-y,-z
x,-y,z
1/2+x,1/2+y,z
1/2-x,1/2+y,-z
1/2-x,1/2-y,-z
1/2+x,1/2-y,z
loop_
_atom_site_type_symbol
_atom_site_label
_atom_site_fract_x
_atom_site_fract_y
_atom_site_fract_z
Si Si1 0.203818 0.431799 0.709338
Si Si2 0.080738 0.066346 0.971870
Si Si3 0.536289 0.718947 0.716744
Si Si4 0.874081 0.822071 0.877196
Si Si5 0.105449 0.434019 0.340036
Si Si6 0.654648 0.164296 0.528091
O O1 0.169643 0.500000 0.738915
O O2 0.315520 0.428526 0.382845
O O3 0.154662 0.375457 0.721627
O O4 0.183425 0.426726 0.983704
O O5 0.075425 0.000000 0.074738
O O6 0.082973 0.117105 0.131459
O O7 0.000000 0.067923 0.000000
O O8 0.606821 0.684861 0.396659
O O9 0.439433 0.728568 0.823922
O O10 0.590626 0.777040 0.663968
O O11 0.500000 0.687638 0.000000
O O12 0.764058 0.818489 0.206573
O O13 0.118773 0.500000 0.395797
O O14 0.117276 0.382337 0.461839
O O15 0.000000 0.432209 0.500000
#
# Coordination Sequence:
#
# PCOD9216796 Si02
#       6
#     8   8   8   8   8   8
#     4   9  20  38  63  97 130 162 207 258 316 384
#     4   9  18  38  70 102 130 164 204 253 317 385
#     4  11  26  43  63  89 126 170 219 267 310 364
#     4  10  24  44  64  94 128 161 211 265 315 371
#     4  10  23  40  63  96 132 164 202 259 321 383
#     4  11  24  41  68  91 123 172 213 261 315 374
#
# _framework density 22.317202999999999
#
# number of rings (size 3 to 8) (size 9 to 14) (size 15 to 20)
#    0.000    2.000    0.000    1.500    4.667    6.667 
#    0.000    4.167    0.000    1.500    0.000    0.000 
#    0.000    0.000    0.000    0.000    0.000    0.000 
#
# Total GULP energy -134028.416228 kJ/mol
# GULP energy per Si atom -5584.517343 kJ/mol
# Density = 2.226641 g / cm^3
# Si number density = 22.317203 Si / 1000 Ang^3
#
#
#
# Elastic Constant Matrix: (Units=GPa)
#
#
# Indices 1 2 3 4 5 6 
#
# 1 49.2005 34.6366 -3.9869 0.0000 -1.9160 0.0000
# 2 34.6366 111.6978 13.8137 0.0000 -6.1091 0.0000
# 3 -3.9869 13.8137 52.7045 0.0000 9.3322 0.0000
# 4 0.0000 0.0000 0.0000 4.0458 0.0000 -16.2481
# 5 -1.9160 -6.1091 9.3322 0.0000 32.5541 0.0000
# 6 0.0000 0.0000 0.0000 -16.2481 0.0000 17.0549
#
#
#
# Elastic Compliance Matrix: (Units=1/GPa)
#
#
# Indices 1 2 3 4 5 6 
#
# 1 0.027003 -0.009029 0.004665 0.000000 -0.001442 0.000000
# 2 -0.009029 0.012479 -0.004503 0.000000 0.003101 0.000000
# 3 0.004665 -0.004503 0.021710 0.000000 -0.006794 0.000000
# 4 0.000000 0.000000 0.000000 -0.087461 0.000000 -0.083323
# 5 -0.001442 0.003101 -0.006794 0.000000 0.033163 0.000000
# 6 0.000000 0.000000 0.000000 -0.083323 0.000000 -0.020748
#
#
# Mechanical properties :
#
#
# Convention : Reuss Voigt Hill
#
# Bulk Modulus (GPa) = 23.01118 33.61441 28.31280
# Shear Modulus (GPa) = 272.22403 22.00694 147.11548
#
# Velocity S-wave (km/s) = 11.05641 3.14363 8.12793
# Velocity P-wave (km/s) = 13.16532 5.31708 10.03985
#
# Compressibility (1/GPa) = 0.04345713
#
# Stress axis : x y z
#
# Youngs Moduli (GPa) = 37.03245 80.13374 46.06224
#
# Poissons Ratio (x) = 0.72355 -0.21486
# Poissons Ratio (y) = 0.33438 0.20741
# Poissons Ratio (z) = -0.17274 0.36084
#
# Static dielectric constant tensor:
#      x y z
#    x 1.839120 0.000000 -0.011210 
#    y 0.000000 1.866780 0.000000 
#    z -0.011210 0.000000 1.825260 
# 
# From -- ./inp_files/21777.got.cif
#   From: 2010.05.17/outbox.cif.g08.bks.cpg/sg12_11_cif.got.tgz:21777.got - 2010.06.03 13:09:07.
