data_PCOD9216618
_publ_section_title
;
Structure prediction by ZEFSAII (Michael W. Deem and Ramdas Pophale) SiO2 
 PCOD9216618
Probable space group: C 2/M
;
_chemical_formula_sum "Si O2"
_cell_formula_units_Z 36
_cell_length_a 8.536537
_cell_length_b 28.452275
_cell_length_c 15.035060
_cell_angle_alpha 90.000000
_cell_angle_beta 148.618071
_cell_angle_gamma 90.000000
_cell_volume 1901.626235
_symmetry_space_group_name_H-M "C 2/M"
_symmetry_group_IT_number 12
_symmetry_cell_setting 'monoclinic'
loop_
_space_group_symop_operation_xyz
x,y,z
-x,y,-z
-x,-y,-z
x,-y,z
1/2+x,1/2+y,z
1/2-x,1/2+y,-z
1/2-x,1/2-y,-z
1/2+x,1/2-y,z
loop_
_atom_site_type_symbol
_atom_site_label
_atom_site_fract_x
_atom_site_fract_y
_atom_site_fract_z
Si Si1 0.178569 0.555623 0.231236
Si Si2 0.500000 0.730718 0.500000
Si Si3 0.000000 0.631307 0.000000
Si Si4 0.500000 0.114725 0.500000
Si Si5 0.035803 0.809977 0.327263
Si Si6 0.899191 0.554411 0.600988
O O1 0.105922 0.500000 0.177898
O O2 0.544034 0.559174 0.402551
O O3 0.086600 0.566690 0.288344
O O4 0.031638 0.594770 0.097199
O O5 0.208723 0.763924 0.374977
O O6 0.556616 0.701023 0.616474
O O7 0.722244 0.667470 0.858234
O O8 0.720541 0.149096 0.555709
O O9 0.607482 0.081821 0.632374
O O10 0.974850 0.500000 0.630199
#
# Coordination Sequence:
#
# PCOD9216618 Si02
#       6
#     8   4   4   4   8   8
#     4   9  19  35  55  84 124 161 192 232 279 327
#     4   9  22  48  61  84 108 150 185 246 294 363
#     4  12  21  34  60  96 112 150 188 242 283 346
#     4  11  19  34  59  92 108 152 203 240 261 345
#     4  10  23  38  67  83 113 144 191 238 304 342
#     4   9  18  34  57  82 117 163 201 230 269 329
#
# _framework density 18.931163999999999
#
# number of rings (size 3 to 8) (size 9 to 14) (size 15 to 20)
#    0.000    2.222    2.222    2.000    3.111    0.889 
#    0.000    1.111    0.000    2.667    0.000    0.000 
#    0.000    0.000    0.000    0.000    0.000    0.000 
#
# Total GULP energy -100213.426521 kJ/mol
# GULP energy per Si atom -5567.412585 kJ/mol
# Density = 1.888808 g / cm^3
# Si number density = 18.931164 Si / 1000 Ang^3
#
#
#
# Elastic Constant Matrix: (Units=GPa)
#
#
# Indices 1 2 3 4 5 6 
#
# 1 87.9106 55.9781 14.6935 0.0000 -25.6145 0.0000
# 2 55.9781 88.0596 44.8816 0.0000 -20.8288 0.0000
# 3 14.6935 44.8816 67.6603 0.0000 -20.1088 0.0000
# 4 0.0000 0.0000 0.0000 35.0773 0.0000 14.5287
# 5 -25.6145 -20.8288 -20.1088 0.0000 14.0186 0.0000
# 6 0.0000 0.0000 0.0000 14.5287 0.0000 7.2459
#
#
#
# Elastic Compliance Matrix: (Units=1/GPa)
#
#
# Indices 1 2 3 4 5 6 
#
# 1 0.066860 -0.034455 0.051297 0.000000 0.144555 0.000000
# 2 -0.034455 0.037244 -0.033968 0.000000 -0.056343 0.000000
# 3 0.051297 -0.033968 0.068032 0.000000 0.140847 0.000000
# 4 0.000000 0.000000 0.000000 0.168189 0.000000 -0.337237
# 5 0.144555 -0.056343 0.140847 0.000000 0.453783 0.000000
# 6 0.000000 0.000000 0.000000 -0.337237 0.000000 0.814204
#
#
# Mechanical properties :
#
#
# Convention : Reuss Voigt Hill
#
# Bulk Modulus (GPa) = 7.25245 52.74854 30.00050
# Shear Modulus (GPa) = 2.96116 19.80685 11.38401
#
# Velocity S-wave (km/s) = 1.25203 3.23810 2.45488
# Velocity P-wave (km/s) = 2.43503 6.47334 4.89048
#
# Compressibility (1/GPa) = 0.13788442
#
# Stress axis : x y z
#
# Youngs Moduli (GPa) = 14.95672 26.84998 14.69897
#
# Poissons Ratio (x) = 0.92511 -0.75402
# Poissons Ratio (y) = 0.51533 0.49930
# Poissons Ratio (z) = -0.76724 0.91204
#
# Static dielectric constant tensor:
#      x y z
#    x 1.721260 0.000000 0.020850 
#    y 0.000000 1.667790 0.000000 
#    z 0.020850 0.000000 1.820750 
# 
# From -- ./inp_files/40279.got.cif
#   From: 2010.05.17/outbox.cif.g08.bks.cpg/sg12_21_cif.got.tgz:40279.got - 2010.06.03 13:09:07.
