data_PCOD9216866
_publ_section_title
;
Structure prediction by ZEFSAII (Michael W. Deem and Ramdas Pophale) SiO2 
 PCOD9216866
Probable space group: C 2/M
;
_chemical_formula_sum "Si O2"
_cell_formula_units_Z 34
_cell_length_a 16.264481
_cell_length_b 21.970687
_cell_length_c 7.768337
_cell_angle_alpha 90.000000
_cell_angle_beta 32.593152
_cell_angle_gamma 90.000000
_cell_volume 1495.322151
_symmetry_space_group_name_H-M "C 2/M"
_symmetry_group_IT_number 12
_symmetry_cell_setting 'monoclinic'
loop_
_space_group_symop_operation_xyz
x,y,z
-x,y,-z
-x,-y,-z
x,-y,z
1/2+x,1/2+y,z
1/2-x,1/2+y,-z
1/2-x,1/2-y,-z
1/2+x,1/2-y,z
loop_
_atom_site_type_symbol
_atom_site_label
_atom_site_fract_x
_atom_site_fract_y
_atom_site_fract_z
Si Si1 0.732183 0.774243 0.726071
Si Si2 0.733040 0.072903 0.168402
Si Si3 0.432958 0.107213 0.890352
Si Si4 0.000000 0.500000 0.000000
Si Si5 0.539327 0.666295 0.136015
O O1 0.750000 0.750000 0.500000
O O2 0.890629 0.806882 0.490557
O O3 0.605547 0.826424 0.971764
O O4 0.674788 0.715130 0.927590
O O5 0.609331 0.097921 0.524333
O O6 0.666539 0.093839 0.103292
O O7 0.730210 0.000000 0.186309
O O8 0.896548 0.102187 0.915514
O O9 0.399996 0.053886 0.082233
O O10 0.500000 0.663219 0.000000
#
# Coordination Sequence:
#
# PCOD9216866 Si02
#       5
#     8   8   8   2   8
#     4  10  23  42  67 103 132 178 231 288 337 401
#     4  11  23  47  65 103 145 180 226 280 342 412
#     4  11  24  42  72 101 136 180 230 283 339 411
#     4  12  24  38  76 108 122 188 238 272 350 406
#     4  10  23  40  67  97 136 179 229 281 345 403
#
# _framework density 22.737573999999999
#
# number of rings (size 3 to 8) (size 9 to 14) (size 15 to 20)
#    0.000    1.412    2.353    2.118   11.529    2.353 
#    2.118    1.176    0.000    0.000    0.000    0.000 
#    0.000    0.000    0.000    0.000    0.000    0.000 
#
# Total GULP energy -94819.644456 kJ/mol
# GULP energy per Si atom -5577.626144 kJ/mol
# Density = 2.268582 g / cm^3
# Si number density = 22.737574 Si / 1000 Ang^3
#
#
#
# Elastic Constant Matrix: (Units=GPa)
#
#
# Indices 1 2 3 4 5 6 
#
# 1 72.5540 24.2132 33.9881 0.0000 -3.0091 0.0000
# 2 24.2132 152.9747 39.9614 0.0000 8.6929 0.0000
# 3 33.9881 39.9614 74.3925 0.0000 -11.7040 0.0000
# 4 0.0000 0.0000 0.0000 51.1774 0.0000 -9.7380
# 5 -3.0091 8.6929 -11.7040 0.0000 28.2478 0.0000
# 6 0.0000 0.0000 0.0000 -9.7380 0.0000 37.1908
#
#
#
# Elastic Compliance Matrix: (Units=1/GPa)
#
#
# Indices 1 2 3 4 5 6 
#
# 1 0.017654 -0.000664 -0.007895 0.000000 -0.001186 0.000000
# 2 -0.000664 0.008154 -0.004795 0.000000 -0.004567 0.000000
# 3 -0.007895 -0.004795 0.021101 0.000000 0.009377 0.000000
# 4 0.000000 0.000000 0.000000 0.020564 0.000000 0.005385
# 5 -0.001186 -0.004567 0.009377 0.000000 0.040565 0.000000
# 6 0.000000 0.000000 0.000000 0.005385 0.000000 0.028298
#
#
# Mechanical properties :
#
#
# Convention : Reuss Voigt Hill
#
# Bulk Modulus (GPa) = 49.50777 55.13850 52.32313
# Shear Modulus (GPa) = 29.44985 36.77377 33.11181
#
# Velocity S-wave (km/s) = 3.60280 4.02595 3.82024
# Velocity P-wave (km/s) = 6.25522 6.77596 6.52079
#
# Compressibility (1/GPa) = 0.02019885
#
# Stress axis : x y z
#
# Youngs Moduli (GPa) = 56.64437 122.63373 47.39201
#
# Poissons Ratio (x) = 0.08148 0.37418
# Poissons Ratio (y) = 0.03763 0.22726
# Poissons Ratio (z) = 0.44723 0.58806
#
# Static dielectric constant tensor:
#      x y z
#    x 1.853320 0.000000 -0.013410 
#    y 0.000000 1.766960 0.000000 
#    z -0.013410 0.000000 1.862680 
# 
# From -- ./inp_files/77883.got.cif
#   From: 2010.05.17/outbox.cif.g08.bks.cpg/sg12_39_cif.got.tgz:77883.got - 2010.06.03 13:09:07.
