data_PCOD9216803
_publ_section_title
;
Structure prediction by ZEFSAII (Michael W. Deem and Ramdas Pophale) SiO2 
 PCOD9216803
Probable space group: C 2/M
;
_chemical_formula_sum "Si O2"
_cell_formula_units_Z 52
_cell_length_a 15.896113
_cell_length_b 15.492150
_cell_length_c 17.881884
_cell_angle_alpha 90.000000
_cell_angle_beta 39.651821
_cell_angle_gamma 90.000000
_cell_volume 2810.080004
_symmetry_space_group_name_H-M "C 2/M"
_symmetry_group_IT_number 12
_symmetry_cell_setting 'monoclinic'
loop_
_space_group_symop_operation_xyz
x,y,z
-x,y,-z
-x,-y,-z
x,-y,z
1/2+x,1/2+y,z
1/2-x,1/2+y,-z
1/2-x,1/2-y,-z
1/2+x,1/2-y,z
loop_
_atom_site_type_symbol
_atom_site_label
_atom_site_fract_x
_atom_site_fract_y
_atom_site_fract_z
Si Si1 0.252971 0.397912 0.150711
Si Si2 0.155657 0.669514 0.377306
Si Si3 0.606085 0.500000 0.539348
Si Si4 0.671863 0.173315 0.770548
Si Si5 0.500000 0.713625 0.000000
Si Si6 0.238403 0.649092 0.483751
Si Si7 0.807460 0.000000 0.694112
Si Si8 0.488988 0.898435 0.257051
O O1 0.271700 0.500000 0.130773
O O2 0.202080 0.377921 0.270013
O O3 0.386932 0.347271 0.043504
O O4 0.136579 0.369943 0.174324
O O5 0.200382 0.768863 0.335812
O O6 0.235798 0.640212 0.396158
O O7 0.000000 0.661555 0.500000
O O8 0.657530 0.585529 0.547204
O O9 0.449472 0.500000 0.635893
O O10 0.667566 0.500000 0.413338
O O11 0.724590 0.084900 0.769098
O O12 0.588149 0.151403 0.754354
O O13 0.577171 0.227120 0.888844
O O14 0.250000 0.750000 0.500000
O O15 0.097473 0.615978 0.609783
O O16 0.490125 0.000000 0.238043
#
# Coordination Sequence:
#
# PCOD9216803 Si02
#       8
#     8   8   4   8   4   8   4   8
#     4  10  23  40  64  85 118 162 200 251 302 362
#     4  11  23  34  59  94 127 157 198 243 301 366
#     4  11  24  36  59  94 130 162 198 236 303 381
#     4  11  22  41  62  87 118 159 205 255 300 357
#     4  10  25  43  62  86 114 156 214 259 301 354
#     4  12  21  35  56  89 134 166 190 243 298 369
#     4  11  22  39  64  88 122 162 201 245 304 364
#     4  11  20  37  59  88 118 157 202 242 304 365
#
# _framework density 18.504811
#
# number of rings (size 3 to 8) (size 9 to 14) (size 15 to 20)
#    0.000    1.077    6.154    0.231    5.385    1.231 
#    0.000    0.000    0.000    0.000    0.000    0.000 
#    0.000    0.000    0.000    0.000    0.000    0.000 
#
# Total GULP energy -145164.061763 kJ/mol
# GULP energy per Si atom -5583.233145 kJ/mol
# Density = 1.846269 g / cm^3
# Si number density = 18.504811 Si / 1000 Ang^3
#
#
#
# Elastic Constant Matrix: (Units=GPa)
#
#
# Indices 1 2 3 4 5 6 
#
# 1 85.9326 42.7901 19.1813 0.0000 -22.9859 0.0000
# 2 42.7901 96.3795 25.1764 0.0000 -15.8429 0.0000
# 3 19.1813 25.1764 63.1872 0.0000 -25.7981 0.0000
# 4 0.0000 0.0000 0.0000 21.1248 0.0000 1.8498
# 5 -22.9859 -15.8429 -25.7981 0.0000 30.1332 0.0000
# 6 0.0000 0.0000 0.0000 1.8498 0.0000 21.5728
#
#
#
# Elastic Compliance Matrix: (Units=1/GPa)
#
#
# Indices 1 2 3 4 5 6 
#
# 1 0.017492 -0.006365 0.002010 0.000000 0.011718 0.000000
# 2 -0.006365 0.014113 -0.004065 0.000000 -0.000915 0.000000
# 3 0.002010 -0.004065 0.025503 0.000000 0.021231 0.000000
# 4 0.000000 0.000000 0.000000 0.047696 0.000000 -0.004090
# 5 0.011718 -0.000915 0.021231 0.000000 0.059820 0.000000
# 6 0.000000 0.000000 0.000000 -0.004090 0.000000 0.046705
#
#
# Mechanical properties :
#
#
# Convention : Reuss Voigt Hill
#
# Bulk Modulus (GPa) = 24.83265 46.64386 35.73825
# Shear Modulus (GPa) = 20.69615 25.12295 22.90955
#
# Velocity S-wave (km/s) = 3.34791 3.68862 3.52239
# Velocity P-wave (km/s) = 5.32854 6.58804 5.99148
#
# Compressibility (1/GPa) = 0.04026957
#
# Stress axis : x y z
#
# Youngs Moduli (GPa) = 57.16865 70.85722 39.21062
#
# Poissons Ratio (x) = 0.45101 -0.07882
# Poissons Ratio (y) = 0.36388 0.15938
# Poissons Ratio (z) = -0.11492 0.28801
#
# Static dielectric constant tensor:
#      x y z
#    x 1.656630 0.000000 0.005210 
#    y 0.000000 1.648170 0.000000 
#    z 0.005210 0.000000 1.621030 
# 
# From -- ./inp_files/155458.got.cif
#   From: 2010.05.17/outbox.cif.g08.bks.cpg/sg12_78_cif.got.tgz:155458.got - 2010.06.03 13:09:07.
