data_PCOD9216685
_publ_section_title
;
Structure prediction by ZEFSAII (Michael W. Deem and Ramdas Pophale) SiO2 
 PCOD9216685
Probable space group: C 2/M
;
_chemical_formula_sum "Si O2"
_cell_formula_units_Z 40
_cell_length_a 10.349422
_cell_length_b 8.384326
_cell_length_c 21.781219
_cell_angle_alpha 90.000000
_cell_angle_beta 71.875330
_cell_angle_gamma 90.000000
_cell_volume 1796.240891
_symmetry_space_group_name_H-M "C 2/M"
_symmetry_group_IT_number 12
_symmetry_cell_setting 'monoclinic'
loop_
_space_group_symop_operation_xyz
x,y,z
-x,y,-z
-x,-y,-z
x,-y,z
1/2+x,1/2+y,z
1/2-x,1/2+y,-z
1/2-x,1/2-y,-z
1/2+x,1/2-y,z
loop_
_atom_site_type_symbol
_atom_site_label
_atom_site_fract_x
_atom_site_fract_y
_atom_site_fract_z
Si Si1 0.196740 0.000000 0.025954
Si Si2 0.479792 0.186597 0.762130
Si Si3 0.846785 0.191182 0.539783
Si Si4 0.229152 0.311762 0.314523
Si Si5 0.746171 0.825361 0.868459
Si Si6 0.124332 0.000000 0.900267
O O1 0.257293 0.854393 0.057468
O O2 0.034755 0.000000 0.061748
O O3 0.211204 0.000000 0.951287
O O4 0.636980 0.223667 0.729504
O O5 0.399177 0.221098 0.710470
O O6 0.398909 0.291809 0.823529
O O7 0.459793 0.000000 0.779544
O O8 0.750000 0.250000 0.500000
O O9 0.803334 0.261312 0.611511
O O10 0.000000 0.238956 0.500000
O O11 0.840664 0.000000 0.544731
O O12 0.256594 0.500000 0.308240
O O13 0.664849 0.666815 0.863000
O O14 0.701160 0.000000 0.850367
#
# Coordination Sequence:
#
# PCOD9216685 Si02
#       6
#     4   8   8   8   8   4
#     4   9  24  40  65  95 123 169 218 264 324 404
#     4  11  24  42  64  92 132 173 213 272 327 383
#     4  11  24  42  66  95 129 167 213 264 321 385
#     4  11  25  42  65  95 129 169 218 265 322 389
#     4  10  23  39  63  93 124 167 217 264 323 394
#     4  11  20  46  63  87 137 163 208 281 324 377
#
# _framework density 22.268729
#
# number of rings (size 3 to 8) (size 9 to 14) (size 15 to 20)
#    0.600    0.800    1.000    3.600    2.800    8.000 
#    1.800    1.000    0.000    0.000    0.000    0.000 
#    0.000    0.000    0.000    0.000    0.000    0.000 
#
# Total GULP energy -111811.975856 kJ/mol
# GULP energy per Si atom -5590.598793 kJ/mol
# Density = 2.221804 g / cm^3
# Si number density = 22.268729 Si / 1000 Ang^3
#
#
#
# Elastic Constant Matrix: (Units=GPa)
#
#
# Indices 1 2 3 4 5 6 
#
# 1 93.7894 31.1978 9.0361 0.0000 10.9482 0.0000
# 2 31.1978 126.6405 22.5111 0.0000 -5.8829 0.0000
# 3 9.0361 22.5111 78.2648 0.0000 17.1710 0.0000
# 4 0.0000 0.0000 0.0000 35.6448 0.0000 -0.4855
# 5 10.9482 -5.8829 17.1710 0.0000 39.3241 0.0000
# 6 0.0000 0.0000 0.0000 -0.4855 0.0000 13.9254
#
#
#
# Elastic Compliance Matrix: (Units=1/GPa)
#
#
# Indices 1 2 3 4 5 6 
#
# 1 0.012182 -0.003265 0.000425 0.000000 -0.004066 0.000000
# 2 -0.003265 0.009432 -0.003146 0.000000 0.003694 0.000000
# 3 0.000425 -0.003146 0.015220 0.000000 -0.007235 0.000000
# 4 0.000000 0.000000 0.000000 0.028068 0.000000 0.000979
# 5 -0.004066 0.003694 -0.007235 0.000000 0.030273 0.000000
# 6 0.000000 0.000000 0.000000 0.000979 0.000000 0.071845
#
#
# Mechanical properties :
#
#
# Convention : Reuss Voigt Hill
#
# Bulk Modulus (GPa) = 40.22489 47.13162 43.67825
# Shear Modulus (GPa) = 26.69785 33.50884 30.10335
#
# Velocity S-wave (km/s) = 3.46626 3.88332 3.68070
# Velocity P-wave (km/s) = 5.84145 6.42789 6.14167
#
# Compressibility (1/GPa) = 0.02486023
#
# Stress axis : x y z
#
# Youngs Moduli (GPa) = 82.08813 106.02600 65.70145
#
# Poissons Ratio (x) = 0.34622 -0.02790
# Poissons Ratio (y) = 0.26805 0.20671
# Poissons Ratio (z) = -0.03486 0.33358
#
# Static dielectric constant tensor:
#      x y z
#    x 1.805780 0.000000 0.022330 
#    y 0.000000 1.832080 0.000000 
#    z 0.022330 0.000000 1.785370 
# 
# From -- ./inp_files/334603.got.cif
#   From: 2010.05.17/outbox.cif.g08.bks.cpg/sg12_168_cif.got.tgz:334603.got - 2010.06.03 13:09:07.
