data_PCOD9216680
_publ_section_title
;
Structure prediction by ZEFSAII (Michael W. Deem and Ramdas Pophale) SiO2 
 PCOD9216680
Probable space group: C 2/M
;
_chemical_formula_sum "Si O2"
_cell_formula_units_Z 40
_cell_length_a 14.709463
_cell_length_b 10.947074
_cell_length_c 13.673020
_cell_angle_alpha 90.000000
_cell_angle_beta 121.776788
_cell_angle_gamma 90.000000
_cell_volume 1871.683695
_symmetry_space_group_name_H-M "C 2/M"
_symmetry_group_IT_number 12
_symmetry_cell_setting 'monoclinic'
loop_
_space_group_symop_operation_xyz
x,y,z
-x,y,-z
-x,-y,-z
x,-y,z
1/2+x,1/2+y,z
1/2-x,1/2+y,-z
1/2-x,1/2-y,-z
1/2+x,1/2-y,z
loop_
_atom_site_type_symbol
_atom_site_label
_atom_site_fract_x
_atom_site_fract_y
_atom_site_fract_z
Si Si1 0.680163 0.863102 0.507583
Si Si2 0.839204 0.365158 0.797308
Si Si3 0.180099 0.366337 0.985777
Si Si4 0.492386 0.201980 0.740982
Si Si5 0.401483 0.692990 0.377765
O O1 0.750000 0.750000 0.500000
O O2 0.577932 0.868737 0.378577
O O3 0.634107 0.818280 0.586103
O O4 0.729395 0.000000 0.538194
O O5 0.882198 0.500000 0.795896
O O6 0.903387 0.264603 0.771850
O O7 0.714496 0.367456 0.698148
O O8 0.854220 0.350553 0.921052
O O9 0.233553 0.500000 0.009611
O O10 0.083070 0.363026 0.854907
O O11 0.250000 0.250000 0.000000
O O12 0.552283 0.297742 0.705288
O O13 0.500000 0.644061 0.500000
#
# Coordination Sequence:
#
# PCOD9216680 Si02
#       5
#     8   8   8   8   8
#     4  11  23  40  64  96 128 167 215 261 318 386
#     4  11  22  40  66  96 127 168 221 265 318 389
#     4  11  23  41  67  97 127 169 219 269 324 386
#     4  11  22  41  67  95 127 172 216 270 319 384
#     4  10  23  39  62  96 130 167 213 266 323 383
#
# _framework density 21.371133
#
# number of rings (size 3 to 8) (size 9 to 14) (size 15 to 20)
#    0.000    1.200    4.000    2.400    0.000    7.200 
#    0.000    4.000    0.000    1.200    0.000    0.000 
#    0.000    0.000    0.000    0.000    0.000    0.000 
#
# Total GULP energy -111341.406732 kJ/mol
# GULP energy per Si atom -5567.070337 kJ/mol
# Density = 2.132249 g / cm^3
# Si number density = 21.371133 Si / 1000 Ang^3
#
#
#
# Elastic Constant Matrix: (Units=GPa)
#
#
# Indices 1 2 3 4 5 6 
#
# 1 123.6091 57.5006 28.9788 0.0000 -4.7500 0.0000
# 2 57.5006 106.9605 34.3943 0.0000 1.2185 0.0000
# 3 28.9788 34.3943 125.6854 0.0000 -6.5430 0.0000
# 4 0.0000 0.0000 0.0000 10.7969 0.0000 4.7391
# 5 -4.7500 1.2185 -6.5430 0.0000 38.8165 0.0000
# 6 0.0000 0.0000 0.0000 4.7391 0.0000 23.7604
#
#
#
# Elastic Compliance Matrix: (Units=1/GPa)
#
#
# Indices 1 2 3 4 5 6 
#
# 1 0.010972 -0.005617 -0.000921 0.000000 0.001364 0.000000
# 2 -0.005617 0.013152 -0.002382 0.000000 -0.001502 0.000000
# 3 -0.000921 -0.002382 0.008897 0.000000 0.001462 0.000000
# 4 0.000000 0.000000 0.000000 0.101506 0.000000 -0.020246
# 5 0.001364 -0.001502 0.001462 0.000000 0.026223 0.000000
# 6 0.000000 0.000000 0.000000 -0.020246 0.000000 0.046125
#
#
# Mechanical properties :
#
#
# Convention : Reuss Voigt Hill
#
# Bulk Modulus (GPa) = 65.88247 66.44473 66.16360
# Shear Modulus (GPa) = 21.76037 30.36682 26.06360
#
# Velocity S-wave (km/s) = 3.19441 3.77361 3.49602
# Velocity P-wave (km/s) = 6.67086 7.08133 6.87916
#
# Compressibility (1/GPa) = 0.01517854
#
# Stress axis : x y z
#
# Youngs Moduli (GPa) = 91.14478 76.03281 112.39980
#
# Poissons Ratio (x) = 0.42711 0.10357
# Poissons Ratio (y) = 0.51200 0.26775
# Poissons Ratio (z) = 0.08399 0.18112
#
# Static dielectric constant tensor:
#      x y z
#    x 1.850790 0.000000 -0.009080 
#    y 0.000000 1.800290 0.000000 
#    z -0.009080 0.000000 1.789360 
# 
# From -- ./inp_files/212100.got.cif
#   From: 2010.05.17/outbox.cif.g08.bks.cpg/sg12_107_cif.got.tgz:212100.got - 2010.06.03 13:09:07.
