data_PCOD9216732
_publ_section_title
;
Structure prediction by ZEFSAII (Michael W. Deem and Ramdas Pophale) SiO2 
 PCOD9216732
Probable space group: C 2/M
;
_chemical_formula_sum "Si O2"
_cell_formula_units_Z 60
_cell_length_a 18.316222
_cell_length_b 18.035398
_cell_length_c 8.113272
_cell_angle_alpha 90.000000
_cell_angle_beta 95.954238
_cell_angle_gamma 90.000000
_cell_volume 2665.681954
_symmetry_space_group_name_H-M "C 2/M"
_symmetry_group_IT_number 12
_symmetry_cell_setting 'monoclinic'
loop_
_space_group_symop_operation_xyz
x,y,z
-x,y,-z
-x,-y,-z
x,-y,z
1/2+x,1/2+y,z
1/2-x,1/2+y,-z
1/2-x,1/2-y,-z
1/2+x,1/2-y,z
loop_
_atom_site_type_symbol
_atom_site_label
_atom_site_fract_x
_atom_site_fract_y
_atom_site_fract_z
Si Si1 0.160493 0.839181 0.226417
Si Si2 0.891053 0.587699 0.986872
Si Si3 0.914966 0.798732 0.467778
Si Si4 0.500000 0.799431 0.000000
Si Si5 0.192971 0.653519 0.549272
Si Si6 0.885921 0.181489 0.113374
Si Si7 0.938230 0.416912 0.368671
Si Si8 0.274778 0.183130 0.810423
O O1 0.109763 0.841757 0.374418
O O2 0.243217 0.858334 0.301385
O O3 0.169600 0.751936 0.184182
O O4 0.123751 0.869466 0.051170
O O5 0.900669 0.500000 0.963643
O O6 0.910565 0.608103 0.181302
O O7 0.811094 0.616274 0.919429
O O8 0.946353 0.640849 0.897044
O O9 0.860247 0.726346 0.440756
O O10 0.907117 0.846715 0.299327
O O11 0.000000 0.777439 0.500000
O O12 0.447146 0.744113 0.088640
O O13 0.135769 0.587146 0.541893
O O14 0.232312 0.661442 0.382923
O O15 0.801908 0.206735 0.129261
O O16 0.964460 0.500000 0.341478
O O17 0.000000 0.381819 0.500000
#
# Coordination Sequence:
#
# PCOD9216732 Si02
#       8
#     8   8   8   4   8   8   8   8
#     4  11  21  38  55  83 113 157 207 255 314 367
#     4  11  25  42  60  89 126 173 220 260 309 372
#     4  11  22  34  51  83 117 150 194 247 305 383
#     4  12  25  36  60  92 125 170 206 256 312 388
#     4  11  21  37  58  83 115 161 209 260 316 366
#     4  12  22  37  60  87 120 166 205 256 330 361
#     4  10  23  40  58  83 122 173 222 262 304 368
#     4  11  22  39  59  84 119 155 213 267 308 374
#
# _framework density 22.508310999999999
#
# number of rings (size 3 to 8) (size 9 to 14) (size 15 to 20)
#    0.000    0.933    4.000    4.200    3.733    0.533 
#    0.000    0.000    0.000    0.000    0.000    0.467 
#    0.000    4.267    0.000    0.267    0.000    0.000 
#
# Total GULP energy -167208.321203 kJ/mol
# GULP energy per Si atom -5573.610707 kJ/mol
# Density = 2.245708 g / cm^3
# Si number density = 22.508311 Si / 1000 Ang^3
#
#
#
# Elastic Constant Matrix: (Units=GPa)
#
#
# Indices 1 2 3 4 5 6 
#
# 1 141.6807 32.0183 54.0974 0.0000 -3.7107 0.0000
# 2 32.0183 19.4430 13.8916 0.0000 4.5623 0.0000
# 3 54.0974 13.8916 179.2949 0.0000 9.0344 0.0000
# 4 0.0000 0.0000 0.0000 13.0212 0.0000 2.5887
# 5 -3.7107 4.5623 9.0344 0.0000 38.2305 0.0000
# 6 0.0000 0.0000 0.0000 2.5887 0.0000 13.8736
#
#
#
# Elastic Compliance Matrix: (Units=1/GPa)
#
#
# Indices 1 2 3 4 5 6 
#
# 1 0.012640 -0.020034 -0.002473 0.000000 0.004202 0.000000
# 2 -0.020034 0.087397 -0.000104 0.000000 -0.012349 0.000000
# 3 -0.002473 -0.000104 0.006420 0.000000 -0.001745 0.000000
# 4 0.000000 0.000000 0.000000 0.079757 0.000000 -0.014882
# 5 0.004202 -0.012349 -0.001745 0.000000 0.028451 0.000000
# 6 0.000000 0.000000 0.000000 -0.014882 0.000000 0.074856
#
#
# Mechanical properties :
#
#
# Convention : Reuss Voigt Hill
#
# Bulk Modulus (GPa) = 16.33117 60.04813 38.18965
# Shear Modulus (GPa) = 14.07835 29.05248 21.56541
#
# Velocity S-wave (km/s) = 2.50366 3.59659 3.09869
# Velocity P-wave (km/s) = 3.95337 6.63200 5.45951
#
# Compressibility (1/GPa) = 0.06123261
#
# Stress axis : x y z
#
# Youngs Moduli (GPa) = 79.11343 11.44207 155.77172
#
# Poissons Ratio (x) = 0.22923 0.38527
# Poissons Ratio (y) = 1.58498 0.01625
# Poissons Ratio (z) = 0.19567 0.00119
#
# Static dielectric constant tensor:
#      x y z
#    x 1.894000 0.000000 0.009910 
#    y 0.000000 1.812160 0.000000 
#    z 0.009910 0.000000 2.019710 
# 
# From -- ./inp_files/77547.got.cif
#   From: 2010.05.17/outbox.cif.g08.bks.cpg/sg12_39_cif.got.tgz:77547.got - 2010.06.03 13:09:07.
