data_PCOD9216655
_publ_section_title
;
Structure prediction by ZEFSAII (Michael W. Deem and Ramdas Pophale) SiO2 
 PCOD9216655
Probable space group: C 2/M
;
_chemical_formula_sum "Si O2"
_cell_formula_units_Z 42
_cell_length_a 9.679340
_cell_length_b 25.142434
_cell_length_c 14.499413
_cell_angle_alpha 90.000000
_cell_angle_beta 147.120995
_cell_angle_gamma 90.000000
_cell_volume 1915.564266
_symmetry_space_group_name_H-M "C 2/M"
_symmetry_group_IT_number 12
_symmetry_cell_setting 'monoclinic'
loop_
_space_group_symop_operation_xyz
x,y,z
-x,y,-z
-x,-y,-z
x,-y,z
1/2+x,1/2+y,z
1/2-x,1/2+y,-z
1/2-x,1/2-y,-z
1/2+x,1/2-y,z
loop_
_atom_site_type_symbol
_atom_site_label
_atom_site_fract_x
_atom_site_fract_y
_atom_site_fract_z
Si Si1 0.029867 0.057959 0.305940
Si Si2 0.933309 0.229353 0.683815
Si Si3 0.368665 0.157629 0.155324
Si Si4 0.139704 0.147344 0.667556
Si Si5 0.500000 0.000000 0.000000
Si Si6 0.680816 0.640672 0.242671
O O1 0.019254 0.096843 0.387220
O O2 0.730436 0.045215 0.118211
O O3 0.166154 0.089595 0.300137
O O4 0.146847 0.000000 0.389119
O O5 0.750000 0.250000 0.500000
O O6 0.788924 0.193002 0.677457
O O7 0.069286 0.279630 0.805400
O O8 0.132916 0.189653 0.746112
O O9 0.583524 0.132162 0.212311
O O10 0.370418 0.138279 0.262639
O O11 0.096492 0.147194 0.958805
O O12 0.000000 0.171509 0.500000
#
# Coordination Sequence:
#
# PCOD9216655 Si02
#       6
#     8   8   8   8   2   8
#     4   9  20  39  63  84 115 154 203 253 307 356
#     4  11  22  39  59  89 126 168 203 241 301 367
#     4  11  22  37  59  90 128 158 200 249 310 351
#     4  11  22  38  61  92 120 160 208 249 297 374
#     4   8  16  36  66  82 102 156 200 246 308 352
#     4  10  23  39  59  91 124 159 202 255 301 369
#
# _framework density 21.925654999999999
#
# number of rings (size 3 to 8) (size 9 to 14) (size 15 to 20)
#    0.571    1.143    1.905    2.857    0.000    4.190 
#    0.000    2.857    0.000    1.143    0.000    0.000 
#    0.000    0.000    0.000    0.000    0.000    0.000 
#
# Total GULP energy -117068.426411 kJ/mol
# GULP energy per Si atom -5574.686972 kJ/mol
# Density = 2.187575 g / cm^3
# Si number density = 21.925655 Si / 1000 Ang^3
#
#
#
# Elastic Constant Matrix: (Units=GPa)
#
#
# Indices 1 2 3 4 5 6 
#
# 1 151.3784 54.7720 18.1148 0.0000 -3.5544 0.0000
# 2 54.7720 111.4388 -9.3395 0.0000 -8.9268 0.0000
# 3 18.1148 -9.3395 40.0550 -0.0001 3.8443 0.0000
# 4 0.0000 0.0000 -0.0001 -16.2607 -0.0001 -8.1692
# 5 -3.5544 -8.9268 3.8443 -0.0001 28.4372 0.0000
# 6 0.0000 0.0000 0.0000 -8.1692 0.0000 3.7783
#
#
#
# Elastic Compliance Matrix: (Units=1/GPa)
#
#
# Indices 1 2 3 4 5 6 
#
# 1 0.008985 -0.004828 -0.005219 0.000000 0.000313 0.000000
# 2 -0.004828 0.011944 0.004728 0.000000 0.002507 0.000000
# 3 -0.005219 0.004728 0.028721 0.000000 -0.003051 0.000000
# 4 0.000000 0.000000 0.000000 -0.029478 0.000000 -0.063735
# 5 0.000313 0.002507 -0.003051 0.000000 0.036404 0.000000
# 6 0.000000 0.000000 0.000000 -0.063735 0.000000 0.126865
#
#
# Mechanical properties :
#
#
# Convention : Reuss Voigt Hill
#
# Bulk Modulus (GPa) = 25.63415 47.77409 36.70412
# Shear Modulus (GPa) = 24.14482 19.14594 21.64538
#
# Velocity S-wave (km/s) = 3.32205 2.95824 3.14541
# Velocity P-wave (km/s) = 5.14116 5.78832 5.47431
#
# Compressibility (1/GPa) = 0.03901046
#
# Stress axis : x y z
#
# Youngs Moduli (GPa) = 111.29772 83.72589 34.81738
#
# Poissons Ratio (x) = 0.40426 0.18172
# Poissons Ratio (y) = 0.53739 -0.16462
# Poissons Ratio (z) = 0.58089 -0.39585
#
# Static dielectric constant tensor:
#      x y z
#    x 1.828410 0.000000 0.023510 
#    y 0.000000 1.786100 0.000000 
#    z 0.023510 0.000000 1.823030 
# 
# From -- ./inp_files/200046.got.cif
#   From: 2010.05.17/outbox.cif.g08.bks.cpg/sg12_101_cif.got.tgz:200046.got - 2010.06.03 13:09:07.
