data_PCOD9216093
_publ_section_title
;
Structure prediction by ZEFSAII (Michael W. Deem and Ramdas Pophale) SiO2 
 PCOD9216093
Probable space group: C 2/M
;
_chemical_formula_sum "Si O2"
_cell_formula_units_Z 32
_cell_length_a 11.547440
_cell_length_b 8.567583
_cell_length_c 19.842516
_cell_angle_alpha 90.000000
_cell_angle_beta 137.537205
_cell_angle_gamma 90.000000
_cell_volume 1325.305989
_symmetry_space_group_name_H-M "C 2/M"
_symmetry_group_IT_number 12
_symmetry_cell_setting 'monoclinic'
loop_
_space_group_symop_operation_xyz
x,y,z
-x,y,-z
-x,-y,-z
x,-y,z
1/2+x,1/2+y,z
1/2-x,1/2+y,-z
1/2-x,1/2-y,-z
1/2+x,1/2-y,z
loop_
_atom_site_type_symbol
_atom_site_label
_atom_site_fract_x
_atom_site_fract_y
_atom_site_fract_z
Si Si1 0.315383 0.000000 0.885291
Si Si2 0.675577 0.255902 0.307534
Si Si3 0.511817 0.500000 0.675938
Si Si4 0.713395 0.500000 0.546525
Si Si5 0.685015 0.184574 0.900546
Si Si6 0.055471 0.500000 0.603028
O O1 0.216609 0.000000 0.770877
O O2 0.252649 0.174047 0.882676
O O3 0.500000 0.000000 0.000000
O O4 0.573754 0.359984 0.318783
O O5 0.778487 0.143167 0.400061
O O6 0.521622 0.189919 0.195868
O O7 0.817607 0.355077 0.329166
O O8 0.441092 0.500000 0.571181
O O9 0.887721 0.500000 0.576487
O O10 0.736115 0.000000 0.912483
O O11 0.750000 0.250000 0.000000
O O12 0.000000 0.500000 0.500000
#
# Coordination Sequence:
#
# PCOD9216093 Si02
#       6
#     4   8   4   4   8   4
#     4  10  23  44  65 103 140 170 239 298 351 437
#     4  10  22  43  65 101 140 177 239 296 347 432
#     4   9  20  38  68  88 134 187 209 285 365 401
#     4  12  21  43  74  96 141 191 230 287 366 427
#     4  11  22  44  72  96 137 193 231 299 379 417
#     4  11  24  42  69 103 140 191 239 283 362 437
#
# _framework density 24.145368000000001
#
# number of rings (size 3 to 8) (size 9 to 14) (size 15 to 20)
#    0.000    1.500    5.000    1.500    0.000    0.500 
#    9.000    3.125    0.000    0.000    0.000    0.000 
#    0.000    0.000    0.000    0.000    0.000    0.000 
#
# Total GULP energy -89253.980414 kJ/mol
# GULP energy per Si atom -5578.373776 kJ/mol
# Density = 2.409041 g / cm^3
# Si number density = 24.145368 Si / 1000 Ang^3
#
#
#
# Elastic Constant Matrix: (Units=GPa)
#
#
# Indices 1 2 3 4 5 6 
#
# 1 92.1509 43.0057 39.6377 0.0000 29.7941 0.0000
# 2 43.0057 182.0169 61.9167 0.0000 10.1297 0.0000
# 3 39.6377 61.9167 258.3441 0.0000 9.6512 0.0000
# 4 0.0000 0.0000 0.0000 45.7075 0.0000 3.0194
# 5 29.7941 10.1297 9.6512 0.0000 32.7158 0.0000
# 6 0.0000 0.0000 0.0000 3.0194 0.0000 12.0946
#
#
#
# Elastic Compliance Matrix: (Units=1/GPa)
#
#
# Indices 1 2 3 4 5 6 
#
# 1 0.017547 -0.002831 -0.001466 0.000000 -0.014671 0.000000
# 2 -0.002831 0.006507 -0.001159 0.000000 0.000905 0.000000
# 3 -0.001466 -0.001159 0.004358 0.000000 0.000408 0.000000
# 4 0.000000 0.000000 0.000000 0.022245 0.000000 -0.005553
# 5 -0.014671 0.000905 0.000408 0.000000 0.043526 0.000000
# 6 0.000000 0.000000 0.000000 -0.005553 0.000000 0.084068
#
#
# Mechanical properties :
#
#
# Convention : Reuss Voigt Hill
#
# Bulk Modulus (GPa) = 57.14030 91.29247 74.21638
# Shear Modulus (GPa) = 25.64163 43.96701 34.80432
#
# Velocity S-wave (km/s) = 3.26232 4.27186 3.80076
# Velocity P-wave (km/s) = 6.15685 7.88818 7.07567
#
# Compressibility (1/GPa) = 0.01750078
#
# Stress axis : x y z
#
# Youngs Moduli (GPa) = 56.99110 153.68810 229.45238
#
# Poissons Ratio (x) = 0.43505 0.33630
# Poissons Ratio (y) = 0.16133 0.26592
# Poissons Ratio (z) = 0.08353 0.17811
#
# Static dielectric constant tensor:
#      x y z
#    x 1.959300 0.000000 0.029580 
#    y 0.000000 1.919200 0.000000 
#    z 0.029580 0.000000 1.890740 
# 
# From -- ./inp_files/339151.got.cif
#   From: 2010.05.17/outbox.cif.g08.bks.cpg/sg12_170_cif.got.tgz:339151.got - 2010.06.03 13:09:07.
