data_PCOD9216172
_publ_section_title
;
Structure prediction by ZEFSAII (Michael W. Deem and Ramdas Pophale) SiO2 
 PCOD9216172
Probable space group: C 2/M
;
_chemical_formula_sum "Si O2"
_cell_formula_units_Z 48
_cell_length_a 9.471617
_cell_length_b 18.846084
_cell_length_c 13.693061
_cell_angle_alpha 90.000000
_cell_angle_beta 94.015508
_cell_angle_gamma 90.000000
_cell_volume 2438.250645
_symmetry_space_group_name_H-M "C 2/M"
_symmetry_group_IT_number 12
_symmetry_cell_setting 'monoclinic'
loop_
_space_group_symop_operation_xyz
x,y,z
-x,y,-z
-x,-y,-z
x,-y,z
1/2+x,1/2+y,z
1/2-x,1/2+y,-z
1/2-x,1/2-y,-z
1/2+x,1/2-y,z
loop_
_atom_site_type_symbol
_atom_site_label
_atom_site_fract_x
_atom_site_fract_y
_atom_site_fract_z
Si Si1 0.517014 0.304944 0.248682
Si Si2 0.131794 0.584588 0.434464
Si Si3 0.346802 0.684074 0.538254
Si Si4 0.337352 0.916503 0.964140
Si Si5 0.894056 0.919345 0.903647
Si Si6 0.687932 0.167485 0.237183
O O1 0.618671 0.318121 0.346198
O O2 0.545612 0.367392 0.173897
O O3 0.575761 0.230169 0.212872
O O4 0.349128 0.305198 0.264982
O O5 0.133264 0.500000 0.420485
O O6 0.270070 0.613762 0.496350
O O7 0.133720 0.623915 0.329592
O O8 0.000000 0.602656 0.500000
O O9 0.500000 0.693702 0.500000
O O10 0.250000 0.750000 0.500000
O O11 0.304901 0.878827 0.860762
O O12 0.301693 0.000000 0.951646
O O13 0.500000 0.909862 0.000000
O O14 0.248171 0.890443 0.052928
O O15 0.873603 0.000000 0.865419
O O16 0.000000 0.922410 0.000000
#
# Coordination Sequence:
#
# PCOD9216172 Si02
#       6
#     8   8   8   8   8   8
#     4  12  26  41  69  99 131 182 222 275 341 399
#     4  11  26  45  69  98 134 177 225 283 341 405
#     4  12  23  44  68  97 136 179 221 278 338 404
#     4  10  23  44  69  95 133 180 220 276 339 397
#     4  10  22  43  67  96 134 175 224 278 335 398
#     4  12  26  44  66  99 134 175 225 277 340 408
#
# _framework density 19.686243999999999
#
# number of rings (size 3 to 8) (size 9 to 14) (size 15 to 20)
#    0.000    0.833    5.000    1.000    4.667    3.000 
#    0.000    3.333    0.000    0.000    0.000    0.000 
#    0.000    0.000    0.000    0.000    0.000    0.000 
#
# Total GULP energy -134069.412604 kJ/mol
# GULP energy per Si atom -5586.225525 kJ/mol
# Density = 1.964144 g / cm^3
# Si number density = 19.686244 Si / 1000 Ang^3
#
#
#
# Elastic Constant Matrix: (Units=GPa)
#
#
# Indices 1 2 3 4 5 6 
#
# 1 132.1234 52.8288 38.1518 0.0000 -22.1257 0.0000
# 2 52.8288 87.8015 47.2124 0.0000 -13.8763 0.0000
# 3 38.1518 47.2124 92.5541 0.0000 -8.7503 0.0000
# 4 0.0000 0.0000 0.0000 16.8047 0.0000 -1.8953
# 5 -22.1257 -13.8763 -8.7503 0.0000 38.1140 0.0000
# 6 0.0000 0.0000 0.0000 -1.8953 0.0000 27.8639
#
#
#
# Elastic Compliance Matrix: (Units=1/GPa)
#
#
# Indices 1 2 3 4 5 6 
#
# 1 0.010663 -0.004988 -0.001470 0.000000 0.004037 0.000000
# 2 -0.004988 0.018635 -0.007239 0.000000 0.002227 0.000000
# 3 -0.001470 -0.007239 0.015101 0.000000 -0.000022 0.000000
# 4 0.000000 0.000000 0.000000 0.059967 0.000000 0.004079
# 5 0.004037 0.002227 -0.000022 0.000000 0.029386 0.000000
# 6 0.000000 0.000000 0.000000 0.004079 0.000000 0.036166
#
#
# Mechanical properties :
#
#
# Convention : Reuss Voigt Hill
#
# Bulk Modulus (GPa) = 58.80231 65.42946 62.11588
# Shear Modulus (GPa) = 24.63282 28.17560 26.40421
#
# Velocity S-wave (km/s) = 3.54117 3.78727 3.66628
# Velocity P-wave (km/s) = 6.83040 7.24105 7.03872
#
# Compressibility (1/GPa) = 0.01700613
#
# Stress axis : x y z
#
# Youngs Moduli (GPa) = 93.77858 53.66236 66.22074
#
# Poissons Ratio (x) = 0.26766 0.09732
# Poissons Ratio (y) = 0.46775 0.47939
# Poissons Ratio (z) = 0.13782 0.38848
#
# Static dielectric constant tensor:
#      x y z
#    x 1.747910 0.000000 -0.050580 
#    y 0.000000 1.698570 0.000000 
#    z -0.050580 0.000000 1.700180 
# 
# From -- ./inp_files/195931.got.cif
#   From: 2010.05.17/outbox.cif.g08.bks.cpg/sg12_98_cif.got.tgz:195931.got - 2010.06.03 13:09:07.
