data_PCOD9216524
_publ_section_title
;
Structure prediction by ZEFSAII (Michael W. Deem and Ramdas Pophale) SiO2 
 PCOD9216524
Probable space group: C 2/M
;
_chemical_formula_sum "Si O2"
_cell_formula_units_Z 48
_cell_length_a 10.660762
_cell_length_b 15.761967
_cell_length_c 15.108246
_cell_angle_alpha 90.000000
_cell_angle_beta 75.367783
_cell_angle_gamma 90.000000
_cell_volume 2456.370558
_symmetry_space_group_name_H-M "C 2/M"
_symmetry_group_IT_number 12
_symmetry_cell_setting 'monoclinic'
loop_
_space_group_symop_operation_xyz
x,y,z
-x,y,-z
-x,-y,-z
x,-y,z
1/2+x,1/2+y,z
1/2-x,1/2+y,-z
1/2-x,1/2-y,-z
1/2+x,1/2-y,z
loop_
_atom_site_type_symbol
_atom_site_label
_atom_site_fract_x
_atom_site_fract_y
_atom_site_fract_z
Si Si1 0.661538 0.154237 0.227655
Si Si2 0.466156 0.400187 0.179738
Si Si3 0.600853 0.755960 0.058144
Si Si4 0.832285 0.166820 0.496030
Si Si5 0.980130 0.500000 0.655943
Si Si6 0.801284 0.500000 0.517213
Si Si7 0.082417 0.174607 0.336438
O O1 0.812406 0.124338 0.203668
O O2 0.611066 0.180727 0.139534
O O3 0.646639 0.240450 0.286978
O O4 0.566530 0.082476 0.282533
O O5 0.479102 0.500000 0.155788
O O6 0.543457 0.334667 0.102260
O O7 0.530815 0.381710 0.264559
O O8 0.500000 0.784504 0.000000
O O9 0.750000 0.750000 0.000000
O O10 0.750000 0.250000 0.500000
O O11 0.781894 0.083954 0.456706
O O12 0.830199 0.138697 0.599874
O O13 0.960552 0.193868 0.420647
O O14 0.898144 0.500000 0.580971
O O15 0.123747 0.500000 0.589963
#
# Coordination Sequence:
#
# PCOD9216524 Si02
#       7
#     8   8   8   8   4   4   8
#     4  11  22  41  69  97 131 174 224 285 334 411
#     4  11  23  41  71 100 130 173 228 277 335 423
#     4  11  24  48  72 101 137 175 222 276 356 415
#     4  11  22  38  56  87 131 179 231 281 334 400
#     4  11  22  40  61  95 128 175 230 270 339 394
#     4  11  24  37  62  86 136 182 226 285 334 396
#     4  10  23  36  61  90 129 174 228 275 339 385
#
# _framework density 19.541025999999999
#
# number of rings (size 3 to 8) (size 9 to 14) (size 15 to 20)
#    0.000    1.167    2.500    4.000    2.333    5.000 
#    1.500    0.417    0.000    0.000    0.000    0.000 
#    0.000    0.000    0.000    0.000    0.000    0.000 
#
# Total GULP energy -133753.237104 kJ/mol
# GULP energy per Si atom -5573.051546 kJ/mol
# Density = 1.949655 g / cm^3
# Si number density = 19.541026 Si / 1000 Ang^3
#
#
#
# Elastic Constant Matrix: (Units=GPa)
#
#
# Indices 1 2 3 4 5 6 
#
# 1 84.9965 36.6046 40.3078 0.0000 1.9128 0.0000
# 2 36.6046 97.0160 23.8397 0.0000 -4.7514 0.0000
# 3 40.3078 23.8397 106.2853 0.0000 5.4176 0.0000
# 4 0.0000 0.0000 0.0000 29.1474 0.0000 -2.8882
# 5 1.9128 -4.7514 5.4176 0.0000 42.7084 0.0000
# 6 0.0000 0.0000 0.0000 -2.8882 0.0000 24.5563
#
#
#
# Elastic Compliance Matrix: (Units=1/GPa)
#
#
# Indices 1 2 3 4 5 6 
#
# 1 0.016298 -0.004942 -0.005040 0.000000 -0.000641 0.000000
# 2 -0.004942 0.012508 -0.001020 0.000000 0.001742 0.000000
# 3 -0.005040 -0.001020 0.011618 0.000000 -0.001362 0.000000
# 4 0.000000 0.000000 0.000000 0.034713 0.000000 0.004083
# 5 -0.000641 0.001742 -0.001362 0.000000 0.023810 0.000000
# 6 0.000000 0.000000 0.000000 0.004083 0.000000 0.041203
#
#
# Mechanical properties :
#
#
# Convention : Reuss Voigt Hill
#
# Bulk Modulus (GPa) = 54.28790 54.42243 54.35517
# Shear Modulus (GPa) = 29.70985 31.78547 30.74766
#
# Velocity S-wave (km/s) = 3.90344 4.03749 3.97103
# Velocity P-wave (km/s) = 6.93957 7.04599 6.99298
#
# Compressibility (1/GPa) = 0.01842031
#
# Stress axis : x y z
#
# Youngs Moduli (GPa) = 61.35720 79.94672 86.07261
#
# Poissons Ratio (x) = 0.39512 0.43378
# Poissons Ratio (y) = 0.30324 0.08780
# Poissons Ratio (z) = 0.30922 0.08155
#
# Static dielectric constant tensor:
#      x y z
#    x 1.874150 0.000000 0.076450 
#    y 0.000000 1.665790 0.000000 
#    z 0.076450 0.000000 1.742920 
# 
# From -- ./inp_files/204408.got.cif
#   From: 2010.05.17/outbox.cif.g08.bks.cpg/sg12_103_cif.got.tgz:204408.got - 2010.06.03 13:09:07.
