data_PCOD9216104
_publ_section_title
;
Structure prediction by ZEFSAII (Michael W. Deem and Ramdas Pophale) SiO2 
 PCOD9216104
Probable space group: C 2/M
;
_chemical_formula_sum "Si O2"
_cell_formula_units_Z 32
_cell_length_a 10.419943
_cell_length_b 20.447111
_cell_length_c 8.733028
_cell_angle_alpha 90.000000
_cell_angle_beta 45.418186
_cell_angle_gamma 90.000000
_cell_volume 1325.238133
_symmetry_space_group_name_H-M "C 2/M"
_symmetry_group_IT_number 12
_symmetry_cell_setting 'monoclinic'
loop_
_space_group_symop_operation_xyz
x,y,z
-x,y,-z
-x,-y,-z
x,-y,z
1/2+x,1/2+y,z
1/2-x,1/2+y,-z
1/2-x,1/2-y,-z
1/2+x,1/2-y,z
loop_
_atom_site_type_symbol
_atom_site_label
_atom_site_fract_x
_atom_site_fract_y
_atom_site_fract_z
Si Si1 0.159287 0.888338 0.171544
Si Si2 0.614232 0.500000 0.662163
Si Si3 0.922813 0.226003 0.265395
Si Si4 0.500000 0.157557 0.000000
Si Si5 0.292538 0.883892 0.717849
O O1 0.058462 0.818759 0.247302
O O2 0.320152 0.884821 0.158611
O O3 0.255319 0.901435 0.926028
O O4 0.010981 0.943120 0.312850
O O5 0.280707 0.442606 0.325729
O O6 0.750000 0.250000 0.500000
O O7 0.830963 0.179207 0.214470
O O8 0.015752 0.291636 0.126342
O O9 0.500000 0.871805 0.500000
#
# Coordination Sequence:
#
# PCOD9216104 Si02
#       5
#     8   4   8   4   8
#     4  11  23  42  63  92 130 170 214 269 320 375
#     4  10  22  43  65  90 127 168 223 268 314 381
#     4  11  23  39  64  93 132 167 209 266 327 385
#     4  12  24  39  62  93 138 166 212 266 318 394
#     4  11  21  38  67  96 122 167 216 270 317 382
#
# _framework density 24.146605000000001
#
# number of rings (size 3 to 8) (size 9 to 14) (size 15 to 20)
#    0.000    1.000    2.500    6.375    3.500    0.500 
#    0.000    0.000    0.000   19.500    0.000    0.000 
#    0.000    0.000    0.000    0.000    0.000    0.000 
#
# Total GULP energy -89079.851402 kJ/mol
# GULP energy per Si atom -5567.490713 kJ/mol
# Density = 2.409165 g / cm^3
# Si number density = 24.146605 Si / 1000 Ang^3
#
#
#
# Elastic Constant Matrix: (Units=GPa)
#
#
# Indices 1 2 3 4 5 6 
#
# 1 98.4824 51.3868 17.1141 0.0000 -42.6326 0.0000
# 2 51.3868 69.6210 18.1652 0.0000 -29.8686 0.0000
# 3 17.1141 18.1652 102.4515 0.0000 -18.5041 0.0000
# 4 0.0000 0.0000 0.0000 -23.1157 0.0000 11.8605
# 5 -42.6326 -29.8686 -18.5041 0.0000 40.3864 0.0000
# 6 0.0000 0.0000 0.0000 11.8605 0.0000 -12.6666
#
#
#
# Elastic Compliance Matrix: (Units=1/GPa)
#
#
# Indices 1 2 3 4 5 6 
#
# 1 0.022229 -0.009383 0.001020 0.000000 0.016993 0.000000
# 2 -0.009383 0.025094 -0.001438 0.000000 0.007996 0.000000
# 3 0.001020 -0.001438 0.010736 0.000000 0.004932 0.000000
# 4 0.000000 0.000000 0.000000 -0.083264 0.000000 -0.077965
# 5 0.016993 0.007996 0.004932 0.000000 0.050872 0.000000
# 6 0.000000 0.000000 0.000000 -0.077965 0.000000 -0.151951
#
#
# Mechanical properties :
#
#
# Convention : Reuss Voigt Hill
#
# Bulk Modulus (GPa) = 26.00286 49.32080 37.66183
# Shear Modulus (GPa) = -53.27007 13.18007 -20.04500
#
# Velocity S-wave (km/s) = -4.70202 2.33885 -2.88434
# Velocity P-wave (km/s) = 4.32279 5.26911 2.13037
#
# Compressibility (1/GPa) = 0.03845731
#
# Stress axis : x y z
#
# Youngs Moduli (GPa) = 44.98624 39.84983 93.14364
#
# Poissons Ratio (x) = 0.37390 -0.09496
# Poissons Ratio (y) = 0.42209 0.13393
# Poissons Ratio (z) = -0.04587 0.05730
#
# Static dielectric constant tensor:
#      x y z
#    x 1.958560 0.000000 0.071500 
#    y 0.000000 1.855740 0.000000 
#    z 0.071500 0.000000 1.965830 
# 
# From -- ./inp_files/132290.got.cif
#   From: 2010.05.17/outbox.cif.g08.bks.cpg/sg12_67_cif.got.tgz:132290.got - 2010.06.03 13:09:07.
