data_PCOD9216638
_publ_section_title
;
Structure prediction by ZEFSAII (Michael W. Deem and Ramdas Pophale) SiO2 
 PCOD9216638
Probable space group: C 2/M
;
_chemical_formula_sum "Si O2"
_cell_formula_units_Z 52
_cell_length_a 13.730416
_cell_length_b 11.125805
_cell_length_c 20.785499
_cell_angle_alpha 90.000000
_cell_angle_beta 54.126178
_cell_angle_gamma 90.000000
_cell_volume 2572.921324
_symmetry_space_group_name_H-M "C 2/M"
_symmetry_group_IT_number 12
_symmetry_cell_setting 'monoclinic'
loop_
_space_group_symop_operation_xyz
x,y,z
-x,y,-z
-x,-y,-z
x,-y,z
1/2+x,1/2+y,z
1/2-x,1/2+y,-z
1/2-x,1/2-y,-z
1/2+x,1/2-y,z
loop_
_atom_site_type_symbol
_atom_site_label
_atom_site_fract_x
_atom_site_fract_y
_atom_site_fract_z
Si Si1 0.373783 0.638871 0.243757
Si Si2 0.879513 0.762436 0.856803
Si Si3 0.096317 0.500000 0.107186
Si Si4 0.816949 0.500000 0.208394
Si Si5 0.445485 0.697337 0.456470
Si Si6 0.234782 0.133594 0.582721
Si Si7 0.338392 0.263908 0.722691
Si Si8 0.278602 0.000000 0.070787
O O1 0.410959 0.500000 0.236392
O O2 0.485615 0.710016 0.171555
O O3 0.334493 0.687976 0.329241
O O4 0.254693 0.654998 0.248070
O O5 0.848163 0.625995 0.888599
O O6 0.884717 0.770649 0.777322
O O7 0.796597 0.875342 0.909694
O O8 0.954198 0.500000 0.178690
O O9 0.117460 0.500000 0.022372
O O10 0.741192 0.383469 0.258871
O O11 0.818004 0.500000 0.129963
O O12 0.500000 0.638623 0.500000
O O13 0.355831 0.799412 0.517287
O O14 0.356943 0.629394 0.441603
O O15 0.555140 0.741996 0.369910
O O16 0.267443 0.000000 0.590378
#
# Coordination Sequence:
#
# PCOD9216638 Si02
#       8
#     8   8   4   4   8   8   8   4
#     4  11  21  39  64  85 123 167 211 256 302 379
#     4  11  23  41  65  95 128 165 207 253 312 380
#     4  12  23  42  67 101 129 151 206 272 310 367
#     4  10  23  40  67  90 122 162 211 248 311 384
#     4  11  22  38  56  84 122 156 206 261 310 355
#     4  10  23  39  57  84 115 164 213 257 309 366
#     4  11  23  40  60  91 124 164 210 255 311 370
#     4  10  23  44  69  91 126 174 200 243 322 392
#
# _framework density 20.210491000000001
#
# number of rings (size 3 to 8) (size 9 to 14) (size 15 to 20)
#    0.000    1.231    5.385    0.692    2.154    1.231 
#    0.000    0.000    0.000    0.923    0.000    0.000 
#    0.000    0.000    0.000    0.000    0.000    0.000 
#
# Total GULP energy -144995.489980 kJ/mol
# GULP energy per Si atom -5576.749615 kJ/mol
# Density = 2.016449 g / cm^3
# Si number density = 20.210491 Si / 1000 Ang^3
#
#
#
# Elastic Constant Matrix: (Units=GPa)
#
#
# Indices 1 2 3 4 5 6 
#
# 1 64.8784 6.3569 5.1745 0.0000 -10.3524 0.0000
# 2 6.3569 97.8940 10.0108 0.0000 -7.6548 0.0000
# 3 5.1745 10.0108 53.6557 0.0000 -10.2956 0.0000
# 4 0.0000 0.0000 0.0000 9.3580 0.0000 12.9423
# 5 -10.3524 -7.6548 -10.2956 0.0000 23.4134 0.0000
# 6 0.0000 0.0000 0.0000 12.9423 0.0000 7.1459
#
#
#
# Elastic Compliance Matrix: (Units=1/GPa)
#
#
# Indices 1 2 3 4 5 6 
#
# 1 0.016610 -0.000508 -0.000142 0.000000 0.007116 0.000000
# 2 -0.000508 0.010598 -0.001427 0.000000 0.002613 0.000000
# 3 -0.000142 -0.001427 0.020550 0.000000 0.008507 0.000000
# 4 0.000000 0.000000 0.000000 -0.071010 0.000000 0.128611
# 5 0.007116 0.002613 0.008507 0.000000 0.050452 0.000000
# 6 0.000000 0.000000 0.000000 0.128611 0.000000 -0.092993
#
#
# Mechanical properties :
#
#
# Convention : Reuss Voigt Hill
#
# Bulk Modulus (GPa) = 22.93305 28.83473 25.88389
# Shear Modulus (GPa) = -106.14484 20.97584 -42.58450
#
# Velocity S-wave (km/s) = -7.25491 3.22509 -4.59524
# Velocity P-wave (km/s) = 7.66854 5.30721 3.91408
#
# Compressibility (1/GPa) = 0.04360518
#
# Stress axis : x y z
#
# Youngs Moduli (GPa) = 60.20482 94.35424 48.66259
#
# Poissons Ratio (x) = 0.04790 0.00690
# Poissons Ratio (y) = 0.03056 0.06944
# Poissons Ratio (z) = 0.00853 0.13465
#
# Static dielectric constant tensor:
#      x y z
#    x 1.728170 0.000000 0.010280 
#    y 0.000000 1.740710 0.000000 
#    z 0.010280 0.000000 1.679600 
# 
# From -- ./inp_files/309800.got.cif
#   From: 2010.05.17/outbox.cif.g08.bks.cpg/sg12_155_cif.got.tgz:309800.got - 2010.06.03 13:09:07.
