data_PCOD9216491
_publ_section_title
;
Structure prediction by ZEFSAII (Michael W. Deem and Ramdas Pophale) SiO2 
 PCOD9216491
Probable space group: C 2/M
;
_chemical_formula_sum "Si O2"
_cell_formula_units_Z 34
_cell_length_a 11.340120
_cell_length_b 22.794609
_cell_length_c 5.753570
_cell_angle_alpha 90.000000
_cell_angle_beta 86.520610
_cell_angle_gamma 90.000000
_cell_volume 1484.519553
_symmetry_space_group_name_H-M "C 2/M"
_symmetry_group_IT_number 12
_symmetry_cell_setting 'monoclinic'
loop_
_space_group_symop_operation_xyz
x,y,z
-x,y,-z
-x,-y,-z
x,-y,z
1/2+x,1/2+y,z
1/2-x,1/2+y,-z
1/2-x,1/2-y,-z
1/2+x,1/2-y,z
loop_
_atom_site_type_symbol
_atom_site_label
_atom_site_fract_x
_atom_site_fract_y
_atom_site_fract_z
Si Si1 0.863882 0.118779 0.450608
Si Si2 0.000000 0.693059 0.500000
Si Si3 0.929946 0.000000 0.255026
Si Si4 0.000000 0.500000 0.000000
Si Si5 0.707364 0.202574 0.186626
Si Si6 0.153294 0.390036 0.815902
O O1 0.859123 0.061236 0.283185
O O2 0.809019 0.176309 0.337423
O O3 0.781718 0.103429 0.681595
O O4 0.000000 0.127692 0.500000
O O5 0.905070 0.727429 0.662742
O O6 0.920569 0.651084 0.349573
O O7 0.000000 0.000000 0.500000
O O8 0.000000 0.000000 0.000000
O O9 0.083903 0.449070 0.870981
O O10 0.750000 0.250000 0.000000
O O11 0.663515 0.145900 0.051657
#
# Coordination Sequence:
#
# PCOD9216491 Si02
#       6
#     8   4   4   2   8   8
#     4  10  25  46  71 111 152 199 251 313 401 469
#     4  10  22  49  68 106 146 185 260 308 392 460
#     4  10  23  43  70 104 157 196 245 317 388 485
#     4  12  22  44  82 106 146 192 248 306 384 456
#     4  11  25  48  74 103 148 198 255 320 384 464
#     4  11  24  46  71 110 144 191 247 312 380 465
#
# _framework density 22.903034999999999
#
# number of rings (size 3 to 8) (size 9 to 14) (size 15 to 20)
#    0.000    1.412    2.353    0.706    6.588    5.176 
#   12.706    0.000    0.000    0.000    0.000    0.000 
#    0.000    0.000    0.000    0.000    0.000    0.000 
#
# Total GULP energy -94848.381310 kJ/mol
# GULP energy per Si atom -5579.316548 kJ/mol
# Density = 2.285091 g / cm^3
# Si number density = 22.903035 Si / 1000 Ang^3
#
#
#
# Elastic Constant Matrix: (Units=GPa)
#
#
# Indices 1 2 3 4 5 6 
#
# 1 154.2489 31.9171 70.1431 0.0000 -43.1943 0.0000
# 2 31.9171 89.6927 38.4531 0.0000 -26.6106 0.0000
# 3 70.1431 38.4531 121.2324 0.0000 -44.2077 0.0000
# 4 0.0000 0.0000 0.0000 25.3968 0.0000 -13.4375
# 5 -43.1943 -26.6106 -44.2077 0.0000 59.4722 0.0000
# 6 0.0000 0.0000 0.0000 -13.4375 0.0000 15.9920
#
#
#
# Elastic Compliance Matrix: (Units=1/GPa)
#
#
# Indices 1 2 3 4 5 6 
#
# 1 0.009414 -0.000580 -0.003929 0.000000 0.003657 0.000000
# 2 -0.000580 0.013579 -0.002619 0.000000 0.003707 0.000000
# 3 -0.003929 -0.002619 0.013560 0.000000 0.006054 0.000000
# 4 0.000000 0.000000 0.000000 0.070893 0.000000 0.059568
# 5 0.003657 0.003707 0.006054 0.000000 0.025630 0.000000
# 6 0.000000 0.000000 0.000000 0.059568 0.000000 0.112584
#
#
# Mechanical properties :
#
#
# Convention : Reuss Voigt Hill
#
# Bulk Modulus (GPa) = 44.85280 71.80005 58.32642
# Shear Modulus (GPa) = 18.70215 35.14960 26.92587
#
# Velocity S-wave (km/s) = 2.86069 3.92179 3.43249
# Velocity P-wave (km/s) = 5.52609 7.20589 6.42116
#
# Compressibility (1/GPa) = 0.02229515
#
# Stress axis : x y z
#
# Youngs Moduli (GPa) = 106.22589 73.64575 73.74393
#
# Poissons Ratio (x) = 0.04275 0.28975
# Poissons Ratio (y) = 0.06166 0.19315
# Poissons Ratio (z) = 0.41737 0.19290
#
# Static dielectric constant tensor:
#      x y z
#    x 1.884070 0.000000 0.008660 
#    y 0.000000 1.843300 0.000000 
#    z 0.008660 0.000000 1.868450 
# 
# From -- ./inp_files/6963.got.cif
#   From: 2010.05.17/outbox.cif.g08.bks.cpg/sg12_4_cif.got.tgz:6963.got - 2010.06.03 13:09:07.
