data_PCOD9216208
_publ_section_title
;
Structure prediction by ZEFSAII (Michael W. Deem and Ramdas Pophale) SiO2 
 PCOD9216208
Probable space group: C 2/M
;
_chemical_formula_sum "Si O2"
_cell_formula_units_Z 52
_cell_length_a 8.537296
_cell_length_b 28.629239
_cell_length_c 13.300382
_cell_angle_alpha 90.000000
_cell_angle_beta 135.544552
_cell_angle_gamma 90.000000
_cell_volume 2276.733231
_symmetry_space_group_name_H-M "C 2/M"
_symmetry_group_IT_number 12
_symmetry_cell_setting 'monoclinic'
loop_
_space_group_symop_operation_xyz
x,y,z
-x,y,-z
-x,-y,-z
x,-y,z
1/2+x,1/2+y,z
1/2-x,1/2+y,-z
1/2-x,1/2-y,-z
1/2+x,1/2-y,z
loop_
_atom_site_type_symbol
_atom_site_label
_atom_site_fract_x
_atom_site_fract_y
_atom_site_fract_z
Si Si1 0.924232 0.404107 0.855393
Si Si2 0.495158 0.799481 0.178153
Si Si3 0.740853 0.000000 0.491643
Si Si4 0.069239 0.902703 0.430857
Si Si5 0.793240 0.000000 0.743015
Si Si6 0.723598 0.593626 0.153533
Si Si7 0.545421 0.166086 0.413883
Si Si8 0.500000 0.269964 0.000000
O O1 0.661278 0.414241 0.728222
O O2 0.947089 0.348472 0.847842
O O3 0.091962 0.422199 0.845273
O O4 0.000000 0.418302 0.000000
O O5 0.588943 0.801739 0.335697
O O6 0.227155 0.795166 0.070137
O O7 0.564684 0.760422 0.129157
O O8 0.813896 0.950736 0.481174
O O9 0.848588 0.000000 0.651691
O O10 0.476136 0.000000 0.376838
O O11 0.252003 0.869486 0.466182
O O12 0.000000 0.876081 0.500000
O O13 0.860156 0.048031 0.825424
O O14 0.849662 0.631011 0.282535
O O15 0.500000 0.613334 0.000000
O O16 0.500000 0.190300 0.500000
#
# Coordination Sequence:
#
# PCOD9216208 Si02
#       8
#     8   8   4   8   4   8   8   4
#     4  11  25  41  66  98 130 173 219 283 334 395
#     4  10  22  43  69 104 130 175 220 263 331 404
#     4  11  23  36  68  91 125 188 227 281 344 398
#     4  12  22  43  64  94 136 173 234 282 333 394
#     4  11  21  42  58  90 131 174 237 282 335 401
#     4  11  24  40  63  93 131 176 234 284 335 388
#     4  11  24  42  69 100 135 184 226 277 336 405
#     4  10  22  44  76  98 142 174 216 266 330 420
#
# _framework density 22.839741
#
# number of rings (size 3 to 8) (size 9 to 14) (size 15 to 20)
#    0.000    1.077    5.385    1.385    8.615    0.615 
#    0.000    1.538    0.000    0.000    0.000    0.000 
#    0.000    0.000    0.000    0.000    0.000    0.000 
#
# Total GULP energy -145096.125637 kJ/mol
# GULP energy per Si atom -5580.620217 kJ/mol
# Density = 2.278776 g / cm^3
# Si number density = 22.839741 Si / 1000 Ang^3
#
#
#
# Elastic Constant Matrix: (Units=GPa)
#
#
# Indices 1 2 3 4 5 6 
#
# 1 74.9527 12.0257 47.7799 0.0000 -13.5116 0.0000
# 2 12.0257 38.1575 -0.7781 0.0000 1.9547 0.0000
# 3 47.7799 -0.7781 130.4265 0.0000 -6.7917 0.0000
# 4 0.0000 0.0000 0.0000 111.4624 0.0000 -32.7663
# 5 -13.5116 1.9547 -6.7917 0.0000 55.8984 0.0000
# 6 0.0000 0.0000 0.0000 -32.7663 0.0000 28.7661
#
#
#
# Elastic Compliance Matrix: (Units=1/GPa)
#
#
# Indices 1 2 3 4 5 6 
#
# 1 0.019595 -0.006529 -0.007003 0.000000 0.004114 0.000000
# 2 -0.006529 0.028431 0.002443 0.000000 -0.002276 0.000000
# 3 -0.007003 0.002443 0.010219 0.000000 -0.000537 0.000000
# 4 0.000000 0.000000 0.000000 0.013488 0.000000 0.015364
# 5 0.004114 -0.002276 -0.000537 0.000000 0.018898 0.000000
# 6 0.000000 0.000000 0.000000 0.015364 0.000000 0.052263
#
#
# Mechanical properties :
#
#
# Convention : Reuss Voigt Hill
#
# Bulk Modulus (GPa) = 27.72609 40.17685 33.95147
# Shear Modulus (GPa) = 28.23322 51.52602 39.87962
#
# Velocity S-wave (km/s) = 3.51970 4.75487 4.18312
# Velocity P-wave (km/s) = 5.35570 6.91187 6.18294
#
# Compressibility (1/GPa) = 0.03606711
#
# Stress axis : x y z
#
# Youngs Moduli (GPa) = 51.03290 35.17255 97.85420
#
# Poissons Ratio (x) = 0.22965 0.68529
# Poissons Ratio (y) = 0.33320 -0.23906
# Poissons Ratio (z) = 0.35739 -0.08593
#
# Static dielectric constant tensor:
#      x y z
#    x 1.897770 0.000000 -0.018420 
#    y 0.000000 1.871460 0.000000 
#    z -0.018420 0.000000 1.886250 
# 
# From -- ./inp_files/201404.got.cif
#   From: 2010.05.17/outbox.cif.g08.bks.cpg/sg12_101_cif.got.tgz:201404.got - 2010.06.03 13:09:07.
