data_PCOD9216799
_publ_section_title
;
Structure prediction by ZEFSAII (Michael W. Deem and Ramdas Pophale) SiO2 
 PCOD9216799
Probable space group: C 2/M
;
_chemical_formula_sum "Si O2"
_cell_formula_units_Z 28
_cell_length_a 10.892135
_cell_length_b 27.470555
_cell_length_c 9.076241
_cell_angle_alpha 90.000000
_cell_angle_beta 26.810316
_cell_angle_gamma 90.000000
_cell_volume 1224.897742
_symmetry_space_group_name_H-M "C 2/M"
_symmetry_group_IT_number 12
_symmetry_cell_setting 'monoclinic'
loop_
_space_group_symop_operation_xyz
x,y,z
-x,y,-z
-x,-y,-z
x,-y,z
1/2+x,1/2+y,z
1/2-x,1/2+y,-z
1/2-x,1/2-y,-z
1/2+x,1/2-y,z
loop_
_atom_site_type_symbol
_atom_site_label
_atom_site_fract_x
_atom_site_fract_y
_atom_site_fract_z
Si Si1 0.253721 0.946949 0.376880
Si Si2 0.218482 0.500000 0.384708
Si Si3 0.565408 0.337836 0.595479
Si Si4 0.932255 0.296319 0.746924
O O1 0.337589 0.952995 0.455032
O O2 0.133363 0.894012 0.494496
O O3 0.098635 0.000000 0.531446
O O4 0.500000 0.949004 0.000000
O O5 0.000000 0.500000 0.500000
O O6 0.500000 0.500000 0.000000
O O7 0.500000 0.317501 0.500000
O O8 0.807622 0.309216 0.425133
O O9 0.292313 0.337569 0.984194
O O10 0.000000 0.292784 0.500000
O O11 0.750000 0.250000 0.000000
#
# Coordination Sequence:
#
# PCOD9216799 Si02
#       4
#     8   4   8   8
#     4   9  22  46  70 104 146 199 247 297 359 434
#     4  10  23  40  63  96 138 186 237 298 356 412
#     4  12  26  47  77 112 148 196 250 308 367 444
#     4  12  28  51  77 108 150 193 246 306 383 448
#
# _framework density 22.859051000000001
#
# number of rings (size 3 to 8) (size 9 to 14) (size 15 to 20)
#    0.857    0.286    0.000    5.143    0.000   10.857 
#    0.000    0.000    0.000    0.000    0.000    0.000 
#    0.000    0.000    0.000    0.000    0.000    0.000 
#
# Total GULP energy -77938.135873 kJ/mol
# GULP energy per Si atom -5567.009705 kJ/mol
# Density = 2.280702 g / cm^3
# Si number density = 22.859051 Si / 1000 Ang^3
#
#
#
# Elastic Constant Matrix: (Units=GPa)
#
#
# Indices 1 2 3 4 5 6 
#
# 1 252.5308 57.9533 102.0440 0.0000 4.8344 0.0000
# 2 57.9533 141.6609 54.5745 0.0000 6.7539 0.0000
# 3 102.0440 54.5745 180.4514 0.0000 25.5482 0.0000
# 4 0.0000 0.0000 0.0000 72.5675 0.0000 20.8073
# 5 4.8344 6.7539 25.5482 0.0000 55.5240 0.0000
# 6 0.0000 0.0000 0.0000 20.8073 0.0000 19.2522
#
#
#
# Elastic Compliance Matrix: (Units=1/GPa)
#
#
# Indices 1 2 3 4 5 6 
#
# 1 0.005340 -0.001148 -0.002810 0.000000 0.000967 0.000000
# 2 -0.001148 0.008238 -0.001834 0.000000 -0.000058 0.000000
# 3 -0.002810 -0.001834 0.008150 0.000000 -0.003282 0.000000
# 4 0.000000 0.000000 0.000000 0.019968 0.000000 -0.021581
# 5 0.000967 -0.000058 -0.003282 0.000000 0.019443 0.000000
# 6 0.000000 0.000000 0.000000 -0.021581 0.000000 0.075267
#
#
# Mechanical properties :
#
#
# Convention : Reuss Voigt Hill
#
# Bulk Modulus (GPa) = 98.57454 111.53185 105.05319
# Shear Modulus (GPa) = 33.03134 53.47349 43.25241
#
# Velocity S-wave (km/s) = 3.80544 4.84185 4.35459
# Velocity P-wave (km/s) = 7.90727 8.95293 8.44630
#
# Compressibility (1/GPa) = 0.01014461
#
# Stress axis : x y z
#
# Youngs Moduli (GPa) = 187.25786 121.38589 122.70369
#
# Poissons Ratio (x) = 0.13941 0.34474
# Poissons Ratio (y) = 0.21506 0.22501
# Poissons Ratio (z) = 0.52610 0.22260
#
# Static dielectric constant tensor:
#      x y z
#    x 1.935890 0.000000 -0.035900 
#    y 0.000000 2.370140 0.000000 
#    z -0.035900 0.000000 1.840040 
# 
# From -- ./inp_files/149983.got.cif
#   From: 2010.05.17/outbox.cif.g08.bks.cpg/sg12_75_cif.got.tgz:149983.got - 2010.06.03 13:09:07.
