data_PCOD9216399
_publ_section_title
;
Structure prediction by ZEFSAII (Michael W. Deem and Ramdas Pophale) SiO2 
 PCOD9216399
Probable space group: C 2/M
;
_chemical_formula_sum "Si O2"
_cell_formula_units_Z 44
_cell_length_a 9.389167
_cell_length_b 11.909477
_cell_length_c 17.567695
_cell_angle_alpha 90.000000
_cell_angle_beta 82.943775
_cell_angle_gamma 90.000000
_cell_volume 1949.542495
_symmetry_space_group_name_H-M "C 2/M"
_symmetry_group_IT_number 12
_symmetry_cell_setting 'monoclinic'
loop_
_space_group_symop_operation_xyz
x,y,z
-x,y,-z
-x,-y,-z
x,-y,z
1/2+x,1/2+y,z
1/2-x,1/2+y,-z
1/2-x,1/2-y,-z
1/2+x,1/2-y,z
loop_
_atom_site_type_symbol
_atom_site_label
_atom_site_fract_x
_atom_site_fract_y
_atom_site_fract_z
Si Si1 0.002767 0.000000 0.090886
Si Si2 0.708776 0.000000 0.203691
Si Si3 0.174013 0.627771 0.704198
Si Si4 0.116924 0.720048 0.237057
Si Si5 0.269171 0.307731 0.916445
Si Si6 0.339226 0.132390 0.476636
Si Si7 0.542465 0.000000 0.908406
O O1 0.859003 0.000000 0.149106
O O2 0.094479 0.889182 0.099406
O O3 0.000000 0.000000 0.000000
O O4 0.681770 0.895983 0.262272
O O5 0.584188 0.000000 0.145139
O O6 0.156944 0.500000 0.732169
O O7 0.326335 0.674420 0.720965
O O8 0.156085 0.630914 0.615343
O O9 0.052189 0.706100 0.748950
O O10 0.192097 0.718975 0.149609
O O11 0.137704 0.386552 0.899964
O O12 0.250000 0.250000 0.000000
O O13 0.500000 0.144831 0.500000
O O14 0.250000 0.250000 0.500000
O O15 0.291503 0.000000 0.500685
O O16 0.500000 0.000000 0.000000
#
# Coordination Sequence:
#
# PCOD9216399 Si02
#       7
#     4   4   8   8   8   8   4
#     4  11  23  39  57  85 123 155 225 289 346 410
#     4  12  24  40  62  96 124 177 222 284 348 415
#     4  11  25  46  70 104 142 186 227 282 348 419
#     4  12  24  43  68  94 140 178 234 285 350 415
#     4  11  25  42  63  91 122 179 232 291 349 413
#     4  10  22  44  75 109 148 187 235 285 346 424
#     4  11  23  41  65  87 125 166 228 295 369 415
#
# _framework density 22.569396999999999
#
# number of rings (size 3 to 8) (size 9 to 14) (size 15 to 20)
#    0.000    0.909    0.909    6.545    2.545    4.000 
#    3.273    0.909    0.000    0.000    0.000    0.000 
#    0.000    0.000    0.000    0.000    0.000    0.000 
#
# Total GULP energy -122797.160469 kJ/mol
# GULP energy per Si atom -5581.689112 kJ/mol
# Density = 2.251803 g / cm^3
# Si number density = 22.569397 Si / 1000 Ang^3
#
#
#
# Elastic Constant Matrix: (Units=GPa)
#
#
# Indices 1 2 3 4 5 6 
#
# 1 119.0778 66.4732 17.5297 0.0000 2.8459 0.0000
# 2 66.4732 148.1844 28.3695 0.0000 -1.2551 0.0000
# 3 17.5297 28.3695 62.6125 0.0000 13.0052 0.0000
# 4 0.0000 0.0000 0.0000 30.1391 0.0000 9.2687
# 5 2.8459 -1.2551 13.0052 0.0000 28.4633 0.0000
# 6 0.0000 0.0000 0.0000 9.2687 0.0000 15.7423
#
#
#
# Elastic Compliance Matrix: (Units=1/GPa)
#
#
# Indices 1 2 3 4 5 6 
#
# 1 0.011281 -0.004933 -0.000711 0.000000 -0.001020 0.000000
# 2 -0.004933 0.009656 -0.003519 0.000000 0.002527 0.000000
# 3 -0.000711 -0.003519 0.019647 0.000000 -0.009061 0.000000
# 4 0.000000 0.000000 0.000000 0.040515 0.000000 -0.023855
# 5 -0.001020 0.002527 -0.009061 0.000000 0.039486 0.000000
# 6 0.000000 0.000000 0.000000 -0.023855 0.000000 0.077568
#
#
# Mechanical properties :
#
#
# Convention : Reuss Voigt Hill
#
# Bulk Modulus (GPa) = 44.92850 61.62437 53.27644
# Shear Modulus (GPa) = 22.33148 29.36908 25.85028
#
# Velocity S-wave (km/s) = 3.14898 3.61124 3.38800
# Velocity P-wave (km/s) = 5.75947 6.68967 6.24192
#
# Compressibility (1/GPa) = 0.02225759
#
# Stress axis : x y z
#
# Youngs Moduli (GPa) = 88.64775 103.56020 50.89864
#
# Poissons Ratio (x) = 0.51084 0.03620
# Poissons Ratio (y) = 0.43728 0.17911
# Poissons Ratio (z) = 0.06305 0.36443
#
# Static dielectric constant tensor:
#      x y z
#    x 1.811520 0.000000 -0.067930 
#    y 0.000000 2.305500 0.000000 
#    z -0.067930 0.000000 1.720790 
# 
# From -- ./inp_files/299323.got.cif
#   From: 2010.05.17/outbox.cif.g08.bks.cpg/sg12_150_cif.got.tgz:299323.got - 2010.06.03 13:09:07.
