data_PCOD9216061
_publ_section_title
;
Structure prediction by ZEFSAII (Michael W. Deem and Ramdas Pophale) SiO2 
 PCOD9216061
Probable space group: C 2/M
;
_chemical_formula_sum "Si O2"
_cell_formula_units_Z 26
_cell_length_a 9.306602
_cell_length_b 19.555603
_cell_length_c 9.471062
_cell_angle_alpha 90.000000
_cell_angle_beta 135.655037
_cell_angle_gamma 90.000000
_cell_volume 1204.824359
_symmetry_space_group_name_H-M "C 2/M"
_symmetry_group_IT_number 12
_symmetry_cell_setting 'monoclinic'
loop_
_space_group_symop_operation_xyz
x,y,z
-x,y,-z
-x,-y,-z
x,-y,z
1/2+x,1/2+y,z
1/2-x,1/2+y,-z
1/2-x,1/2-y,-z
1/2+x,1/2-y,z
loop_
_atom_site_type_symbol
_atom_site_label
_atom_site_fract_x
_atom_site_fract_y
_atom_site_fract_z
Si Si1 0.182763 0.321285 0.518830
Si Si2 0.983115 0.421590 0.153598
Si Si3 0.990122 0.072535 0.199971
Si Si4 0.500000 0.500000 0.500000
O O1 0.250000 0.250000 0.500000
O O2 0.368805 0.362403 0.723290
O O3 0.000000 0.310428 0.500000
O O4 0.101063 0.371351 0.338434
O O5 0.068359 0.500000 0.229233
O O6 0.741181 0.421002 0.018355
O O7 0.000000 0.404415 0.000000
O O8 0.970412 0.058429 0.354262
O O9 0.083475 0.000000 0.212454
#
# Coordination Sequence:
#
# PCOD9216061 Si02
#       4
#     8   8   8   2
#     4  12  29  45  65  98 144 191 228 280 345 410
#     4  10  22  42  76 107 129 176 233 284 345 410
#     4   9  20  39  69  99 135 167 227 287 332 403
#     4   8  16  36  76 102 130 172 210 292 340 400
#
# _framework density 21.579909000000001
#
# number of rings (size 3 to 8) (size 9 to 14) (size 15 to 20)
#    0.923    0.923    0.000    2.769   10.769    4.923 
#    0.000    3.077    0.000    0.000    0.000    0.000 
#    0.000    0.000    0.000    0.000    0.000    0.000 
#
# Total GULP energy -72449.637544 kJ/mol
# GULP energy per Si atom -5573.049042 kJ/mol
# Density = 2.153079 g / cm^3
# Si number density = 21.579909 Si / 1000 Ang^3
#
#
#
# Elastic Constant Matrix: (Units=GPa)
#
#
# Indices 1 2 3 4 5 6 
#
# 1 100.0953 69.9366 24.8045 0.0000 -3.7104 0.0000
# 2 69.9366 147.4879 44.0149 0.0000 10.8402 0.0000
# 3 24.8045 44.0149 76.9242 0.0000 -9.2485 0.0000
# 4 0.0000 0.0000 0.0000 6.0048 0.0000 1.7284
# 5 -3.7104 10.8402 -9.2485 0.0000 36.3727 0.0000
# 6 0.0000 0.0000 0.0000 1.7284 0.0000 30.5666
#
#
#
# Elastic Compliance Matrix: (Units=1/GPa)
#
#
# Indices 1 2 3 4 5 6 
#
# 1 0.015451 -0.007540 -0.000215 0.000000 0.003769 0.000000
# 2 -0.007540 0.012380 -0.005352 0.000000 -0.005820 0.000000
# 3 -0.000215 -0.005352 0.016836 0.000000 0.005854 0.000000
# 4 0.000000 0.000000 0.000000 0.169290 0.000000 -0.009572
# 5 0.003769 -0.005820 0.005854 0.000000 0.031101 0.000000
# 6 0.000000 0.000000 0.000000 -0.009572 0.000000 0.033257
#
#
# Mechanical properties :
#
#
# Convention : Reuss Voigt Hill
#
# Bulk Modulus (GPa) = 54.19192 66.89105 60.54149
# Shear Modulus (GPa) = 16.09371 26.97223 21.53297
#
# Velocity S-wave (km/s) = 2.73385 3.53920 3.16226
# Velocity P-wave (km/s) = 5.92722 6.91125 6.43806
#
# Compressibility (1/GPa) = 0.01845294
#
# Stress axis : x y z
#
# Youngs Moduli (GPa) = 64.71890 80.77238 59.39778
#
# Poissons Ratio (x) = 0.60899 0.01279
# Poissons Ratio (y) = 0.48795 0.31792
# Poissons Ratio (z) = 0.01393 0.43233
#
# Static dielectric constant tensor:
#      x y z
#    x 1.968790 0.000000 0.082010 
#    y 0.000000 1.730670 0.000000 
#    z 0.082010 0.000000 1.804240 
# 
# From -- ./inp_files/37828.got.cif
#   From: 2010.05.17/outbox.cif.g08.bks.cpg/sg12_19_cif.got.tgz:37828.got - 2010.06.03 13:09:07.
