data_PCOD9216625
_publ_section_title
;
Structure prediction by ZEFSAII (Michael W. Deem and Ramdas Pophale) SiO2 
 PCOD9216625
Probable space group: C 2/M
;
_chemical_formula_sum "Si O2"
_cell_formula_units_Z 52
_cell_length_a 9.743690
_cell_length_b 24.779133
_cell_length_c 9.586775
_cell_angle_alpha 90.000000
_cell_angle_beta 78.667233
_cell_angle_gamma 90.000000
_cell_volume 2269.503086
_symmetry_space_group_name_H-M "C 2/M"
_symmetry_group_IT_number 12
_symmetry_cell_setting 'monoclinic'
loop_
_space_group_symop_operation_xyz
x,y,z
-x,y,-z
-x,-y,-z
x,-y,z
1/2+x,1/2+y,z
1/2-x,1/2+y,-z
1/2-x,1/2-y,-z
1/2+x,1/2-y,z
loop_
_atom_site_type_symbol
_atom_site_label
_atom_site_fract_x
_atom_site_fract_y
_atom_site_fract_z
Si Si1 0.849262 0.585630 0.594811
Si Si2 0.854555 0.076825 0.601689
Si Si3 0.287257 0.300034 0.305505
Si Si4 0.843787 0.844902 0.998198
Si Si5 0.104349 0.801406 0.314881
Si Si6 0.809978 0.443501 0.092655
Si Si7 0.576125 0.000000 0.182153
O O1 0.761634 0.560684 0.485298
O O2 0.777702 0.642670 0.641515
O O3 0.858220 0.547405 0.725639
O O4 0.000000 0.595624 0.500000
O O5 0.858469 0.141680 0.621721
O O6 0.810281 0.055890 0.764060
O O7 0.000000 0.061481 0.500000
O O8 0.188631 0.249487 0.352819
O O9 0.438238 0.292859 0.345996
O O10 0.308777 0.307259 0.134886
O O11 0.855186 0.811090 0.854861
O O12 0.731093 0.892022 0.989194
O O13 0.000000 0.868744 0.000000
O O14 0.811371 0.500000 0.993008
O O15 0.954632 0.452441 0.144228
#
# Coordination Sequence:
#
# PCOD9216625 Si02
#       7
#     8   8   8   8   8   8   4
#     4  12  27  46  71  98 140 180 227 276 350 402
#     4  11  24  46  63 102 143 175 215 286 338 402
#     4  11  21  42  67 101 136 182 227 280 333 405
#     4   9  18  37  61  96 139 176 222 284 334 393
#     4  10  23  38  69  97 142 179 227 275 340 397
#     4   9  20  40  69  99 129 175 229 277 337 397
#     4  10  23  48  72 102 131 182 231 278 336 412
#
# _framework density 22.912504999999999
#
# number of rings (size 3 to 8) (size 9 to 14) (size 15 to 20)
#    0.462    1.231    3.077    0.692    3.231    1.846 
#    2.769    1.538    0.000    0.000    0.000    0.000 
#    0.000    0.000    0.000    0.000    0.000    0.000 
#
# Total GULP energy -145010.750751 kJ/mol
# GULP energy per Si atom -5577.336567 kJ/mol
# Density = 2.286035 g / cm^3
# Si number density = 22.912505 Si / 1000 Ang^3
#
#
#
# Elastic Constant Matrix: (Units=GPa)
#
#
# Indices 1 2 3 4 5 6 
#
# 1 139.7986 75.1386 31.1372 0.0000 7.4804 0.0000
# 2 75.1386 186.6224 30.7690 0.0000 4.2697 0.0000
# 3 31.1372 30.7690 141.6500 0.0000 -7.4558 0.0000
# 4 0.0000 0.0000 0.0000 -3.3505 0.0000 10.2423
# 5 7.4804 4.2697 -7.4558 0.0000 47.2878 0.0000
# 6 0.0000 0.0000 0.0000 10.2423 0.0000 54.3461
#
#
#
# Elastic Compliance Matrix: (Units=1/GPa)
#
#
# Indices 1 2 3 4 5 6 
#
# 1 0.009438 -0.003541 -0.001379 0.000000 -0.001391 0.000000
# 2 -0.003541 0.006909 -0.000732 0.000000 -0.000179 0.000000
# 3 -0.001379 -0.000732 0.007600 0.000000 0.001482 0.000000
# 4 0.000000 0.000000 0.000000 -0.189363 0.000000 0.035688
# 5 -0.001391 -0.000179 0.001482 0.000000 0.021617 0.000000
# 6 0.000000 0.000000 0.000000 0.035688 0.000000 0.011675
#
#
# Mechanical properties :
#
#
# Convention : Reuss Voigt Hill
#
# Bulk Modulus (GPa) = 79.09056 82.46230 80.77643
# Shear Modulus (GPa) = -42.87858 41.72509 -0.57675
#
# Velocity S-wave (km/s) = -4.33067 4.27202 -0.50226
# Velocity P-wave (km/s) = 3.09632 7.77186 5.91561
#
# Compressibility (1/GPa) = 0.01264373
#
# Stress axis : x y z
#
# Youngs Moduli (GPa) = 105.95833 144.74420 131.58415
#
# Poissons Ratio (x) = 0.51250 0.18141
# Poissons Ratio (y) = 0.37517 0.09630
# Poissons Ratio (z) = 0.14608 0.10593
#
# Static dielectric constant tensor:
#      x y z
#    x 2.490530 0.000000 -0.712140 
#    y 0.000000 1.843160 0.000000 
#    z -0.712140 0.000000 2.583540 
# 
# From -- ./inp_files/123635.got.cif
#   From: 2010.05.17/outbox.cif.g08.bks.cpg/sg12_62_cif.got.tgz:123635.got - 2010.06.03 13:09:07.
