data_PCOD9216250
_publ_section_title
;
Structure prediction by ZEFSAII (Michael W. Deem and Ramdas Pophale) SiO2 
 PCOD9216250
Probable space group: C 2/M
;
_chemical_formula_sum "Si O2"
_cell_formula_units_Z 56
_cell_length_a 15.953709
_cell_length_b 17.780718
_cell_length_c 10.707281
_cell_angle_alpha 90.000000
_cell_angle_beta 122.020239
_cell_angle_gamma 90.000000
_cell_volume 2575.222427
_symmetry_space_group_name_H-M "C 2/M"
_symmetry_group_IT_number 12
_symmetry_cell_setting 'monoclinic'
loop_
_space_group_symop_operation_xyz
x,y,z
-x,y,-z
-x,-y,-z
x,-y,z
1/2+x,1/2+y,z
1/2-x,1/2+y,-z
1/2-x,1/2-y,-z
1/2+x,1/2-y,z
loop_
_atom_site_type_symbol
_atom_site_label
_atom_site_fract_x
_atom_site_fract_y
_atom_site_fract_z
Si Si1 0.030134 0.817057 0.156501
Si Si2 0.276252 0.411034 0.720671
Si Si3 0.578098 0.085755 0.404392
Si Si4 0.239942 0.796074 0.862608
Si Si5 0.451817 0.229428 0.338459
Si Si6 0.649364 0.415470 0.950987
Si Si7 0.887852 0.413069 0.862531
O O1 0.140876 0.849406 0.253797
O O2 0.994024 0.767629 0.245029
O O3 0.000000 0.779170 0.000000
O O4 0.958746 0.889447 0.095438
O O5 0.304810 0.500000 0.719638
O O6 0.172959 0.400337 0.567792
O O7 0.278425 0.404055 0.873392
O O8 0.489993 0.144175 0.357418
O O9 0.612261 0.093001 0.287465
O O10 0.544204 0.000000 0.395780
O O11 0.164625 0.742479 0.730898
O O12 0.331083 0.839293 0.871855
O O13 0.250000 0.750000 0.000000
O O14 0.176586 0.867086 0.854545
O O15 0.500000 0.263767 0.500000
O O16 0.651836 0.500000 0.917471
O O17 0.852027 0.500000 0.865716
O O18 0.000000 0.410651 0.000000
#
# Coordination Sequence:
#
# PCOD9216250 Si02
#       7
#     8   8   8   8   8   8   8
#     4   9  19  37  63  92 130 171 215 265 321 392
#     4   9  18  34  62  95 124 166 218 264 316 378
#     4  10  23  42  65  92 126 170 220 269 319 383
#     4  11  24  40  64  93 131 169 213 266 323 390
#     4  11  26  42  61  96 135 172 214 265 333 386
#     4   9  18  35  60  91 126 166 213 266 320 380
#     4  10  22  43  70  96 126 170 219 266 318 384
#
# _framework density 21.745694
#
# number of rings (size 3 to 8) (size 9 to 14) (size 15 to 20)
#    0.000    2.143    0.000    1.714    4.000    6.571 
#    0.000    0.714    0.000    2.571    0.000    0.000 
#    0.000    0.571    0.000    0.000    0.000    0.000 
#
# Total GULP energy -156137.217122 kJ/mol
# GULP energy per Si atom -5576.329183 kJ/mol
# Density = 2.169620 g / cm^3
# Si number density = 21.745694 Si / 1000 Ang^3
#
#
#
# Elastic Constant Matrix: (Units=GPa)
#
#
# Indices 1 2 3 4 5 6 
#
# 1 93.6262 64.8560 28.4686 0.0000 4.8823 0.0000
# 2 64.8560 152.0268 47.3317 0.0000 13.9107 0.0000
# 3 28.4686 47.3317 106.2007 0.0000 13.2055 0.0000
# 4 0.0000 0.0000 0.0000 32.0686 0.0000 2.9218
# 5 4.8823 13.9107 13.2055 0.0000 36.3232 0.0000
# 6 0.0000 0.0000 0.0000 2.9218 0.0000 25.6159
#
#
#
# Elastic Compliance Matrix: (Units=1/GPa)
#
#
# Indices 1 2 3 4 5 6 
#
# 1 0.015359 -0.006171 -0.001471 0.000000 0.000833 0.000000
# 2 -0.006171 0.010227 -0.002639 0.000000 -0.002128 0.000000
# 3 -0.001471 -0.002639 0.011349 0.000000 -0.002918 0.000000
# 4 0.000000 0.000000 0.000000 0.031511 0.000000 -0.003594
# 5 0.000833 -0.002128 -0.002918 0.000000 0.029294 0.000000
# 6 0.000000 0.000000 0.000000 -0.003594 0.000000 0.039448
#
#
# Mechanical properties :
#
#
# Convention : Reuss Voigt Hill
#
# Bulk Modulus (GPa) = 61.07225 70.35182 65.71204
# Shear Modulus (GPa) = 30.63596 32.88135 31.75866
#
# Velocity S-wave (km/s) = 3.75751 3.89277 3.82574
# Velocity P-wave (km/s) = 6.85353 7.25446 7.05684
#
# Compressibility (1/GPa) = 0.01637405
#
# Stress axis : x y z
#
# Youngs Moduli (GPa) = 65.10852 97.78439 88.11057
#
# Poissons Ratio (x) = 0.60339 0.12958
# Poissons Ratio (y) = 0.40176 0.23253
# Poissons Ratio (z) = 0.09575 0.25806
#
# Static dielectric constant tensor:
#      x y z
#    x 2.011070 0.000000 0.022880 
#    y 0.000000 1.857670 0.000000 
#    z 0.022880 0.000000 1.804150 
# 
# From -- ./inp_files/158312.got.cif
#   From: 2010.05.17/outbox.cif.g08.bks.cpg/sg12_80_cif.got.tgz:158312.got - 2010.06.03 13:09:07.
