data_PCOD9216944
_publ_section_title
;
Structure prediction by ZEFSAII (Michael W. Deem and Ramdas Pophale) SiO2 
 PCOD9216944
Probable space group: C 2/M
;
_chemical_formula_sum "Si O2"
_cell_formula_units_Z 64
_cell_length_a 20.410035
_cell_length_b 8.887745
_cell_length_c 31.128422
_cell_angle_alpha 90.000000
_cell_angle_beta 34.839442
_cell_angle_gamma 90.000000
_cell_volume 3225.822573
_symmetry_space_group_name_H-M "C 2/M"
_symmetry_group_IT_number 12
_symmetry_cell_setting 'monoclinic'
loop_
_space_group_symop_operation_xyz
x,y,z
-x,y,-z
-x,-y,-z
x,-y,z
1/2+x,1/2+y,z
1/2-x,1/2+y,-z
1/2-x,1/2-y,-z
1/2+x,1/2-y,z
loop_
_atom_site_type_symbol
_atom_site_label
_atom_site_fract_x
_atom_site_fract_y
_atom_site_fract_z
Si Si1 0.726703 0.320543 0.336548
Si Si2 0.328166 0.821608 0.921017
Si Si3 0.931530 0.677775 0.162860
Si Si4 0.903641 0.821365 0.087367
Si Si5 0.820247 0.820756 0.831908
Si Si6 0.752158 0.179791 0.415028
Si Si7 0.976253 0.679396 0.331484
Si Si8 0.004604 0.320643 0.415954
O O1 0.730550 0.500000 0.341038
O O2 0.816203 0.282323 0.250558
O O3 0.762705 0.238246 0.360774
O O4 0.600817 0.267800 0.390217
O O5 0.459774 0.799910 0.864718
O O6 0.306735 0.744352 0.887001
O O7 0.305858 0.000000 0.929639
O O8 0.250000 0.750000 0.000000
O O9 0.927119 0.500000 0.154317
O O10 0.943595 0.771045 0.112890
O O11 0.787368 0.735637 0.137991
O O12 0.882700 0.000000 0.097623
O O13 0.000000 0.785782 0.000000
O O14 0.935359 0.755946 0.748638
O O15 0.824205 0.000000 0.830814
O O16 0.849604 0.257773 0.390955
O O17 0.623946 0.216961 0.499913
O O18 0.765955 0.000000 0.409523
O O19 0.977056 0.500000 0.324647
O O20 0.013334 0.710433 0.360495
O O21 0.021434 0.500000 0.413752
#
# Coordination Sequence:
#
# PCOD9216944 Si02
#       8
#     8   8   8   8   8   8   8   8
#     4  11  23  39  61  89 120 158 204 250 299 357
#     4  11  23  41  64  91 125 162 204 253 305 361
#     4  10  23  41  61  87 120 158 199 247 300 357
#     4  11  24  41  63  91 122 157 200 250 302 358
#     4  12  25  41  63  91 124 162 204 249 301 361
#     4  11  23  40  62  89 122 159 201 247 301 364
#     4  11  23  41  64  90 122 158 200 250 303 358
#     4  10  23  41  61  88 122 159 199 249 305 361
#
# _framework density 19.8399
#
# number of rings (size 3 to 8) (size 9 to 14) (size 15 to 20)
#    0.000    1.125    0.000    6.000    0.000   11.500 
#    0.000    0.000    0.000    0.000    0.000    0.000 
#    0.000    0.000    0.000    0.000    0.000    0.000 
#
# Total GULP energy -179120.792586 kJ/mol
# GULP energy per Si atom -5597.524768 kJ/mol
# Density = 1.979474 g / cm^3
# Si number density = 19.839900 Si / 1000 Ang^3
#
#
#
# Elastic Constant Matrix: (Units=GPa)
#
#
# Indices 1 2 3 4 5 6 
#
# 1 40.1833 17.2247 -24.8363 0.0005 -1.9370 -0.0024
# 2 17.2247 57.6753 13.1312 0.0011 -0.9503 -0.0018
# 3 -24.8363 13.1312 47.8791 0.0000 0.3022 -0.0003
# 4 0.0005 0.0011 0.0000 33.2429 0.0000 -1.7803
# 5 -1.9370 -0.9503 0.3022 0.0000 35.1698 -0.0006
# 6 -0.0024 -0.0018 -0.0003 -1.7803 -0.0006 34.6309
#
#
#
# Elastic Compliance Matrix: (Units=1/GPa)
#
#
# Indices 1 2 3 4 5 6 
#
# 1 0.060364 -0.026789 0.038645 0.000000 0.002269 0.000003
# 2 -0.026789 0.030392 -0.022229 -0.000001 -0.000463 0.000000
# 3 0.038645 -0.022229 0.047022 0.000000 0.001124 0.000002
# 4 0.000000 -0.000001 0.000000 0.030165 0.000000 0.001551
# 5 0.002269 -0.000463 0.001124 0.000000 0.028536 0.000001
# 6 0.000003 0.000000 0.000002 0.001551 0.000001 0.028956
#
#
# Mechanical properties :
#
#
# Convention : Reuss Voigt Hill
#
# Bulk Modulus (GPa) = 8.54454 17.41967 12.98210
# Shear Modulus (GPa) = 17.53216 29.95658 23.74437
#
# Velocity S-wave (km/s) = 2.97590 3.88998 3.46323
# Velocity P-wave (km/s) = 4.01548 5.38285 4.74864
#
# Compressibility (1/GPa) = 0.11703387
#
# Stress axis : x y z
#
# Youngs Moduli (GPa) = 16.56613 32.90317 21.26676
#
# Poissons Ratio (x) = 0.88144 -0.82186
# Poissons Ratio (y) = 0.44379 0.47273
# Poissons Ratio (z) = -0.64020 0.73139
#
# Static dielectric constant tensor:
#      x y z
#    x 1.660760 0.000000 -0.003940 
#    y 0.000000 1.660270 0.000000 
#    z -0.003940 0.000000 1.681500 
# 
# From -- ./inp_files/378133.got.cif
#   From: 2010.05.17/outbox.cif.g08.bks.cpg/sg12_190_cif.got.tgz:378133.got - 2010.06.03 13:09:07.
