data_PCOD9216849
_publ_section_title
;
Structure prediction by ZEFSAII (Michael W. Deem and Ramdas Pophale) SiO2 
 PCOD9216849
Probable space group: C 2/M
;
_chemical_formula_sum "Si O2"
_cell_formula_units_Z 64
_cell_length_a 12.373343
_cell_length_b 27.497418
_cell_length_c 19.094296
_cell_angle_alpha 90.000000
_cell_angle_beta 152.575350
_cell_angle_gamma 90.000000
_cell_volume 2992.190902
_symmetry_space_group_name_H-M "C 2/M"
_symmetry_group_IT_number 12
_symmetry_cell_setting 'monoclinic'
loop_
_space_group_symop_operation_xyz
x,y,z
-x,y,-z
-x,-y,-z
x,-y,z
1/2+x,1/2+y,z
1/2-x,1/2+y,-z
1/2-x,1/2-y,-z
1/2+x,1/2-y,z
loop_
_atom_site_type_symbol
_atom_site_label
_atom_site_fract_x
_atom_site_fract_y
_atom_site_fract_z
Si Si1 0.280254 0.188724 0.321018
Si Si2 0.577582 0.945757 0.333269
Si Si3 0.160786 0.580826 0.662831
Si Si4 0.256083 0.288969 0.223050
Si Si5 0.491262 0.387386 0.373419
Si Si6 0.529655 0.057314 0.152064
Si Si7 0.763982 0.208068 0.066071
Si Si8 0.921159 0.056711 0.191132
O O1 0.500000 0.192849 0.500000
O O2 0.328065 0.137772 0.310544
O O3 0.277546 0.239158 0.277648
O O4 0.014169 0.182237 0.197836
O O5 0.432192 0.944839 0.321393
O O6 0.444708 0.937152 0.183615
O O7 0.776732 0.905316 0.455209
O O8 0.686213 0.000000 0.390151
O O9 0.407857 0.561883 0.776742
O O10 0.000000 0.575290 0.500000
O O11 0.448606 0.329891 0.349463
O O12 0.273656 0.274786 0.151762
O O13 0.999777 0.313808 0.089600
O O14 0.267263 0.413544 0.278242
O O15 0.501942 0.408684 0.300477
O O16 0.574967 0.000000 0.167153
O O17 0.335239 0.071103 0.983364
O O18 0.750000 0.250000 0.000000
O O19 0.922137 0.000000 0.214406
#
# Coordination Sequence:
#
# PCOD9216849 Si02
#       8
#     8   8   8   8   8   8   8   8
#     4  10  23  42  62  93 128 168 211 269 314 379
#     4  11  24  44  65  93 133 172 213 267 329 398
#     4  11  23  41  66  94 127 168 223 266 330 384
#     4  10  23  40  66  92 127 170 214 264 316 381
#     4  12  23  38  68  98 127 171 219 262 329 386
#     4  10  24  42  61  93 133 168 208 268 331 387
#     4   9  20  42  63  88 123 171 210 259 324 371
#     4  11  23  40  67  98 129 168 218 271 323 389
#
# _framework density 21.389009000000001
#
# number of rings (size 3 to 8) (size 9 to 14) (size 15 to 20)
#    0.000    1.500    1.250    3.000    7.000    4.500 
#    4.500    4.375    0.000    0.000    0.000    0.000 
#    0.000    0.000    0.000    0.000    0.000    0.000 
#
# Total GULP energy -178633.434562 kJ/mol
# GULP energy per Si atom -5582.294830 kJ/mol
# Density = 2.134033 g / cm^3
# Si number density = 21.389009 Si / 1000 Ang^3
#
#
#
# Elastic Constant Matrix: (Units=GPa)
#
#
# Indices 1 2 3 4 5 6 
#
# 1 -235.9017 -68.2458 -7.0769 0.0639 107.1264 0.0255
# 2 -68.2458 72.6203 15.8268 0.0168 17.5703 0.0083
# 3 -7.0769 15.8268 56.2057 0.0056 3.7697 0.0082
# 4 0.0639 0.0168 0.0056 15.7679 -0.0176 4.9337
# 5 107.1264 17.5703 3.7697 -0.0176 -12.7878 -0.0071
# 6 0.0255 0.0083 0.0082 4.9337 -0.0071 27.4931
#
#
#
# Elastic Compliance Matrix: (Units=1/GPa)
#
#
# Indices 1 2 3 4 5 6 
#
# 1 0.001678 -0.001318 -0.000234 0.000008 0.012174 0.000001
# 2 -0.001318 0.012263 -0.003931 -0.000001 0.004651 0.000000
# 3 -0.000234 -0.003931 0.018988 -0.000002 -0.001766 -0.000004
# 4 0.000008 -0.000001 -0.000002 0.067193 -0.000020 -0.012058
# 5 0.012174 0.004651 -0.001766 -0.000020 0.029654 -0.000001
# 6 0.000001 0.000000 -0.000004 -0.012058 -0.000001 0.038537
#
#
# Mechanical properties :
#
#
# Convention : Reuss Voigt Hill
#
# Bulk Modulus (GPa) = 45.53239 -25.11862 10.20688
# Shear Modulus (GPa) = 26.79539 2.92266 14.85902
#
# Velocity S-wave (km/s) = 3.54328 1.17021 2.63858
# Velocity P-wave (km/s) = 6.17039 3.15331 3.75036
#
# Compressibility (1/GPa) = 0.02196239
#
# Stress axis : x y z
#
# Youngs Moduli (GPa) = 596.08282 81.54433 52.66581
#
# Poissons Ratio (x) = 0.10747 0.01233
# Poissons Ratio (y) = 0.78556 0.20703
# Poissons Ratio (z) = 0.13958 0.32055
#
# Static dielectric constant tensor:
#      x y z
#    x 1.792310 0.000000 0.028750 
#    y 0.000000 1.757360 0.000000 
#    z 0.028750 0.000000 1.778040 
# 
# From -- ./inp_files/266298.got.cif
#   From: 2010.05.17/outbox.cif.g08.bks.cpg/sg12_134_cif.got.tgz:266298.got - 2010.06.03 13:09:07.
