data_PCOD9216916
_publ_section_title
;
Structure prediction by ZEFSAII (Michael W. Deem and Ramdas Pophale) SiO2 
 PCOD9216916
Probable space group: C 2/M
;
_chemical_formula_sum "Si O2"
_cell_formula_units_Z 48
_cell_length_a 25.389426
_cell_length_b 7.697709
_cell_length_c 17.665308
_cell_angle_alpha 90.000000
_cell_angle_beta 32.882681
_cell_angle_gamma 90.000000
_cell_volume 1874.441670
_symmetry_space_group_name_H-M "C 2/M"
_symmetry_group_IT_number 12
_symmetry_cell_setting 'monoclinic'
loop_
_space_group_symop_operation_xyz
x,y,z
-x,y,-z
-x,-y,-z
x,-y,z
1/2+x,1/2+y,z
1/2-x,1/2+y,-z
1/2-x,1/2-y,-z
1/2+x,1/2-y,z
loop_
_atom_site_type_symbol
_atom_site_label
_atom_site_fract_x
_atom_site_fract_y
_atom_site_fract_z
Si Si1 0.057765 0.301044 0.859102
Si Si2 0.833701 0.796193 0.003912
Si Si3 0.116692 0.787573 0.217360
Si Si4 0.639555 0.209450 0.608614
Si Si5 0.911567 0.799463 0.500872
Si Si6 0.793658 0.202174 0.212389
O O1 0.026234 0.500000 0.889654
O O2 0.068899 0.225153 0.761901
O O3 0.166442 0.298808 0.762675
O O4 0.000000 0.219359 0.000000
O O5 0.719249 0.775894 0.124053
O O6 0.843921 0.724156 0.075934
O O7 0.855703 0.000000 0.982348
O O8 0.887535 0.725524 0.865262
O O9 0.020700 0.730191 0.376897
O O10 0.118601 0.000000 0.214985
O O11 0.750000 0.250000 0.500000
O O12 0.612455 0.285308 0.559871
O O13 0.631145 0.000000 0.613879
O O14 0.822006 0.715058 0.651829
O O15 0.912147 0.000000 0.523443
O O16 0.817023 0.000000 0.192878
#
# Coordination Sequence:
#
# PCOD9216916 Si02
#       6
#     8   8   8   8   8   8
#     4  10  23  41  59  84 117 152 192 236 283 340
#     4   9  20  39  60  85 115 146 187 238 287 341
#     4   9  20  39  61  85 112 149 192 233 285 344
#     4  11  22  38  60  85 117 154 192 234 283 339
#     4  11  23  38  59  85 117 153 194 239 283 341
#     4  11  23  38  59  86 117 152 191 238 290 342
#
# _framework density 25.607624000000001
#
# number of rings (size 3 to 8) (size 9 to 14) (size 15 to 20)
#    0.000    1.833    1.667    1.500    2.333    4.333 
#    0.000    3.333    0.000    0.000    0.000    0.000 
#    0.000    0.000    0.000    0.000    0.000    0.000 
#
# Total GULP energy -134247.559963 kJ/mol
# GULP energy per Si atom -5593.648332 kJ/mol
# Density = 2.554934 g / cm^3
# Si number density = 25.607624 Si / 1000 Ang^3
#
#
#
# Elastic Constant Matrix: (Units=GPa)
#
#
# Indices 1 2 3 4 5 6 
#
# 1 56.6080 -1.0034 -2.8520 -0.0034 9.4194 0.0028
# 2 -1.0034 79.4816 15.0856 -0.0057 -5.3520 0.0073
# 3 -2.8520 15.0856 128.8523 -0.0069 5.2733 0.0063
# 4 -0.0034 -0.0057 -0.0069 25.2668 0.0046 -8.1637
# 5 9.4194 -5.3520 5.2733 0.0046 53.5031 -0.0023
# 6 0.0028 0.0073 0.0063 -8.1637 -0.0023 19.6093
#
#
#
# Elastic Compliance Matrix: (Units=1/GPa)
#
#
# Indices 1 2 3 4 5 6 
#
# 1 0.018236 -0.000094 0.000549 0.000002 -0.003274 -0.000002
# 2 -0.000094 0.012980 -0.001582 0.000001 0.001471 -0.000004
# 3 0.000549 -0.001582 0.008001 0.000002 -0.001043 -0.000001
# 4 0.000002 0.000001 0.000002 0.045729 -0.000004 0.019038
# 5 -0.003274 0.001471 -0.001043 -0.000004 0.019517 0.000001
# 6 -0.000002 -0.000004 -0.000001 0.019038 0.000001 0.058922
#
#
# Mechanical properties :
#
#
# Convention : Reuss Voigt Hill
#
# Bulk Modulus (GPa) = 27.05525 31.93359 29.49442
# Shear Modulus (GPa) = 28.09624 36.58996 32.34310
#
# Velocity S-wave (km/s) = 3.31597 3.78414 3.55776
# Velocity P-wave (km/s) = 5.02485 5.62053 5.33102
#
# Compressibility (1/GPa) = 0.03696141
#
# Stress axis : x y z
#
# Youngs Moduli (GPa) = 54.83626 77.04385 124.98633
#
# Poissons Ratio (x) = 0.00727 -0.06858
# Poissons Ratio (y) = 0.00518 0.19772
# Poissons Ratio (z) = -0.03009 0.12188
#
# Static dielectric constant tensor:
#      x y z
#    x 2.068570 0.000000 -0.025930 
#    y 0.000000 1.931500 0.000000 
#    z -0.025930 0.000000 2.061570 
# 
# From -- ./inp_files/244627.got.cif
#   From: 2010.05.17/outbox.cif.g08.bks.cpg/sg12_123_cif.got.tgz:244627.got - 2010.06.03 13:09:07.
