data_PCOD9216091
_publ_section_title
;
Structure prediction by ZEFSAII (Michael W. Deem and Ramdas Pophale) SiO2 
 PCOD9216091
Probable space group: C 2/M
;
_chemical_formula_sum "Si O2"
_cell_formula_units_Z 34
_cell_length_a 35.060692
_cell_length_b 10.308847
_cell_length_c 17.409974
_cell_angle_alpha 90.000000
_cell_angle_beta 16.807968
_cell_angle_gamma 90.000000
_cell_volume 1819.593243
_symmetry_space_group_name_H-M "C 2/M"
_symmetry_group_IT_number 12
_symmetry_cell_setting 'monoclinic'
loop_
_space_group_symop_operation_xyz
x,y,z
-x,y,-z
-x,-y,-z
x,-y,z
1/2+x,1/2+y,z
1/2-x,1/2+y,-z
1/2-x,1/2-y,-z
1/2+x,1/2-y,z
loop_
_atom_site_type_symbol
_atom_site_label
_atom_site_fract_x
_atom_site_fract_y
_atom_site_fract_z
Si Si1 0.704674 0.000000 0.740613
Si Si2 0.891031 0.764128 0.874562
Si Si3 0.919316 0.500000 0.329995
Si Si4 0.865471 0.000000 0.807049
Si Si5 0.500000 0.000000 0.000000
Si Si6 0.407989 0.000000 0.752107
Si Si7 0.157884 0.767411 0.445355
O O1 0.788910 0.126491 0.597536
O O2 0.576857 0.000000 0.043735
O O3 0.637573 0.000000 0.786692
O O4 0.930363 0.629641 0.757846
O O5 0.015809 0.806118 0.685428
O O6 0.861348 0.873143 0.868576
O O7 0.763249 0.742849 0.173615
O O8 0.917378 0.500000 0.241317
O O9 0.857203 0.628610 0.484977
O O10 0.000000 0.000000 0.500000
O O11 0.742465 0.000000 0.986871
O O12 0.500000 0.000000 0.500000
#
# Coordination Sequence:
#
# PCOD9216091 Si02
#       7
#     4   8   4   4   2   4   8
#     4  10  22  43  64  99 133 166 209 261 312 381
#     4  12  23  39  63  91 121 170 216 265 328 375
#     4  10  22  43  64  99 133 168 208 260 319 378
#     4  12  24  39  55  87 120 162 220 266 318 392
#     4   8  20  46  64  96 140 178 192 262 324 378
#     4  12  24  42  59  85 130 170 208 268 334 384
#     4  12  22  42  68  96 130 168 218 269 316 379
#
# _framework density 18.685493999999998
#
# number of rings (size 3 to 8) (size 9 to 14) (size 15 to 20)
#    0.706    0.000    2.353    7.059    0.000    0.941 
#    0.000    0.000    0.000    2.824    0.000    0.000 
#    0.000    0.000    0.000    0.000    0.000    0.000 
#
# Total GULP energy -94756.048065 kJ/mol
# GULP energy per Si atom -5573.885180 kJ/mol
# Density = 1.864297 g / cm^3
# Si number density = 18.685494 Si / 1000 Ang^3
#
#
#
# Elastic Constant Matrix: (Units=GPa)
#
#
# Indices 1 2 3 4 5 6 
#
# 1 82.3237 19.9266 -4.3242 0.0000 -16.1910 0.0000
# 2 19.9266 108.5335 -11.9404 0.0000 -9.2006 0.0000
# 3 -4.3242 -11.9404 59.9628 0.0000 -4.3327 0.0000
# 4 0.0000 0.0000 0.0000 17.6572 0.0000 -3.5430
# 5 -16.1910 -9.2006 -4.3327 0.0000 47.7371 0.0000
# 6 0.0000 0.0000 0.0000 -3.5430 0.0000 4.4254
#
#
#
# Elastic Compliance Matrix: (Units=1/GPa)
#
#
# Indices 1 2 3 4 5 6 
#
# 1 0.013524 -0.002024 0.000881 0.000000 0.004277 0.000000
# 2 -0.002024 0.009916 0.001930 0.000000 0.001400 0.000000
# 3 0.000881 0.001930 0.017287 0.000000 0.002240 0.000000
# 4 0.000000 0.000000 0.000000 0.067474 0.000000 0.054021
# 5 0.004277 0.001400 0.002240 0.000000 0.022872 0.000000
# 6 0.000000 0.000000 0.000000 0.054021 0.000000 0.269221
#
#
# Mechanical properties :
#
#
# Convention : Reuss Voigt Hill
#
# Bulk Modulus (GPa) = 23.63902 28.68267 26.16085
# Shear Modulus (GPa) = 12.11183 30.44112 21.27647
#
# Velocity S-wave (km/s) = 2.54873 4.04063 3.37807
# Velocity P-wave (km/s) = 4.61950 6.09528 5.40797
#
# Compressibility (1/GPa) = 0.04230293
#
# Stress axis : x y z
#
# Youngs Moduli (GPa) = 73.94008 100.84441 57.84788
#
# Poissons Ratio (x) = 0.20406 -0.05099
# Poissons Ratio (y) = 0.14962 -0.11164
# Poissons Ratio (z) = -0.06517 -0.19462
#
# Static dielectric constant tensor:
#      x y z
#    x 1.607490 0.000000 0.006750 
#    y 0.000000 1.651220 0.000000 
#    z 0.006750 0.000000 1.613790 
# 
# From -- ./inp_files/250721.got.cif
#   From: 2010.05.17/outbox.cif.g08.bks.cpg/sg12_126_cif.got.tgz:250721.got - 2010.06.03 13:09:07.
