data_PCOD9216774
_publ_section_title
;
Structure prediction by ZEFSAII (Michael W. Deem and Ramdas Pophale) SiO2 
 PCOD9216774
Probable space group: C 2/M
;
_chemical_formula_sum "Si O2"
_cell_formula_units_Z 40
_cell_length_a 25.450610
_cell_length_b 14.363578
_cell_length_c 5.146980
_cell_angle_alpha 90.000000
_cell_angle_beta 116.071786
_cell_angle_gamma 90.000000
_cell_volume 1690.081662
_symmetry_space_group_name_H-M "C 2/M"
_symmetry_group_IT_number 12
_symmetry_cell_setting 'monoclinic'
loop_
_space_group_symop_operation_xyz
x,y,z
-x,y,-z
-x,-y,-z
x,-y,z
1/2+x,1/2+y,z
1/2-x,1/2+y,-z
1/2-x,1/2-y,-z
1/2+x,1/2-y,z
loop_
_atom_site_type_symbol
_atom_site_label
_atom_site_fract_x
_atom_site_fract_y
_atom_site_fract_z
Si Si1 0.335246 0.314832 0.704469
Si Si2 0.222711 0.892048 0.932369
Si Si3 0.963825 0.852218 0.167695
Si Si4 0.332906 0.897165 0.810473
Si Si5 0.034569 0.372146 0.821349
O O1 0.287178 0.337626 0.821249
O O2 0.180371 0.142703 0.608371
O O3 0.394431 0.361322 0.954536
O O4 0.335998 0.202610 0.670632
O O5 0.286955 0.884636 0.944811
O O6 0.210807 0.000000 0.958962
O O7 0.967096 0.740060 0.183602
O O8 0.000000 0.885396 0.500000
O O9 0.000000 0.886619 0.000000
O O10 0.399092 0.902790 0.049324
O O11 0.318520 0.000000 0.656280
O O12 0.000000 0.403908 0.500000
O O13 0.000000 0.401285 0.000000
#
# Coordination Sequence:
#
# PCOD9216774 Si02
#       5
#     8   8   8   8   8
#     4  11  22  41  66  90 124 163 201 250 308 364
#     4  11  24  42  64  90 121 160 209 259 306 357
#     4   9  17  32  57  87 117 153 195 242 299 359
#     4  10  23  40  62  94 128 163 204 248 298 364
#     4   9  19  35  55  83 121 161 198 237 287 354
#
# _framework density 23.667497000000001
#
# number of rings (size 3 to 8) (size 9 to 14) (size 15 to 20)
#    0.000    2.000    0.000    3.000    0.000    7.200 
#    0.000    7.000    0.000   12.000    0.000    0.000 
#    0.000    0.000    0.000    0.000    0.000    0.000 
#
# Total GULP energy -111695.434689 kJ/mol
# GULP energy per Si atom -5584.771734 kJ/mol
# Density = 2.361363 g / cm^3
# Si number density = 23.667497 Si / 1000 Ang^3
#
#
#
# Elastic Constant Matrix: (Units=GPa)
#
#
# Indices 1 2 3 4 5 6 
#
# 1 100.0351 -3.0329 34.5087 0.0000 30.0224 0.0000
# 2 -3.0329 124.8265 19.6440 0.0000 8.6529 0.0000
# 3 34.5087 19.6440 133.1979 0.0000 2.9212 0.0000
# 4 0.0000 0.0000 0.0000 8.4259 0.0000 5.9926
# 5 30.0224 8.6529 2.9212 0.0000 31.8873 0.0000
# 6 0.0000 0.0000 0.0000 5.9926 0.0000 -0.2040
#
#
#
# Elastic Compliance Matrix: (Units=1/GPa)
#
#
# Indices 1 2 3 4 5 6 
#
# 1 0.016096 0.002107 -0.004144 0.000000 -0.015347 0.000000
# 2 0.002107 0.008623 -0.001726 0.000000 -0.004166 0.000000
# 3 -0.004144 -0.001726 0.008758 0.000000 0.003568 0.000000
# 4 0.000000 0.000000 0.000000 0.005422 0.000000 0.159249
# 5 -0.015347 -0.004166 0.003568 0.000000 0.046613 0.000000
# 6 0.000000 0.000000 0.000000 0.159249 0.000000 -0.223911
#
#
# Mechanical properties :
#
#
# Convention : Reuss Voigt Hill
#
# Bulk Modulus (GPa) = 38.53658 51.14436 44.84047
# Shear Modulus (GPa) = -40.90863 28.48449 -6.21207
#
# Velocity S-wave (km/s) = -4.16200 3.47295 -1.62186
# Velocity P-wave (km/s) = 2.60356 6.14315 3.93445
#
# Compressibility (1/GPa) = 0.02594937
#
# Stress axis : x y z
#
# Youngs Moduli (GPa) = 62.12806 115.97264 114.18595
#
# Poissons Ratio (x) = -0.24436 0.47322
# Poissons Ratio (y) = -0.13091 0.19711
# Poissons Ratio (z) = 0.25747 0.20019
#
# Static dielectric constant tensor:
#      x y z
#    x 1.873300 0.000000 0.058640 
#    y 0.000000 1.921480 0.000000 
#    z 0.058640 0.000000 1.865970 
# 
# From -- ./inp_files/28286.got.cif
#   From: 2010.05.17/outbox.cif.g08.bks.cpg/sg12_15_cif.got.tgz:28286.got - 2010.06.03 13:09:07.
