data_PCOD9216030
_publ_section_title
;
Structure prediction by ZEFSAII (Michael W. Deem and Ramdas Pophale) SiO2 
 PCOD9216030
Probable space group: C 2/M
;
_chemical_formula_sum "Si O2"
_cell_formula_units_Z 42
_cell_length_a 12.229845
_cell_length_b 20.508727
_cell_length_c 9.231043
_cell_angle_alpha 90.000000
_cell_angle_beta 117.049991
_cell_angle_gamma 90.000000
_cell_volume 2062.044506
_symmetry_space_group_name_H-M "C 2/M"
_symmetry_group_IT_number 12
_symmetry_cell_setting 'monoclinic'
loop_
_space_group_symop_operation_xyz
x,y,z
-x,y,-z
-x,-y,-z
x,-y,z
1/2+x,1/2+y,z
1/2-x,1/2+y,-z
1/2-x,1/2-y,-z
1/2+x,1/2-y,z
loop_
_atom_site_type_symbol
_atom_site_label
_atom_site_fract_x
_atom_site_fract_y
_atom_site_fract_z
Si Si1 0.000000 0.000000 0.000000
Si Si2 0.877669 0.181534 0.182470
Si Si3 0.986000 0.575163 0.819854
Si Si4 0.820283 0.672344 0.196610
Si Si5 0.620033 0.386095 0.266679
Si Si6 0.804622 0.926222 0.372115
O O1 0.922773 0.057022 0.866102
O O2 0.864779 0.253587 0.239549
O O3 0.849448 0.126392 0.283848
O O4 0.013428 0.168254 0.204806
O O5 0.778548 0.173105 0.994666
O O6 0.025953 0.500000 0.818981
O O7 0.842195 0.580022 0.698909
O O8 0.069396 0.624897 0.781872
O O9 0.000000 0.588419 0.000000
O O10 0.746779 0.644921 0.288894
O O11 0.634510 0.414003 0.436622
O O12 0.830586 0.000000 0.335468
#
# Coordination Sequence:
#
# PCOD9216030 Si02
#       6
#     2   8   8   8   8   8
#     4  12  24  44  74 102 136 176 216 294 342 412
#     4  11  25  43  68  98 134 185 226 274 340 406
#     4  10  22  42  70  97 131 181 226 275 337 405
#     4  11  25  43  71  96 139 181 225 279 333 416
#     4  12  26  45  70 102 136 177 228 286 347 397
#     4  11  25  44  70 102 136 176 232 286 335 403
#
# _framework density 20.368134000000001
#
# number of rings (size 3 to 8) (size 9 to 14) (size 15 to 20)
#    0.000    0.952    4.762    0.571    5.333    2.286 
#    3.429    1.905    0.000    0.000    0.000    0.000 
#    0.000    0.000    0.000    0.000    0.000    0.000 
#
# Total GULP energy -117240.706452 kJ/mol
# GULP energy per Si atom -5582.890783 kJ/mol
# Density = 2.032178 g / cm^3
# Si number density = 20.368134 Si / 1000 Ang^3
#
#
#
# Elastic Constant Matrix: (Units=GPa)
#
#
# Indices 1 2 3 4 5 6 
#
# 1 99.1632 74.6696 3.4787 0.0000 -2.7469 0.0000
# 2 74.6696 159.5287 26.7590 0.0000 -17.2250 0.0000
# 3 3.4787 26.7590 34.1442 0.0000 8.3871 0.0000
# 4 0.0000 0.0000 0.0000 22.5390 0.0000 1.6611
# 5 -2.7469 -17.2250 8.3871 0.0000 28.7979 0.0000
# 6 0.0000 0.0000 0.0000 1.6611 0.0000 13.8561
#
#
#
# Elastic Compliance Matrix: (Units=1/GPa)
#
#
# Indices 1 2 3 4 5 6 
#
# 1 0.017221 -0.010085 0.007784 0.000000 -0.006657 0.000000
# 2 -0.010085 0.014426 -0.013098 0.000000 0.011481 0.000000
# 3 0.007784 -0.013098 0.043622 0.000000 -0.019796 0.000000
# 4 0.000000 0.000000 0.000000 0.044763 0.000000 -0.005366
# 5 -0.006657 0.011481 -0.019796 0.000000 0.046722 0.000000
# 6 0.000000 0.000000 0.000000 -0.005366 0.000000 0.072814
#
#
# Mechanical properties :
#
#
# Convention : Reuss Voigt Hill
#
# Bulk Modulus (GPa) = 22.48659 55.85008 39.16833
# Shear Modulus (GPa) = 17.53224 25.56720 21.54972
#
# Velocity S-wave (km/s) = 2.93707 3.54680 3.25624
# Velocity P-wave (km/s) = 4.75036 6.65229 5.78009
#
# Compressibility (1/GPa) = 0.04447095
#
# Stress axis : x y z
#
# Youngs Moduli (GPa) = 58.06934 69.32150 22.92411
#
# Poissons Ratio (x) = 0.69910 -0.17844
# Poissons Ratio (y) = 0.58562 0.30026
# Poissons Ratio (z) = -0.45202 0.90798
#
# Static dielectric constant tensor:
#      x y z
#    x 1.710010 0.000000 0.001830 
#    y 0.000000 1.691440 0.000000 
#    z 0.001830 0.000000 1.714380 
# 
# From -- ./inp_files/49205.got.cif
#   From: 2010.05.17/outbox.cif.g08.bks.cpg/sg12_25_cif.got.tgz:49205.got - 2010.06.03 13:09:07.
