data_PCOD9216696
_publ_section_title
;
Structure prediction by ZEFSAII (Michael W. Deem and Ramdas Pophale) SiO2 
 PCOD9216696
Probable space group: C 2/M
;
_chemical_formula_sum "Si O2"
_cell_formula_units_Z 32
_cell_length_a 12.367732
_cell_length_b 10.246038
_cell_length_c 25.675645
_cell_angle_alpha 90.000000
_cell_angle_beta 24.633050
_cell_angle_gamma 90.000000
_cell_volume 1356.127484
_symmetry_space_group_name_H-M "C 2/M"
_symmetry_group_IT_number 12
_symmetry_cell_setting 'monoclinic'
loop_
_space_group_symop_operation_xyz
x,y,z
-x,y,-z
-x,-y,-z
x,-y,z
1/2+x,1/2+y,z
1/2-x,1/2+y,-z
1/2-x,1/2-y,-z
1/2+x,1/2-y,z
loop_
_atom_site_type_symbol
_atom_site_label
_atom_site_fract_x
_atom_site_fract_y
_atom_site_fract_z
Si Si1 0.613328 0.845256 0.894268
Si Si2 0.336200 0.500000 0.652734
Si Si3 0.229397 0.278464 0.264034
Si Si4 0.274103 0.355220 0.361238
Si Si5 0.107937 0.500000 0.641850
O O1 0.543774 0.750099 0.877007
O O2 0.925976 0.825055 0.758092
O O3 0.556708 0.000000 0.910859
O O4 0.500000 0.809548 0.000000
O O5 0.332025 0.630947 0.689095
O O6 0.122780 0.500000 0.698852
O O7 0.605136 0.500000 0.505401
O O8 0.278348 0.349617 0.297126
O O9 0.026709 0.374046 0.324562
O O10 0.251297 0.500000 0.394073
O O11 0.000000 0.288100 0.500000
#
# Coordination Sequence:
#
# PCOD9216696 Si02
#       5
#     8   4   8   8   4
#     4  10  23  43  65  93 131 179 232 278 341 423
#     4  11  26  40  62 104 141 182 232 280 344 432
#     4  12  23  43  68  96 137 186 220 293 354 397
#     4  10  23  39  65 100 132 173 227 277 343 424
#     4  11  26  42  63 103 145 175 232 288 346 419
#
# _framework density 23.596601
#
# number of rings (size 3 to 8) (size 9 to 14) (size 15 to 20)
#    0.000    1.250    2.500    2.250   10.500    1.000 
#    0.000    0.625    0.000    1.500    0.000    0.000 
#    0.000    0.000    0.000    0.000    0.000    0.000 
#
# Total GULP energy -89091.200105 kJ/mol
# GULP energy per Si atom -5568.200007 kJ/mol
# Density = 2.354289 g / cm^3
# Si number density = 23.596601 Si / 1000 Ang^3
#
#
#
# Elastic Constant Matrix: (Units=GPa)
#
#
# Indices 1 2 3 4 5 6 
#
# 1 119.3503 35.0191 32.0473 -0.0010 12.8576 -0.0005
# 2 35.0191 93.4759 -17.6253 -0.0001 -11.5849 0.0010
# 3 32.0473 -17.6253 71.0510 0.0165 -3.0116 0.0184
# 4 -0.0010 -0.0001 0.0165 9.6065 0.0053 10.0190
# 5 12.8576 -11.5849 -3.0116 0.0053 44.7407 -0.0001
# 6 -0.0005 0.0010 0.0184 10.0190 -0.0001 24.3719
#
#
#
# Elastic Compliance Matrix: (Units=1/GPa)
#
#
# Indices 1 2 3 4 5 6 
#
# 1 0.013387 -0.007326 -0.008122 0.000021 -0.006291 -0.000002
# 2 -0.007326 0.015679 0.007477 -0.000018 0.006668 0.000001
# 3 -0.008122 0.007477 0.019830 -0.000038 0.005605 0.000000
# 4 0.000021 -0.000018 -0.000038 0.182221 -0.000035 -0.074909
# 5 -0.006291 0.006668 0.005605 -0.000035 0.026263 0.000010
# 6 -0.000002 0.000001 0.000000 -0.074909 0.000010 0.071825
#
#
# Mechanical properties :
#
#
# Convention : Reuss Voigt Hill
#
# Bulk Modulus (GPa) = 30.34724 42.52883 36.43804
# Shear Modulus (GPa) = 14.03969 31.37291 22.70630
#
# Velocity S-wave (km/s) = 2.44188 3.65026 3.10541
# Velocity P-wave (km/s) = 4.56499 5.98567 5.32294
#
# Compressibility (1/GPa) = 0.03295192
#
# Stress axis : x y z
#
# Youngs Moduli (GPa) = 74.69926 63.78027 50.42829
#
# Poissons Ratio (x) = 0.46728 0.40959
# Poissons Ratio (y) = 0.54727 -0.37703
# Poissons Ratio (z) = 0.60672 -0.47686
#
# Static dielectric constant tensor:
#      x y z
#    x 2.156620 0.000000 -0.019400 
#    y 0.000000 1.937370 0.000000 
#    z -0.019400 0.000000 1.854200 
# 
# From -- ./inp_files/335001.got.cif
#   From: 2010.05.17/outbox.cif.g08.bks.cpg/sg12_168_cif.got.tgz:335001.got - 2010.06.03 13:09:07.
