data_PCOD9216843
_publ_section_title
;
Structure prediction by ZEFSAII (Michael W. Deem and Ramdas Pophale) SiO2 
 PCOD9216843
Probable space group: C 2/M
;
_chemical_formula_sum "Si O2"
_cell_formula_units_Z 50
_cell_length_a 11.590792
_cell_length_b 15.336975
_cell_length_c 14.187512
_cell_angle_alpha 90.000000
_cell_angle_beta 113.485155
_cell_angle_gamma 90.000000
_cell_volume 2313.160455
_symmetry_space_group_name_H-M "C 2/M"
_symmetry_group_IT_number 12
_symmetry_cell_setting 'monoclinic'
loop_
_space_group_symop_operation_xyz
x,y,z
-x,y,-z
-x,-y,-z
x,-y,z
1/2+x,1/2+y,z
1/2-x,1/2+y,-z
1/2-x,1/2-y,-z
1/2+x,1/2-y,z
loop_
_atom_site_type_symbol
_atom_site_label
_atom_site_fract_x
_atom_site_fract_y
_atom_site_fract_z
Si Si1 0.931487 0.599264 0.102414
Si Si2 0.826033 0.673912 0.883017
Si Si3 0.318161 0.661303 0.637989
Si Si4 0.917690 0.098758 0.267207
Si Si5 0.000000 0.000000 0.000000
Si Si6 0.354578 0.330339 0.441780
Si Si7 0.209422 0.123735 0.168958
O O1 0.922848 0.500000 0.064077
O O2 0.841826 0.604709 0.162243
O O3 0.076648 0.625911 0.155619
O O4 0.877121 0.663119 0.004986
O O5 0.693200 0.625242 0.837724
O O6 0.813192 0.773099 0.849115
O O7 0.468301 0.666571 0.704708
O O8 0.314360 0.627622 0.528579
O O9 0.239169 0.750578 0.609816
O O10 0.277036 0.606243 0.715052
O O11 0.862681 0.107157 0.354721
O O12 0.960812 0.000000 0.263463
O O13 0.094858 0.925460 0.079549
O O14 0.500000 0.298114 0.500000
#
# Coordination Sequence:
#
# PCOD9216843 Si02
#       7
#     8   8   8   8   2   8   8
#     4  11  24  44  61  91 134 178 224 273 331 399
#     4  11  24  42  69  93 129 186 230 272 329 416
#     4  10  23  40  66 101 132 178 225 284 342 409
#     4  11  23  39  68 104 135 173 230 289 342 400
#     4  12  28  44  60 106 146 180 212 286 344 414
#     4   9  20  43  67  96 135 177 231 283 338 409
#     4  12  26  42  67  99 137 174 223 276 344 398
#
# _framework density 21.615449000000002
#
# number of rings (size 3 to 8) (size 9 to 14) (size 15 to 20)
#    0.000    1.280    2.400    3.360    5.600    2.880 
#    0.000    0.000    0.000    0.480    0.000    0.000 
#    0.000    0.000    0.000    0.000    0.000    0.000 
#
# Total GULP energy -139287.497783 kJ/mol
# GULP energy per Si atom -5571.499911 kJ/mol
# Density = 2.156625 g / cm^3
# Si number density = 21.615449 Si / 1000 Ang^3
#
#
#
# Elastic Constant Matrix: (Units=GPa)
#
#
# Indices 1 2 3 4 5 6 
#
# 1 101.7849 12.2350 41.7448 0.0000 -13.2566 0.0000
# 2 12.2350 76.3943 10.0803 0.0000 1.7041 0.0000
# 3 41.7448 10.0803 60.3012 0.0000 -6.1674 0.0000
# 4 0.0000 0.0000 0.0000 1.2417 0.0000 23.2365
# 5 -13.2566 1.7041 -6.1674 0.0000 48.9670 0.0000
# 6 0.0000 0.0000 0.0000 23.2365 0.0000 -3.5262
#
#
#
# Elastic Compliance Matrix: (Units=1/GPa)
#
#
# Indices 1 2 3 4 5 6 
#
# 1 0.014130 -0.001093 -0.009324 0.000000 0.002689 0.000000
# 2 -0.001093 0.013498 -0.001599 0.000000 -0.000967 0.000000
# 3 -0.009324 -0.001599 0.023354 0.000000 0.000473 0.000000
# 4 0.000000 0.000000 0.000000 0.006478 0.000000 0.042690
# 5 0.002689 -0.000967 0.000473 0.000000 0.021243 0.000000
# 6 0.000000 0.000000 0.000000 0.042690 0.000000 -0.002281
#
#
# Mechanical properties :
#
#
# Convention : Reuss Voigt Hill
#
# Bulk Modulus (GPa) = 37.10541 40.73339 38.91940
# Shear Modulus (GPa) = 45.68834 20.96453 33.32643
#
# Velocity S-wave (km/s) = 4.60248 3.11768 3.93082
# Velocity P-wave (km/s) = 6.74145 5.64317 6.21661
#
# Compressibility (1/GPa) = 0.02695025
#
# Stress axis : x y z
#
# Youngs Moduli (GPa) = 70.76940 74.08774 42.81917
#
# Poissons Ratio (x) = 0.08095 0.39926
# Poissons Ratio (y) = 0.07733 0.06846
# Poissons Ratio (z) = 0.65988 0.11845
#
# Static dielectric constant tensor:
#      x y z
#    x 1.832930 0.000000 -0.045530 
#    y 0.000000 1.743810 0.000000 
#    z -0.045530 0.000000 1.816450 
# 
# From -- ./inp_files/205096.got.cif
#   From: 2010.05.17/outbox.cif.g08.bks.cpg/sg12_103_cif.got.tgz:205096.got - 2010.06.03 13:09:07.
