data_PCOD9216341
_publ_section_title
;
Structure prediction by ZEFSAII (Michael W. Deem and Ramdas Pophale) SiO2 
 PCOD9216341
Probable space group: C 2/M
;
_chemical_formula_sum "Si O2"
_cell_formula_units_Z 64
_cell_length_a 29.782801
_cell_length_b 23.230713
_cell_length_c 8.903627
_cell_angle_alpha 90.000000
_cell_angle_beta 149.418238
_cell_angle_gamma 90.000000
_cell_volume 3134.110585
_symmetry_space_group_name_H-M "C 2/M"
_symmetry_group_IT_number 12
_symmetry_cell_setting 'monoclinic'
loop_
_space_group_symop_operation_xyz
x,y,z
-x,y,-z
-x,-y,-z
x,-y,z
1/2+x,1/2+y,z
1/2-x,1/2+y,-z
1/2-x,1/2-y,-z
1/2+x,1/2-y,z
loop_
_atom_site_type_symbol
_atom_site_label
_atom_site_fract_x
_atom_site_fract_y
_atom_site_fract_z
Si Si1 0.067590 0.737079 0.810649
Si Si2 0.859236 0.064277 0.088723
Si Si3 0.215477 0.874536 0.561944
Si Si4 0.593077 0.565180 0.434075
Si Si5 0.445609 0.646791 0.107007
Si Si6 0.676455 0.933232 0.385020
Si Si7 0.251470 0.244012 0.824597
Si Si8 0.403913 0.183873 0.787752
O O1 0.017909 0.792301 0.736677
O O2 0.000000 0.707736 0.500000
O O3 0.153640 0.760656 0.971810
O O4 0.097806 0.700994 0.041374
O O5 0.861175 0.072470 0.271761
O O6 0.919180 0.108798 0.173388
O O7 0.893190 0.000000 0.153431
O O8 0.761754 0.067625 0.739598
O O9 0.162048 0.921264 0.503403
O O10 0.287738 0.907470 0.670216
O O11 0.243925 0.822968 0.753134
O O12 0.144709 0.845457 0.245283
O O13 0.559618 0.500000 0.326941
O O14 0.514645 0.610862 0.209665
O O15 0.611256 0.884865 0.262076
O O16 0.647102 0.000000 0.287946
O O17 0.173712 0.281907 0.523799
O O18 0.250000 0.250000 0.000000
O O19 0.500000 0.199395 0.000000
#
# Coordination Sequence:
#
# PCOD9216341 Si02
#       8
#     8   8   8   8   8   8   8   8
#     4  12  25  44  66 101 134 171 220 274 337 405
#     4   9  19  36  58  87 123 168 222 270 319 386
#     4  11  23  39  62  91 129 173 220 266 326 397
#     4  11  23  36  55  91 132 173 220 267 320 392
#     4  11  22  35  59  86 129 172 214 262 325 391
#     4  10  22  44  69  91 122 170 221 280 343 394
#     4  12  26  44  70 100 138 181 222 276 339 398
#     4  12  26  45  70 102 134 174 224 281 336 407
#
# _framework density 20.420466999999999
#
# number of rings (size 3 to 8) (size 9 to 14) (size 15 to 20)
#    0.000    1.000    2.500    4.875    7.000    3.250 
#    0.000    0.000    0.000    0.375    0.000    0.000 
#    0.000    0.000    0.000    0.000    0.000    0.000 
#
# Total GULP energy -178878.461311 kJ/mol
# GULP energy per Si atom -5589.951916 kJ/mol
# Density = 2.037399 g / cm^3
# Si number density = 20.420467 Si / 1000 Ang^3
#
#
#
# Elastic Constant Matrix: (Units=GPa)
#
#
# Indices 1 2 3 4 5 6 
#
# 1 91.2817 13.6381 44.9465 0.0000 -8.4414 0.0000
# 2 13.6381 96.2845 33.3421 0.0000 -7.9942 0.0000
# 3 44.9465 33.3421 99.1697 0.0000 -16.0409 0.0000
# 4 0.0000 0.0000 0.0000 7.2683 0.0000 -3.1650
# 5 -8.4414 -7.9942 -16.0409 0.0000 41.2848 0.0000
# 6 0.0000 0.0000 0.0000 -3.1650 0.0000 29.0987
#
#
#
# Elastic Compliance Matrix: (Units=1/GPa)
#
#
# Indices 1 2 3 4 5 6 
#
# 1 0.014115 0.000258 -0.006412 0.000000 0.000445 0.000000
# 2 0.000258 0.011783 -0.003949 0.000000 0.000800 0.000000
# 3 -0.006412 -0.003949 0.014920 0.000000 0.003721 0.000000
# 4 0.000000 0.000000 0.000000 0.144424 0.000000 0.015709
# 5 0.000445 0.000800 0.003721 0.000000 0.025914 0.000000
# 6 0.000000 0.000000 0.000000 0.015709 0.000000 0.036074
#
#
# Mechanical properties :
#
#
# Convention : Reuss Voigt Hill
#
# Bulk Modulus (GPa) = 48.51739 52.28771 50.40255
# Shear Modulus (GPa) = 18.22778 28.51765 23.37271
#
# Velocity S-wave (km/s) = 2.99092 3.74106 3.38682
# Velocity P-wave (km/s) = 5.97815 6.65747 6.32693
#
# Compressibility (1/GPa) = 0.02061117
#
# Stress axis : x y z
#
# Youngs Moduli (GPa) = 70.84684 84.86567 67.02600
#
# Poissons Ratio (x) = -0.02190 0.42978
# Poissons Ratio (y) = -0.01828 0.26470
# Poissons Ratio (z) = 0.45428 0.33516
#
# Static dielectric constant tensor:
#      x y z
#    x 1.714680 0.000000 -0.000040 
#    y 0.000000 1.750930 0.000000 
#    z -0.000040 0.000000 1.768910 
# 
# From -- ./inp_files/113648.got.cif
#   From: 2010.05.17/outbox.cif.g08.bks.cpg/sg12_57_cif.got.tgz:113648.got - 2010.06.03 13:09:07.
