data_PCOD9216268
_publ_section_title
;
Structure prediction by ZEFSAII (Michael W. Deem and Ramdas Pophale) SiO2 
 PCOD9216268
Probable space group: C 2/M
;
_chemical_formula_sum "Si O2"
_cell_formula_units_Z 48
_cell_length_a 9.256319
_cell_length_b 15.086040
_cell_length_c 29.135918
_cell_angle_alpha 90.000000
_cell_angle_beta 36.099140
_cell_angle_gamma 90.000000
_cell_volume 2397.139940
_symmetry_space_group_name_H-M "C 2/M"
_symmetry_group_IT_number 12
_symmetry_cell_setting 'monoclinic'
loop_
_space_group_symop_operation_xyz
x,y,z
-x,y,-z
-x,-y,-z
x,-y,z
1/2+x,1/2+y,z
1/2-x,1/2+y,-z
1/2-x,1/2-y,-z
1/2+x,1/2-y,z
loop_
_atom_site_type_symbol
_atom_site_label
_atom_site_fract_x
_atom_site_fract_y
_atom_site_fract_z
Si Si1 0.700478 0.104079 0.989382
Si Si2 0.918134 0.258538 0.121788
Si Si3 0.064582 0.399289 0.343428
Si Si4 0.834256 0.345474 0.497063
Si Si5 0.214264 0.099869 0.349545
Si Si6 0.892713 0.260106 0.229210
O O1 0.580828 0.159644 0.062115
O O2 0.757549 0.000000 0.984163
O O3 0.500000 0.105174 0.000000
O O4 0.929295 0.166649 0.916703
O O5 0.802753 0.278318 0.201012
O O6 0.684790 0.245155 0.149353
O O7 0.141492 0.500000 0.315317
O O8 0.276295 0.331231 0.276314
O O9 0.980531 0.388605 0.417379
O O10 0.836142 0.379248 0.367768
O O11 0.750000 0.250000 0.500000
O O12 0.578699 0.394217 0.572600
O O13 0.000000 0.339735 0.500000
O O14 0.313030 0.166622 0.286133
O O15 0.288108 0.000000 0.318810
#
# Coordination Sequence:
#
# PCOD9216268 Si02
#       6
#     8   8   8   8   8   8
#     4  10  22  43  71  98 127 171 215 255 315 388
#     4  11  24  42  67  99 133 166 211 267 317 381
#     4  11  25  44  67  95 129 176 223 270 329 387
#     4  12  25  42  67  94 129 174 226 275 325 383
#     4  11  25  44  66  95 131 174 221 273 330 385
#     4  12  24  42  65  97 135 171 211 266 328 381
#
# _framework density 20.023862000000001
#
# number of rings (size 3 to 8) (size 9 to 14) (size 15 to 20)
#    0.000    0.833    5.000    2.000    2.333    5.333 
#    0.000    0.833    0.000    0.000    0.000    0.000 
#    0.000    0.000    0.000    0.000    0.000    0.000 
#
# Total GULP energy -134097.829651 kJ/mol
# GULP energy per Si atom -5587.409569 kJ/mol
# Density = 1.997829 g / cm^3
# Si number density = 20.023862 Si / 1000 Ang^3
#
#
#
# Elastic Constant Matrix: (Units=GPa)
#
#
# Indices 1 2 3 4 5 6 
#
# 1 64.6562 50.9817 21.7010 -0.0394 -6.8776 -0.0001
# 2 50.9817 156.2483 49.0677 0.0011 6.4599 -0.0015
# 3 21.7010 49.0677 80.6676 0.0197 9.2451 -0.0055
# 4 -0.0394 0.0011 0.0197 -158.1039 -0.0064 3.0952
# 5 -6.8776 6.4599 9.2451 -0.0064 41.1041 0.0016
# 6 -0.0001 -0.0015 -0.0055 3.0952 0.0016 27.9816
#
#
#
# Elastic Compliance Matrix: (Units=1/GPa)
#
#
# Indices 1 2 3 4 5 6 
#
# 1 0.022116 -0.006646 -0.002516 -0.000006 0.005311 0.000000
# 2 -0.006646 0.009909 -0.004038 0.000001 -0.001761 0.000000
# 3 -0.002516 -0.004038 0.015915 0.000003 -0.003366 0.000003
# 4 -0.000006 0.000001 0.000003 -0.006311 -0.000003 0.000698
# 5 0.005311 -0.001761 -0.003366 -0.000003 0.026251 -0.000002
# 6 0.000000 0.000000 0.000003 0.000698 -0.000002 0.035660
#
#
# Mechanical properties :
#
#
# Convention : Reuss Voigt Hill
#
# Bulk Modulus (GPa) = 46.42172 60.56364 53.49268
# Shear Modulus (GPa) = 36.46444 -5.81552 15.32446
#
# Velocity S-wave (km/s) = 4.27200 -1.70605 2.76942
# Velocity P-wave (km/s) = 6.89688 5.14107 6.08266
#
# Compressibility (1/GPa) = 0.02154164
#
# Stress axis : x y z
#
# Youngs Moduli (GPa) = 45.21651 100.91534 62.83266
#
# Poissons Ratio (x) = 0.67064 0.15808
# Poissons Ratio (y) = 0.30049 0.25371
# Poissons Ratio (z) = 0.11376 0.40749
#
# Static dielectric constant tensor:
#      x y z
#    x 1.694150 0.000000 -0.010010 
#    y 0.000000 1.702450 0.000000 
#    z -0.010010 0.000000 1.698570 
# 
# From -- ./inp_files/356288.got.cif
#   From: 2010.05.17/outbox.cif.g08.bks.cpg/sg12_179_cif.got.tgz:356288.got - 2010.06.03 13:09:07.
