data_PCOD9216900
_publ_section_title
;
Structure prediction by ZEFSAII (Michael W. Deem and Ramdas Pophale) SiO2 
 PCOD9216900
Probable space group: C 2/M
;
_chemical_formula_sum "Si O2"
_cell_formula_units_Z 56
_cell_length_a 9.764773
_cell_length_b 14.201360
_cell_length_c 25.877052
_cell_angle_alpha 90.000000
_cell_angle_beta 135.043208
_cell_angle_gamma 90.000000
_cell_volume 2535.503014
_symmetry_space_group_name_H-M "C 2/M"
_symmetry_group_IT_number 12
_symmetry_cell_setting 'monoclinic'
loop_
_space_group_symop_operation_xyz
x,y,z
-x,y,-z
-x,-y,-z
x,-y,z
1/2+x,1/2+y,z
1/2-x,1/2+y,-z
1/2-x,1/2-y,-z
1/2+x,1/2-y,z
loop_
_atom_site_type_symbol
_atom_site_label
_atom_site_fract_x
_atom_site_fract_y
_atom_site_fract_z
Si Si1 0.396527 0.244810 0.213388
Si Si2 0.117653 0.388201 0.958098
Si Si3 0.811378 0.888713 0.109531
Si Si4 0.060573 0.611622 0.599359
Si Si5 0.315857 0.282645 0.307249
Si Si6 0.317921 0.388339 0.913228
Si Si7 0.191801 0.112133 0.438465
O O1 0.434024 0.324545 0.179807
O O2 0.340918 0.292335 0.252486
O O3 0.602527 0.191931 0.270627
O O4 0.226430 0.175650 0.147723
O O5 0.157139 0.500000 0.969237
O O6 0.142738 0.362429 0.905675
O O7 0.903971 0.377649 0.923041
O O8 0.275930 0.352001 0.041638
O O9 0.861463 0.000000 0.122993
O O10 0.067449 0.500000 0.610926
O O11 0.137904 0.674487 0.666086
O O12 0.196073 0.631496 0.585598
O O13 0.841839 0.638193 0.523931
O O14 0.484380 0.339870 0.381094
O O15 0.322949 0.500000 0.902288
O O16 0.500000 0.369035 0.000000
O O17 0.167841 0.000000 0.434867
#
# Coordination Sequence:
#
# PCOD9216900 Si02
#       7
#     8   8   8   8   8   8   8
#     4  12  27  37  59  89 124 169 203 246 327 381
#     4   8  16  35  60  79 100 138 199 265 311 348
#     4   9  19  36  58  85 109 144 201 259 307 368
#     4   9  19  40  70  98 126 167 215 250 295 366
#     4  12  24  42  58  98 136 164 201 256 318 372
#     4  10  23  41  57  77 111 159 209 262 317 371
#     4   9  19  40  71  97 123 170 215 250 295 366
#
# _framework density 22.086345999999999
#
# number of rings (size 3 to 8) (size 9 to 14) (size 15 to 20)
#    0.000    2.143    1.429    3.000    4.000    2.857 
#    0.000    0.000    0.000    1.714    0.000    0.000 
#    0.000    0.000    0.000    0.000    0.000    0.000 
#
# Total GULP energy -156377.436950 kJ/mol
# GULP energy per Si atom -5584.908463 kJ/mol
# Density = 2.203608 g / cm^3
# Si number density = 22.086346 Si / 1000 Ang^3
#
#
#
# Elastic Constant Matrix: (Units=GPa)
#
#
# Indices 1 2 3 4 5 6 
#
# 1 42.6328 -12.5704 3.8312 0.0000 11.4532 0.0000
# 2 -12.5704 56.7317 28.5621 0.0000 9.0930 0.0000
# 3 3.8312 28.5621 80.1745 0.0000 15.4312 0.0000
# 4 0.0000 0.0000 0.0000 26.8217 0.0000 -3.4397
# 5 11.4532 9.0930 15.4312 0.0000 39.4813 0.0000
# 6 0.0000 0.0000 0.0000 -3.4397 0.0000 16.3476
#
#
#
# Elastic Compliance Matrix: (Units=1/GPa)
#
#
# Indices 1 2 3 4 5 6 
#
# 1 0.029035 0.009421 -0.002925 0.000000 -0.009449 0.000000
# 2 0.009421 0.024700 -0.008249 0.000000 -0.005197 0.000000
# 3 -0.002925 -0.008249 0.016244 0.000000 -0.003601 0.000000
# 4 0.000000 0.000000 0.000000 0.038317 0.000000 0.008062
# 5 -0.009449 -0.005197 -0.003601 0.000000 0.030674 0.000000
# 6 0.000000 0.000000 0.000000 0.008062 0.000000 0.062868
#
#
# Mechanical properties :
#
#
# Convention : Reuss Voigt Hill
#
# Bulk Modulus (GPa) = 15.04372 24.35386 19.69879
# Shear Modulus (GPa) = 21.97767 27.17786 24.57777
#
# Velocity S-wave (km/s) = 3.15791 3.51169 3.33949
# Velocity P-wave (km/s) = 4.48583 5.24340 4.87934
#
# Compressibility (1/GPa) = 0.06647292
#
# Stress axis : x y z
#
# Youngs Moduli (GPa) = 34.44096 40.48505 61.55954
#
# Poissons Ratio (x) = -0.38139 0.18005
# Poissons Ratio (y) = -0.32445 0.50783
# Poissons Ratio (z) = 0.10073 0.33398
#
# Static dielectric constant tensor:
#      x y z
#    x 1.882230 0.000000 0.026210 
#    y 0.000000 1.815380 0.000000 
#    z 0.026210 0.000000 1.835270 
# 
# From -- ./inp_files/358235.got.cif
#   From: 2010.05.17/outbox.cif.g08.bks.cpg/sg12_180_cif.got.tgz:358235.got - 2010.06.03 13:09:07.
