data_PCOD9216652
_publ_section_title
;
Structure prediction by ZEFSAII (Michael W. Deem and Ramdas Pophale) SiO2 
 PCOD9216652
Probable space group: C 2/M
;
_chemical_formula_sum "Si O2"
_cell_formula_units_Z 64
_cell_length_a 32.418465
_cell_length_b 15.374333
_cell_length_c 21.961731
_cell_angle_alpha 90.000000
_cell_angle_beta 18.513040
_cell_angle_gamma 90.000000
_cell_volume 3475.577990
_symmetry_space_group_name_H-M "C 2/M"
_symmetry_group_IT_number 12
_symmetry_cell_setting 'monoclinic'
loop_
_space_group_symop_operation_xyz
x,y,z
-x,y,-z
-x,-y,-z
x,-y,z
1/2+x,1/2+y,z
1/2-x,1/2+y,-z
1/2-x,1/2-y,-z
1/2+x,1/2-y,z
loop_
_atom_site_type_symbol
_atom_site_label
_atom_site_fract_x
_atom_site_fract_y
_atom_site_fract_z
Si Si1 0.049234 0.845227 0.241688
Si Si2 0.362304 0.762606 0.212979
Si Si3 0.027827 0.656229 0.330502
Si Si4 0.749352 0.336475 0.742275
Si Si5 0.762675 0.094654 0.919711
Si Si6 0.459967 0.402515 0.151918
Si Si7 0.783884 0.718746 0.831134
Si Si8 0.677192 0.597504 0.525366
O O1 0.013952 0.752105 0.320216
O O2 0.928312 0.891392 0.380395
O O3 0.122225 0.898167 0.191945
O O4 0.156046 0.823836 0.040436
O O5 0.283735 0.735119 0.262754
O O6 0.398641 0.672886 0.196483
O O7 0.282449 0.827717 0.366993
O O8 0.500000 0.802332 0.000000
O O9 0.130229 0.607042 0.144129
O O10 0.097300 0.674013 0.298331
O O11 0.884193 0.616926 0.535528
O O12 0.780702 0.295782 0.764106
O O13 0.615915 0.390408 0.934783
O O14 0.763570 0.000000 0.888599
O O15 0.779137 0.178893 0.854216
O O16 0.429357 0.500000 0.172688
O O17 0.399326 0.392339 0.303961
O O18 0.732843 0.500000 0.446148
#
# Coordination Sequence:
#
# PCOD9216652 Si02
#       8
#     8   8   8   8   8   8   8   8
#     4   9  16  33  55  78 106 148 194 223 259 315
#     4  10  23  39  59  82 111 145 179 234 289 336
#     4   9  18  31  54  80 111 151 182 220 270 321
#     4  11  19  34  57  79 113 148 184 219 274 332
#     4   9  18  32  51  80 115 146 185 232 268 310
#     4  10  23  40  61  85 107 142 187 233 282 335
#     4   9  18  32  54  79 110 151 188 219 264 328
#     4  11  20  36  62  85 108 142 189 232 275 333
#
# _framework density 18.414203000000001
#
# number of rings (size 3 to 8) (size 9 to 14) (size 15 to 20)
#    0.000    2.250    2.500    2.625    0.000    3.000 
#    0.000    0.625    0.000    4.500    0.000    0.000 
#    0.000    0.000    0.000    0.000    0.000    0.000 
#
# Total GULP energy -178436.702692 kJ/mol
# GULP energy per Si atom -5576.146959 kJ/mol
# Density = 1.837229 g / cm^3
# Si number density = 18.414203 Si / 1000 Ang^3
#
#
#
# Elastic Constant Matrix: (Units=GPa)
#
#
# Indices 1 2 3 4 5 6 
#
# 1 63.4994 -2.0209 12.8418 0.0000 -0.7723 0.0000
# 2 -2.0209 71.3413 25.7902 -0.0002 2.0929 0.0002
# 3 12.8418 25.7902 105.3079 -0.0001 -10.9380 0.0001
# 4 0.0000 -0.0002 -0.0001 9.0815 0.0000 -4.0497
# 5 -0.7723 2.0929 -10.9380 0.0000 19.9374 -0.0001
# 6 0.0000 0.0002 0.0001 -4.0497 -0.0001 14.5700
#
#
#
# Elastic Compliance Matrix: (Units=1/GPa)
#
#
# Indices 1 2 3 4 5 6 
#
# 1 0.016267 0.001353 -0.002401 0.000000 -0.000829 0.000000
# 2 0.001353 0.015783 -0.004451 0.000000 -0.004046 0.000000
# 3 -0.002401 -0.004451 0.011577 0.000000 0.006726 0.000000
# 4 0.000000 0.000000 0.000000 0.125693 0.000000 0.034936
# 5 -0.000829 -0.004046 0.006726 0.000000 0.054240 0.000000
# 6 0.000000 0.000000 0.000000 0.034936 0.000000 0.078345
#
#
# Mechanical properties :
#
#
# Convention : Reuss Voigt Hill
#
# Bulk Modulus (GPa) = 30.64671 34.81898 32.73285
# Shear Modulus (GPa) = 15.44265 22.28693 18.86479
#
# Velocity S-wave (km/s) = 2.89905 3.48273 3.20421
# Velocity P-wave (km/s) = 5.28063 5.92641 5.61282
#
# Compressibility (1/GPa) = 0.03262993
#
# Stress axis : x y z
#
# Youngs Moduli (GPa) = 61.47509 63.35906 86.37584
#
# Poissons Ratio (x) = -0.08574 0.20740
# Poissons Ratio (y) = -0.08319 0.38442
# Poissons Ratio (z) = 0.14761 0.28198
#
# Static dielectric constant tensor:
#      x y z
#    x 1.615720 0.000000 -0.000140 
#    y 0.000000 1.623270 0.000000 
#    z -0.000140 0.000000 1.659180 
# 
# From -- ./inp_files/330320.got.cif
#   From: 2010.05.17/outbox.cif.g08.bks.cpg/sg12_166_cif.got.tgz:330320.got - 2010.06.03 13:09:07.
