data_PCOD9216276
_publ_section_title
;
Structure prediction by ZEFSAII (Michael W. Deem and Ramdas Pophale) SiO2 
 PCOD9216276
Probable space group: C 2/M
;
_chemical_formula_sum "Si O2"
_cell_formula_units_Z 38
_cell_length_a 19.765289
_cell_length_b 9.900555
_cell_length_c 14.523776
_cell_angle_alpha 90.000000
_cell_angle_beta 144.992576
_cell_angle_gamma 90.000000
_cell_volume 1630.474114
_symmetry_space_group_name_H-M "C 2/M"
_symmetry_group_IT_number 12
_symmetry_cell_setting 'monoclinic'
loop_
_space_group_symop_operation_xyz
x,y,z
-x,y,-z
-x,-y,-z
x,-y,z
1/2+x,1/2+y,z
1/2-x,1/2+y,-z
1/2-x,1/2-y,-z
1/2+x,1/2-y,z
loop_
_atom_site_type_symbol
_atom_site_label
_atom_site_fract_x
_atom_site_fract_y
_atom_site_fract_z
Si Si1 0.735713 0.500000 0.318141
Si Si2 0.619473 0.649777 0.942298
Si Si3 0.590612 0.243313 0.175765
Si Si4 0.500000 0.500000 0.500000
Si Si5 0.843860 0.500000 0.630429
Si Si6 0.139285 0.221529 0.756505
Si Si7 0.998266 0.500000 0.367411
O O1 0.669616 0.361943 0.220033
O O2 0.745756 0.500000 0.441706
O O3 0.872242 0.500000 0.441402
O O4 0.657566 0.500000 0.012474
O O5 0.495432 0.683715 0.848167
O O6 0.607635 0.654697 0.819311
O O7 0.721258 0.752913 0.084931
O O8 0.660392 0.130267 0.309382
O O9 0.500000 0.183348 0.000000
O O10 0.597100 0.620163 0.631560
O O11 0.963873 0.500000 0.700200
O O12 0.072301 0.365287 0.686336
#
# Coordination Sequence:
#
# PCOD9216276 Si02
#       7
#     4   8   8   2   4   8   4
#     4  10  23  41  66  92 134 185 234 261 340 415
#     4  11  22  42  74  96 135 189 220 277 346 418
#     4  12  24  42  66 103 136 172 236 287 326 391
#     4  12  28  44  68 112 134 170 224 292 340 402
#     4  10  23  42  68  97 131 186 223 268 345 399
#     4  11  24  45  70 104 139 171 233 280 347 412
#     4  10  22  43  72  93 133 185 230 268 339 421
#
# _framework density 23.306104999999999
#
# number of rings (size 3 to 8) (size 9 to 14) (size 15 to 20)
#    0.632    0.421    5.263    1.263    0.000    2.947 
#    0.000    5.263    0.000    0.000    0.000    0.000 
#    0.000    0.000    0.000    0.000    0.000    0.000 
#
# Total GULP energy -106041.470787 kJ/mol
# GULP energy per Si atom -5581.130041 kJ/mol
# Density = 2.325306 g / cm^3
# Si number density = 23.306105 Si / 1000 Ang^3
#
#
#
# Elastic Constant Matrix: (Units=GPa)
#
#
# Indices 1 2 3 4 5 6 
#
# 1 51.1384 5.8773 -10.6026 0.0000 -2.1685 0.0000
# 2 5.8773 136.3963 9.6688 0.0000 4.1114 0.0000
# 3 -10.6026 9.6688 49.7686 0.0000 7.2898 0.0000
# 4 0.0000 0.0000 0.0000 37.1719 0.0000 -10.2833
# 5 -2.1685 4.1114 7.2898 0.0000 36.8169 0.0000
# 6 0.0000 0.0000 0.0000 -10.2833 0.0000 7.5387
#
#
#
# Elastic Compliance Matrix: (Units=1/GPa)
#
#
# Indices 1 2 3 4 5 6 
#
# 1 0.020664 -0.001228 0.004575 0.000000 0.000448 0.000000
# 2 -0.001228 0.007518 -0.001636 0.000000 -0.000588 0.000000
# 3 0.004575 -0.001636 0.021956 0.000000 -0.003895 0.000000
# 4 0.000000 0.000000 0.000000 0.043207 0.000000 0.058937
# 5 0.000448 -0.000588 -0.003895 0.000000 0.028025 0.000000
# 6 0.000000 0.000000 0.000000 0.058937 0.000000 0.213044
#
#
# Mechanical properties :
#
#
# Convention : Reuss Voigt Hill
#
# Bulk Modulus (GPa) = 18.67094 27.46559 23.06826
# Shear Modulus (GPa) = 14.33304 31.79614 23.06459
#
# Velocity S-wave (km/s) = 2.48259 3.69763 3.14926
# Velocity P-wave (km/s) = 4.03066 5.48090 4.81074
#
# Compressibility (1/GPa) = 0.05355918
#
# Stress axis : x y z
#
# Youngs Moduli (GPa) = 48.39449 133.01039 45.54549
#
# Poissons Ratio (x) = 0.16337 -0.20837
# Poissons Ratio (y) = 0.05944 0.07452
# Poissons Ratio (z) = -0.22141 0.21762
#
# Static dielectric constant tensor:
#      x y z
#    x 1.879570 0.000000 -0.067450 
#    y 0.000000 1.779140 0.000000 
#    z -0.067450 0.000000 1.853350 
# 
# From -- ./inp_files/288680.got.cif
#   From: 2010.05.17/outbox.cif.g08.bks.cpg/sg12_145_cif.got.tgz:288680.got - 2010.06.03 13:09:07.
