data_PCOD9216580
_publ_section_title
;
Structure prediction by ZEFSAII (Michael W. Deem and Ramdas Pophale) SiO2 
 PCOD9216580
Probable space group: C 2/M
;
_chemical_formula_sum "Si O2"
_cell_formula_units_Z 64
_cell_length_a 14.236329
_cell_length_b 18.042387
_cell_length_c 22.667711
_cell_angle_alpha 90.000000
_cell_angle_beta 145.776250
_cell_angle_gamma 90.000000
_cell_volume 3274.652313
_symmetry_space_group_name_H-M "C 2/M"
_symmetry_group_IT_number 12
_symmetry_cell_setting 'monoclinic'
loop_
_space_group_symop_operation_xyz
x,y,z
-x,y,-z
-x,-y,-z
x,-y,z
1/2+x,1/2+y,z
1/2-x,1/2+y,-z
1/2-x,1/2-y,-z
1/2+x,1/2-y,z
loop_
_atom_site_type_symbol
_atom_site_label
_atom_site_fract_x
_atom_site_fract_y
_atom_site_fract_z
Si Si1 0.112103 0.691391 0.405328
Si Si2 0.848804 0.588279 0.467536
Si Si3 0.801502 0.086716 0.900128
Si Si4 0.412059 0.836959 0.870280
Si Si5 0.996878 0.677164 0.781456
Si Si6 0.254296 0.311602 0.774157
Si Si7 0.945361 0.845644 0.756049
Si Si8 0.278068 0.914360 0.909579
O O1 0.250000 0.750000 0.500000
O O2 0.114893 0.620002 0.449083
O O3 0.110199 0.667757 0.334961
O O4 0.927742 0.725013 0.321644
O O5 0.826544 0.500000 0.455105
O O6 0.679761 0.629435 0.359798
O O7 0.000000 0.605835 0.500000
O O8 0.673560 0.133811 0.873703
O O9 0.740331 0.114408 0.804897
O O10 0.779812 0.000000 0.900510
O O11 0.000000 0.101957 0.000000
O O12 0.404591 0.842053 0.795081
O O13 0.376065 0.750575 0.864531
O O14 0.288796 0.885226 0.847475
O O15 0.591963 0.864768 0.986019
O O16 0.030324 0.765160 0.794981
O O17 0.327365 0.336262 0.750638
O O18 0.093621 0.903505 0.838575
O O19 0.326803 0.000000 0.938150
#
# Coordination Sequence:
#
# PCOD9216580 Si02
#       8
#     8   8   8   8   8   8   8   8
#     4  11  21  40  66  94 129 165 212 257 319 393
#     4  11  23  40  65  96 131 164 204 265 327 384
#     4  10  23  38  57  90 129 166 200 248 316 388
#     4  10  23  41  62  91 123 163 217 264 313 374
#     4  10  23  40  64  91 124 168 209 265 314 375
#     4  10  23  38  63  92 126 161 205 264 313 378
#     4  11  22  41  63  95 124 164 215 263 320 374
#     4  11  24  41  65  92 126 173 217 267 322 381
#
# _framework density 19.544059000000001
#
# number of rings (size 3 to 8) (size 9 to 14) (size 15 to 20)
#    0.000    1.500    2.500    2.625    5.250    5.000 
#    0.000    0.000    0.000    0.000    0.000    1.750 
#    0.000    0.000    0.000    0.000    0.000    0.000 
#
# Total GULP energy -178309.831640 kJ/mol
# GULP energy per Si atom -5572.182239 kJ/mol
# Density = 1.949958 g / cm^3
# Si number density = 19.544059 Si / 1000 Ang^3
#
#
#
# Elastic Constant Matrix: (Units=GPa)
#
#
# Indices 1 2 3 4 5 6 
#
# 1 97.3636 27.4300 35.8105 0.0000 -8.1070 0.0000
# 2 27.4300 79.1019 36.1056 0.0001 2.6265 0.0001
# 3 35.8105 36.1056 84.7074 0.0000 9.7623 0.0001
# 4 0.0000 0.0001 0.0000 15.7114 0.0000 4.4667
# 5 -8.1070 2.6265 9.7623 0.0000 30.0899 0.0001
# 6 0.0000 0.0001 0.0001 4.4667 0.0001 24.9287
#
#
#
# Elastic Compliance Matrix: (Units=1/GPa)
#
#
# Indices 1 2 3 4 5 6 
#
# 1 0.013338 -0.002414 -0.005244 0.000000 0.005506 0.000000
# 2 -0.002414 0.016153 -0.005845 0.000000 -0.000164 0.000000
# 3 -0.005244 -0.005845 0.017263 0.000000 -0.006504 0.000000
# 4 0.000000 0.000000 0.000000 0.067064 0.000000 -0.012017
# 5 0.005506 -0.000164 -0.006504 0.000000 0.036841 0.000000
# 6 0.000000 0.000000 0.000000 -0.012017 0.000000 0.042268
#
#
# Mechanical properties :
#
#
# Convention : Reuss Voigt Hill
#
# Bulk Modulus (GPa) = 50.64204 51.09613 50.86908
# Shear Modulus (GPa) = 22.07332 24.93445 23.50388
#
# Velocity S-wave (km/s) = 3.36432 3.57572 3.47163
# Velocity P-wave (km/s) = 6.40777 6.57636 6.49261
#
# Compressibility (1/GPa) = 0.01974644
#
# Stress axis : x y z
#
# Youngs Moduli (GPa) = 74.97224 61.90935 57.92608
#
# Poissons Ratio (x) = 0.14947 0.30378
# Poissons Ratio (y) = 0.18101 0.33859
# Poissons Ratio (z) = 0.39317 0.36188
#
# Static dielectric constant tensor:
#      x y z
#    x 1.739330 0.000000 0.007730 
#    y 0.000000 1.670760 0.000000 
#    z 0.007730 0.000000 1.718630 
# 
# From -- ./inp_files/340884.got.cif
#   From: 2010.05.17/outbox.cif.g08.bks.cpg/sg12_171_cif.got.tgz:340884.got - 2010.06.03 13:09:07.
