data_PCOD9216378
_publ_section_title
;
Structure prediction by ZEFSAII (Michael W. Deem and Ramdas Pophale) SiO2 
 PCOD9216378
Probable space group: C 2/M
;
_chemical_formula_sum "Si O2"
_cell_formula_units_Z 44
_cell_length_a 27.408312
_cell_length_b 9.595503
_cell_length_c 9.166830
_cell_angle_alpha 90.000000
_cell_angle_beta 62.060244
_cell_angle_gamma 90.000000
_cell_volume 2129.838298
_symmetry_space_group_name_H-M "C 2/M"
_symmetry_group_IT_number 12
_symmetry_cell_setting 'monoclinic'
loop_
_space_group_symop_operation_xyz
x,y,z
-x,y,-z
-x,-y,-z
x,-y,z
1/2+x,1/2+y,z
1/2-x,1/2+y,-z
1/2-x,1/2-y,-z
1/2+x,1/2-y,z
loop_
_atom_site_type_symbol
_atom_site_label
_atom_site_fract_x
_atom_site_fract_y
_atom_site_fract_z
Si Si1 0.900559 0.659969 0.490331
Si Si2 0.796771 0.759290 0.090263
Si Si3 0.305717 0.833660 0.392712
Si Si4 0.595773 0.659183 0.223934
Si Si5 0.986389 0.660380 0.852176
Si Si6 0.265682 0.000000 0.925406
O O1 0.890504 0.500000 0.555950
O O2 0.852273 0.699569 0.446571
O O3 0.904270 0.758349 0.624277
O O4 0.957639 0.662588 0.321018
O O5 0.822928 0.714260 0.206491
O O6 0.749031 0.874712 0.172430
O O7 0.842566 0.835805 0.927060
O O8 0.777493 0.622540 0.031782
O O9 0.250000 0.750000 0.500000
O O10 0.297407 0.000000 0.403550
O O11 0.578302 0.500000 0.268348
O O12 0.556694 0.739211 0.165417
O O13 0.965412 0.500000 0.881608
O O14 0.000000 0.697918 0.000000
#
# Coordination Sequence:
#
# PCOD9216378 Si02
#       6
#     8   8   8   8   8   4
#     4  10  24  43  65  94 126 168 216 262 315 381
#     4  11  24  43  64  96 127 171 219 263 324 381
#     4  11  26  42  65  94 131 169 214 263 319 378
#     4  12  26  41  65  97 131 167 211 265 322 377
#     4  10  22  44  72  96 124 164 214 263 317 386
#     4  10  24  40  70  88 132 168 222 266 314 380
#
# _framework density 20.658846
#
# number of rings (size 3 to 8) (size 9 to 14) (size 15 to 20)
#    0.000    1.273    1.818    2.182    8.909    5.455 
#    0.000    0.000    0.000    0.000    0.000    0.000 
#    0.000    0.000    0.000    0.000    0.000    0.000 
#
# Total GULP energy -122567.381340 kJ/mol
# GULP energy per Si atom -5571.244606 kJ/mol
# Density = 2.061183 g / cm^3
# Si number density = 20.658846 Si / 1000 Ang^3
#
#
#
# Elastic Constant Matrix: (Units=GPa)
#
#
# Indices 1 2 3 4 5 6 
#
# 1 77.1047 60.7451 29.5804 0.0000 31.9072 0.0000
# 2 60.7451 159.5558 56.4510 0.0000 44.4921 0.0000
# 3 29.5804 56.4510 116.3587 0.0000 37.8337 0.0000
# 4 0.0000 0.0000 0.0000 19.6596 0.0000 18.0565
# 5 31.9072 44.4921 37.8337 0.0000 43.1057 0.0000
# 6 0.0000 0.0000 0.0000 18.0565 0.0000 5.7279
#
#
#
# Elastic Compliance Matrix: (Units=1/GPa)
#
#
# Indices 1 2 3 4 5 6 
#
# 1 0.021464 -0.005363 0.000716 0.000000 -0.010980 0.000000
# 2 -0.005363 0.010432 -0.002081 0.000000 -0.004971 0.000000
# 3 0.000716 -0.002081 0.012448 0.000000 -0.009307 0.000000
# 4 0.000000 0.000000 0.000000 -0.026838 0.000000 0.084602
# 5 -0.010980 -0.004971 -0.009307 0.000000 0.044626 0.000000
# 6 0.000000 0.000000 0.000000 0.084602 0.000000 -0.092113
#
#
# Mechanical properties :
#
#
# Convention : Reuss Voigt Hill
#
# Bulk Modulus (GPa) = 32.37694 71.84136 52.10915
# Shear Modulus (GPa) = -802.64338 27.44815 -387.59761
#
# Velocity S-wave (km/s) = -19.73237 3.64900 -13.71224
# Velocity P-wave (km/s) = 22.43767 7.25288 15.01407
#
# Compressibility (1/GPa) = 0.03088618
#
# Stress axis : x y z
#
# Youngs Moduli (GPa) = 46.59036 95.86310 80.33338
#
# Poissons Ratio (x) = 0.51410 -0.05748
# Poissons Ratio (y) = 0.24986 0.16720
# Poissons Ratio (z) = -0.03334 0.19952
#
# Static dielectric constant tensor:
#      x y z
#    x 1.789440 0.000000 -0.053340 
#    y 0.000000 1.696960 0.000000 
#    z -0.053340 0.000000 1.770260 
# 
# From -- ./inp_files/107994.got.cif
#   From: 2010.05.17/outbox.cif.g08.bks.cpg/sg12_54_cif.got.tgz:107994.got - 2010.06.03 13:09:07.
