data_PCOD9216653
_publ_section_title
;
Structure prediction by ZEFSAII (Michael W. Deem and Ramdas Pophale) SiO2 
 PCOD9216653
Probable space group: C 2/M
;
_chemical_formula_sum "Si O2"
_cell_formula_units_Z 60
_cell_length_a 8.798425
_cell_length_b 34.271648
_cell_length_c 10.596834
_cell_angle_alpha 90.000000
_cell_angle_beta 71.020137
_cell_angle_gamma 90.000000
_cell_volume 3021.611663
_symmetry_space_group_name_H-M "C 2/M"
_symmetry_group_IT_number 12
_symmetry_cell_setting 'monoclinic'
loop_
_space_group_symop_operation_xyz
x,y,z
-x,y,-z
-x,-y,-z
x,-y,z
1/2+x,1/2+y,z
1/2-x,1/2+y,-z
1/2-x,1/2-y,-z
1/2+x,1/2-y,z
loop_
_atom_site_type_symbol
_atom_site_label
_atom_site_fract_x
_atom_site_fract_y
_atom_site_fract_z
Si Si1 0.000000 0.758205 0.500000
Si Si2 0.015502 0.773502 0.144952
Si Si3 0.845483 0.043763 0.370548
Si Si4 0.137540 0.300915 0.856625
Si Si5 0.720869 0.543855 0.312659
Si Si6 0.867377 0.612896 0.637534
Si Si7 0.232977 0.803686 0.624892
Si Si8 0.065673 0.384913 0.837857
O O1 0.887052 0.786936 0.449415
O O2 0.873946 0.728298 0.598125
O O3 0.195184 0.783283 0.138424
O O4 0.944764 0.731561 0.210207
O O5 0.885567 0.804617 0.224230
O O6 0.000000 0.771722 0.000000
O O7 0.794665 0.047542 0.531485
O O8 0.764284 0.079092 0.320226
O O9 0.037954 0.046521 0.313444
O O10 0.797731 0.000000 0.341719
O O11 0.164902 0.344252 0.799164
O O12 0.000000 0.306588 0.000000
O O13 0.781597 0.500000 0.269009
O O14 0.828797 0.577619 0.225609
O O15 0.803623 0.653337 0.594521
O O16 0.000000 0.598981 0.500000
O O17 0.935681 0.619284 0.759969
O O18 0.000000 0.388653 0.000000
#
# Coordination Sequence:
#
# PCOD9216653 Si02
#       8
#     4   8   8   8   8   8   8   8
#     4  10  24  44  60  86 128 172 204 274 324 374
#     4  11  23  39  65  88 117 168 214 266 311 380
#     4   9  20  41  69 100 127 160 210 263 310 380
#     4  10  23  39  59  87 124 168 213 258 310 375
#     4   9  19  41  70  98 129 164 206 254 319 386
#     4  12  25  41  65  98 127 168 218 267 309 382
#     4  11  25  41  63  92 128 164 216 264 328 376
#     4  11  26  42  62  93 136 169 208 265 319 378
#
# _framework density 19.856952
#
# number of rings (size 3 to 8) (size 9 to 14) (size 15 to 20)
#    0.000    1.600    2.000    3.200    9.333    3.200 
#    0.000    0.667    0.000    1.600    0.000    0.000 
#    0.000    0.000    0.000    0.000    0.000    0.000 
#
# Total GULP energy -167336.223688 kJ/mol
# GULP energy per Si atom -5577.874123 kJ/mol
# Density = 1.981176 g / cm^3
# Si number density = 19.856952 Si / 1000 Ang^3
#
#
#
# Elastic Constant Matrix: (Units=GPa)
#
#
# Indices 1 2 3 4 5 6 
#
# 1 135.5659 85.6109 38.8935 0.0000 10.3791 0.0000
# 2 85.6109 159.0231 13.5575 0.0000 3.8354 0.0000
# 3 38.8935 13.5575 39.1072 0.0000 4.0143 0.0000
# 4 0.0000 0.0000 0.0000 16.8133 0.0000 -11.7263
# 5 10.3791 3.8354 4.0143 0.0000 34.4606 0.0000
# 6 0.0000 0.0000 0.0000 -11.7263 0.0000 39.4451
#
#
#
# Elastic Compliance Matrix: (Units=1/GPa)
#
#
# Indices 1 2 3 4 5 6 
#
# 1 0.016035 -0.007455 -0.013109 0.000000 -0.002473 0.000000
# 2 -0.007455 0.009953 0.003894 0.000000 0.000684 0.000000
# 3 -0.013109 0.003894 0.037344 0.000000 -0.000835 0.000000
# 4 0.000000 0.000000 0.000000 0.075034 0.000000 0.022306
# 5 -0.002473 0.000684 -0.000835 0.000000 0.029785 0.000000
# 6 0.000000 0.000000 0.000000 0.022306 0.000000 0.031983
#
#
# Mechanical properties :
#
#
# Convention : Reuss Voigt Hill
#
# Bulk Modulus (GPa) = 33.34298 67.75778 50.55038
# Shear Modulus (GPa) = 20.53633 31.18609 25.86121
#
# Velocity S-wave (km/s) = 3.21941 3.96730 3.61276
# Velocity P-wave (km/s) = 5.53602 7.42853 6.55097
#
# Compressibility (1/GPa) = 0.02999132
#
# Stress axis : x y z
#
# Youngs Moduli (GPa) = 62.36530 100.46787 26.77826
#
# Poissons Ratio (x) = 0.74900 0.35103
# Poissons Ratio (y) = 0.46494 -0.10426
# Poissons Ratio (z) = 0.81752 -0.39117
#
# Static dielectric constant tensor:
#      x y z
#    x 1.694140 0.000000 0.014770 
#    y 0.000000 1.726430 0.000000 
#    z 0.014770 0.000000 1.805250 
# 
# From -- ./inp_files/125699.got.cif
#   From: 2010.05.17/outbox.cif.g08.bks.cpg/sg12_63_cif.got.tgz:125699.got - 2010.06.03 13:09:07.
