data_PCOD9216878
_publ_section_title
;
Structure prediction by ZEFSAII (Michael W. Deem and Ramdas Pophale) SiO2 
 PCOD9216878
Probable space group: C 2/M
;
_chemical_formula_sum "Si O2"
_cell_formula_units_Z 38
_cell_length_a 8.931168
_cell_length_b 20.579135
_cell_length_c 11.282781
_cell_angle_alpha 90.000000
_cell_angle_beta 51.900446
_cell_angle_gamma 90.000000
_cell_volume 1631.898179
_symmetry_space_group_name_H-M "C 2/M"
_symmetry_group_IT_number 12
_symmetry_cell_setting 'monoclinic'
loop_
_space_group_symop_operation_xyz
x,y,z
-x,y,-z
-x,-y,-z
x,-y,z
1/2+x,1/2+y,z
1/2-x,1/2+y,-z
1/2-x,1/2-y,-z
1/2+x,1/2-y,z
loop_
_atom_site_type_symbol
_atom_site_label
_atom_site_fract_x
_atom_site_fract_y
_atom_site_fract_z
Si Si1 0.347066 0.076734 0.243630
Si Si2 0.015092 0.762788 0.865185
Si Si3 0.000000 0.000000 0.000000
Si Si4 0.000000 0.848687 0.500000
Si Si5 0.269117 0.608489 0.969120
Si Si6 0.940912 0.719266 0.655995
O O1 0.271889 0.092385 0.148051
O O2 0.192103 0.109694 0.406458
O O3 0.340087 0.000000 0.267030
O O4 0.569970 0.095620 0.135007
O O5 0.220151 0.796004 0.771213
O O6 0.855060 0.818421 0.936228
O O7 0.026334 0.716105 0.745801
O O8 0.000000 0.727746 0.000000
O O9 0.083560 0.057363 0.048344
O O10 0.017898 0.796504 0.385359
O O11 0.000000 0.689195 0.500000
#
# Coordination Sequence:
#
# PCOD9216878 Si02
#       6
#     8   8   2   4   8   8
#     4  11  21  41  69  99 127 177 226 274 335 399
#     4  12  24  43  67 102 132 176 229 284 331 399
#     4  12  20  42  64  98 132 170 208 274 352 380
#     4  10  23  40  70  92 134 173 228 270 332 408
#     4  11  22  40  68  98 134 171 219 284 333 397
#     4  10  24  45  65  91 140 181 221 272 342 402
#
# _framework density 23.285765999999999
#
# number of rings (size 3 to 8) (size 9 to 14) (size 15 to 20)
#    0.632    0.421    5.263    2.211    0.000    3.368 
#    0.000    0.000    0.000    1.263    0.000    0.000 
#    0.000    0.000    0.000    0.000    0.000    0.000 
#
# Total GULP energy -105813.125007 kJ/mol
# GULP energy per Si atom -5569.111842 kJ/mol
# Density = 2.323277 g / cm^3
# Si number density = 23.285766 Si / 1000 Ang^3
#
#
#
# Elastic Constant Matrix: (Units=GPa)
#
#
# Indices 1 2 3 4 5 6 
#
# 1 103.4522 4.0343 29.4084 0.0000 11.8591 0.0000
# 2 4.0343 133.0500 21.2709 0.0000 -5.8980 0.0000
# 3 29.4084 21.2709 119.0089 0.0000 -10.3966 0.0000
# 4 0.0000 0.0000 0.0000 14.2202 0.0000 -15.5396
# 5 11.8591 -5.8980 -10.3966 0.0000 42.5531 0.0000
# 6 0.0000 0.0000 0.0000 -15.5396 0.0000 25.4296
#
#
#
# Elastic Compliance Matrix: (Units=1/GPa)
#
#
# Indices 1 2 3 4 5 6 
#
# 1 0.010967 -0.000015 -0.003039 0.000000 -0.003801 0.000000
# 2 -0.000015 0.007761 -0.001317 0.000000 0.000758 0.000000
# 3 -0.003039 -0.001317 0.009653 0.000000 0.003023 0.000000
# 4 0.000000 0.000000 0.000000 0.211671 0.000000 0.129348
# 5 -0.003801 0.000758 0.003023 0.000000 0.025403 0.000000
# 6 0.000000 0.000000 0.000000 0.129348 0.000000 0.118366
#
#
# Mechanical properties :
#
#
# Convention : Reuss Voigt Hill
#
# Bulk Modulus (GPa) = 50.92330 51.65980 51.29155
# Shear Modulus (GPa) = 12.52788 36.49377 24.51082
#
# Velocity S-wave (km/s) = 2.32201 3.96310 3.24791
# Velocity P-wave (km/s) = 5.39493 6.57076 6.01166
#
# Compressibility (1/GPa) = 0.01963738
#
# Stress axis : x y z
#
# Youngs Moduli (GPa) = 91.18607 128.85594 103.59177
#
# Poissons Ratio (x) = 0.00195 0.31485
# Poissons Ratio (y) = 0.00138 0.13644
# Poissons Ratio (z) = 0.27714 0.16972
#
# Static dielectric constant tensor:
#      x y z
#    x 1.930310 0.000000 0.017280 
#    y 0.000000 1.860930 0.000000 
#    z 0.017280 0.000000 1.937090 
# 
# From -- ./inp_files/121644.got.cif
#   From: 2010.05.17/outbox.cif.g08.bks.cpg/sg12_61_cif.got.tgz:121644.got - 2010.06.03 13:09:07.
