data_PCOD9216630
_publ_section_title
;
Structure prediction by ZEFSAII (Michael W. Deem and Ramdas Pophale) SiO2 
 PCOD9216630
Probable space group: C 2/M
;
_chemical_formula_sum "Si O2"
_cell_formula_units_Z 48
_cell_length_a 12.514484
_cell_length_b 13.860702
_cell_length_c 12.782527
_cell_angle_alpha 90.000000
_cell_angle_beta 104.621422
_cell_angle_gamma 90.000000
_cell_volume 2145.445175
_symmetry_space_group_name_H-M "C 2/M"
_symmetry_group_IT_number 12
_symmetry_cell_setting 'monoclinic'
loop_
_space_group_symop_operation_xyz
x,y,z
-x,y,-z
-x,-y,-z
x,-y,z
1/2+x,1/2+y,z
1/2-x,1/2+y,-z
1/2-x,1/2-y,-z
1/2+x,1/2-y,z
loop_
_atom_site_type_symbol
_atom_site_label
_atom_site_fract_x
_atom_site_fract_y
_atom_site_fract_z
Si Si1 0.954370 0.885118 0.321021
Si Si2 0.834803 0.883676 0.510513
Si Si3 0.792570 0.745087 0.219412
Si Si4 0.888929 0.609279 0.832565
Si Si5 0.146473 0.608417 0.926643
Si Si6 0.620989 0.116319 0.570217
O O1 0.886890 0.861041 0.411419
O O2 0.888488 0.823966 0.220811
O O3 0.079049 0.855004 0.377507
O O4 0.949522 0.000000 0.301882
O O5 0.710902 0.855103 0.504917
O O6 0.836525 0.000000 0.513438
O O7 0.686999 0.806273 0.230712
O O8 0.775083 0.684013 0.110330
O O9 0.839555 0.669688 0.315745
O O10 0.861031 0.500000 0.787056
O O11 0.020113 0.622354 0.854425
O O12 0.862271 0.612185 0.950279
O O13 0.180238 0.500000 0.906502
O O14 0.500000 0.143053 0.500000
O O15 0.622843 0.000000 0.585741
#
# Coordination Sequence:
#
# PCOD9216630 Si02
#       6
#     8   8   8   8   8   8
#     4   9  19  34  54  80 108 147 190 237 286 327
#     4   8  17  37  55  68 105 153 192 229 275 332
#     4  12  22  31  60  91 114 141 195 243 283 337
#     4   9  20  40  62  84 114 152 190 235 290 351
#     4   9  20  40  61  83 117 154 188 232 291 354
#     4  10  23  39  53  78 118 160 193 231 284 341
#
# _framework density 22.372979999999998
#
# number of rings (size 3 to 8) (size 9 to 14) (size 15 to 20)
#    0.000    2.500    0.000    3.500    4.667    2.000 
#    0.000    3.333    0.000    0.000    0.000    7.000 
#    0.000    0.000    0.000    0.000    0.000    0.000 
#
# Total GULP energy -134091.531941 kJ/mol
# GULP energy per Si atom -5587.147164 kJ/mol
# Density = 2.232206 g / cm^3
# Si number density = 22.372980 Si / 1000 Ang^3
#
#
#
# Elastic Constant Matrix: (Units=GPa)
#
#
# Indices 1 2 3 4 5 6 
#
# 1 93.5833 26.0321 7.8957 0.0000 7.8309 0.0000
# 2 26.0321 107.6580 25.4733 0.0000 1.2685 0.0000
# 3 7.8957 25.4733 37.0032 0.0000 4.1708 0.0000
# 4 0.0000 0.0000 0.0000 30.6276 0.0000 5.7801
# 5 7.8309 1.2685 4.1708 0.0000 25.5674 0.0000
# 6 0.0000 0.0000 0.0000 5.7801 0.0000 21.8866
#
#
#
# Elastic Compliance Matrix: (Units=1/GPa)
#
#
# Indices 1 2 3 4 5 6 
#
# 1 0.011756 -0.002748 -0.000231 0.000000 -0.003427 0.000000
# 2 -0.002748 0.011751 -0.007673 0.000000 0.001510 0.000000
# 3 -0.000231 -0.007673 0.032911 0.000000 -0.004917 0.000000
# 4 0.000000 0.000000 0.000000 0.034363 0.000000 -0.009075
# 5 -0.003427 0.001510 -0.004917 0.000000 0.040889 0.000000
# 6 0.000000 0.000000 0.000000 -0.009075 0.000000 0.048087
#
#
# Mechanical properties :
#
#
# Convention : Reuss Voigt Hill
#
# Bulk Modulus (GPa) = 28.47861 39.67185 34.07523
# Shear Modulus (GPa) = 23.50015 27.53921 25.51968
#
# Velocity S-wave (km/s) = 3.24447 3.51224 3.38101
# Velocity P-wave (km/s) = 5.17611 5.84964 5.52315
#
# Compressibility (1/GPa) = 0.03511407
#
# Stress axis : x y z
#
# Youngs Moduli (GPa) = 85.06143 85.09984 30.38542
#
# Poissons Ratio (x) = 0.23383 0.00701
# Poissons Ratio (y) = 0.23373 0.23316
# Poissons Ratio (z) = 0.01963 0.65300
#
# Static dielectric constant tensor:
#      x y z
#    x 1.823710 0.000000 0.019600 
#    y 0.000000 1.856660 0.000000 
#    z 0.019600 0.000000 1.880530 
# 
# From -- ./inp_files/204501.got.cif
#   From: 2010.05.17/outbox.cif.g08.bks.cpg/sg12_103_cif.got.tgz:204501.got - 2010.06.03 13:09:07.
