data_PCOD9216269
_publ_section_title
;
Structure prediction by ZEFSAII (Michael W. Deem and Ramdas Pophale) SiO2 
 PCOD9216269
Probable space group: C 2/M
;
_chemical_formula_sum "Si O2"
_cell_formula_units_Z 64
_cell_length_a 30.202949
_cell_length_b 15.705497
_cell_length_c 9.155257
_cell_angle_alpha 90.000000
_cell_angle_beta 41.437842
_cell_angle_gamma 90.000000
_cell_volume 2874.107613
_symmetry_space_group_name_H-M "C 2/M"
_symmetry_group_IT_number 12
_symmetry_cell_setting 'monoclinic'
loop_
_space_group_symop_operation_xyz
x,y,z
-x,y,-z
-x,-y,-z
x,-y,z
1/2+x,1/2+y,z
1/2-x,1/2+y,-z
1/2-x,1/2-y,-z
1/2+x,1/2-y,z
loop_
_atom_site_type_symbol
_atom_site_label
_atom_site_fract_x
_atom_site_fract_y
_atom_site_fract_z
Si Si1 0.841983 0.324173 0.080764
Si Si2 0.161511 0.181306 0.144875
Si Si3 0.715107 0.102633 0.283904
Si Si4 0.912744 0.724403 0.419126
Si Si5 0.591771 0.688121 0.872563
Si Si6 0.481378 0.093973 0.716157
Si Si7 0.226077 0.098862 0.541248
Si Si8 0.046920 0.099789 0.255063
O O1 0.868314 0.260702 0.139617
O O2 0.770760 0.355955 0.309548
O O3 0.837380 0.270220 0.945134
O O4 0.901660 0.392228 0.923222
O O5 0.120818 0.204794 0.391103
O O6 0.119543 0.116689 0.145362
O O7 0.235346 0.141087 0.962505
O O8 0.645053 0.152215 0.454713
O O9 0.749577 0.123992 0.355681
O O10 0.708510 0.000000 0.286776
O O11 0.928801 0.770003 0.227271
O O12 0.977254 0.671845 0.316078
O O13 0.648444 0.616838 0.708194
O O14 0.541426 0.647895 0.115500
O O15 0.500000 0.095189 0.500000
O O16 0.499009 0.000000 0.732998
O O17 0.240052 0.000000 0.496204
O O18 0.000000 0.134434 0.500000
O O19 0.034452 0.000000 0.265921
#
# Coordination Sequence:
#
# PCOD9216269 Si02
#       8
#     8   8   8   8   8   8   8   8
#     4  11  21  40  66  96 129 177 232 272 332 402
#     4  11  23  39  69  96 135 174 227 274 337 404
#     4  11  22  41  66  97 138 183 225 276 340 403
#     4  12  25  43  65 102 139 172 226 286 343 396
#     4  11  23  40  69  99 134 171 222 280 340 399
#     4  11  25  46  68  95 134 185 233 276 334 409
#     4  11  21  39  66  97 133 175 223 276 340 405
#     4  10  22  43  71  98 129 177 231 274 329 408
#
# _framework density 22.267780999999999
#
# number of rings (size 3 to 8) (size 9 to 14) (size 15 to 20)
#    0.000    1.000    5.000    3.000    3.500    0.500 
#    0.000    4.375    0.000    1.500    0.000    0.000 
#    0.000    0.000    0.000    0.000    0.000    0.000 
#
# Total GULP energy -178942.047198 kJ/mol
# GULP energy per Si atom -5591.938975 kJ/mol
# Density = 2.221710 g / cm^3
# Si number density = 22.267781 Si / 1000 Ang^3
#
#
#
# Elastic Constant Matrix: (Units=GPa)
#
#
# Indices 1 2 3 4 5 6 
#
# 1 62.3204 26.2477 26.9991 0.0000 9.8307 0.0000
# 2 26.2477 73.9136 31.8978 0.0000 15.3774 0.0000
# 3 26.9991 31.8978 144.6379 0.0000 15.0363 0.0000
# 4 0.0000 0.0000 0.0000 33.3753 0.0000 5.6874
# 5 9.8307 15.3774 15.0363 0.0000 37.9236 0.0000
# 6 0.0000 0.0000 0.0000 5.6874 0.0000 24.6093
#
#
#
# Elastic Compliance Matrix: (Units=1/GPa)
#
#
# Indices 1 2 3 4 5 6 
#
# 1 0.019688 -0.005625 -0.002233 0.000000 -0.001937 0.000000
# 2 -0.005625 0.017511 -0.002321 0.000000 -0.004722 0.000000
# 3 -0.002233 -0.002321 0.008015 0.000000 -0.001658 0.000000
# 4 0.000000 0.000000 0.000000 0.031191 0.000000 -0.007208
# 5 -0.001937 -0.004722 -0.001658 0.000000 0.029443 0.000000
# 6 0.000000 0.000000 0.000000 -0.007208 0.000000 0.042301
#
#
# Mechanical properties :
#
#
# Convention : Reuss Voigt Hill
#
# Bulk Modulus (GPa) = 40.23156 50.12900 45.18028
# Shear Modulus (GPa) = 28.28190 32.23013 30.25601
#
# Velocity S-wave (km/s) = 3.56769 3.80858 3.69010
# Velocity P-wave (km/s) = 5.92263 6.47311 6.20398
#
# Compressibility (1/GPa) = 0.02485611
#
# Stress axis : x y z
#
# Youngs Moduli (GPa) = 50.79175 57.10789 124.76789
#
# Poissons Ratio (x) = 0.32121 0.27864
# Poissons Ratio (y) = 0.28569 0.28957
# Poissons Ratio (z) = 0.11343 0.13254
#
# Static dielectric constant tensor:
#      x y z
#    x 1.836860 0.000000 -0.030960 
#    y 0.000000 1.806660 0.000000 
#    z -0.030960 0.000000 1.873240 
# 
# From -- ./inp_files/112794.got.cif
#   From: 2010.05.17/outbox.cif.g08.bks.cpg/sg12_57_cif.got.tgz:112794.got - 2010.06.03 13:09:07.
