data_PCOD9216316
_publ_section_title
;
Structure prediction by ZEFSAII (Michael W. Deem and Ramdas Pophale) SiO2 
 PCOD9216316
Probable space group: C 2/M
;
_chemical_formula_sum "Si O2"
_cell_formula_units_Z 42
_cell_length_a 20.686318
_cell_length_b 11.807027
_cell_length_c 11.743368
_cell_angle_alpha 90.000000
_cell_angle_beta 126.734574
_cell_angle_gamma 90.000000
_cell_volume 2298.655147
_symmetry_space_group_name_H-M "C 2/M"
_symmetry_group_IT_number 12
_symmetry_cell_setting 'monoclinic'
loop_
_space_group_symop_operation_xyz
x,y,z
-x,y,-z
-x,-y,-z
x,-y,z
1/2+x,1/2+y,z
1/2-x,1/2+y,-z
1/2-x,1/2-y,-z
1/2+x,1/2-y,z
loop_
_atom_site_type_symbol
_atom_site_label
_atom_site_fract_x
_atom_site_fract_y
_atom_site_fract_z
Si Si1 0.411681 0.000000 0.255132
Si Si2 0.000000 0.000000 0.000000
Si Si3 0.707310 0.783557 0.572112
Si Si4 0.346065 0.759539 0.105281
Si Si5 0.348690 0.372927 0.883749
Si Si6 0.093810 0.135300 0.607439
Si Si7 0.398393 0.000000 0.515372
O O1 0.375186 0.113227 0.161082
O O2 0.394330 0.000000 0.372737
O O3 0.508743 0.000000 0.349591
O O4 0.930153 0.096945 0.902498
O O5 0.750000 0.750000 0.500000
O O6 0.777139 0.820721 0.734606
O O7 0.650934 0.688535 0.570796
O O8 0.648798 0.890095 0.492376
O O9 0.376379 0.682715 0.240881
O O10 0.250000 0.750000 0.000000
O O11 0.372609 0.706261 0.013796
O O12 0.322905 0.500000 0.900032
O O13 0.000000 0.171056 0.500000
O O14 0.097570 0.000000 0.607033
#
# Coordination Sequence:
#
# PCOD9216316 Si02
#       7
#     4   2   8   8   8   8   4
#     4  11  24  38  69  98 132 172 214 281 329 393
#     4   8  22  40  70  90 128 176 216 266 318 400
#     4  12  25  42  70  93 133 179 223 267 330 407
#     4  12  23  38  69  98 131 168 218 272 333 389
#     4  10  22  44  67  96 126 174 220 269 327 389
#     4  11  25  43  65  99 132 169 222 285 329 380
#     4  11  21  46  64  93 132 176 224 261 336 393
#
# _framework density 18.271553999999998
#
# number of rings (size 3 to 8) (size 9 to 14) (size 15 to 20)
#    0.571    0.381    4.762    1.714    4.000    3.048 
#    3.429    0.000    0.000    1.714    0.000    0.000 
#    0.000    0.000    0.000    0.000    0.000    0.000 
#
# Total GULP energy -116923.583965 kJ/mol
# GULP energy per Si atom -5567.789713 kJ/mol
# Density = 1.822997 g / cm^3
# Si number density = 18.271554 Si / 1000 Ang^3
#
#
#
# Elastic Constant Matrix: (Units=GPa)
#
#
# Indices 1 2 3 4 5 6 
#
# 1 107.9536 60.7652 63.2641 0.0000 20.7845 0.0000
# 2 60.7652 120.7431 66.1020 0.0000 6.1775 0.0000
# 3 63.2641 66.1020 127.9718 0.0000 21.1017 0.0000
# 4 0.0000 0.0000 0.0000 27.7854 0.0000 0.2016
# 5 20.7845 6.1775 21.1017 0.0000 36.2342 0.0000
# 6 0.0000 0.0000 0.0000 0.2016 0.0000 16.1497
#
#
#
# Elastic Compliance Matrix: (Units=1/GPa)
#
#
# Indices 1 2 3 4 5 6 
#
# 1 0.015817 -0.005445 -0.004053 0.000000 -0.005784 0.000000
# 2 -0.005445 0.013514 -0.004893 0.000000 0.003669 0.000000
# 3 -0.004053 -0.004893 0.013081 0.000000 -0.004459 0.000000
# 4 0.000000 0.000000 0.000000 0.035993 0.000000 -0.000449
# 5 -0.005784 0.003669 -0.004459 0.000000 0.032887 0.000000
# 6 0.000000 0.000000 0.000000 -0.000449 0.000000 0.061926
#
#
# Mechanical properties :
#
#
# Convention : Reuss Voigt Hill
#
# Bulk Modulus (GPa) = 73.37726 81.88124 77.62925
# Shear Modulus (GPa) = 24.20789 27.13633 25.67211
#
# Velocity S-wave (km/s) = 3.64386 3.85797 3.75244
# Velocity P-wave (km/s) = 7.61250 8.04711 7.83282
#
# Compressibility (1/GPa) = 0.01362820
#
# Stress axis : x y z
#
# Youngs Moduli (GPa) = 63.22268 73.99891 76.44933
#
# Poissons Ratio (x) = 0.40296 0.30983
# Poissons Ratio (y) = 0.34428 0.37409
# Poissons Ratio (z) = 0.25623 0.36210
#
# Static dielectric constant tensor:
#      x y z
#    x 1.666570 0.000000 0.000600 
#    y 0.000000 1.621190 0.000000 
#    z 0.000600 0.000000 1.591210 
# 
# From -- ./inp_files/165274.got.cif
#   From: 2010.05.17/outbox.cif.g08.bks.cpg/sg12_83_cif.got.tgz:165274.got - 2010.06.03 13:09:07.
