data_PCOD9216075
_publ_section_title
;
Structure prediction by ZEFSAII (Michael W. Deem and Ramdas Pophale) SiO2 
 PCOD9216075
Probable space group: C 2/M
;
_chemical_formula_sum "Si O2"
_cell_formula_units_Z 34
_cell_length_a 24.242080
_cell_length_b 13.565381
_cell_length_c 13.123236
_cell_angle_alpha 90.000000
_cell_angle_beta 159.651045
_cell_angle_gamma 90.000000
_cell_volume 1500.698920
_symmetry_space_group_name_H-M "C 2/M"
_symmetry_group_IT_number 12
_symmetry_cell_setting 'monoclinic'
loop_
_space_group_symop_operation_xyz
x,y,z
-x,y,-z
-x,-y,-z
x,-y,z
1/2+x,1/2+y,z
1/2-x,1/2+y,-z
1/2-x,1/2-y,-z
1/2+x,1/2-y,z
loop_
_atom_site_type_symbol
_atom_site_label
_atom_site_fract_x
_atom_site_fract_y
_atom_site_fract_z
Si Si1 0.270081 0.237578 0.862643
Si Si2 0.314646 0.391624 0.105181
Si Si3 0.500000 0.000000 0.500000
Si Si4 0.850610 0.107939 0.664676
Si Si5 0.400006 0.804440 0.625761
O O1 0.172684 0.161755 0.763978
O O2 0.174449 0.302015 0.615538
O O3 0.354027 0.314268 0.085328
O O4 0.412612 0.180172 0.053735
O O5 0.389623 0.500000 0.224636
O O6 0.127085 0.415768 0.761278
O O7 0.695194 0.123492 0.464860
O O8 0.867186 0.195945 0.614500
O O9 0.852065 0.000000 0.619610
O O10 0.000000 0.115616 0.000000
#
# Coordination Sequence:
#
# PCOD9216075 Si02
#       5
#     8   8   2   8   8
#     4  11  22  39  61  93 125 162 199 253 301 356
#     4   9  21  37  59  89 126 160 204 243 288 360
#     4   8  16  40  60  82 118 168 200 238 288 352
#     4  10  22  43  63  89 121 158 201 257 307 369
#     4  11  23  39  64  92 121 158 203 252 309 362
#
# _framework density 22.656109000000001
#
# number of rings (size 3 to 8) (size 9 to 14) (size 15 to 20)
#    0.706    1.176    2.353    1.412    0.000    6.588 
#    0.000    2.353    0.000    0.000    0.000    0.000 
#    0.000    0.000    0.000    0.000    0.000    0.000 
#
# Total GULP energy -94708.047231 kJ/mol
# GULP energy per Si atom -5571.061602 kJ/mol
# Density = 2.260454 g / cm^3
# Si number density = 22.656109 Si / 1000 Ang^3
#
#
#
# Elastic Constant Matrix: (Units=GPa)
#
#
# Indices 1 2 3 4 5 6 
#
# 1 62.1950 11.5246 -10.5853 0.0000 5.0381 0.0000
# 2 11.5246 100.8802 -26.4835 0.0000 -5.4037 0.0000
# 3 -10.5853 -26.4835 50.9104 0.0000 3.5587 0.0000
# 4 0.0000 0.0000 0.0000 22.2315 0.0000 2.0707
# 5 5.0381 -5.4037 3.5587 0.0000 36.3738 0.0000
# 6 0.0000 0.0000 0.0000 2.0707 0.0000 -3.8648
#
#
#
# Elastic Compliance Matrix: (Units=1/GPa)
#
#
# Indices 1 2 3 4 5 6 
#
# 1 0.017074 -0.001296 0.003075 0.000000 -0.002858 0.000000
# 2 -0.001296 0.011625 0.005684 0.000000 0.001351 0.000000
# 3 0.003075 0.005684 0.023369 0.000000 -0.001868 0.000000
# 4 0.000000 0.000000 0.000000 0.042843 0.000000 0.022955
# 5 -0.002858 0.001351 -0.001868 0.000000 0.028272 0.000000
# 6 0.000000 0.000000 0.000000 0.022955 0.000000 -0.246448
#
#
# Mechanical properties :
#
#
# Convention : Reuss Voigt Hill
#
# Bulk Modulus (GPa) = 14.92688 18.09970 16.51329
# Shear Modulus (GPa) = -43.15561 26.91675 -8.11943
#
# Velocity S-wave (km/s) = -4.36915 3.45056 -1.89514
# Velocity P-wave (km/s) = 4.34164 4.88686 1.58612
#
# Compressibility (1/GPa) = 0.06699322
#
# Stress axis : x y z
#
# Youngs Moduli (GPa) = 58.56992 86.01983 42.79185
#
# Poissons Ratio (x) = 0.11150 -0.13160
# Poissons Ratio (y) = 0.07592 -0.24321
# Poissons Ratio (z) = -0.18013 -0.48890
#
# Static dielectric constant tensor:
#      x y z
#    x 1.830760 0.000000 0.016500 
#    y 0.000000 1.795650 0.000000 
#    z 0.016500 0.000000 1.889870 
# 
# From -- ./inp_files/167476.got.cif
#   From: 2010.05.17/outbox.cif.g08.bks.cpg/sg12_84_cif.got.tgz:167476.got - 2010.06.03 13:09:07.
