data_PCOD9216245
_publ_section_title
;
Structure prediction by ZEFSAII (Michael W. Deem and Ramdas Pophale) SiO2 
 PCOD9216245
Probable space group: C 2/M
;
_chemical_formula_sum "Si O2"
_cell_formula_units_Z 32
_cell_length_a 9.350282
_cell_length_b 19.999674
_cell_length_c 15.616491
_cell_angle_alpha 90.000000
_cell_angle_beta 32.734223
_cell_angle_gamma 90.000000
_cell_volume 1579.144515
_symmetry_space_group_name_H-M "C 2/M"
_symmetry_group_IT_number 12
_symmetry_cell_setting 'monoclinic'
loop_
_space_group_symop_operation_xyz
x,y,z
-x,y,-z
-x,-y,-z
x,-y,z
1/2+x,1/2+y,z
1/2-x,1/2+y,-z
1/2-x,1/2-y,-z
1/2+x,1/2-y,z
loop_
_atom_site_type_symbol
_atom_site_label
_atom_site_fract_x
_atom_site_fract_y
_atom_site_fract_z
Si Si1 0.860486 0.927648 0.477851
Si Si2 0.000451 0.202268 0.100111
Si Si3 0.818085 0.578439 0.676994
Si Si4 0.493135 0.290749 0.605617
O O1 0.992416 0.865328 0.365064
O O2 0.000000 0.931698 0.500000
O O3 0.544511 0.914137 0.637628
O O4 0.894274 0.000000 0.418707
O O5 0.912211 0.133412 0.193702
O O6 0.756735 0.251240 0.238554
O O7 0.250000 0.250000 0.000000
O O8 0.000000 0.185026 0.000000
O O9 0.734460 0.500000 0.719474
O O10 0.000000 0.590262 0.500000
O O11 0.500000 0.296001 0.500000
O O12 0.750000 0.250000 0.500000
#
# Coordination Sequence:
#
# PCOD9216245 Si02
#       4
#     8   8   8   8
#     4   9  19  35  63  93 116 151 214 270 301 349
#     4  12  27  41  60  95 135 170 200 258 330 381
#     4  10  22  43  70  94 120 166 224 266 304 372
#     4  11  21  38  65  87 119 165 215 260 299 370
#
# _framework density 20.264136000000001
#
# number of rings (size 3 to 8) (size 9 to 14) (size 15 to 20)
#    0.000    1.500    2.500    2.250    7.000    0.500 
#    0.000    1.250    0.000    1.500    0.000    0.000 
#    0.000    0.000    0.000    0.000    0.000    0.000 
#
# Total GULP energy -89136.967712 kJ/mol
# GULP energy per Si atom -5571.060482 kJ/mol
# Density = 2.021801 g / cm^3
# Si number density = 20.264136 Si / 1000 Ang^3
#
#
#
# Elastic Constant Matrix: (Units=GPa)
#
#
# Indices 1 2 3 4 5 6 
#
# 1 97.7737 25.5139 31.7739 -0.0105 -9.8793 -0.0013
# 2 25.5139 212.6620 78.2327 0.0036 -3.8374 0.0007
# 3 31.7739 78.2327 119.3425 0.0372 -11.7657 0.0035
# 4 -0.0105 0.0036 0.0372 73.1709 -0.0011 1.1043
# 5 -9.8793 -3.8374 -11.7657 -0.0011 40.9509 -0.0012
# 6 -0.0013 0.0007 0.0035 1.1043 -0.0012 23.3695
#
#
#
# Elastic Compliance Matrix: (Units=1/GPa)
#
#
# Indices 1 2 3 4 5 6 
#
# 1 0.011365 -0.000377 -0.002585 0.000003 0.001964 0.000001
# 2 -0.000377 0.006224 -0.004045 0.000002 -0.000670 0.000000
# 3 -0.002585 -0.004045 0.011959 -0.000006 0.002433 -0.000001
# 4 0.000003 0.000002 -0.000006 0.013676 -0.000001 -0.000646
# 5 0.001964 -0.000670 0.002433 -0.000001 0.025530 0.000001
# 6 0.000001 0.000000 -0.000001 -0.000646 0.000001 0.042821
#
#
# Mechanical properties :
#
#
# Convention : Reuss Voigt Hill
#
# Bulk Modulus (GPa) = 64.38103 77.86880 71.12492
# Shear Modulus (GPa) = 38.23588 47.11545 42.67566
#
# Velocity S-wave (km/s) = 4.34853 4.82712 4.59406
# Velocity P-wave (km/s) = 7.55333 8.34137 7.95711
#
# Compressibility (1/GPa) = 0.01553252
#
# Stress axis : x y z
#
# Youngs Moduli (GPa) = 87.99294 160.67688 83.61693
#
# Poissons Ratio (x) = 0.06059 0.21614
# Poissons Ratio (y) = 0.03318 0.33827
# Poissons Ratio (z) = 0.22746 0.65001
#
# Static dielectric constant tensor:
#      x y z
#    x 1.897180 -0.000020 0.061500 
#    y -0.000020 1.799250 -0.000010 
#    z 0.061500 -0.000010 1.706280 
# 
# From -- ./inp_files/198162.got.cif
#   From: 2010.05.17/outbox.cif.g08.bks.cpg/sg12_100_cif.got.tgz:198162.got - 2010.06.03 13:09:07.
