data_PCOD9216187
_publ_section_title
;
Structure prediction by ZEFSAII (Michael W. Deem and Ramdas Pophale) SiO2 
 PCOD9216187
Probable space group: C 2/M
;
_chemical_formula_sum "Si O2"
_cell_formula_units_Z 56
_cell_length_a 30.092267
_cell_length_b 11.396874
_cell_length_c 7.942862
_cell_angle_alpha 90.000000
_cell_angle_beta 68.961731
_cell_angle_gamma 90.000000
_cell_volume 2542.482358
_symmetry_space_group_name_H-M "C 2/M"
_symmetry_group_IT_number 12
_symmetry_cell_setting 'monoclinic'
loop_
_space_group_symop_operation_xyz
x,y,z
-x,y,-z
-x,-y,-z
x,-y,z
1/2+x,1/2+y,z
1/2-x,1/2+y,-z
1/2-x,1/2-y,-z
1/2+x,1/2-y,z
loop_
_atom_site_type_symbol
_atom_site_label
_atom_site_fract_x
_atom_site_fract_y
_atom_site_fract_z
Si Si1 0.049084 0.000000 0.707970
Si Si2 0.438864 0.500000 0.898162
Si Si3 0.895201 0.232247 0.026471
Si Si4 0.290074 0.629644 0.784803
Si Si5 0.570677 0.861427 0.496723
Si Si6 0.524875 0.138815 0.197393
Si Si7 0.812948 0.634966 0.967922
Si Si8 0.870496 0.818776 0.432055
O O1 0.081439 0.893408 0.596216
O O2 0.992462 0.000000 0.748576
O O3 0.053714 0.000000 0.906948
O O4 0.407750 0.615463 0.903326
O O5 0.870319 0.194425 0.232643
O O6 0.947338 0.289351 0.980618
O O7 0.861916 0.330889 0.991185
O O8 0.299563 0.500000 0.854812
O O9 0.303294 0.749335 0.866178
O O10 0.322456 0.631203 0.574764
O O11 0.232943 0.633973 0.845854
O O12 0.528688 0.830208 0.683913
O O13 0.552871 0.832926 0.333641
O O14 0.618676 0.802651 0.490194
O O15 0.574831 0.000000 0.494782
O O16 0.527484 0.000000 0.161383
O O17 0.815899 0.500000 0.894759
#
# Coordination Sequence:
#
# PCOD9216187 Si02
#       8
#     4   4   8   8   8   8   8   8
#     4   9  18  36  53  79 119 165 199 247 290 357
#     4   9  20  34  53  81 121 163 205 237 296 359
#     4  11  22  35  57  87 122 160 198 249 308 368
#     4  10  22  43  68  91 117 158 207 259 315 375
#     4   9  19  34  54  80 114 157 202 248 295 355
#     4   9  18  35  54  77 115 159 201 247 298 352
#     4  10  23  43  66  91 121 157 205 260 316 375
#     4  11  21  35  59  85 120 158 199 250 310 364
#
# _framework density 22.025718000000001
#
# number of rings (size 3 to 8) (size 9 to 14) (size 15 to 20)
#    0.000    2.143    0.714    3.000    1.000    5.143 
#    0.000    1.429    0.000    3.429    0.000    0.000 
#    0.000    0.000    0.000    0.000    0.000    0.000 
#
# Total GULP energy -156103.028244 kJ/mol
# GULP energy per Si atom -5575.108152 kJ/mol
# Density = 2.197559 g / cm^3
# Si number density = 22.025718 Si / 1000 Ang^3
#
#
#
# Elastic Constant Matrix: (Units=GPa)
#
#
# Indices 1 2 3 4 5 6 
#
# 1 45.5927 25.0337 30.1132 0.0000 -23.0746 0.0000
# 2 25.0337 129.0359 39.8985 0.0000 -12.6203 0.0000
# 3 30.1132 39.8985 117.5158 0.0000 -43.4513 0.0000
# 4 0.0000 0.0000 0.0000 28.6801 0.0000 4.4837
# 5 -23.0746 -12.6203 -43.4513 0.0000 33.3643 0.0000
# 6 0.0000 0.0000 0.0000 4.4837 0.0000 53.5288
#
#
#
# Elastic Compliance Matrix: (Units=1/GPa)
#
#
# Indices 1 2 3 4 5 6 
#
# 1 0.036585 -0.005169 0.001953 0.000000 0.025890 0.000000
# 2 -0.005169 0.009409 -0.003618 0.000000 -0.004728 0.000000
# 3 0.001953 -0.003618 0.017804 0.000000 0.023169 0.000000
# 4 0.000000 0.000000 0.000000 0.035330 0.000000 -0.002959
# 5 0.025890 -0.004728 0.023169 0.000000 0.076263 0.000000
# 6 0.000000 0.000000 0.000000 -0.002959 0.000000 0.018929
#
#
# Mechanical properties :
#
#
# Convention : Reuss Voigt Hill
#
# Bulk Modulus (GPa) = 19.94842 53.58169 36.76506
# Shear Modulus (GPa) = 22.25205 36.25458 29.25331
#
# Velocity S-wave (km/s) = 3.18193 4.06151 3.64832
# Velocity P-wave (km/s) = 4.75143 6.80986 5.87155
#
# Compressibility (1/GPa) = 0.05012927
#
# Stress axis : x y z
#
# Youngs Moduli (GPa) = 27.33379 106.28165 56.16689
#
# Poissons Ratio (x) = 0.54941 -0.10970
# Poissons Ratio (y) = 0.14130 0.20321
# Poissons Ratio (z) = -0.05339 0.38453
#
# Static dielectric constant tensor:
#      x y z
#    x 1.779300 0.000000 0.001100 
#    y 0.000000 1.876620 0.000000 
#    z 0.001100 0.000000 1.857160 
# 
# From -- ./inp_files/110372.got.cif
#   From: 2010.05.17/outbox.cif.g08.bks.cpg/sg12_56_cif.got.tgz:110372.got - 2010.06.03 13:09:07.
