data_PCOD9216813
_publ_section_title
;
Structure prediction by ZEFSAII (Michael W. Deem and Ramdas Pophale) SiO2 
 PCOD9216813
Probable space group: C 2/M
;
_chemical_formula_sum "Si O2"
_cell_formula_units_Z 56
_cell_length_a 12.522473
_cell_length_b 19.445871
_cell_length_c 26.404624
_cell_angle_alpha 90.000000
_cell_angle_beta 156.604846
_cell_angle_gamma 90.000000
_cell_volume 2553.082563
_symmetry_space_group_name_H-M "C 2/M"
_symmetry_group_IT_number 12
_symmetry_cell_setting 'monoclinic'
loop_
_space_group_symop_operation_xyz
x,y,z
-x,y,-z
-x,-y,-z
x,-y,z
1/2+x,1/2+y,z
1/2-x,1/2+y,-z
1/2-x,1/2-y,-z
1/2+x,1/2-y,z
loop_
_atom_site_type_symbol
_atom_site_label
_atom_site_fract_x
_atom_site_fract_y
_atom_site_fract_z
Si Si1 0.035427 0.427425 0.455969
Si Si2 0.475235 0.618391 0.827381
Si Si3 0.708557 0.293002 0.850481
Si Si4 0.830493 0.827404 0.519252
Si Si5 0.658280 0.919868 0.267563
Si Si6 0.601861 0.149651 0.754590
Si Si7 0.927173 0.423465 0.888465
O O1 0.160981 0.500000 0.495511
O O2 0.752827 0.420448 0.303825
O O3 0.000000 0.425449 0.500000
O O4 0.234345 0.368878 0.526205
O O5 0.516225 0.688930 0.813765
O O6 0.360445 0.630847 0.833296
O O7 0.769428 0.584918 0.958127
O O8 0.615700 0.228214 0.778653
O O9 0.751915 0.362275 0.836369
O O10 0.000000 0.275744 0.000000
O O11 0.750000 0.750000 0.500000
O O12 0.645178 0.852567 0.392156
O O13 0.122643 0.857899 0.633637
O O14 0.444256 0.899733 0.217680
O O15 0.559491 0.917098 0.166468
O O16 0.748288 0.000000 0.315356
O O17 0.824159 0.500000 0.856177
#
# Coordination Sequence:
#
# PCOD9216813 Si02
#       7
#     8   8   8   8   8   8   8
#     4  10  23  40  64  95 129 170 214 272 334 388
#     4  10  24  42  66  99 132 174 223 278 329 400
#     4  10  24  41  67  98 135 178 218 276 337 395
#     4  11  25  43  67  95 132 173 221 274 324 401
#     4  11  26  45  69  98 136 180 224 272 332 401
#     4  11  26  42  68  97 132 179 219 276 334 394
#     4  10  23  43  69 100 134 177 224 273 333 397
#
# _framework density 21.934267999999999
#
# number of rings (size 3 to 8) (size 9 to 14) (size 15 to 20)
#    0.000    1.571    0.000    2.143   12.000    8.286 
#    0.000    1.429    0.000    0.000    0.000    0.000 
#    0.000    0.000    0.000    0.000    0.000    0.000 
#
# Total GULP energy -156429.147288 kJ/mol
# GULP energy per Si atom -5586.755260 kJ/mol
# Density = 2.188434 g / cm^3
# Si number density = 21.934268 Si / 1000 Ang^3
#
#
#
# Elastic Constant Matrix: (Units=GPa)
#
#
# Indices 1 2 3 4 5 6 
#
# 1 116.5020 46.6923 14.5315 0.2699 0.8796 -0.3500
# 2 46.6923 120.1899 9.6974 0.0974 7.8356 -0.1264
# 3 14.5315 9.6974 36.6746 0.2810 -5.3148 -0.3473
# 4 0.2699 0.0974 0.2810 -269.4252 -0.1045 369.7739
# 5 0.8796 7.8356 -5.3148 -0.1045 25.6780 0.1459
# 6 -0.3500 -0.1264 -0.3473 369.7739 0.1459 -476.1479
#
#
#
# Elastic Compliance Matrix: (Units=1/GPa)
#
#
# Indices 1 2 3 4 5 6 
#
# 1 0.010512 -0.003842 -0.003125 0.000003 0.000166 -0.000002
# 2 -0.003842 0.010161 -0.001644 0.000003 -0.003309 0.000002
# 3 -0.003125 -0.001644 0.029925 -0.000023 0.006803 -0.000035
# 4 0.000003 0.000003 -0.000023 0.056373 -0.000025 0.043779
# 5 0.000166 -0.003309 0.006803 -0.000025 0.041356 -0.000011
# 6 -0.000002 0.000002 -0.000035 0.043779 -0.000011 0.031898
#
#
# Mechanical properties :
#
#
# Convention : Reuss Voigt Hill
#
# Bulk Modulus (GPa) = 29.96195 46.13432 38.04813
# Shear Modulus (GPa) = 23.97232 -130.48267 -53.25517
#
# Velocity S-wave (km/s) = 3.30952 -7.72122 -4.93276
# Velocity P-wave (km/s) = 5.31915 7.64270 3.88056
#
# Compressibility (1/GPa) = 0.03337567
#
# Stress axis : x y z
#
# Youngs Moduli (GPa) = 95.12843 98.41250 33.41641
#
# Poissons Ratio (x) = 0.37815 0.10443
# Poissons Ratio (y) = 0.36553 0.05493
# Poissons Ratio (z) = 0.29729 0.16178
#
# Static dielectric constant tensor:
#      x y z
#    x 1.814330 0.000020 0.011670 
#    y 0.000020 1.886670 -0.000020 
#    z 0.011670 -0.000020 1.815780 
# 
# From -- ./inp_files/336813.got.cif
#   From: 2010.05.17/outbox.cif.g08.bks.cpg/sg12_169_cif.got.tgz:336813.got - 2010.06.03 13:09:07.
