data_PCOD9216358
_publ_section_title
;
Structure prediction by ZEFSAII (Michael W. Deem and Ramdas Pophale) SiO2 
 PCOD9216358
Probable space group: C 2/M
;
_chemical_formula_sum "Si O2"
_cell_formula_units_Z 48
_cell_length_a 11.999158
_cell_length_b 21.315387
_cell_length_c 11.814337
_cell_angle_alpha 90.000000
_cell_angle_beta 132.625247
_cell_angle_gamma 90.000000
_cell_volume 2223.373358
_symmetry_space_group_name_H-M "C 2/M"
_symmetry_group_IT_number 12
_symmetry_cell_setting 'monoclinic'
loop_
_space_group_symop_operation_xyz
x,y,z
-x,y,-z
-x,-y,-z
x,-y,z
1/2+x,1/2+y,z
1/2-x,1/2+y,-z
1/2-x,1/2-y,-z
1/2+x,1/2-y,z
loop_
_atom_site_type_symbol
_atom_site_label
_atom_site_fract_x
_atom_site_fract_y
_atom_site_fract_z
Si Si1 0.808568 0.363922 0.190358
Si Si2 0.878356 0.241376 0.824096
Si Si3 0.644270 0.427333 0.681830
Si Si4 0.869383 0.361548 0.683368
Si Si5 0.277951 0.929465 0.396385
Si Si6 0.544529 0.379083 0.843039
O O1 0.753686 0.296695 0.201756
O O2 0.846194 0.406700 0.324492
O O3 0.950010 0.360097 0.204601
O O4 0.664552 0.390794 0.024479
O O5 0.820701 0.294839 0.701059
O O6 0.970449 0.188421 0.818056
O O7 0.000000 0.266719 0.000000
O O8 0.500000 0.417125 0.500000
O O9 0.642199 0.500000 0.715278
O O10 0.795275 0.411731 0.716548
O O11 0.625341 0.384212 0.778260
O O12 0.811994 0.380443 0.519553
O O13 0.096702 0.926071 0.255125
O O14 0.323829 0.000000 0.458571
#
# Coordination Sequence:
#
# PCOD9216358 Si02
#       6
#     8   8   8   8   8   8
#     4  10  25  43  66 104 130 166 228 279 335 385
#     4   9  23  44  69  97 136 175 219 275 340 398
#     4  11  24  44  66  95 138 184 220 264 331 404
#     4  12  25  40  69  98 134 176 218 274 338 396
#     4  11  23  45  68  92 135 182 221 271 331 397
#     4  10  22  44  70  98 129 177 226 270 327 405
#
# _framework density 21.588815
#
# number of rings (size 3 to 8) (size 9 to 14) (size 15 to 20)
#    0.000    1.500    1.667    3.000    4.667    8.000 
#    0.000    0.833    0.000    0.000    0.000    0.000 
#    0.000    0.000    0.000    0.000    0.000    0.000 
#
# Total GULP energy -134172.924390 kJ/mol
# GULP energy per Si atom -5590.538516 kJ/mol
# Density = 2.153968 g / cm^3
# Si number density = 21.588815 Si / 1000 Ang^3
#
#
#
# Elastic Constant Matrix: (Units=GPa)
#
#
# Indices 1 2 3 4 5 6 
#
# 1 126.4360 14.8128 15.5509 0.0000 1.8443 0.0000
# 2 14.8128 76.4389 45.8425 0.0000 -5.9234 0.0000
# 3 15.5509 45.8425 73.3818 0.0000 -4.0927 0.0000
# 4 0.0000 0.0000 0.0000 2.3979 0.0000 2.7422
# 5 1.8443 -5.9234 -4.0927 0.0000 34.9299 0.0000
# 6 0.0000 0.0000 0.0000 2.7422 0.0000 8.2057
#
#
#
# Elastic Compliance Matrix: (Units=1/GPa)
#
#
# Indices 1 2 3 4 5 6 
#
# 1 0.008175 -0.000923 -0.001196 0.000000 -0.000728 0.000000
# 2 -0.000923 0.021168 -0.012910 0.000000 0.002126 0.000000
# 3 -0.001196 -0.012910 0.021971 0.000000 0.000448 0.000000
# 4 0.000000 0.000000 0.000000 0.675019 0.000000 -0.225581
# 5 -0.000728 0.002126 0.000448 0.000000 0.029080 0.000000
# 6 0.000000 0.000000 0.000000 -0.225581 0.000000 0.197252
#
#
# Mechanical properties :
#
#
# Convention : Reuss Voigt Hill
#
# Bulk Modulus (GPa) = 47.04687 47.62991 47.33839
# Shear Modulus (GPa) = 5.05148 22.44340 13.74744
#
# Velocity S-wave (km/s) = 1.53132 3.22776 2.52620
# Velocity P-wave (km/s) = 4.99661 6.00012 5.52121
#
# Compressibility (1/GPa) = 0.02125540
#
# Stress axis : x y z
#
# Youngs Moduli (GPa) = 122.32322 47.24006 45.51466
#
# Poissons Ratio (x) = 0.04361 0.05445
# Poissons Ratio (y) = 0.11292 0.58760
# Poissons Ratio (z) = 0.14634 0.60987
#
# Static dielectric constant tensor:
#      x y z
#    x 1.810440 0.000000 0.015190 
#    y 0.000000 1.762100 0.000000 
#    z 0.015190 0.000000 1.792020 
# 
# From -- ./inp_files/134081.got.cif
#   From: 2010.05.17/outbox.cif.g08.bks.cpg/sg12_68_cif.got.tgz:134081.got - 2010.06.03 13:09:07.
