data_PCOD9216942
_publ_section_title
;
Structure prediction by ZEFSAII (Michael W. Deem and Ramdas Pophale) SiO2 
 PCOD9216942
Probable space group: C 2/M
;
_chemical_formula_sum "Si O2"
_cell_formula_units_Z 32
_cell_length_a 26.177651
_cell_length_b 8.783363
_cell_length_c 8.543228
_cell_angle_alpha 90.000000
_cell_angle_beta 49.453049
_cell_angle_gamma 90.000000
_cell_volume 1492.639096
_symmetry_space_group_name_H-M "C 2/M"
_symmetry_group_IT_number 12
_symmetry_cell_setting 'monoclinic'
loop_
_space_group_symop_operation_xyz
x,y,z
-x,y,-z
-x,-y,-z
x,-y,z
1/2+x,1/2+y,z
1/2-x,1/2+y,-z
1/2-x,1/2-y,-z
1/2+x,1/2-y,z
loop_
_atom_site_type_symbol
_atom_site_label
_atom_site_fract_x
_atom_site_fract_y
_atom_site_fract_z
Si Si1 0.344387 0.819433 0.140888
Si Si2 0.091058 0.682959 0.651344
Si Si3 0.032596 0.819262 0.267489
Si Si4 0.776599 0.318543 0.785640
O O1 0.377569 0.782698 0.241870
O O2 0.274916 0.735122 0.245636
O O3 0.333462 0.000000 0.154617
O O4 0.398456 0.767695 0.903743
O O5 0.079779 0.500000 0.666076
O O6 0.022292 0.767494 0.750738
O O7 0.148045 0.727467 0.411672
O O8 0.000000 0.781074 0.500000
O O9 0.044341 0.000000 0.237115
O O10 0.775504 0.500000 0.797945
O O11 0.750000 0.250000 0.000000
#
# Coordination Sequence:
#
# PCOD9216942 Si02
#       4
#     8   8   8   8
#     4  11  23  40  62  88 119 155 197 243 293 349
#     4  10  23  41  61  87 119 156 196 242 295 349
#     4  11  24  40  60  88 120 155 197 244 293 348
#     4  11  23  40  62  89 121 156 196 241 292 348
#
# _framework density 21.438541000000001
#
# number of rings (size 3 to 8) (size 9 to 14) (size 15 to 20)
#    0.000    1.250    0.000    5.250    0.000   13.000 
#    0.000    0.000    0.000    0.000    0.000    0.000 
#    0.000    0.000    0.000    0.000    0.000    0.000 
#
# Total GULP energy -89589.082819 kJ/mol
# GULP energy per Si atom -5599.317676 kJ/mol
# Density = 2.138975 g / cm^3
# Si number density = 21.438541 Si / 1000 Ang^3
#
#
#
# Elastic Constant Matrix: (Units=GPa)
#
#
# Indices 1 2 3 4 5 6 
#
# 1 55.6080 0.7883 -10.2910 0.0000 -7.0568 0.0000
# 2 0.7883 16.9170 7.8746 0.0000 0.3257 0.0000
# 3 -10.2910 7.8746 63.9581 0.0000 -0.8636 0.0000
# 4 0.0000 0.0000 0.0000 23.8293 0.0000 4.9012
# 5 -7.0568 0.3257 -0.8636 0.0000 39.7028 0.0000
# 6 0.0000 0.0000 0.0000 4.9012 0.0000 35.8774
#
#
#
# Elastic Compliance Matrix: (Units=1/GPa)
#
#
# Indices 1 2 3 4 5 6 
#
# 1 0.019098 -0.002556 0.003435 0.000000 0.003490 0.000000
# 2 -0.002556 0.063067 -0.008192 0.000000 -0.001150 0.000000
# 3 0.003435 -0.008192 0.017211 0.000000 0.001052 0.000000
# 4 0.000000 0.000000 0.000000 0.043178 0.000000 -0.005899
# 5 0.003490 -0.001150 0.001052 0.000000 0.025840 0.000000
# 6 0.000000 0.000000 0.000000 -0.005899 0.000000 0.028679
#
#
# Mechanical properties :
#
#
# Convention : Reuss Voigt Hill
#
# Bulk Modulus (GPa) = 11.79952 14.80300 13.30126
# Shear Modulus (GPa) = 20.83790 29.08928 24.96359
#
# Velocity S-wave (km/s) = 3.12105 3.68757 3.41607
# Velocity P-wave (km/s) = 4.30160 5.00507 4.66661
#
# Compressibility (1/GPa) = 0.08474920
#
# Stress axis : x y z
#
# Youngs Moduli (GPa) = 52.36205 15.85626 58.10353
#
# Poissons Ratio (x) = 0.04053 -0.19957
# Poissons Ratio (y) = 0.13384 0.47596
# Poissons Ratio (z) = -0.17985 0.12989
#
# Static dielectric constant tensor:
#      x y z
#    x 1.774280 0.000000 0.019720 
#    y 0.000000 1.709140 0.000000 
#    z 0.019720 0.000000 1.798310 
# 
# From -- ./inp_files/81641.got.cif
#   From: 2010.05.17/outbox.cif.g08.bks.cpg/sg12_41_cif.got.tgz:81641.got - 2010.06.03 13:09:07.
