data_PCOD9216667
_publ_section_title
;
Structure prediction by ZEFSAII (Michael W. Deem and Ramdas Pophale) SiO2 
 PCOD9216667
Probable space group: C 2/M
;
_chemical_formula_sum "Si O2"
_cell_formula_units_Z 32
_cell_length_a 9.038793
_cell_length_b 17.443737
_cell_length_c 10.188408
_cell_angle_alpha 90.000000
_cell_angle_beta 55.132652
_cell_angle_gamma 90.000000
_cell_volume 1318.023439
_symmetry_space_group_name_H-M "C 2/M"
_symmetry_group_IT_number 12
_symmetry_cell_setting 'monoclinic'
loop_
_space_group_symop_operation_xyz
x,y,z
-x,y,-z
-x,-y,-z
x,-y,z
1/2+x,1/2+y,z
1/2-x,1/2+y,-z
1/2-x,1/2-y,-z
1/2+x,1/2-y,z
loop_
_atom_site_type_symbol
_atom_site_label
_atom_site_fract_x
_atom_site_fract_y
_atom_site_fract_z
Si Si1 0.412438 0.810566 0.775747
Si Si2 0.701916 0.585696 0.690426
Si Si3 0.796634 0.858142 0.599302
Si Si4 0.803795 0.136625 0.879119
O O1 0.334680 0.854013 0.689865
O O2 0.626959 0.802393 0.670267
O O3 0.327889 0.726866 0.832821
O O4 0.346489 0.862289 0.933002
O O5 0.747909 0.500000 0.709299
O O6 0.709604 0.591589 0.528777
O O7 0.495396 0.605944 0.832930
O O8 0.769882 0.899570 0.753340
O O9 0.000000 0.824969 0.500000
#
# Coordination Sequence:
#
# PCOD9216667 Si02
#       4
#     8   8   8   8
#     4  11  22  41  67  97 131 171 221 271 326 391
#     4  11  25  43  65  97 135 172 216 272 330 389
#     4  10  23  39  61  90 128 169 214 263 320 382
#     4  10  23  41  66  97 131 171 218 273 328 391
#
# _framework density 24.278780000000001
#
# number of rings (size 3 to 8) (size 9 to 14) (size 15 to 20)
#    0.000    1.500    0.000    3.750    0.000   23.500 
#    0.000    0.000    0.000    9.000    0.000    0.000 
#    0.000    0.000    0.000    0.000    0.000    0.000 
#
# Total GULP energy -89495.965817 kJ/mol
# GULP energy per Si atom -5593.497864 kJ/mol
# Density = 2.422352 g / cm^3
# Si number density = 24.278780 Si / 1000 Ang^3
#
#
#
# Elastic Constant Matrix: (Units=GPa)
#
#
# Indices 1 2 3 4 5 6 
#
# 1 146.5245 31.9169 45.2505 0.0000 -11.1585 0.0000
# 2 31.9169 77.8564 3.4280 0.0000 -0.0339 0.0000
# 3 45.2505 3.4280 134.8255 0.0000 4.8128 0.0000
# 4 0.0000 0.0000 0.0000 0.1207 0.0000 -0.5768
# 5 -11.1585 -0.0339 4.8128 0.0000 42.1491 0.0000
# 6 0.0000 0.0000 0.0000 -0.5768 0.0000 11.7117
#
#
#
# Elastic Compliance Matrix: (Units=1/GPa)
#
#
# Indices 1 2 3 4 5 6 
#
# 1 0.008672 -0.003425 -0.002917 0.000000 0.002626 0.000000
# 2 -0.003425 0.014212 0.000824 0.000000 -0.000989 0.000000
# 3 -0.002917 0.000824 0.008437 0.000000 -0.001735 0.000000
# 4 0.000000 0.000000 0.000000 10.836087 0.000000 0.533694
# 5 0.002626 -0.000989 -0.001735 0.000000 0.024618 0.000000
# 6 0.000000 0.000000 0.000000 0.533694 0.000000 0.111670
#
#
# Mechanical properties :
#
#
# Convention : Reuss Voigt Hill
#
# Bulk Modulus (GPa) = 49.30292 57.82191 53.56241
# Shear Modulus (GPa) = 0.45366 29.37038 14.91202
#
# Velocity S-wave (km/s) = 0.43274 3.48187 2.48099
# Velocity P-wave (km/s) = 4.53881 6.32709 5.50603
#
# Compressibility (1/GPa) = 0.02028278
#
# Stress axis : x y z
#
# Youngs Moduli (GPa) = 115.31634 70.36467 118.52513
#
# Poissons Ratio (x) = 0.24103 0.34575
# Poissons Ratio (y) = 0.39500 -0.09762
# Poissons Ratio (z) = 0.33639 -0.05795
#
# Static dielectric constant tensor:
#      x y z
#    x 1.936470 0.000000 0.045900 
#    y 0.000000 1.872280 0.000000 
#    z 0.045900 0.000000 1.991770 
# 
# From -- ./inp_files/119911.got.cif
#   From: 2010.05.17/outbox.cif.g08.bks.cpg/sg12_60_cif.got.tgz:119911.got - 2010.06.03 13:09:07.
