data_PCOD9216123
_publ_section_title
;
Structure prediction by ZEFSAII (Michael W. Deem and Ramdas Pophale) SiO2 
 PCOD9216123
Probable space group: C 2/M
;
_chemical_formula_sum "Si O2"
_cell_formula_units_Z 42
_cell_length_a 18.500739
_cell_length_b 17.492440
_cell_length_c 16.917521
_cell_angle_alpha 90.000000
_cell_angle_beta 21.873612
_cell_angle_gamma 90.000000
_cell_volume 2039.731061
_symmetry_space_group_name_H-M "C 2/M"
_symmetry_group_IT_number 12
_symmetry_cell_setting 'monoclinic'
loop_
_space_group_symop_operation_xyz
x,y,z
-x,y,-z
-x,-y,-z
x,-y,z
1/2+x,1/2+y,z
1/2-x,1/2+y,-z
1/2-x,1/2-y,-z
1/2+x,1/2-y,z
loop_
_atom_site_type_symbol
_atom_site_label
_atom_site_fract_x
_atom_site_fract_y
_atom_site_fract_z
Si Si1 0.643365 0.745959 0.416979
Si Si2 0.000000 0.000000 0.000000
Si Si3 0.352800 0.198711 0.831640
Si Si4 0.664870 0.090193 0.590363
Si Si5 0.959924 0.141940 0.160534
Si Si6 0.193835 0.585827 0.750320
O O1 0.500000 0.786207 0.500000
O O2 0.509688 0.747888 0.629654
O O3 0.692136 0.661101 0.339191
O O4 0.836530 0.792364 0.241513
O O5 0.044429 0.066987 0.888539
O O6 0.475917 0.130531 0.745512
O O7 0.250000 0.250000 0.000000
O O8 0.180523 0.167062 0.951663
O O9 0.663149 0.099309 0.687174
O O10 0.848554 0.125494 0.356758
O O11 0.661746 0.000000 0.577544
O O12 0.280857 0.500000 0.669774
O O13 0.000000 0.584990 0.000000
#
# Coordination Sequence:
#
# PCOD9216123 Si02
#       6
#     8   2   8   8   8   8
#     4  11  25  42  66  98 133 175 224 273 334 396
#     4  12  24  40  70 100 132 184 214 266 348 392
#     4  11  24  41  68  99 128 182 222 271 331 410
#     4  10  22  43  65  97 132 170 219 273 332 393
#     4  11  24  44  67 100 139 178 219 278 331 410
#     4  10  23  43  69  95 132 174 222 283 336 393
#
# _framework density 20.590948999999998
#
# number of rings (size 3 to 8) (size 9 to 14) (size 15 to 20)
#    0.000    1.333    0.952    3.429    8.000    3.429 
#    0.000    3.333    0.000    0.000    0.000    0.000 
#    0.000    0.000    0.000    0.000    0.000    0.000 
#
# Total GULP energy -117000.911010 kJ/mol
# GULP energy per Si atom -5571.471953 kJ/mol
# Density = 2.054408 g / cm^3
# Si number density = 20.590949 Si / 1000 Ang^3
#
#
#
# Elastic Constant Matrix: (Units=GPa)
#
#
# Indices 1 2 3 4 5 6 
#
# 1 54.2651 14.7230 32.4481 0.0133 1.9470 0.0005
# 2 14.7230 109.9433 42.7914 -0.0045 -11.5057 0.0265
# 3 32.4481 42.7914 106.0467 0.0075 3.6674 -0.0058
# 4 0.0133 -0.0045 0.0075 24.2527 -0.0043 10.6168
# 5 1.9470 -11.5057 3.6674 -0.0043 42.3979 -0.0109
# 6 0.0005 0.0265 -0.0058 10.6168 -0.0109 4.4553
#
#
#
# Elastic Compliance Matrix: (Units=1/GPa)
#
#
# Indices 1 2 3 4 5 6 
#
# 1 0.022583 -0.000479 -0.006696 0.000143 -0.000588 -0.000350
# 2 -0.000479 0.011285 -0.004527 -0.000755 0.003476 0.001735
# 3 -0.006696 -0.004527 0.013377 0.000445 -0.002078 -0.001021
# 4 0.000143 -0.000755 0.000445 -0.955595 0.000239 2.277129
# 5 -0.000588 0.003476 -0.002078 0.000239 0.024736 -0.000531
# 6 -0.000350 0.001735 -0.001021 2.277129 -0.000531 -5.201818
#
#
# Mechanical properties :
#
#
# Convention : Reuss Voigt Hill
#
# Bulk Modulus (GPa) = 41.94605 50.02001 45.98303
# Shear Modulus (GPa) = -0.82589 26.24069 12.70740
#
# Velocity S-wave (km/s) = -0.63401 3.57372 2.48692
# Velocity P-wave (km/s) = 4.45863 6.43223 5.53412
#
# Compressibility (1/GPa) = 0.02384015
#
# Stress axis : x y z
#
# Youngs Moduli (GPa) = 44.28057 88.61171 74.75359
#
# Poissons Ratio (x) = 0.04248 0.50057
# Poissons Ratio (y) = 0.02123 0.33842
# Poissons Ratio (z) = 0.29651 0.40116
#
# Static dielectric constant tensor:
#      x y z
#    x 1.562770 0.000040 0.117490 
#    y 0.000040 1.714520 -0.000010 
#    z 0.117490 -0.000010 1.689080 
# 
# From -- ./inp_files/16016.got.cif
#   From: 2010.05.17/outbox.cif.g08.bks.cpg/sg12_9_cif.got.tgz:16016.got - 2010.06.03 13:09:07.
