data_PCOD9216232
_publ_section_title
;
Structure prediction by ZEFSAII (Michael W. Deem and Ramdas Pophale) SiO2 
 PCOD9216232
Probable space group: C 2/M
;
_chemical_formula_sum "Si O2"
_cell_formula_units_Z 40
_cell_length_a 13.514435
_cell_length_b 23.969413
_cell_length_c 12.414136
_cell_angle_alpha 90.000000
_cell_angle_beta 152.565717
_cell_angle_gamma 90.000000
_cell_volume 1852.759964
_symmetry_space_group_name_H-M "C 2/M"
_symmetry_group_IT_number 12
_symmetry_cell_setting 'monoclinic'
loop_
_space_group_symop_operation_xyz
x,y,z
-x,y,-z
-x,-y,-z
x,-y,z
1/2+x,1/2+y,z
1/2-x,1/2+y,-z
1/2-x,1/2-y,-z
1/2+x,1/2-y,z
loop_
_atom_site_type_symbol
_atom_site_label
_atom_site_fract_x
_atom_site_fract_y
_atom_site_fract_z
Si Si1 0.359037 0.740855 0.721021
Si Si2 0.508202 0.436865 0.138418
Si Si3 0.881138 0.366050 0.490662
Si Si4 0.753623 0.346799 0.769467
Si Si5 0.234243 0.169410 0.003313
O O1 0.250000 0.750000 0.500000
O O2 0.267589 0.685303 0.689973
O O3 0.298388 0.793482 0.735611
O O4 0.599141 0.719950 0.924383
O O5 0.455508 0.500000 0.117628
O O6 0.745180 0.417435 0.402972
O O7 0.365177 0.389432 0.053019
O O8 0.500000 0.432915 0.000000
O O9 0.000000 0.386578 0.500000
O O10 0.029908 0.337215 0.721901
O O11 0.500000 0.367577 0.500000
O O12 0.731919 0.330408 0.873046
O O13 0.000000 0.376109 0.000000
#
# Coordination Sequence:
#
# PCOD9216232 Si02
#       5
#     8   8   8   8   8
#     4  11  24  40  62  94 134 183 234 277 330 403
#     4  10  22  43  69  99 131 169 226 294 362 420
#     4  11  23  38  60  96 135 174 222 284 342 412
#     4  12  27  44  66  98 137 191 237 280 336 405
#     4  11  25  43  65  96 138 179 227 288 343 416
#
# _framework density 21.589414000000001
#
# number of rings (size 3 to 8) (size 9 to 14) (size 15 to 20)
#    0.000    1.000    4.000    1.800    8.400    2.800 
#    0.000    0.000    0.000    1.200    0.000    0.000 
#    0.000    0.000    0.000    0.000    0.000    0.000 
#
# Total GULP energy -111457.325762 kJ/mol
# GULP energy per Si atom -5572.866288 kJ/mol
# Density = 2.154028 g / cm^3
# Si number density = 21.589414 Si / 1000 Ang^3
#
#
#
# Elastic Constant Matrix: (Units=GPa)
#
#
# Indices 1 2 3 4 5 6 
#
# 1 97.0044 22.7937 29.4050 0.0001 -4.5227 0.0000
# 2 22.7937 81.2905 16.4778 0.0000 10.6128 0.0000
# 3 29.4050 16.4778 128.9103 0.0001 3.3104 -0.0001
# 4 0.0001 0.0000 0.0001 9.4172 0.0001 2.0218
# 5 -4.5227 10.6128 3.3104 0.0001 46.1037 0.0000
# 6 0.0000 0.0000 -0.0001 2.0218 0.0000 22.2563
#
#
#
# Elastic Compliance Matrix: (Units=1/GPa)
#
#
# Indices 1 2 3 4 5 6 
#
# 1 0.011850 -0.003112 -0.002358 0.000000 0.002048 0.000000
# 2 -0.003112 0.013817 -0.000968 0.000000 -0.003416 0.000000
# 3 -0.002358 -0.000968 0.008435 0.000000 -0.000614 0.000000
# 4 0.000000 0.000000 0.000000 0.108300 0.000000 -0.009838
# 5 0.002048 -0.003416 -0.000614 0.000000 0.022722 0.000000
# 6 0.000000 0.000000 0.000000 -0.009838 0.000000 0.045825
#
#
# Mechanical properties :
#
#
# Convention : Reuss Voigt Hill
#
# Bulk Modulus (GPa) = 47.11547 49.39535 48.25541
# Shear Modulus (GPa) = 21.65435 31.45735 26.55585
#
# Velocity S-wave (km/s) = 3.17047 3.82130 3.51100
# Velocity P-wave (km/s) = 5.93913 6.51144 6.23186
#
# Compressibility (1/GPa) = 0.02122445
#
# Stress axis : x y z
#
# Youngs Moduli (GPa) = 84.38551 72.37693 118.55735
#
# Poissons Ratio (x) = 0.22526 0.27955
# Poissons Ratio (y) = 0.26263 0.11481
# Poissons Ratio (z) = 0.19897 0.07009
#
# Static dielectric constant tensor:
#      x y z
#    x 1.758340 0.000000 0.119790 
#    y 0.000000 1.740510 0.000000 
#    z 0.119790 0.000000 1.983910 
# 
# From -- ./inp_files/12249.got.cif
#   From: 2010.05.17/outbox.cif.g08.bks.cpg/sg12_7_cif.got.tgz:12249.got - 2010.06.03 13:09:07.
