data_PCOD9216437
_publ_section_title
;
Structure prediction by ZEFSAII (Michael W. Deem and Ramdas Pophale) SiO2 
 PCOD9216437
Probable space group: C 2/M
;
_chemical_formula_sum "Si O2"
_cell_formula_units_Z 26
_cell_length_a 10.277956
_cell_length_b 20.075561
_cell_length_c 4.928968
_cell_angle_alpha 90.000000
_cell_angle_beta 93.946219
_cell_angle_gamma 90.000000
_cell_volume 1014.610953
_symmetry_space_group_name_H-M "C 2/M"
_symmetry_group_IT_number 12
_symmetry_cell_setting 'monoclinic'
loop_
_space_group_symop_operation_xyz
x,y,z
-x,y,-z
-x,-y,-z
x,-y,z
1/2+x,1/2+y,z
1/2-x,1/2+y,-z
1/2-x,1/2-y,-z
1/2+x,1/2-y,z
loop_
_atom_site_type_symbol
_atom_site_label
_atom_site_fract_x
_atom_site_fract_y
_atom_site_fract_z
Si Si1 0.125080 0.391148 0.678098
Si Si2 0.873694 0.239528 0.323531
Si Si3 0.000000 0.000000 0.000000
Si Si4 0.202757 0.895861 0.820649
O O1 0.090100 0.314582 0.753751
O O2 0.241604 0.395297 0.475255
O O3 0.000000 0.418313 0.500000
O O4 0.183004 0.420334 0.961057
O O5 0.750000 0.250000 0.500000
O O6 0.833541 0.181191 0.112647
O O7 0.000000 0.213167 0.500000
O O8 0.919242 0.057676 0.155118
#
# Coordination Sequence:
#
# PCOD9216437 Si02
#       4
#     8   8   2   8
#     4  10  22  45  74 104 136 174 238 306 363 413
#     4   9  20  39  69 105 139 178 230 299 366 416
#     4  12  32  46  70  98 156 194 252 266 346 436
#     4  11  25  44  67 101 143 191 234 286 347 428
#
# _framework density 25.625586999999999
#
# number of rings (size 3 to 8) (size 9 to 14) (size 15 to 20)
#    0.000    1.846    0.000    1.846    8.615    2.462 
#    5.538    4.615    0.000    0.000    0.000    0.000 
#    0.000    0.000    0.000    0.000    0.000    0.000 
#
# Total GULP energy -72463.053421 kJ/mol
# GULP energy per Si atom -5574.081032 kJ/mol
# Density = 2.556726 g / cm^3
# Si number density = 25.625587 Si / 1000 Ang^3
#
#
#
# Elastic Constant Matrix: (Units=GPa)
#
#
# Indices 1 2 3 4 5 6 
#
# 1 114.8384 19.8999 34.5901 0.0000 -3.3451 0.0000
# 2 19.8999 144.8888 31.4758 0.0000 -19.5267 0.0000
# 3 34.5901 31.4758 104.5082 0.0000 -2.8449 0.0000
# 4 0.0000 0.0000 0.0000 -4.6345 0.0000 -42.0882
# 5 -3.3451 -19.5267 -2.8449 0.0000 58.0100 0.0000
# 6 0.0000 0.0000 0.0000 -42.0882 0.0000 3.6901
#
#
#
# Elastic Compliance Matrix: (Units=1/GPa)
#
#
# Indices 1 2 3 4 5 6 
#
# 1 0.009737 -0.000655 -0.003020 0.000000 0.000193 0.000000
# 2 -0.000655 0.007773 -0.002057 0.000000 0.002478 0.000000
# 3 -0.003020 -0.002057 0.011179 0.000000 -0.000318 0.000000
# 4 0.000000 0.000000 0.000000 -0.002063 0.000000 -0.023532
# 5 0.000193 0.002478 -0.000318 0.000000 0.018068 0.000000
# 6 0.000000 0.000000 0.000000 -0.023532 0.000000 0.002591
#
#
# Mechanical properties :
#
#
# Convention : Reuss Voigt Hill
#
# Bulk Modulus (GPa) = 58.05726 59.57412 58.81569
# Shear Modulus (GPa) = 77.53200 29.96440 53.74820
#
# Velocity S-wave (km/s) = 5.50649 3.42324 4.58475
# Velocity P-wave (km/s) = 7.94567 6.23884 7.14342
#
# Compressibility (1/GPa) = 0.01722437
#
# Stress axis : x y z
#
# Youngs Moduli (GPa) = 102.70405 128.65814 89.45376
#
# Poissons Ratio (x) = 0.08430 0.27016
# Poissons Ratio (y) = 0.06730 0.18397
# Poissons Ratio (z) = 0.31017 0.26460
#
# Static dielectric constant tensor:
#      x y z
#    x 2.086720 0.000000 0.010990 
#    y 0.000000 2.056670 0.000000 
#    z 0.010990 0.000000 2.002330 
# 
# From -- ./inp_files/5452.got.cif
#   From: 2010.05.17/outbox.cif.g08.bks.cpg/sg12_3_cif.got.tgz:5452.got - 2010.06.03 13:09:07.
