data_PCOD9216420
_publ_section_title
;
Structure prediction by ZEFSAII (Michael W. Deem and Ramdas Pophale) SiO2 
 PCOD9216420
Probable space group: C 2/M
;
_chemical_formula_sum "Si O2"
_cell_formula_units_Z 44
_cell_length_a 8.788528
_cell_length_b 21.353707
_cell_length_c 12.871014
_cell_angle_alpha 90.000000
_cell_angle_beta 113.482792
_cell_angle_gamma 90.000000
_cell_volume 2215.423000
_symmetry_space_group_name_H-M "C 2/M"
_symmetry_group_IT_number 12
_symmetry_cell_setting 'monoclinic'
loop_
_space_group_symop_operation_xyz
x,y,z
-x,y,-z
-x,-y,-z
x,-y,z
1/2+x,1/2+y,z
1/2-x,1/2+y,-z
1/2-x,1/2-y,-z
1/2+x,1/2-y,z
loop_
_atom_site_type_symbol
_atom_site_label
_atom_site_fract_x
_atom_site_fract_y
_atom_site_fract_z
Si Si1 0.358024 0.785759 0.117417
Si Si2 0.310054 0.819263 0.483336
Si Si3 0.500000 0.116381 0.000000
Si Si4 0.312083 0.571821 0.406138
Si Si5 0.343654 0.429877 0.168167
Si Si6 0.899953 0.824620 0.777747
O O1 0.232103 0.812132 0.167902
O O2 0.485285 0.736774 0.202393
O O3 0.250000 0.750000 0.000000
O O4 0.461893 0.838918 0.087392
O O5 0.500000 0.815730 0.500000
O O6 0.250000 0.750000 0.500000
O O7 0.286503 0.872383 0.564703
O O8 0.196418 0.838406 0.354480
O O9 0.665605 0.078021 0.066656
O O10 0.500000 0.574848 0.500000
O O11 0.251197 0.500000 0.409147
O O12 0.318312 0.581651 0.284258
O O13 0.407234 0.500000 0.172404
O O14 0.474203 0.380155 0.161405
#
# Coordination Sequence:
#
# PCOD9216420 Si02
#       6
#     8   8   4   8   8   8
#     4  12  23  41  67  98 126 174 219 273 336 398
#     4  12  27  40  65 103 136 171 222 279 333 392
#     4  12  25  42  72  94 135 170 230 274 334 394
#     4  10  22  45  70  93 130 180 221 267 338 408
#     4  11  25  45  69  98 133 178 225 271 331 400
#     4  12  24  42  66  95 136 171 218 274 337 393
#
# _framework density 19.860766999999999
#
# number of rings (size 3 to 8) (size 9 to 14) (size 15 to 20)
#    0.000    0.545    5.455    1.909    7.636    0.364 
#    0.000    2.727    0.000    0.000    0.000    0.000 
#    0.000    0.000    0.000    0.000    0.000    0.000 
#
# Total GULP energy -123099.194506 kJ/mol
# GULP energy per Si atom -5595.417932 kJ/mol
# Density = 1.981556 g / cm^3
# Si number density = 19.860767 Si / 1000 Ang^3
#
#
#
# Elastic Constant Matrix: (Units=GPa)
#
#
# Indices 1 2 3 4 5 6 
#
# 1 129.0478 74.6214 8.8705 0.0000 -8.8789 0.0000
# 2 74.6214 127.6203 11.1256 0.0000 -28.1088 0.0000
# 3 8.8705 11.1256 40.5063 0.0000 9.8250 0.0000
# 4 0.0000 0.0000 0.0000 19.1130 0.0000 3.5345
# 5 -8.8789 -28.1088 9.8250 0.0000 34.7797 0.0000
# 6 0.0000 0.0000 0.0000 3.5345 0.0000 3.3969
#
#
#
# Elastic Compliance Matrix: (Units=1/GPa)
#
#
# Indices 1 2 3 4 5 6 
#
# 1 0.011991 -0.007765 0.000308 0.000000 -0.003302 0.000000
# 2 -0.007765 0.015526 -0.005504 0.000000 0.012120 0.000000
# 3 0.000308 -0.005504 0.029192 0.000000 -0.012616 0.000000
# 4 0.000000 0.000000 0.000000 0.064786 0.000000 -0.067409
# 5 -0.003302 0.012120 -0.012616 0.000000 0.041269 0.000000
# 6 0.000000 0.000000 0.000000 -0.067409 0.000000 0.364525
#
#
# Mechanical properties :
#
#
# Convention : Reuss Voigt Hill
#
# Bulk Modulus (GPa) = 32.48216 54.04548 43.26382
# Shear Modulus (GPa) = 8.87355 24.96172 16.91763
#
# Velocity S-wave (km/s) = 2.11603 3.54903 2.92175
# Velocity P-wave (km/s) = 4.72869 6.63818 5.76307
#
# Compressibility (1/GPa) = 0.03078613
#
# Stress axis : x y z
#
# Youngs Moduli (GPa) = 83.39561 64.41005 34.25624
#
# Poissons Ratio (x) = 0.50017 -0.01054
# Poissons Ratio (y) = 0.64760 0.18853
# Poissons Ratio (z) = -0.02567 0.35448
#
# Static dielectric constant tensor:
#      x y z
#    x 1.659470 0.000000 0.009900 
#    y 0.000000 1.691390 0.000000 
#    z 0.009900 0.000000 1.701970 
# 
# From -- ./inp_files/120819.got.cif
#   From: 2010.05.17/outbox.cif.g08.bks.cpg/sg12_61_cif.got.tgz:120819.got - 2010.06.03 13:09:07.
