data_PCOD9216289
_publ_section_title
;
Structure prediction by ZEFSAII (Michael W. Deem and Ramdas Pophale) SiO2 
 PCOD9216289
Probable space group: C 2/M
;
_chemical_formula_sum "Si O2"
_cell_formula_units_Z 46
_cell_length_a 9.677829
_cell_length_b 24.067712
_cell_length_c 11.167702
_cell_angle_alpha 90.000000
_cell_angle_beta 42.170840
_cell_angle_gamma 90.000000
_cell_volume 1746.310002
_symmetry_space_group_name_H-M "C 2/M"
_symmetry_group_IT_number 12
_symmetry_cell_setting 'monoclinic'
loop_
_space_group_symop_operation_xyz
x,y,z
-x,y,-z
-x,-y,-z
x,-y,z
1/2+x,1/2+y,z
1/2-x,1/2+y,-z
1/2-x,1/2-y,-z
1/2+x,1/2-y,z
loop_
_atom_site_type_symbol
_atom_site_label
_atom_site_fract_x
_atom_site_fract_y
_atom_site_fract_z
Si Si1 0.611506 0.082136 0.619345
Si Si2 0.306989 0.224908 0.712020
Si Si3 0.711035 0.593826 0.754164
Si Si4 0.500000 0.414948 0.500000
Si Si5 0.811271 0.099277 0.874843
Si Si6 0.981769 0.690610 0.830558
Si Si7 0.000000 0.500000 0.000000
O O1 0.369377 0.069106 0.751845
O O2 0.698376 0.074660 0.431513
O O3 0.606890 0.145815 0.668088
O O4 0.781080 0.056695 0.600886
O O5 0.500000 0.233132 0.500000
O O6 0.235010 0.160846 0.744649
O O7 0.137154 0.269996 0.796474
O O8 0.368896 0.229510 0.809028
O O9 0.470157 0.585694 0.881626
O O10 0.566778 0.388516 0.329011
O O11 0.326779 0.151851 0.002131
O O12 0.659025 0.048597 0.947339
#
# Coordination Sequence:
#
# PCOD9216289 Si02
#       7
#     8   8   8   4   8   8   2
#     4   9  18  36  66 102 142 201 249 302 358 456
#     4  11  22  40  72 115 162 218 261 306 374 473
#     4   9  19  41  66 102 150 207 247 298 385 450
#     4  10  22  43  80 102 138 190 252 310 400 451
#     4  11  26  48  76 109 149 197 249 340 390 466
#     4  11  24  41  70 111 159 206 263 321 375 454
#     4  12  28  54  80 120 146 176 270 332 410 462
#
# _framework density 26.341256999999999
#
# number of rings (size 3 to 8) (size 9 to 14) (size 15 to 20)
#    0.000    1.739    3.478    1.565    1.217    6.609 
#    0.000    3.478    0.000   31.304    0.000    0.609 
#    0.000    0.000    0.000    0.000    0.000    0.000 
#
# Total GULP energy -128320.133151 kJ/mol
# GULP energy per Si atom -5579.136224 kJ/mol
# Density = 2.628130 g / cm^3
# Si number density = 26.341257 Si / 1000 Ang^3
#
#
#
# Elastic Constant Matrix: (Units=GPa)
#
#
# Indices 1 2 3 4 5 6 
#
# 1 250.8255 78.7630 84.5971 0.0000 -66.6221 0.0000
# 2 78.7630 126.3552 58.1748 0.0000 -26.1078 0.0000
# 3 84.5971 58.1748 188.0975 0.0000 -31.2477 0.0000
# 4 0.0000 0.0000 0.0000 86.8248 0.0000 -33.4722
# 5 -66.6221 -26.1078 -31.2477 0.0000 63.9895 0.0000
# 6 0.0000 0.0000 0.0000 -33.4722 0.0000 -20.6016
#
#
#
# Elastic Compliance Matrix: (Units=1/GPa)
#
#
# Indices 1 2 3 4 5 6 
#
# 1 0.006582 -0.002404 -0.001351 0.000000 0.005212 0.000000
# 2 -0.002404 0.010515 -0.002040 0.000000 0.000792 0.000000
# 3 -0.001351 -0.002040 0.006729 0.000000 0.001047 0.000000
# 4 0.000000 0.000000 0.000000 0.007082 0.000000 -0.011506
# 5 0.005212 0.000792 0.001047 0.000000 0.021888 0.000000
# 6 0.000000 0.000000 0.000000 -0.011506 0.000000 -0.029846
#
#
# Mechanical properties :
#
#
# Convention : Reuss Voigt Hill
#
# Bulk Modulus (GPa) = 81.71788 112.03867 96.87827
# Shear Modulus (GPa) = 129.47629 48.95877 89.21753
#
# Velocity S-wave (km/s) = 7.01856 4.31587 5.82610
# Velocity P-wave (km/s) = 9.83719 8.21349 9.06178
#
# Compressibility (1/GPa) = 0.01223722
#
# Stress axis : x y z
#
# Youngs Moduli (GPa) = 151.93826 95.10079 148.61754
#
# Poissons Ratio (x) = 0.22860 0.20075
# Poissons Ratio (y) = 0.36523 0.30311
# Poissons Ratio (z) = 0.20524 0.19396
#
# Static dielectric constant tensor:
#      x y z
#    x 2.327530 0.000000 -0.140410 
#    y 0.000000 1.964810 0.000000 
#    z -0.140410 0.000000 2.275470 
# 
# From -- ./inp_files/200806.got.cif
#   From: 2010.05.17/outbox.cif.g08.bks.cpg/sg12_101_cif.got.tgz:200806.got - 2010.06.03 13:09:07.
