data_PCOD9216396
_publ_section_title
;
Structure prediction by ZEFSAII (Michael W. Deem and Ramdas Pophale) SiO2 
 PCOD9216396
Probable space group: C 2/M
;
_chemical_formula_sum "Si O2"
_cell_formula_units_Z 52
_cell_length_a 22.854191
_cell_length_b 12.464557
_cell_length_c 9.693849
_cell_angle_alpha 90.000000
_cell_angle_beta 51.555168
_cell_angle_gamma 90.000000
_cell_volume 2162.796295
_symmetry_space_group_name_H-M "C 2/M"
_symmetry_group_IT_number 12
_symmetry_cell_setting 'monoclinic'
loop_
_space_group_symop_operation_xyz
x,y,z
-x,y,-z
-x,-y,-z
x,-y,z
1/2+x,1/2+y,z
1/2-x,1/2+y,-z
1/2-x,1/2-y,-z
1/2+x,1/2-y,z
loop_
_atom_site_type_symbol
_atom_site_label
_atom_site_fract_x
_atom_site_fract_y
_atom_site_fract_z
Si Si1 0.931898 0.000000 0.940601
Si Si2 0.278745 0.378160 0.875234
Si Si3 0.355799 0.127918 0.133787
Si Si4 0.587729 0.282976 0.169668
Si Si5 0.500000 0.189487 0.500000
Si Si6 0.334132 0.261983 0.428544
Si Si7 0.662707 0.119165 0.304481
Si Si8 0.399706 0.500000 0.312214
O O1 0.898870 0.111041 0.937591
O O2 0.015813 0.000000 0.756225
O O3 0.918159 0.000000 0.122444
O O4 0.305905 0.500000 0.821040
O O5 0.226606 0.356640 0.818082
O O6 0.349917 0.303700 0.802372
O O7 0.275628 0.126938 0.909903
O O8 0.373675 0.194372 0.246343
O O9 0.365758 0.000000 0.136316
O O10 0.403937 0.182038 0.942547
O O11 0.508015 0.267872 0.357438
O O12 0.576201 0.123258 0.380750
O O13 0.250000 0.250000 0.500000
O O14 0.336589 0.198766 0.567794
O O15 0.358790 0.386892 0.402734
O O16 0.677125 0.000000 0.341449
#
# Coordination Sequence:
#
# PCOD9216396 Si02
#       8
#     4   8   8   8   4   8   8   4
#     4  11  24  47  74  98 140 197 246 287 359 444
#     4  10  22  44  75 104 138 188 240 296 351 423
#     4  11  24  43  70 107 143 183 236 300 358 421
#     4  12  23  44  71 104 141 189 246 291 358 430
#     4  12  27  41  70 106 152 191 227 296 366 438
#     4  12  27  45  74 109 145 185 242 300 359 421
#     4  11  25  46  74 106 145 186 238 296 363 426
#     4  11  26  48  72 100 148 195 235 294 367 430
#
# _framework density 24.042947000000002
#
# number of rings (size 3 to 8) (size 9 to 14) (size 15 to 20)
#    0.000    0.769    3.846    3.000    4.308    0.923 
#    0.000    0.769    0.000    2.769    0.000    0.000 
#    0.000    0.000    0.000    0.000    0.000    0.000 
#
# Total GULP energy -145157.957722 kJ/mol
# GULP energy per Si atom -5582.998374 kJ/mol
# Density = 2.398822 g / cm^3
# Si number density = 24.042947 Si / 1000 Ang^3
#
#
#
# Elastic Constant Matrix: (Units=GPa)
#
#
# Indices 1 2 3 4 5 6 
#
# 1 64.3715 28.6022 23.6845 0.0000 16.6194 0.0000
# 2 28.6022 166.4552 48.6151 0.0000 18.2043 0.0000
# 3 23.6845 48.6151 114.4706 0.0000 13.8969 0.0000
# 4 0.0000 0.0000 0.0000 36.9527 0.0000 3.7364
# 5 16.6194 18.2043 13.8969 0.0000 45.4672 0.0000
# 6 0.0000 0.0000 0.0000 3.7364 0.0000 31.2295
#
#
#
# Elastic Compliance Matrix: (Units=1/GPa)
#
#
# Indices 1 2 3 4 5 6 
#
# 1 0.018642 -0.001923 -0.002396 0.000000 -0.005312 0.000000
# 2 -0.001923 0.007223 -0.002497 0.000000 -0.001426 0.000000
# 3 -0.002396 -0.002497 0.010452 0.000000 -0.001319 0.000000
# 4 0.000000 0.000000 0.000000 0.027393 0.000000 -0.003277
# 5 -0.005312 -0.001426 -0.001319 0.000000 0.024910 0.000000
# 6 0.000000 0.000000 0.000000 -0.003277 0.000000 0.032413
#
#
# Mechanical properties :
#
#
# Convention : Reuss Voigt Hill
#
# Bulk Modulus (GPa) = 44.07773 60.78898 52.43335
# Shear Modulus (GPa) = 35.15541 39.02292 37.08917
#
# Velocity S-wave (km/s) = 3.82801 4.03308 3.93188
# Velocity P-wave (km/s) = 6.15719 6.85755 6.51679
#
# Compressibility (1/GPa) = 0.02268720
#
# Stress axis : x y z
#
# Youngs Moduli (GPa) = 53.64217 138.44367 95.67503
#
# Poissons Ratio (x) = 0.26618 0.22921
# Poissons Ratio (y) = 0.10313 0.23887
# Poissons Ratio (z) = 0.12851 0.34565
#
# Static dielectric constant tensor:
#      x y z
#    x 1.996620 0.000000 -0.013470 
#    y 0.000000 2.103270 0.000000 
#    z -0.013470 0.000000 1.950770 
# 
# From -- ./inp_files/175223.got.cif
#   From: 2010.05.17/outbox.cif.g08.bks.cpg/sg12_88_cif.got.tgz:175223.got - 2010.06.03 13:09:07.
