data_PCOD9216215
_publ_section_title
;
Structure prediction by ZEFSAII (Michael W. Deem and Ramdas Pophale) SiO2 
 PCOD9216215
Probable space group: C 2/M
;
_chemical_formula_sum "Si O2"
_cell_formula_units_Z 48
_cell_length_a 27.186375
_cell_length_b 14.846937
_cell_length_c 11.107136
_cell_angle_alpha 90.000000
_cell_angle_beta 29.300233
_cell_angle_gamma 90.000000
_cell_volume 2194.026142
_symmetry_space_group_name_H-M "C 2/M"
_symmetry_group_IT_number 12
_symmetry_cell_setting 'monoclinic'
loop_
_space_group_symop_operation_xyz
x,y,z
-x,y,-z
-x,-y,-z
x,-y,z
1/2+x,1/2+y,z
1/2-x,1/2+y,-z
1/2-x,1/2-y,-z
1/2+x,1/2-y,z
loop_
_atom_site_type_symbol
_atom_site_label
_atom_site_fract_x
_atom_site_fract_y
_atom_site_fract_z
Si Si1 0.880914 0.790657 0.743709
Si Si2 0.300269 0.105102 0.968144
Si Si3 0.789278 0.631746 0.259084
Si Si4 0.898094 0.000000 0.054689
Si Si5 0.723100 0.670540 0.778300
Si Si6 0.599461 0.101835 0.733755
Si Si7 0.386024 0.500000 0.365464
O O1 0.813543 0.852217 0.797524
O O2 0.000000 0.810364 0.500000
O O3 0.864421 0.682458 0.761755
O O4 0.821898 0.811391 0.994393
O O5 0.338951 0.106607 0.024495
O O6 0.301184 0.000000 0.925205
O O7 0.793599 0.738419 0.259140
O O8 0.831525 0.596116 0.294331
O O9 0.680397 0.588370 0.472905
O O10 0.838809 0.086706 0.138296
O O11 0.902427 0.000000 0.188304
O O12 0.014063 0.000000 0.769406
O O13 0.839774 0.647498 0.504011
O O14 0.573424 0.000000 0.750458
O O15 0.500000 0.147944 0.000000
#
# Coordination Sequence:
#
# PCOD9216215 Si02
#       7
#     8   8   8   4   8   8   4
#     4  10  25  44  66  99 131 171 224 271 321 382
#     4  10  22  43  69  93 131 171 217 274 322 383
#     4  11  21  41  65  93 130 166 213 270 321 391
#     4  11  24  38  60  97 132 173 211 268 321 392
#     4  11  23  42  65  92 137 165 215 269 319 389
#     4  11  22  40  65  94 130 171 212 262 328 391
#     4  11  22  38  63  94 134 165 218 261 326 395
#
# _framework density 21.877586999999998
#
# number of rings (size 3 to 8) (size 9 to 14) (size 15 to 20)
#    0.000    1.333    4.167    0.500    3.500    2.000 
#   15.000    0.000    0.000    0.000    0.000    0.000 
#    0.000    0.000    0.000    0.000    0.000    0.000 
#
# Total GULP energy -133718.945800 kJ/mol
# GULP energy per Si atom -5571.622742 kJ/mol
# Density = 2.182779 g / cm^3
# Si number density = 21.877587 Si / 1000 Ang^3
#
#
#
# Elastic Constant Matrix: (Units=GPa)
#
#
# Indices 1 2 3 4 5 6 
#
# 1 51.9810 19.6351 30.5686 0.0000 8.5349 0.0000
# 2 19.6351 160.9091 20.5908 0.0000 -3.3741 0.0000
# 3 30.5686 20.5908 127.0361 0.0000 -8.7804 0.0000
# 4 0.0000 0.0000 0.0000 24.8540 0.0000 16.5681
# 5 8.5349 -3.3741 -8.7804 0.0000 33.9371 0.0000
# 6 0.0000 0.0000 0.0000 16.5681 0.0000 6.8055
#
#
#
# Elastic Compliance Matrix: (Units=1/GPa)
#
#
# Indices 1 2 3 4 5 6 
#
# 1 0.025166 -0.002446 -0.006225 0.000000 -0.008183 0.000000
# 2 -0.002446 0.006589 -0.000399 0.000000 0.001167 0.000000
# 3 -0.006225 -0.000399 0.009713 0.000000 0.004039 0.000000
# 4 0.000000 0.000000 0.000000 -0.064595 0.000000 0.157257
# 5 -0.008183 0.001167 0.004039 0.000000 0.032685 0.000000
# 6 0.000000 0.000000 0.000000 0.157257 0.000000 -0.235904
#
#
# Mechanical properties :
#
#
# Convention : Reuss Voigt Hill
#
# Bulk Modulus (GPa) = 42.86479 53.50169 48.18324
# Shear Modulus (GPa) = -24.94628 31.06143 3.05757
#
# Velocity S-wave (km/s) = -3.38045 3.77209 1.18348
# Velocity P-wave (km/s) = 2.09738 6.59391 4.89278
#
# Compressibility (1/GPa) = 0.02332917
#
# Stress axis : x y z
#
# Youngs Moduli (GPa) = 39.73632 151.77621 102.95027
#
# Poissons Ratio (x) = 0.37123 0.64084
# Poissons Ratio (y) = 0.09719 0.04105
# Poissons Ratio (z) = 0.24735 0.06051
#
# Static dielectric constant tensor:
#      x y z
#    x 1.842090 0.000000 0.008770 
#    y 0.000000 1.801480 0.000000 
#    z 0.008770 0.000000 1.885560 
# 
# From -- ./inp_files/183697.got.cif
#   From: 2010.05.17/outbox.cif.g08.bks.cpg/sg12_92_cif.got.tgz:183697.got - 2010.06.03 13:09:07.
