data_PCOD9216750
_publ_section_title
;
Structure prediction by ZEFSAII (Michael W. Deem and Ramdas Pophale) SiO2 
 PCOD9216750
Probable space group: C 2/M
;
_chemical_formula_sum "Si O2"
_cell_formula_units_Z 36
_cell_length_a 16.494159
_cell_length_b 20.167641
_cell_length_c 4.840159
_cell_angle_alpha 90.000000
_cell_angle_beta 63.505611
_cell_angle_gamma 90.000000
_cell_volume 1440.977810
_symmetry_space_group_name_H-M "C 2/M"
_symmetry_group_IT_number 12
_symmetry_cell_setting 'monoclinic'
loop_
_space_group_symop_operation_xyz
x,y,z
-x,y,-z
-x,-y,-z
x,-y,z
1/2+x,1/2+y,z
1/2-x,1/2+y,-z
1/2-x,1/2-y,-z
1/2+x,1/2-y,z
loop_
_atom_site_type_symbol
_atom_site_label
_atom_site_fract_x
_atom_site_fract_y
_atom_site_fract_z
Si Si1 0.776377 0.887319 0.850528
Si Si2 0.316721 0.000000 0.383203
Si Si3 0.062345 0.612571 0.664239
Si Si4 0.896553 0.866473 0.142493
Si Si5 0.166999 0.725917 0.815612
O O1 0.854800 0.867737 0.510669
O O2 0.711280 0.822469 0.978980
O O3 0.720896 0.942545 0.773355
O O4 0.829428 0.907882 0.046132
O O5 0.361668 0.058645 0.510499
O O6 0.103574 0.678469 0.731881
O O7 0.000000 0.627031 0.500000
O O8 0.000000 0.580674 0.000000
O O9 0.887828 0.792124 0.029160
O O10 0.000000 0.888396 0.000000
O O11 0.250000 0.750000 0.500000
#
# Coordination Sequence:
#
# PCOD9216750 Si02
#       5
#     8   4   8   8   8
#     4  10  23  40  61  87 117 160 203 243 299 365
#     4  10  24  44  65  86 124 164 204 250 303 362
#     4  11  24  40  63  95 125 159 202 251 302 357
#     4  11  22  39  61  89 120 154 199 254 302 350
#     4   9  21  38  61  89 123 160 197 241 301 366
#
# _framework density 24.983035000000001
#
# number of rings (size 3 to 8) (size 9 to 14) (size 15 to 20)
#    0.000    1.778    0.000    2.667    0.000   20.444 
#    0.000    3.333    0.000    0.000    0.000    0.000 
#    0.000    0.000    0.000    0.000    0.000    0.000 
#
# Total GULP energy -100332.138952 kJ/mol
# GULP energy per Si atom -5574.007720 kJ/mol
# Density = 2.492617 g / cm^3
# Si number density = 24.983035 Si / 1000 Ang^3
#
#
#
# Elastic Constant Matrix: (Units=GPa)
#
#
# Indices 1 2 3 4 5 6 
#
# 1 167.0201 6.4672 31.0609 0.0000 26.2189 0.0000
# 2 6.4672 72.6302 -24.1212 0.0000 -2.9023 0.0000
# 3 31.0609 -24.1212 84.6503 0.0000 12.7867 0.0000
# 4 0.0000 0.0000 0.0000 -28.1022 0.0000 47.0182
# 5 26.2189 -2.9023 12.7867 0.0000 39.8660 0.0000
# 6 0.0000 0.0000 0.0000 47.0182 0.0000 -34.3199
#
#
#
# Elastic Compliance Matrix: (Units=1/GPa)
#
#
# Indices 1 2 3 4 5 6 
#
# 1 0.007141 -0.001618 -0.002474 0.000000 -0.004021 0.000000
# 2 -0.001618 0.015578 0.004940 0.000000 0.000614 0.000000
# 3 -0.002474 0.004940 0.014533 0.000000 -0.002674 0.000000
# 4 0.000000 0.000000 0.000000 0.027539 0.000000 0.037728
# 5 -0.004021 0.000614 -0.002674 0.000000 0.028631 0.000000
# 6 0.000000 0.000000 0.000000 0.037728 0.000000 0.022549
#
#
# Mechanical properties :
#
#
# Convention : Reuss Voigt Hill
#
# Bulk Modulus (GPa) = 25.67610 39.01272 32.34441
# Shear Modulus (GPa) = 39.29034 16.21503 27.75268
#
# Velocity S-wave (km/s) = 3.97001 2.55039 3.33657
# Velocity P-wave (km/s) = 5.59592 4.93176 5.27430
#
# Compressibility (1/GPa) = 0.03894673
#
# Stress axis : x y z
#
# Youngs Moduli (GPa) = 140.03083 64.19476 68.81009
#
# Poissons Ratio (x) = 0.10388 0.17024
# Poissons Ratio (y) = 0.22660 -0.33992
# Poissons Ratio (z) = 0.34645 -0.31712
#
# Static dielectric constant tensor:
#      x y z
#    x 1.991020 0.000000 -0.067740 
#    y 0.000000 2.021520 0.000000 
#    z -0.067740 0.000000 2.044260 
# 
# From -- ./inp_files/10727.got.cif
#   From: 2010.05.17/outbox.cif.g08.bks.cpg/sg12_6_cif.got.tgz:10727.got - 2010.06.03 13:09:07.
