data_PCOD9216084
_publ_section_title
;
Structure prediction by ZEFSAII (Michael W. Deem and Ramdas Pophale) SiO2 
 PCOD9216084
Probable space group: C 2/M
;
_chemical_formula_sum "Si O2"
_cell_formula_units_Z 44
_cell_length_a 8.809929
_cell_length_b 10.910444
_cell_length_c 22.142537
_cell_angle_alpha 90.000000
_cell_angle_beta 74.090237
_cell_angle_gamma 90.000000
_cell_volume 2046.818793
_symmetry_space_group_name_H-M "C 2/M"
_symmetry_group_IT_number 12
_symmetry_cell_setting 'monoclinic'
loop_
_space_group_symop_operation_xyz
x,y,z
-x,y,-z
-x,-y,-z
x,-y,z
1/2+x,1/2+y,z
1/2-x,1/2+y,-z
1/2-x,1/2-y,-z
1/2+x,1/2-y,z
loop_
_atom_site_type_symbol
_atom_site_label
_atom_site_fract_x
_atom_site_fract_y
_atom_site_fract_z
Si Si1 0.733525 0.639923 0.049924
Si Si2 0.045228 0.862868 0.325056
Si Si3 0.693258 0.000000 0.163677
Si Si4 0.810993 0.201755 0.247037
Si Si5 0.857062 0.137168 0.468330
Si Si6 0.008994 0.305716 0.877234
O O1 0.728299 0.500000 0.028003
O O2 0.879311 0.652387 0.080492
O O3 0.567631 0.672823 0.101061
O O4 0.750000 0.750000 0.000000
O O5 0.181462 0.763478 0.303814
O O6 0.944978 0.854657 0.274613
O O7 0.931262 0.841452 0.394210
O O8 0.112116 0.000000 0.324637
O O9 0.736514 0.894040 0.209136
O O10 0.635615 0.894105 0.121470
O O11 0.888314 0.303579 0.194874
O O12 0.750000 0.250000 0.500000
O O13 0.000000 0.132786 0.500000
O O14 0.781824 0.000000 0.476623
#
# Coordination Sequence:
#
# PCOD9216084 Si02
#       6
#     8   8   4   8   8   8
#     4  12  29  47  72  99 131 173 220 269 322 385
#     4  11  24  40  64  96 132 170 218 270 324 387
#     4  12  24  42  67  97 135 165 215 260 327 388
#     4  12  24  41  66  98 131 168 212 268 327 389
#     4  10  22  43  64  92 131 177 224 274 326 384
#     4  12  26  45  70  96 132 173 214 263 328 389
#
# _framework density 21.496773000000001
#
# number of rings (size 3 to 8) (size 9 to 14) (size 15 to 20)
#    0.000    0.545    5.455    1.636    3.818    4.000 
#    1.636    0.000    0.000    0.000    0.000    0.000 
#    0.000    0.000    0.000    0.000    0.000    0.000 
#
# Total GULP energy -122487.462627 kJ/mol
# GULP energy per Si atom -5567.611938 kJ/mol
# Density = 2.144785 g / cm^3
# Si number density = 21.496773 Si / 1000 Ang^3
#
#
#
# Elastic Constant Matrix: (Units=GPa)
#
#
# Indices 1 2 3 4 5 6 
#
# 1 34.3732 17.4890 -2.4391 0.0000 2.3296 0.0000
# 2 17.4890 112.9920 21.9335 0.0000 -15.2889 0.0000
# 3 -2.4391 21.9335 83.8572 0.0000 5.2365 0.0000
# 4 0.0000 0.0000 0.0000 143.9554 0.0000 66.4802
# 5 2.3296 -15.2889 5.2365 0.0000 33.3754 0.0000
# 6 0.0000 0.0000 0.0000 66.4802 0.0000 38.2269
#
#
#
# Elastic Compliance Matrix: (Units=1/GPa)
#
#
# Indices 1 2 3 4 5 6 
#
# 1 0.032984 -0.006465 0.003009 0.000000 -0.005736 0.000000
# 2 -0.006465 0.011383 -0.003554 0.000000 0.006223 0.000000
# 3 0.003009 -0.003554 0.013186 0.000000 -0.003907 0.000000
# 4 0.000000 0.000000 0.000000 0.035286 0.000000 -0.061366
# 5 -0.005736 0.006223 -0.003907 0.000000 0.033826 0.000000
# 6 0.000000 0.000000 0.000000 -0.061366 0.000000 0.132881
#
#
# Mechanical properties :
#
#
# Convention : Reuss Voigt Hill
#
# Bulk Modulus (GPa) = 22.97179 33.90992 28.44086
# Shear Modulus (GPa) = 17.35637 56.06079 36.70858
#
# Velocity S-wave (km/s) = 2.84455 5.11227 4.13683
# Velocity P-wave (km/s) = 4.63659 7.11729 6.00640
#
# Compressibility (1/GPa) = 0.04353165
#
# Stress axis : x y z
#
# Youngs Moduli (GPa) = 30.31748 87.85144 75.83765
#
# Poissons Ratio (x) = 0.56800 -0.22817
# Poissons Ratio (y) = 0.19602 0.26952
# Poissons Ratio (z) = -0.09122 0.31222
#
# Static dielectric constant tensor:
#      x y z
#    x 1.799020 0.000000 -0.051070 
#    y 0.000000 1.812960 0.000000 
#    z -0.051070 0.000000 1.783710 
# 
# From -- ./inp_files/299313.got.cif
#   From: 2010.05.17/outbox.cif.g08.bks.cpg/sg12_150_cif.got.tgz:299313.got - 2010.06.03 13:09:07.
