data_PCOD9216506
_publ_section_title
;
Structure prediction by ZEFSAII (Michael W. Deem and Ramdas Pophale) SiO2 
 PCOD9216506
Probable space group: C 2/M
;
_chemical_formula_sum "Si O2"
_cell_formula_units_Z 46
_cell_length_a 26.772534
_cell_length_b 19.919371
_cell_length_c 9.602478
_cell_angle_alpha 90.000000
_cell_angle_beta 148.539846
_cell_angle_gamma 90.000000
_cell_volume 2672.638824
_symmetry_space_group_name_H-M "C 2/M"
_symmetry_group_IT_number 12
_symmetry_cell_setting 'monoclinic'
loop_
_space_group_symop_operation_xyz
x,y,z
-x,y,-z
-x,-y,-z
x,-y,z
1/2+x,1/2+y,z
1/2-x,1/2+y,-z
1/2-x,1/2-y,-z
1/2+x,1/2-y,z
loop_
_atom_site_type_symbol
_atom_site_label
_atom_site_fract_x
_atom_site_fract_y
_atom_site_fract_z
Si Si1 0.139240 0.807033 0.610697
Si Si2 0.000000 0.000000 0.000000
Si Si3 0.000000 0.648870 0.000000
Si Si4 0.160144 0.881524 0.389642
Si Si5 0.430583 0.268881 0.023122
Si Si6 0.198278 0.420985 0.508309
Si Si7 0.784689 0.809234 0.902457
O O1 0.178223 0.860509 0.591670
O O2 0.190542 0.735855 0.701955
O O3 0.026602 0.801608 0.313739
O O4 0.164735 0.822606 0.830303
O O5 0.916300 0.058872 0.801486
O O6 0.089396 0.603820 0.257150
O O7 0.960293 0.698744 0.025255
O O8 0.254045 0.901738 0.526538
O O9 0.114261 0.816141 0.203876
O O10 0.353299 0.267356 0.962309
O O11 0.206442 0.500000 0.549887
O O12 0.257886 0.377810 0.761757
#
# Coordination Sequence:
#
# PCOD9216506 Si02
#       7
#     8   2   4   8   8   8   8
#     4  11  19  38  56  86 108 145 188 238 290 324
#     4  12  18  36  56  82 108 146 182 234 276 332
#     4  12  20  36  64  82 110 150 196 242 276 326
#     4  11  21  36  60  82 111 146 191 237 282 334
#     4  11  19  36  57  86 108 142 189 242 282 325
#     4  11  23  39  55  84 117 155 190 229 279 344
#     4  10  23  35  58  82 116 145 185 236 288 335
#
# _framework density 17.211454
#
# number of rings (size 3 to 8) (size 9 to 14) (size 15 to 20)
#    0.000    1.043    6.087    1.826    0.000    2.783 
#    1.565    0.000    0.000    4.174    0.000    4.870 
#    0.000    0.000    0.000    0.000    0.000    0.000 
#
# Total GULP energy -128161.330600 kJ/mol
# GULP energy per Si atom -5572.231765 kJ/mol
# Density = 1.717228 g / cm^3
# Si number density = 17.211454 Si / 1000 Ang^3
#
#
#
# Elastic Constant Matrix: (Units=GPa)
#
#
# Indices 1 2 3 4 5 6 
#
# 1 80.8757 24.5245 35.8790 0.0000 -5.2071 0.0000
# 2 24.5245 67.1797 11.7203 0.0000 5.5049 0.0000
# 3 35.8790 11.7203 52.7538 0.0000 1.1621 0.0000
# 4 0.0000 0.0000 0.0000 12.2671 0.0000 5.5515
# 5 -5.2071 5.5049 1.1621 0.0000 28.3501 0.0000
# 6 0.0000 0.0000 0.0000 5.5515 0.0000 17.3024
#
#
#
# Elastic Compliance Matrix: (Units=1/GPa)
#
#
# Indices 1 2 3 4 5 6 
#
# 1 0.019881 -0.005522 -0.012410 0.000000 0.005232 0.000000
# 2 -0.005522 0.017256 0.000018 0.000000 -0.004365 0.000000
# 3 -0.012410 0.000018 0.027468 0.000000 -0.003409 0.000000
# 4 0.000000 0.000000 0.000000 0.095367 0.000000 -0.030599
# 5 0.005232 -0.004365 -0.003409 0.000000 0.037222 0.000000
# 6 0.000000 0.000000 0.000000 -0.030599 0.000000 0.067613
#
#
# Mechanical properties :
#
#
# Convention : Reuss Voigt Hill
#
# Bulk Modulus (GPa) = 34.75042 38.33965 36.54503
# Shear Modulus (GPa) = 16.11725 20.16296 18.14010
#
# Velocity S-wave (km/s) = 3.06343 3.42641 3.24999
# Velocity P-wave (km/s) = 5.72249 6.16261 5.94662
#
# Compressibility (1/GPa) = 0.02877663
#
# Stress axis : x y z
#
# Youngs Moduli (GPa) = 50.29803 57.95176 36.40643
#
# Poissons Ratio (x) = 0.31998 0.45182
# Poissons Ratio (y) = 0.27772 -0.00065
# Poissons Ratio (z) = 0.62422 -0.00103
#
# Static dielectric constant tensor:
#      x y z
#    x 1.608580 0.000000 0.006930 
#    y 0.000000 1.561180 0.000000 
#    z 0.006930 0.000000 1.571290 
# 
# From -- ./inp_files/77309.got.cif
#   From: 2010.05.17/outbox.cif.g08.bks.cpg/sg12_39_cif.got.tgz:77309.got - 2010.06.03 13:09:07.
