data_PCOD9216170
_publ_section_title
;
Structure prediction by ZEFSAII (Michael W. Deem and Ramdas Pophale) SiO2 
 PCOD9216170
Probable space group: C 2/M
;
_chemical_formula_sum "Si O2"
_cell_formula_units_Z 32
_cell_length_a 14.272127
_cell_length_b 10.815364
_cell_length_c 9.573792
_cell_angle_alpha 90.000000
_cell_angle_beta 103.513849
_cell_angle_gamma 90.000000
_cell_volume 1436.878778
_symmetry_space_group_name_H-M "C 2/M"
_symmetry_group_IT_number 12
_symmetry_cell_setting 'monoclinic'
loop_
_space_group_symop_operation_xyz
x,y,z
-x,y,-z
-x,-y,-z
x,-y,z
1/2+x,1/2+y,z
1/2-x,1/2+y,-z
1/2-x,1/2-y,-z
1/2+x,1/2-y,z
loop_
_atom_site_type_symbol
_atom_site_label
_atom_site_fract_x
_atom_site_fract_y
_atom_site_fract_z
Si Si1 0.945684 0.778951 0.346676
Si Si2 0.817736 0.136984 0.064814
Si Si3 0.779999 0.636881 0.411792
Si Si4 0.584564 0.361463 0.178730
O O1 0.861892 0.851563 0.234682
O O2 0.885702 0.663253 0.385552
O O3 0.000000 0.835908 0.500000
O O4 0.027113 0.765416 0.255533
O O5 0.774604 0.000000 0.032150
O O6 0.750000 0.250000 0.000000
O O7 0.904729 0.149283 0.983619
O O8 0.777274 0.500000 0.476527
O O9 0.750000 0.750000 0.500000
O O10 0.696360 0.638994 0.266383
O O11 0.547901 0.500000 0.202485
#
# Coordination Sequence:
#
# PCOD9216170 Si02
#       4
#     8   8   8   8
#     4  12  24  41  69 108 135 179 232 295 344 409
#     4  11  24  44  70 100 140 187 233 288 348 416
#     4  11  24  45  69 101 144 185 229 288 352 415
#     4  10  22  43  67  95 137 184 231 280 341 417
#
# _framework density 22.270492000000001
#
# number of rings (size 3 to 8) (size 9 to 14) (size 15 to 20)
#    0.000    1.000    5.000    1.500    0.000    6.500 
#    0.000    1.250    0.000    3.000    0.000    0.000 
#    0.000    0.000    0.000    0.000    0.000    0.000 
#
# Total GULP energy -89206.220115 kJ/mol
# GULP energy per Si atom -5575.388757 kJ/mol
# Density = 2.221980 g / cm^3
# Si number density = 22.270492 Si / 1000 Ang^3
#
#
#
# Elastic Constant Matrix: (Units=GPa)
#
#
# Indices 1 2 3 4 5 6 
#
# 1 101.3988 53.5671 9.0277 0.0000 1.2575 0.0000
# 2 53.5671 152.0959 51.4101 0.0000 -2.0102 0.0000
# 3 9.0277 51.4101 137.8973 0.0000 5.6997 0.0000
# 4 0.0000 0.0000 0.0000 26.0697 0.0000 -0.2567
# 5 1.2575 -2.0102 5.6997 0.0000 34.6118 0.0000
# 6 0.0000 0.0000 0.0000 -0.2567 0.0000 35.4978
#
#
#
# Elastic Compliance Matrix: (Units=1/GPa)
#
#
# Indices 1 2 3 4 5 6 
#
# 1 0.012244 -0.004651 0.000969 0.000000 -0.000874 0.000000
# 2 -0.004651 0.009318 -0.003221 0.000000 0.001241 0.000000
# 3 0.000969 -0.003221 0.008456 0.000000 -0.001615 0.000000
# 4 0.000000 0.000000 0.000000 0.038361 0.000000 0.000277
# 5 -0.000874 0.001241 -0.001615 0.000000 0.029262 0.000000
# 6 0.000000 0.000000 0.000000 0.000277 0.000000 0.028173
#
#
# Mechanical properties :
#
#
# Convention : Reuss Voigt Hill
#
# Bulk Modulus (GPa) = 61.68597 68.82241 65.25419
# Shear Modulus (GPa) = 34.47722 37.72832 36.10277
#
# Velocity S-wave (km/s) = 3.93887 4.12040 4.03066
# Velocity P-wave (km/s) = 6.96024 7.32168 7.14325
#
# Compressibility (1/GPa) = 0.01621114
#
# Stress axis : x y z
#
# Youngs Moduli (GPa) = 81.67430 107.32040 118.26204
#
# Poissons Ratio (x) = 0.49916 -0.11455
# Poissons Ratio (y) = 0.37988 0.38088
# Poissons Ratio (z) = -0.07911 0.34564
#
# Static dielectric constant tensor:
#      x y z
#    x 1.901100 0.000000 0.052030 
#    y 0.000000 1.831490 0.000000 
#    z 0.052030 0.000000 1.921020 
# 
# From -- ./inp_files/56998.got.cif
#   From: 2010.05.17/outbox.cif.g08.bks.cpg/sg12_29_cif.got.tgz:56998.got - 2010.06.03 13:09:07.
