data_PCOD9216179
_publ_section_title
;
Structure prediction by ZEFSAII (Michael W. Deem and Ramdas Pophale) SiO2 
 PCOD9216179
Probable space group: C 2/M
;
_chemical_formula_sum "Si O2"
_cell_formula_units_Z 40
_cell_length_a 9.703202
_cell_length_b 9.715204
_cell_length_c 21.209795
_cell_angle_alpha 90.000000
_cell_angle_beta 71.147157
_cell_angle_gamma 90.000000
_cell_volume 1892.151932
_symmetry_space_group_name_H-M "C 2/M"
_symmetry_group_IT_number 12
_symmetry_cell_setting 'monoclinic'
loop_
_space_group_symop_operation_xyz
x,y,z
-x,y,-z
-x,-y,-z
x,-y,z
1/2+x,1/2+y,z
1/2-x,1/2+y,-z
1/2-x,1/2-y,-z
1/2+x,1/2-y,z
loop_
_atom_site_type_symbol
_atom_site_label
_atom_site_fract_x
_atom_site_fract_y
_atom_site_fract_z
Si Si1 0.884876 0.837742 0.854765
Si Si2 0.138332 0.000000 0.435010
Si Si3 0.561840 0.158119 0.276512
Si Si4 0.326109 0.000000 0.527381
Si Si5 0.381711 0.340626 0.072370
Si Si6 0.749924 0.733210 0.636159
O O1 0.750703 0.765143 0.910355
O O2 0.901901 0.756595 0.787044
O O3 0.030300 0.824165 0.875212
O O4 0.857669 0.000000 0.849315
O O5 0.272759 0.000000 0.463782
O O6 0.148924 0.135206 0.391942
O O7 0.000000 0.000000 0.500000
O O8 0.412508 0.212298 0.329572
O O9 0.688612 0.163577 0.309916
O O10 0.542232 0.000000 0.258583
O O11 0.500000 0.000000 0.500000
O O12 0.267015 0.131263 0.574622
O O13 0.330479 0.500000 0.075741
O O14 0.500000 0.319523 0.000000
#
# Coordination Sequence:
#
# PCOD9216179 Si02
#       6
#     8   4   8   4   8   8
#     4  11  25  40  67 100 130 174 223 269 320 381
#     4  12  24  42  66 100 128 162 217 268 323 398
#     4  12  26  46  65  95 133 172 219 270 324 389
#     4  12  24  44  68  96 132 166 211 268 329 396
#     4  10  22  43  67  98 138 177 216 266 324 381
#     4  12  25  44  69  96 129 173 215 268 331 389
#
# _framework density 21.139951
#
# number of rings (size 3 to 8) (size 9 to 14) (size 15 to 20)
#    0.000    0.600    2.000    6.000    2.800    5.200 
#    0.000    0.000    0.000    0.000    0.000    0.000 
#    0.000    0.000    0.000    0.000    0.000    0.000 
#
# Total GULP energy -111998.712106 kJ/mol
# GULP energy per Si atom -5599.935605 kJ/mol
# Density = 2.109184 g / cm^3
# Si number density = 21.139951 Si / 1000 Ang^3
#
#
#
# Elastic Constant Matrix: (Units=GPa)
#
#
# Indices 1 2 3 4 5 6 
#
# 1 64.2103 14.9268 -10.9845 0.0000 -2.8945 0.0000
# 2 14.9268 142.6353 20.5261 0.0000 -12.1457 0.0000
# 3 -10.9845 20.5261 59.9535 0.0000 4.1031 0.0000
# 4 0.0000 0.0000 0.0000 42.7800 0.0000 -8.6049
# 5 -2.8945 -12.1457 4.1031 0.0000 30.7408 0.0000
# 6 0.0000 0.0000 0.0000 -8.6049 0.0000 33.0593
#
#
#
# Elastic Compliance Matrix: (Units=1/GPa)
#
#
# Indices 1 2 3 4 5 6 
#
# 1 0.016773 -0.002296 0.003848 0.000000 0.000159 0.000000
# 2 -0.002296 0.008031 -0.003404 0.000000 0.003411 0.000000
# 3 0.003848 -0.003404 0.018789 0.000000 -0.003490 0.000000
# 4 0.000000 0.000000 0.000000 0.024667 0.000000 0.006420
# 5 0.000159 0.003411 -0.003490 0.000000 0.034359 0.000000
# 6 0.000000 0.000000 0.000000 0.006420 0.000000 0.031920
#
#
# Mechanical properties :
#
#
# Convention : Reuss Voigt Hill
#
# Bulk Modulus (GPa) = 25.06839 35.08176 30.07508
# Shear Modulus (GPa) = 32.99508 37.47140 35.23324
#
# Velocity S-wave (km/s) = 3.95497 4.21472 4.08691
# Velocity P-wave (km/s) = 5.72187 6.34950 6.04384
#
# Compressibility (1/GPa) = 0.03989087
#
# Stress axis : x y z
#
# Youngs Moduli (GPa) = 59.61996 124.51094 53.22311
#
# Poissons Ratio (x) = 0.28582 -0.20481
# Poissons Ratio (y) = 0.13686 0.18116
# Poissons Ratio (z) = -0.22943 0.42380
#
# Static dielectric constant tensor:
#      x y z
#    x 3.477170 0.000000 1.137770 
#    y 0.000000 1.689740 0.000000 
#    z 1.137770 0.000000 2.488300 
# 
# From -- ./inp_files/331780.got.cif
#   From: 2010.05.17/outbox.cif.g08.bks.cpg/sg12_166_cif.got.tgz:331780.got - 2010.06.03 13:09:07.
