data_PCOD9216183
_publ_section_title
;
Structure prediction by ZEFSAII (Michael W. Deem and Ramdas Pophale) SiO2 
 PCOD9216183
Probable space group: C 2/M
;
_chemical_formula_sum "Si O2"
_cell_formula_units_Z 34
_cell_length_a 10.416232
_cell_length_b 25.429730
_cell_length_c 4.767988
_cell_angle_alpha 90.000000
_cell_angle_beta 86.008256
_cell_angle_gamma 90.000000
_cell_volume 1259.890231
_symmetry_space_group_name_H-M "C 2/M"
_symmetry_group_IT_number 12
_symmetry_cell_setting 'monoclinic'
loop_
_space_group_symop_operation_xyz
x,y,z
-x,y,-z
-x,-y,-z
x,-y,z
1/2+x,1/2+y,z
1/2-x,1/2+y,-z
1/2-x,1/2-y,-z
1/2+x,1/2-y,z
loop_
_atom_site_type_symbol
_atom_site_label
_atom_site_fract_x
_atom_site_fract_y
_atom_site_fract_z
Si Si1 0.631574 0.696423 0.315003
Si Si2 0.500000 0.000000 0.500000
Si Si3 0.177357 0.580161 0.135918
Si Si4 0.127082 0.691903 0.294613
Si Si5 0.138217 0.919590 0.362115
O O1 0.500000 0.703097 0.500000
O O2 0.752515 0.694045 0.507940
O O3 0.631245 0.751031 0.143894
O O4 0.616230 0.636789 0.212084
O O5 0.562414 0.045841 0.281121
O O6 0.137351 0.641100 0.095145
O O7 0.280137 0.583702 0.369858
O O8 0.257800 0.555638 0.866867
O O9 0.000000 0.685325 0.500000
O O10 0.000000 0.939470 0.500000
#
# Coordination Sequence:
#
# PCOD9216183 Si02
#       5
#     8   2   8   8   8
#     4   8  16  31  58  90 133 168 216 261 335 399
#     4  12  28  50  66 102 128 186 224 292 324 396
#     4  11  24  42  68  92 134 172 225 275 333 388
#     4   9  16  33  56  93 128 175 215 270 325 409
#     4  10  22  43  68 100 129 171 213 278 335 408
#
# _framework density 26.986478000000002
#
# number of rings (size 3 to 8) (size 9 to 14) (size 15 to 20)
#    0.000    2.353    1.176    0.706    0.000    3.765 
#    0.000    3.529    0.000   14.118    0.000    0.000 
#    0.000    0.000    0.000    0.000    0.000    0.000 
#
# Total GULP energy -94650.147058 kJ/mol
# GULP energy per Si atom -5567.655709 kJ/mol
# Density = 2.692506 g / cm^3
# Si number density = 26.986478 Si / 1000 Ang^3
#
#
#
# Elastic Constant Matrix: (Units=GPa)
#
#
# Indices 1 2 3 4 5 6 
#
# 1 186.9045 4.9262 70.0323 0.0000 -40.5102 0.0000
# 2 4.9262 169.6457 7.8455 0.0000 -19.2300 0.0000
# 3 70.0323 7.8455 131.7906 0.0000 -49.0293 0.0000
# 4 0.0000 0.0000 0.0000 -18.1241 0.0000 -32.6361
# 5 -40.5102 -19.2300 -49.0293 0.0000 90.0395 0.0000
# 6 0.0000 0.0000 0.0000 -32.6361 0.0000 63.4366
#
#
#
# Elastic Compliance Matrix: (Units=1/GPa)
#
#
# Indices 1 2 3 4 5 6 
#
# 1 0.006815 0.000104 -0.003108 0.000000 0.001396 0.000000
# 2 0.000104 0.006045 0.000104 0.000000 0.001394 0.000000
# 3 -0.003108 0.000104 0.010937 0.000000 0.004579 0.000000
# 4 0.000000 0.000000 0.000000 -0.028642 0.000000 -0.014735
# 5 0.001396 0.001394 0.004579 0.000000 0.014525 0.000000
# 6 0.000000 0.000000 0.000000 -0.014735 0.000000 0.008183
#
#
# Mechanical properties :
#
#
# Convention : Reuss Voigt Hill
#
# Bulk Modulus (GPa) = 55.57033 72.66099 64.11566
# Shear Modulus (GPa) = 168.56002 54.10619 111.33310
#
# Velocity S-wave (km/s) = 7.91180 4.48251 6.42998
# Velocity P-wave (km/s) = 10.20287 7.33307 8.88461
#
# Compressibility (1/GPa) = 0.01799521
#
# Stress axis : x y z
#
# Youngs Moduli (GPa) = 146.74071 165.42960 91.43384
#
# Poissons Ratio (x) = -0.01722 0.28420
# Poissons Ratio (y) = -0.01527 -0.00947
# Poissons Ratio (z) = 0.45610 -0.01713
#
# Static dielectric constant tensor:
#      x y z
#    x 1.983990 0.000000 0.035090 
#    y 0.000000 2.233060 0.000000 
#    z 0.035090 0.000000 2.016460 
# 
# From -- ./inp_files/7395.got.cif
#   From: 2010.05.17/outbox.cif.g08.bks.cpg/sg12_4_cif.got.tgz:7395.got - 2010.06.03 13:09:07.
