data_PCOD9216614
_publ_section_title
;
Structure prediction by ZEFSAII (Michael W. Deem and Ramdas Pophale) SiO2 
 PCOD9216614
Probable space group: C 2/M
;
_chemical_formula_sum "Si O2"
_cell_formula_units_Z 40
_cell_length_a 18.923138
_cell_length_b 18.899905
_cell_length_c 5.452402
_cell_angle_alpha 90.000000
_cell_angle_beta 91.993478
_cell_angle_gamma 90.000000
_cell_volume 1948.846927
_symmetry_space_group_name_H-M "C 2/M"
_symmetry_group_IT_number 12
_symmetry_cell_setting 'monoclinic'
loop_
_space_group_symop_operation_xyz
x,y,z
-x,y,-z
-x,-y,-z
x,-y,z
1/2+x,1/2+y,z
1/2-x,1/2+y,-z
1/2-x,1/2-y,-z
1/2+x,1/2-y,z
loop_
_atom_site_type_symbol
_atom_site_label
_atom_site_fract_x
_atom_site_fract_y
_atom_site_fract_z
Si Si1 0.426850 0.257260 0.389152
Si Si2 0.042021 0.391117 0.761181
Si Si3 0.742224 0.500000 0.781619
Si Si4 0.166135 0.500000 0.712559
Si Si5 0.810206 0.255972 0.711800
Si Si6 0.807120 0.151710 0.107603
O O1 0.500000 0.288135 0.500000
O O2 0.443690 0.192624 0.212312
O O3 0.383922 0.221266 0.608010
O O4 0.370045 0.309946 0.265124
O O5 0.114763 0.432624 0.728816
O O6 0.000000 0.401545 0.500000
O O7 0.000000 0.415119 0.000000
O O8 0.787851 0.500000 0.533955
O O9 0.697426 0.571857 0.805014
O O10 0.788007 0.500000 0.035734
O O11 0.750000 0.250000 0.500000
O O12 0.772280 0.314496 0.874466
O O13 0.822064 0.179116 0.834617
#
# Coordination Sequence:
#
# PCOD9216614 Si02
#       6
#     8   8   4   4   8   8
#     4  10  23  38  66  95 127 171 222 274 334 396
#     4  11  24  41  64  97 136 177 215 267 331 406
#     4  12  28  41  67  99 125 184 221 277 331 401
#     4  12  26  43  66  94 138 177 227 263 335 401
#     4   9  20  39  65  93 127 168 215 283 331 380
#     4  10  23  40  65  92 135 165 227 276 332 388
#
# _framework density 20.524954999999999
#
# number of rings (size 3 to 8) (size 9 to 14) (size 15 to 20)
#    0.000    1.600    0.000    3.000   19.600    0.000 
#    0.000    0.500    0.000    1.200    0.000    0.000 
#    0.000    0.000    0.000    0.000    0.000    0.000 
#
# Total GULP energy -111502.929569 kJ/mol
# GULP energy per Si atom -5575.146478 kJ/mol
# Density = 2.047824 g / cm^3
# Si number density = 20.524955 Si / 1000 Ang^3
#
#
#
# Elastic Constant Matrix: (Units=GPa)
#
#
# Indices 1 2 3 4 5 6 
#
# 1 123.3410 44.1470 49.4389 0.0000 13.6956 0.0000
# 2 44.1470 120.2020 40.0512 0.0000 4.3632 0.0000
# 3 49.4389 40.0512 119.2300 0.0000 0.0777 0.0000
# 4 0.0000 0.0000 0.0000 17.3039 0.0000 0.6080
# 5 13.6956 4.3632 0.0777 0.0000 39.3019 0.0000
# 6 0.0000 0.0000 0.0000 0.6080 0.0000 43.7691
#
#
#
# Elastic Compliance Matrix: (Units=1/GPa)
#
#
# Indices 1 2 3 4 5 6 
#
# 1 0.010903 -0.002671 -0.003622 0.000000 -0.003496 0.000000
# 2 -0.002671 0.010064 -0.002273 0.000000 -0.000182 0.000000
# 3 -0.003622 -0.002273 0.010651 0.000000 0.001493 0.000000
# 4 0.000000 0.000000 0.000000 0.057819 0.000000 -0.000803
# 5 -0.003496 -0.000182 0.001493 0.000000 0.026680 0.000000
# 6 0.000000 0.000000 0.000000 -0.000803 0.000000 0.022858
#
#
# Mechanical properties :
#
#
# Convention : Reuss Voigt Hill
#
# Bulk Modulus (GPa) = 69.02348 70.00524 69.51436
# Shear Modulus (GPa) = 31.06819 35.35071 33.20945
#
# Velocity S-wave (km/s) = 3.89482 4.15460 4.02681
# Velocity P-wave (km/s) = 7.34359 7.56278 7.45399
#
# Compressibility (1/GPa) = 0.01448782
#
# Stress axis : x y z
#
# Youngs Moduli (GPa) = 91.71420 99.36103 93.88367
#
# Poissons Ratio (x) = 0.26539 0.34001
# Poissons Ratio (y) = 0.24496 0.21341
# Poissons Ratio (z) = 0.33216 0.22586
#
# Static dielectric constant tensor:
#      x y z
#    x 1.731040 0.000000 -0.033680 
#    y 0.000000 1.786280 0.000000 
#    z -0.033680 0.000000 1.876670 
# 
# From -- ./inp_files/15840.got.cif
#   From: 2010.05.17/outbox.cif.g08.bks.cpg/sg12_8_cif.got.tgz:15840.got - 2010.06.03 13:09:07.
