data_PCOD9216383
_publ_section_title
;
Structure prediction by ZEFSAII (Michael W. Deem and Ramdas Pophale) SiO2 
 PCOD9216383
Probable space group: C 2/M
;
_chemical_formula_sum "Si O2"
_cell_formula_units_Z 40
_cell_length_a 9.211342
_cell_length_b 17.329851
_cell_length_c 11.223503
_cell_angle_alpha 90.000000
_cell_angle_beta 78.156847
_cell_angle_gamma 90.000000
_cell_volume 1753.483005
_symmetry_space_group_name_H-M "C 2/M"
_symmetry_group_IT_number 12
_symmetry_cell_setting 'monoclinic'
loop_
_space_group_symop_operation_xyz
x,y,z
-x,y,-z
-x,-y,-z
x,-y,z
1/2+x,1/2+y,z
1/2-x,1/2+y,-z
1/2-x,1/2-y,-z
1/2+x,1/2-y,z
loop_
_atom_site_type_symbol
_atom_site_label
_atom_site_fract_x
_atom_site_fract_y
_atom_site_fract_z
Si Si1 0.290283 0.356510 0.703052
Si Si2 0.827026 0.590895 0.518082
Si Si3 0.906445 0.088763 0.233019
Si Si4 0.742389 0.209284 0.130134
Si Si5 0.997566 0.582403 0.858210
O O1 0.257480 0.360728 0.568708
O O2 0.449199 0.388226 0.715604
O O3 0.266342 0.273349 0.766354
O O4 0.162252 0.408946 0.782547
O O5 0.825040 0.500000 0.483051
O O6 0.734730 0.595976 0.655051
O O7 0.000000 0.613577 0.500000
O O8 0.877113 0.150548 0.133918
O O9 0.920256 0.000000 0.190522
O O10 0.597405 0.155950 0.160596
O O11 0.750000 0.250000 0.000000
O O12 0.933890 0.500000 0.826869
O O13 0.000000 0.581687 0.000000
#
# Coordination Sequence:
#
# PCOD9216383 Si02
#       5
#     8   8   8   8   8
#     4  12  24  42  73 105 141 177 225 293 353 402
#     4  10  22  44  73 104 138 180 231 286 346 420
#     4  11  25  45  72 104 139 180 231 288 346 409
#     4  12  26  47  67  98 144 187 230 285 343 412
#     4  11  23  43  69  97 133 186 236 274 334 414
#
# _framework density 22.811741000000001
#
# number of rings (size 3 to 8) (size 9 to 14) (size 15 to 20)
#    0.000    0.800    2.000    5.400    0.000    4.000 
#    0.000    3.000    0.000    0.000    0.000    0.000 
#    0.000    0.000    0.000    0.000    0.000    0.000 
#
# Total GULP energy -112014.457959 kJ/mol
# GULP energy per Si atom -5600.722898 kJ/mol
# Density = 2.275982 g / cm^3
# Si number density = 22.811741 Si / 1000 Ang^3
#
#
#
# Elastic Constant Matrix: (Units=GPa)
#
#
# Indices 1 2 3 4 5 6 
#
# 1 142.3301 49.1394 34.1673 0.0000 15.9686 0.0000
# 2 49.1394 171.8154 49.9899 0.0000 27.0850 0.0000
# 3 34.1673 49.9899 95.4950 0.0000 17.5591 0.0000
# 4 0.0000 0.0000 0.0000 65.2274 0.0000 4.0941
# 5 15.9686 27.0850 17.5591 0.0000 39.9251 0.0000
# 6 0.0000 0.0000 0.0000 4.0941 0.0000 37.6832
#
#
#
# Elastic Compliance Matrix: (Units=1/GPa)
#
#
# Indices 1 2 3 4 5 6 
#
# 1 0.008169 -0.001583 -0.001840 0.000000 -0.001385 0.000000
# 2 -0.001583 0.007610 -0.002812 0.000000 -0.003293 0.000000
# 3 -0.001840 -0.002812 0.013182 0.000000 -0.003154 0.000000
# 4 0.000000 0.000000 0.000000 0.015436 0.000000 -0.001677
# 5 -0.001385 -0.003293 -0.003154 0.000000 0.029222 0.000000
# 6 0.000000 0.000000 0.000000 -0.001677 0.000000 0.026719
#
#
# Mechanical properties :
#
#
# Convention : Reuss Voigt Hill
#
# Bulk Modulus (GPa) = 60.63447 75.13709 67.88578
# Shear Modulus (GPa) = 42.26355 46.99006 44.62681
#
# Velocity S-wave (km/s) = 4.30898 4.54354 4.42782
# Velocity P-wave (km/s) = 7.16900 7.78039 7.48094
#
# Compressibility (1/GPa) = 0.01649227
#
# Stress axis : x y z
#
# Youngs Moduli (GPa) = 122.40800 131.40348 75.86148
#
# Poissons Ratio (x) = 0.20800 0.13956
# Poissons Ratio (y) = 0.19376 0.21332
# Poissons Ratio (z) = 0.22520 0.36950
#
# Static dielectric constant tensor:
#      x y z
#    x 1.839280 0.000000 0.035880 
#    y 0.000000 1.828000 0.000000 
#    z 0.035880 0.000000 1.892170 
# 
# From -- ./inp_files/118924.got.cif
#   From: 2010.05.17/outbox.cif.g08.bks.cpg/sg12_60_cif.got.tgz:118924.got - 2010.06.03 13:09:07.
