data_PCOD9216266
_publ_section_title
;
Structure prediction by ZEFSAII (Michael W. Deem and Ramdas Pophale) SiO2 
 PCOD9216266
Probable space group: C 2/M
;
_chemical_formula_sum "Si O2"
_cell_formula_units_Z 36
_cell_length_a 14.663550
_cell_length_b 13.597587
_cell_length_c 8.755577
_cell_angle_alpha 90.000000
_cell_angle_beta 120.950637
_cell_angle_gamma 90.000000
_cell_volume 1497.186627
_symmetry_space_group_name_H-M "C 2/M"
_symmetry_group_IT_number 12
_symmetry_cell_setting 'monoclinic'
loop_
_space_group_symop_operation_xyz
x,y,z
-x,y,-z
-x,-y,-z
x,-y,z
1/2+x,1/2+y,z
1/2-x,1/2+y,-z
1/2-x,1/2-y,-z
1/2+x,1/2-y,z
loop_
_atom_site_type_symbol
_atom_site_label
_atom_site_fract_x
_atom_site_fract_y
_atom_site_fract_z
Si Si1 0.553499 0.893947 0.372007
Si Si2 0.000000 0.683189 0.000000
Si Si3 0.221394 0.220530 0.144046
Si Si4 0.610567 0.307991 0.504275
Si Si5 0.174094 0.000000 0.079639
Si Si6 0.041225 0.000000 0.267039
O O1 0.500000 0.894985 0.500000
O O2 0.493069 0.878441 0.155048
O O3 0.622716 0.795975 0.429059
O O4 0.607244 0.000000 0.406863
O O5 0.899511 0.755665 0.921036
O O6 0.291420 0.298070 0.299569
O O7 0.239137 0.101834 0.158038
O O8 0.250000 0.250000 0.000000
O O9 0.500000 0.300452 0.500000
O O10 0.589959 0.404318 0.390341
O O11 0.094031 0.000000 0.149835
O O12 0.089018 0.000000 0.862274
#
# Coordination Sequence:
#
# PCOD9216266 Si02
#       6
#     8   4   8   8   4   4
#     4  10  22  43  71 105 151 197 245 311 379 460
#     4  12  25  49  76 108 154 201 258 315 390 462
#     4  12  27  49  76 113 154 201 263 326 388 470
#     4  11  24  45  74 107 149 197 251 320 386 451
#     4  11  24  44  75 105 146 204 252 320 389 458
#     4  11  23  46  76 105 145 199 265 317 378 464
#
# _framework density 24.045097999999999
#
# number of rings (size 3 to 8) (size 9 to 14) (size 15 to 20)
#    0.000    0.889    0.000    8.667    1.556    4.444 
#   12.000    0.000    0.000    0.000    0.000    0.000 
#    0.000    0.000    0.000    0.000    0.000    0.000 
#
# Total GULP energy -100274.121502 kJ/mol
# GULP energy per Si atom -5570.784528 kJ/mol
# Density = 2.399037 g / cm^3
# Si number density = 24.045098 Si / 1000 Ang^3
#
#
#
# Elastic Constant Matrix: (Units=GPa)
#
#
# Indices 1 2 3 4 5 6 
#
# 1 94.1188 5.3595 27.8471 0.0000 3.6669 0.0000
# 2 5.3595 188.3008 37.6292 0.0000 0.8925 0.0000
# 3 27.8471 37.6292 135.8372 0.0000 -5.6314 0.0000
# 4 0.0000 0.0000 0.0000 157.3613 0.0000 139.4985
# 5 3.6669 0.8925 -5.6314 0.0000 38.5389 0.0000
# 6 0.0000 0.0000 0.0000 139.4985 0.0000 189.9546
#
#
#
# Elastic Compliance Matrix: (Units=1/GPa)
#
#
# Indices 1 2 3 4 5 6 
#
# 1 0.011394 0.000171 -0.002443 0.000000 -0.001445 0.000000
# 2 0.000171 0.005629 -0.001610 0.000000 -0.000382 0.000000
# 3 -0.002443 -0.001610 0.008371 0.000000 0.001493 0.000000
# 4 0.000000 0.000000 0.000000 0.018209 0.000000 -0.013373
# 5 -0.001445 -0.000382 0.001493 0.000000 0.026312 0.000000
# 6 0.000000 0.000000 0.000000 -0.013373 0.000000 0.015085
#
#
# Mechanical properties :
#
#
# Convention : Reuss Voigt Hill
#
# Bulk Modulus (GPa) = 56.72459 62.21427 59.46943
# Shear Modulus (GPa) = 50.68815 100.33236 75.51025
#
# Velocity S-wave (km/s) = 4.59633 6.46663 5.60997
# Velocity P-wave (km/s) = 7.19795 9.03806 8.16998
#
# Compressibility (1/GPa) = 0.01762904
#
# Stress axis : x y z
#
# Youngs Moduli (GPa) = 87.76327 177.63909 119.46636
#
# Poissons Ratio (x) = -0.03033 0.29187
# Poissons Ratio (y) = -0.01499 0.19237
# Poissons Ratio (z) = 0.21441 0.28605
#
# Static dielectric constant tensor:
#      x y z
#    x 1.893820 0.000000 0.056350 
#    y 0.000000 2.314370 0.000000 
#    z 0.056350 0.000000 2.110650 
# 
# From -- ./inp_files/58550.got.cif
#   From: 2010.05.17/outbox.cif.g08.bks.cpg/sg12_30_cif.got.tgz:58550.got - 2010.06.03 13:09:07.
