data_PCOD9216014
_publ_section_title
;
Structure prediction by ZEFSAII (Michael W. Deem and Ramdas Pophale) SiO2 
 PCOD9216014
Probable space group: C 2/M
;
_chemical_formula_sum "Si O2"
_cell_formula_units_Z 64
_cell_length_a 16.583802
_cell_length_b 15.909718
_cell_length_c 15.212431
_cell_angle_alpha 90.000000
_cell_angle_beta 44.171711
_cell_angle_gamma 90.000000
_cell_volume 2796.792448
_symmetry_space_group_name_H-M "C 2/M"
_symmetry_group_IT_number 12
_symmetry_cell_setting 'monoclinic'
loop_
_space_group_symop_operation_xyz
x,y,z
-x,y,-z
-x,-y,-z
x,-y,z
1/2+x,1/2+y,z
1/2-x,1/2+y,-z
1/2-x,1/2-y,-z
1/2+x,1/2-y,z
loop_
_atom_site_type_symbol
_atom_site_label
_atom_site_fract_x
_atom_site_fract_y
_atom_site_fract_z
Si Si1 0.424872 0.281538 0.770760
Si Si2 0.236814 0.407711 0.704277
Si Si3 0.814766 0.720934 0.689509
Si Si4 0.007827 0.627645 0.784240
Si Si5 0.760055 0.908757 0.987606
Si Si6 0.626121 0.591735 0.585898
Si Si7 0.637161 0.594038 0.896269
Si Si8 0.360484 0.097309 0.503025
O O1 0.386646 0.219165 0.723449
O O2 0.485812 0.227442 0.798956
O O3 0.522752 0.343992 0.661379
O O4 0.314542 0.332936 0.890415
O O5 0.253043 0.500000 0.735798
O O6 0.282529 0.319513 0.706493
O O7 0.308515 0.411945 0.557674
O O8 0.102059 0.398294 0.782700
O O9 0.700312 0.666230 0.793733
O O10 0.877737 0.671871 0.560271
O O11 0.878766 0.593581 0.898388
O O12 0.063928 0.603655 0.645666
O O13 0.815136 0.902106 0.041617
O O14 0.794303 0.000000 0.924645
O O15 0.578961 0.500000 0.645332
O O16 0.727996 0.610966 0.574695
O O17 0.666343 0.500000 0.839539
O O18 0.500000 0.603029 0.000000
O O19 0.373918 0.000000 0.524802
#
# Coordination Sequence:
#
# PCOD9216014 Si02
#       8
#     8   8   8   8   8   8   8   8
#     4  12  25  39  63  97 132 175 219 264 334 393
#     4  10  23  42  66  93 130 179 223 271 324 385
#     4  12  25  41  64  99 141 171 214 271 338 398
#     4  11  22  43  68  94 130 173 224 271 326 395
#     4  11  24  44  67  93 129 175 224 276 325 388
#     4   9  20  41  66  93 125 169 229 278 321 380
#     4  10  24  44  66  97 132 172 221 274 336 391
#     4  10  22  42  70 101 130 171 220 277 338 391
#
# _framework density 22.883358000000001
#
# number of rings (size 3 to 8) (size 9 to 14) (size 15 to 20)
#    0.000    1.375    1.250    4.500    3.500    5.000 
#    0.000    1.875    0.000    1.875    0.000    0.000 
#    0.000    0.000    0.000    0.000    0.000    0.000 
#
# Total GULP energy -178823.167380 kJ/mol
# GULP energy per Si atom -5588.223981 kJ/mol
# Density = 2.283127 g / cm^3
# Si number density = 22.883358 Si / 1000 Ang^3
#
#
#
# Elastic Constant Matrix: (Units=GPa)
#
#
# Indices 1 2 3 4 5 6 
#
# 1 43.0507 15.8577 16.1616 0.0000 -12.7221 0.0000
# 2 15.8577 116.4308 30.2089 0.0000 -2.4154 0.0000
# 3 16.1616 30.2089 79.0291 0.0000 -21.0902 0.0000
# 4 0.0000 0.0000 0.0000 5.4481 0.0000 45.1623
# 5 -12.7221 -2.4154 -21.0902 0.0000 33.9465 0.0000
# 6 0.0000 0.0000 0.0000 45.1623 0.0000 47.3956
#
#
#
# Elastic Compliance Matrix: (Units=1/GPa)
#
#
# Indices 1 2 3 4 5 6 
#
# 1 0.027774 -0.003040 -0.002155 0.000000 0.008853 0.000000
# 2 -0.003040 0.009971 -0.003961 0.000000 -0.002891 0.000000
# 3 -0.002155 -0.003961 0.017163 0.000000 0.009574 0.000000
# 4 0.000000 0.000000 0.000000 -0.026606 0.000000 0.025352
# 5 0.008853 -0.002891 0.009574 0.000000 0.038518 0.000000
# 6 0.000000 0.000000 0.000000 0.025352 0.000000 -0.003058
#
#
# Mechanical properties :
#
#
# Convention : Reuss Voigt Hill
#
# Bulk Modulus (GPa) = 27.32583 40.32966 33.82774
# Shear Modulus (GPa) = 53.03787 29.11020 41.07404
#
# Velocity S-wave (km/s) = 4.81952 3.57054 4.24126
# Velocity P-wave (km/s) = 6.55269 5.88732 6.22890
#
# Compressibility (1/GPa) = 0.03659541
#
# Stress axis : x y z
#
# Youngs Moduli (GPa) = 36.00553 100.29517 58.26393
#
# Poissons Ratio (x) = 0.30489 0.12556
# Poissons Ratio (y) = 0.10945 0.23078
# Poissons Ratio (z) = 0.07759 0.39727
#
# Static dielectric constant tensor:
#      x y z
#    x 1.833200 0.000000 0.026180 
#    y 0.000000 1.904210 0.000000 
#    z 0.026180 0.000000 1.832420 
# 
# From -- ./inp_files/278135.got.cif
#   From: 2010.05.17/outbox.cif.g08.bks.cpg/sg12_140_cif.got.tgz:278135.got - 2010.06.03 13:09:07.
