data_PCOD9216285
_publ_section_title
;
Structure prediction by ZEFSAII (Michael W. Deem and Ramdas Pophale) SiO2 
 PCOD9216285
Probable space group: C 2/M
;
_chemical_formula_sum "Si O2"
_cell_formula_units_Z 26
_cell_length_a 10.422829
_cell_length_b 18.608476
_cell_length_c 7.627371
_cell_angle_alpha 90.000000
_cell_angle_beta 137.405615
_cell_angle_gamma 90.000000
_cell_volume 1001.230561
_symmetry_space_group_name_H-M "C 2/M"
_symmetry_group_IT_number 12
_symmetry_cell_setting 'monoclinic'
loop_
_space_group_symop_operation_xyz
x,y,z
-x,y,-z
-x,-y,-z
x,-y,z
1/2+x,1/2+y,z
1/2-x,1/2+y,-z
1/2-x,1/2-y,-z
1/2+x,1/2-y,z
loop_
_atom_site_type_symbol
_atom_site_label
_atom_site_fract_x
_atom_site_fract_y
_atom_site_fract_z
Si Si1 0.276404 0.576620 0.733246
Si Si2 0.220496 0.231928 0.171731
Si Si3 0.000000 0.000000 0.500000
Si Si4 0.720564 0.114663 0.276908
O O1 0.201876 0.500000 0.724861
O O2 0.199013 0.652514 0.720860
O O3 0.249529 0.580090 0.496655
O O4 0.500000 0.575946 0.000000
O O5 0.288081 0.302238 0.346288
O O6 0.250000 0.250000 0.000000
O O7 0.000000 0.226929 0.000000
O O8 0.150276 0.063945 0.713180
O O9 0.500000 0.113295 0.000000
#
# Coordination Sequence:
#
# PCOD9216285 Si02
#       4
#     8   8   2   8
#     4  10  22  43  74 110 149 197 253 315 375 446
#     4  10  24  46  76 109 157 204 254 313 382 457
#     4  12  26  40  86 104 154 200 254 316 392 452
#     4  11  25  47  74 114 154 199 258 314 381 460
#
# _framework density 25.968046000000001
#
# number of rings (size 3 to 8) (size 9 to 14) (size 15 to 20)
#    0.000    1.538    1.538    1.385    8.615    0.000 
#    0.000    0.000    0.000    9.231    0.000    0.000 
#    0.000    0.000    0.000    0.000    0.000    0.000 
#
# Total GULP energy -72511.069422 kJ/mol
# GULP energy per Si atom -5577.774571 kJ/mol
# Density = 2.590894 g / cm^3
# Si number density = 25.968046 Si / 1000 Ang^3
#
#
#
# Elastic Constant Matrix: (Units=GPa)
#
#
# Indices 1 2 3 4 5 6 
#
# 1 90.8980 27.9730 36.9264 0.0000 14.0721 0.0000
# 2 27.9730 357.2183 33.4423 0.0000 7.3017 0.0000
# 3 36.9264 33.4423 150.0626 0.0000 25.3527 0.0000
# 4 0.0000 0.0000 0.0000 27.3121 0.0000 -24.1234
# 5 14.0721 7.3017 25.3527 0.0000 59.3343 0.0000
# 6 0.0000 0.0000 0.0000 -24.1234 0.0000 -22.9981
#
#
#
# Elastic Compliance Matrix: (Units=1/GPa)
#
#
# Indices 1 2 3 4 5 6 
#
# 1 0.012561 -0.000701 -0.002636 0.000000 -0.001766 0.000000
# 2 -0.000701 0.002899 -0.000476 0.000000 0.000013 0.000000
# 3 -0.002636 -0.000476 0.007871 0.000000 -0.002679 0.000000
# 4 0.000000 0.000000 0.000000 0.019006 0.000000 -0.019936
# 5 -0.001766 0.000013 -0.002679 0.000000 0.018416 0.000000
# 6 0.000000 0.000000 0.000000 -0.019936 0.000000 -0.022571
#
#
# Mechanical properties :
#
#
# Convention : Reuss Voigt Hill
#
# Bulk Modulus (GPa) = 63.67138 88.31804 75.99471
# Shear Modulus (GPa) = 97.95625 46.05213 72.00419
#
# Velocity S-wave (km/s) = 6.14847 4.21576 5.27145
# Velocity P-wave (km/s) = 8.65895 7.60138 8.14734
#
# Compressibility (1/GPa) = 0.01570564
#
# Stress axis : x y z
#
# Youngs Moduli (GPa) = 79.60845 344.99965 127.04307
#
# Poissons Ratio (x) = 0.24175 0.33494
# Poissons Ratio (y) = 0.05578 0.06043
# Poissons Ratio (z) = 0.20988 0.16411
#
# Static dielectric constant tensor:
#      x y z
#    x 2.203140 0.000000 -0.085930 
#    y 0.000000 2.061020 0.000000 
#    z -0.085930 0.000000 2.055690 
# 
# From -- ./inp_files/48193.got.cif
#   From: 2010.05.17/outbox.cif.g08.bks.cpg/sg12_25_cif.got.tgz:48193.got - 2010.06.03 13:09:07.
