data_PCOD9216757
_publ_section_title
;
Structure prediction by ZEFSAII (Michael W. Deem and Ramdas Pophale) SiO2 
 PCOD9216757
Probable space group: C 2/M
;
_chemical_formula_sum "Si O2"
_cell_formula_units_Z 56
_cell_length_a 14.208173
_cell_length_b 14.574870
_cell_length_c 12.514667
_cell_angle_alpha 90.000000
_cell_angle_beta 95.101951
_cell_angle_gamma 90.000000
_cell_volume 2581.298021
_symmetry_space_group_name_H-M "C 2/M"
_symmetry_group_IT_number 12
_symmetry_cell_setting 'monoclinic'
loop_
_space_group_symop_operation_xyz
x,y,z
-x,y,-z
-x,-y,-z
x,-y,z
1/2+x,1/2+y,z
1/2-x,1/2+y,-z
1/2-x,1/2-y,-z
1/2+x,1/2-y,z
loop_
_atom_site_type_symbol
_atom_site_label
_atom_site_fract_x
_atom_site_fract_y
_atom_site_fract_z
Si Si1 0.129777 0.234370 0.587036
Si Si2 0.728916 0.644084 0.980466
Si Si3 0.147646 0.747270 0.352308
Si Si4 0.894955 0.896914 0.829378
Si Si5 0.067982 0.396635 0.922251
Si Si6 0.600265 0.604459 0.775423
Si Si7 0.478401 0.110677 0.318243
O O1 0.112986 0.210394 0.461943
O O2 0.241894 0.227666 0.619570
O O3 0.086156 0.169515 0.672914
O O4 0.087087 0.336031 0.603176
O O5 0.689500 0.627601 0.858607
O O6 0.750000 0.750000 0.000000
O O7 0.653041 0.613388 0.060759
O O8 0.828829 0.598969 0.017778
O O9 0.139546 0.818205 0.254361
O O10 0.082054 0.657614 0.328260
O O11 0.007902 0.888720 0.840675
O O12 0.871658 0.000000 0.786967
O O13 0.029360 0.500000 0.903968
O O14 0.066682 0.361306 0.801693
O O15 0.000000 0.346724 0.000000
O O16 0.609074 0.500000 0.739227
O O17 0.479374 0.000000 0.332716
#
# Coordination Sequence:
#
# PCOD9216757 Si02
#       7
#     8   8   8   8   8   8   8
#     4  11  25  45  66 101 135 178 231 290 348 416
#     4  12  25  39  65  99 137 175 218 275 337 408
#     4  11  25  44  69  98 138 174 233 292 346 414
#     4  11  24  43  68  96 131 179 226 276 342 409
#     4  10  23  40  61  92 131 174 218 266 327 402
#     4  11  24  42  68  99 135 178 227 280 341 410
#     4  11  24  45  72 101 140 184 230 286 355 426
#
# _framework density 21.694512
#
# number of rings (size 3 to 8) (size 9 to 14) (size 15 to 20)
#    0.000    1.000    1.429    4.714    4.000    5.143 
#    0.000    4.286    0.000    0.000    0.000    0.000 
#    0.000    0.000    0.000    0.000    0.000    0.000 
#
# Total GULP energy -156498.225523 kJ/mol
# GULP energy per Si atom -5589.222340 kJ/mol
# Density = 2.164513 g / cm^3
# Si number density = 21.694512 Si / 1000 Ang^3
#
#
#
# Elastic Constant Matrix: (Units=GPa)
#
#
# Indices 1 2 3 4 5 6 
#
# 1 86.5428 15.2004 13.8230 0.0000 5.5708 0.0000
# 2 15.2004 104.9146 17.6538 0.0000 4.5586 0.0000
# 3 13.8230 17.6538 95.6755 0.0000 1.8519 0.0000
# 4 0.0000 0.0000 0.0000 7.5085 0.0000 -4.0612
# 5 5.5708 4.5586 1.8519 0.0000 41.2634 0.0000
# 6 0.0000 0.0000 0.0000 -4.0612 0.0000 24.6868
#
#
#
# Elastic Compliance Matrix: (Units=1/GPa)
#
#
# Indices 1 2 3 4 5 6 
#
# 1 0.012134 -0.001451 -0.001458 0.000000 -0.001412 0.000000
# 2 -0.001451 0.010052 -0.001629 0.000000 -0.000842 0.000000
# 3 -0.001458 -0.001629 0.010965 0.000000 -0.000115 0.000000
# 4 0.000000 0.000000 0.000000 0.146190 0.000000 0.024050
# 5 -0.001412 -0.000842 -0.000115 0.000000 0.024523 0.000000
# 6 0.000000 0.000000 0.000000 0.024050 0.000000 0.044464
#
#
# Mechanical properties :
#
#
# Convention : Reuss Voigt Hill
#
# Bulk Modulus (GPa) = 41.53619 42.27635 41.90627
# Shear Modulus (GPa) = 18.83732 30.72212 24.77972
#
# Velocity S-wave (km/s) = 2.94989 3.76723 3.38333
# Velocity P-wave (km/s) = 5.54887 6.20097 5.88396
#
# Compressibility (1/GPa) = 0.02407539
#
# Stress axis : x y z
#
# Youngs Moduli (GPa) = 82.41538 99.47789 91.19572
#
# Poissons Ratio (x) = 0.14437 0.13296
# Poissons Ratio (y) = 0.11961 0.14855
# Poissons Ratio (z) = 0.12015 0.16204
#
# Static dielectric constant tensor:
#      x y z
#    x 1.835710 0.000000 -0.014300 
#    y 0.000000 1.764080 0.000000 
#    z -0.014300 0.000000 1.812720 
# 
# From -- ./inp_files/143740.got.cif
#   From: 2010.05.17/outbox.cif.g08.bks.cpg/sg12_72_cif.got.tgz:143740.got - 2010.06.03 13:09:07.
