data_PCOD9216670
_publ_section_title
;
Structure prediction by ZEFSAII (Michael W. Deem and Ramdas Pophale) SiO2 
 PCOD9216670
Probable space group: C 2/M
;
_chemical_formula_sum "Si O2"
_cell_formula_units_Z 52
_cell_length_a 9.710015
_cell_length_b 17.122754
_cell_length_c 22.267288
_cell_angle_alpha 90.000000
_cell_angle_beta 135.194573
_cell_angle_gamma 90.000000
_cell_volume 2608.951399
_symmetry_space_group_name_H-M "C 2/M"
_symmetry_group_IT_number 12
_symmetry_cell_setting 'monoclinic'
loop_
_space_group_symop_operation_xyz
x,y,z
-x,y,-z
-x,-y,-z
x,-y,z
1/2+x,1/2+y,z
1/2-x,1/2+y,-z
1/2-x,1/2-y,-z
1/2+x,1/2-y,z
loop_
_atom_site_type_symbol
_atom_site_label
_atom_site_fract_x
_atom_site_fract_y
_atom_site_fract_z
Si Si1 0.500000 0.149666 0.000000
Si Si2 0.133492 0.593229 0.364103
Si Si3 0.701920 0.206557 0.764963
Si Si4 0.035755 0.412492 0.140348
Si Si5 0.687468 0.905640 0.519974
Si Si6 0.872131 0.247835 0.125012
Si Si7 0.880564 0.145957 0.330056
O O1 0.557404 0.099160 0.075631
O O2 0.680480 0.206582 0.040920
O O3 0.131285 0.500000 0.359022
O O4 0.168842 0.615599 0.444109
O O5 0.299725 0.624804 0.370801
O O6 0.927211 0.629578 0.279614
O O7 0.643027 0.251710 0.807478
O O8 0.649973 0.263256 0.693776
O O9 0.935618 0.201521 0.836764
O O10 0.963888 0.500000 0.131206
O O11 0.237408 0.398868 0.239107
O O12 0.901595 0.339213 0.118449
O O13 0.500000 0.878439 0.500000
O O14 0.894399 0.875501 0.607704
O O15 0.691609 0.000000 0.524398
#
# Coordination Sequence:
#
# PCOD9216670 Si02
#       7
#     4   8   8   8   8   8   8
#     4  12  23  44  67  96 128 174 210 264 321 390
#     4  11  23  42  68  95 130 171 216 265 317 377
#     4  11  23  41  66  98 125 169 216 266 312 386
#     4  11  23  40  67  96 128 167 215 266 316 382
#     4  10  23  39  61  96 134 170 213 266 322 375
#     4  11  23  43  68  93 131 169 214 257 330 382
#     4  11  22  41  65  92 128 174 215 259 318 385
#
# _framework density 19.931377999999999
#
# number of rings (size 3 to 8) (size 9 to 14) (size 15 to 20)
#    0.000    1.077    6.154    2.538    2.154    1.846 
#    0.000    1.923    0.000    0.000    0.000    0.000 
#    0.000    0.000    0.000    0.000    0.000    0.000 
#
# Total GULP energy -145231.012039 kJ/mol
# GULP energy per Si atom -5585.808155 kJ/mol
# Density = 1.988601 g / cm^3
# Si number density = 19.931378 Si / 1000 Ang^3
#
#
#
# Elastic Constant Matrix: (Units=GPa)
#
#
# Indices 1 2 3 4 5 6 
#
# 1 125.7693 22.8462 47.2416 0.0000 11.9327 0.0000
# 2 22.8462 60.1388 21.5793 0.0000 8.5836 0.0000
# 3 47.2416 21.5793 81.8559 0.0000 2.9815 0.0000
# 4 0.0000 0.0000 0.0000 11.9692 0.0000 -10.0203
# 5 11.9327 8.5836 2.9815 0.0000 43.7099 0.0000
# 6 0.0000 0.0000 0.0000 -10.0203 0.0000 22.8016
#
#
#
# Elastic Compliance Matrix: (Units=1/GPa)
#
#
# Indices 1 2 3 4 5 6 
#
# 1 0.010556 -0.001704 -0.005564 0.000000 -0.002168 0.000000
# 2 -0.001704 0.019123 -0.003948 0.000000 -0.003021 0.000000
# 3 -0.005564 -0.003948 0.016426 0.000000 0.001174 0.000000
# 4 0.000000 0.000000 0.000000 0.132175 0.000000 0.058085
# 5 -0.002168 -0.003021 0.001174 0.000000 0.023983 0.000000
# 6 0.000000 0.000000 0.000000 0.058085 0.000000 0.069382
#
#
# Mechanical properties :
#
#
# Convention : Reuss Voigt Hill
#
# Bulk Modulus (GPa) = 42.24210 50.12203 46.18207
# Shear Modulus (GPa) = 16.55802 27.43594 21.99698
#
# Velocity S-wave (km/s) = 2.88540 3.71417 3.32571
# Velocity P-wave (km/s) = 5.68687 6.60268 6.16181
#
# Compressibility (1/GPa) = 0.02367306
#
# Stress axis : x y z
#
# Youngs Moduli (GPa) = 94.72995 52.29206 60.87986
#
# Poissons Ratio (x) = 0.08912 0.33874
# Poissons Ratio (y) = 0.16145 0.24034
# Poissons Ratio (z) = 0.52709 0.20644
#
# Static dielectric constant tensor:
#      x y z
#    x 1.715080 0.000000 -0.027630 
#    y 0.000000 1.699490 0.000000 
#    z -0.027630 0.000000 1.737270 
# 
# From -- ./inp_files/301183.got.cif
#   From: 2010.05.17/outbox.cif.g08.bks.cpg/sg12_151_cif.got.tgz:301183.got - 2010.06.03 13:09:07.
