data_PCOD9216663
_publ_section_title
;
Structure prediction by ZEFSAII (Michael W. Deem and Ramdas Pophale) SiO2 
 PCOD9216663
Probable space group: C 2/M
;
_chemical_formula_sum "Si O2"
_cell_formula_units_Z 36
_cell_length_a 10.550459
_cell_length_b 22.549239
_cell_length_c 12.396742
_cell_angle_alpha 90.000000
_cell_angle_beta 36.421460
_cell_angle_gamma 90.000000
_cell_volume 1751.026491
_symmetry_space_group_name_H-M "C 2/M"
_symmetry_group_IT_number 12
_symmetry_cell_setting 'monoclinic'
loop_
_space_group_symop_operation_xyz
x,y,z
-x,y,-z
-x,-y,-z
x,-y,z
1/2+x,1/2+y,z
1/2-x,1/2+y,-z
1/2-x,1/2-y,-z
1/2+x,1/2-y,z
loop_
_atom_site_type_symbol
_atom_site_label
_atom_site_fract_x
_atom_site_fract_y
_atom_site_fract_z
Si Si1 0.344941 0.143250 0.256357
Si Si2 0.090106 0.775871 0.817420
Si Si3 0.311156 0.369784 0.880892
Si Si4 0.214941 0.930945 0.539198
Si Si5 0.500000 0.145080 0.500000
O O1 0.364713 0.212860 0.269732
O O2 0.251663 0.142379 0.199845
O O3 0.208794 0.104769 0.431529
O O4 0.585559 0.117207 0.090999
O O5 0.308090 0.813516 0.673302
O O6 0.921502 0.813633 0.862918
O O7 0.000000 0.766282 0.000000
O O8 0.491782 0.420069 0.754236
O O9 0.398628 0.897366 0.479608
O O10 0.255344 0.000000 0.496662
#
# Coordination Sequence:
#
# PCOD9216663 Si02
#       5
#     8   8   8   8   4
#     4  11  23  37  65  91 126 163 201 251 314 368
#     4  11  22  38  65  95 130 157 198 257 317 373
#     4  10  23  39  60  95 125 162 205 250 310 369
#     4  11  25  44  63  88 126 168 214 254 295 360
#     4  10  25  40  68  94 119 164 208 256 314 362
#
# _framework density 20.559367999999999
#
# number of rings (size 3 to 8) (size 9 to 14) (size 15 to 20)
#    0.000    1.333    2.222    3.000    6.222    4.444 
#    0.000    2.222    0.000    7.333    0.000    0.000 
#    0.000    0.000    0.000    0.000    0.000    0.000 
#
# Total GULP energy -100616.832097 kJ/mol
# GULP energy per Si atom -5589.824005 kJ/mol
# Density = 2.051257 g / cm^3
# Si number density = 20.559368 Si / 1000 Ang^3
#
#
#
# Elastic Constant Matrix: (Units=GPa)
#
#
# Indices 1 2 3 4 5 6 
#
# 1 74.6736 21.8400 31.7057 0.0000 -10.2926 0.0000
# 2 21.8400 125.2333 62.4682 0.0000 12.8210 0.0000
# 3 31.7057 62.4682 105.5373 0.0000 -22.2611 -0.0001
# 4 0.0000 0.0000 0.0000 23.2880 0.0000 18.8192
# 5 -10.2926 12.8210 -22.2611 0.0000 30.7276 0.0001
# 6 0.0000 0.0000 -0.0001 18.8192 0.0001 53.6188
#
#
#
# Elastic Compliance Matrix: (Units=1/GPa)
#
#
# Indices 1 2 3 4 5 6 
#
# 1 0.015641 -0.001676 -0.002897 0.000000 0.003839 0.000000
# 2 -0.001676 0.016232 -0.012573 0.000000 -0.016443 0.000000
# 3 -0.002897 -0.012573 0.022061 0.000000 0.020258 0.000000
# 4 0.000000 0.000000 0.000000 0.059942 0.000000 -0.021039
# 5 0.003839 -0.016443 0.020258 0.000000 0.055367 0.000000
# 6 0.000000 0.000000 0.000000 -0.021039 0.000000 0.026034
#
#
# Mechanical properties :
#
#
# Convention : Reuss Voigt Hill
#
# Bulk Modulus (GPa) = 50.91011 59.71912 55.31461
# Shear Modulus (GPa) = 21.17606 34.15555 27.66581
#
# Velocity S-wave (km/s) = 3.21284 4.08034 3.67230
# Velocity P-wave (km/s) = 6.21123 7.16304 6.70405
#
# Compressibility (1/GPa) = 0.01964246
#
# Stress axis : x y z
#
# Youngs Moduli (GPa) = 63.93446 61.60622 45.32965
#
# Poissons Ratio (x) = 0.10322 0.13134
# Poissons Ratio (y) = 0.10712 0.56992
# Poissons Ratio (z) = 0.18524 0.77456
#
# Static dielectric constant tensor:
#      x y z
#    x 1.825490 0.000000 0.025170 
#    y 0.000000 1.683600 0.000000 
#    z 0.025170 0.000000 1.764220 
# 
# From -- ./inp_files/207469.got.cif
#   From: 2010.05.17/outbox.cif.g08.bks.cpg/sg12_104_cif.got.tgz:207469.got - 2010.06.03 13:09:07.
