data_PCOD9216520
_publ_section_title
;
Structure prediction by ZEFSAII (Michael W. Deem and Ramdas Pophale) SiO2 
 PCOD9216520
Probable space group: C 2/M
;
_chemical_formula_sum "Si O2"
_cell_formula_units_Z 42
_cell_length_a 20.532523
_cell_length_b 7.470605
_cell_length_c 16.313784
_cell_angle_alpha 90.000000
_cell_angle_beta 120.831822
_cell_angle_gamma 90.000000
_cell_volume 2148.729811
_symmetry_space_group_name_H-M "C 2/M"
_symmetry_group_IT_number 12
_symmetry_cell_setting 'monoclinic'
loop_
_space_group_symop_operation_xyz
x,y,z
-x,y,-z
-x,-y,-z
x,-y,z
1/2+x,1/2+y,z
1/2-x,1/2+y,-z
1/2-x,1/2-y,-z
1/2+x,1/2-y,z
loop_
_atom_site_type_symbol
_atom_site_label
_atom_site_fract_x
_atom_site_fract_y
_atom_site_fract_z
Si Si1 0.094671 0.208241 0.634360
Si Si2 0.000000 0.500000 0.500000
Si Si3 0.230183 0.212829 0.237871
Si Si4 0.872843 0.500000 0.907077
Si Si5 0.985540 0.214158 0.717661
Si Si6 0.814281 0.212857 0.607858
Si Si7 0.514545 0.000000 0.873419
O O1 0.065895 0.342715 0.546977
O O2 0.181040 0.246488 0.714345
O O3 0.040450 0.250513 0.676753
O O4 0.086694 0.000000 0.606472
O O5 0.179153 0.327120 0.143342
O O6 0.208381 0.275423 0.315981
O O7 0.217051 0.000000 0.221972
O O8 0.940656 0.500000 0.884008
O O9 0.912784 0.500000 0.020833
O O10 0.011305 0.327200 0.812645
O O11 0.899384 0.273635 0.642084
O O12 0.986994 0.000000 0.733819
O O13 0.750000 0.250000 0.500000
O O14 0.818936 0.000000 0.616447
#
# Coordination Sequence:
#
# PCOD9216520 Si02
#       7
#     8   2   8   4   8   8   4
#     4  11  24  40  65  90 132 172 219 263 318 376
#     4  12  24  40  58  98 126 184 216 258 316 382
#     4  11  23  43  63  92 132 169 208 268 318 381
#     4  11  24  42  70  99 123 163 213 269 329 388
#     4  10  23  43  62  92 129 165 208 271 317 381
#     4  10  23  36  58  89 123 167 209 249 312 374
#     4  11  23  42  73  97 120 165 212 269 335 384
#
# _framework density 19.546430000000001
#
# number of rings (size 3 to 8) (size 9 to 14) (size 15 to 20)
#    0.000    1.333    3.810    0.857    5.333    0.762 
#    0.000    2.857    0.000    0.000    0.000    0.000 
#    0.000    0.000    0.000    0.000    0.000    0.000 
#
# Total GULP energy -117119.648305 kJ/mol
# GULP energy per Si atom -5577.126110 kJ/mol
# Density = 1.950194 g / cm^3
# Si number density = 19.546430 Si / 1000 Ang^3
#
#
#
# Elastic Constant Matrix: (Units=GPa)
#
#
# Indices 1 2 3 4 5 6 
#
# 1 133.2147 34.8934 56.7273 0.0000 23.6603 0.0000
# 2 34.8934 102.1002 45.0195 0.0000 8.4694 0.0000
# 3 56.7273 45.0195 135.1865 0.0000 29.6642 0.0000
# 4 0.0000 0.0000 0.0000 115.7721 0.0000 93.8492
# 5 23.6603 8.4694 29.6642 0.0000 34.3035 0.0000
# 6 0.0000 0.0000 0.0000 93.8492 0.0000 98.1281
#
#
#
# Elastic Compliance Matrix: (Units=1/GPa)
#
#
# Indices 1 2 3 4 5 6 
#
# 1 0.009830 -0.001871 -0.002611 0.000000 -0.004060 0.000000
# 2 -0.001871 0.011846 -0.003457 0.000000 0.001356 0.000000
# 3 -0.002611 -0.003457 0.011184 0.000000 -0.007017 0.000000
# 4 0.000000 0.000000 0.000000 0.038439 0.000000 -0.036763
# 5 -0.004060 0.001356 -0.007017 0.000000 0.037685 0.000000
# 6 0.000000 0.000000 0.000000 -0.036763 0.000000 0.045351
#
#
# Mechanical properties :
#
#
# Convention : Reuss Voigt Hill
#
# Bulk Modulus (GPa) = 58.88931 71.53131 65.21031
# Shear Modulus (GPa) = 28.42970 65.23149 46.83059
#
# Velocity S-wave (km/s) = 3.81789 5.78317 4.90007
# Velocity P-wave (km/s) = 7.04474 9.01490 8.09002
#
# Compressibility (1/GPa) = 0.01698101
#
# Stress axis : x y z
#
# Youngs Moduli (GPa) = 101.73254 84.41858 89.41640
#
# Poissons Ratio (x) = 0.15799 0.23343
# Poissons Ratio (y) = 0.19039 0.30911
# Poissons Ratio (z) = 0.26558 0.29183
#
# Static dielectric constant tensor:
#      x y z
#    x 1.707160 0.000000 -0.003780 
#    y 0.000000 1.708400 0.000000 
#    z -0.003780 0.000000 1.679510 
# 
# From -- ./inp_files/221865.got.cif
#   From: 2010.05.17/outbox.cif.g08.bks.cpg/sg12_111_cif.got.tgz:221865.got - 2010.06.03 13:09:07.
