data_PCOD9216695
_publ_section_title
;
Structure prediction by ZEFSAII (Michael W. Deem and Ramdas Pophale) SiO2 
 PCOD9216695
Probable space group: C 2/M
;
_chemical_formula_sum "Si O2"
_cell_formula_units_Z 46
_cell_length_a 14.429703
_cell_length_b 22.084092
_cell_length_c 21.317371
_cell_angle_alpha 90.000000
_cell_angle_beta 159.639928
_cell_angle_gamma 90.000000
_cell_volume 2363.461179
_symmetry_space_group_name_H-M "C 2/M"
_symmetry_group_IT_number 12
_symmetry_cell_setting 'monoclinic'
loop_
_space_group_symop_operation_xyz
x,y,z
-x,y,-z
-x,-y,-z
x,-y,z
1/2+x,1/2+y,z
1/2-x,1/2+y,-z
1/2-x,1/2-y,-z
1/2+x,1/2-y,z
loop_
_atom_site_type_symbol
_atom_site_label
_atom_site_fract_x
_atom_site_fract_y
_atom_site_fract_z
Si Si1 0.311408 0.500000 0.187618
Si Si2 0.063502 0.806197 0.364030
Si Si3 0.162122 0.000000 0.537615
Si Si4 0.722181 0.687160 0.019906
Si Si5 0.500000 0.000000 0.500000
Si Si6 0.555794 0.600882 0.255095
Si Si7 0.500000 0.259315 0.000000
Si Si8 0.772998 0.130718 0.409047
O O1 0.474092 0.500000 0.356660
O O2 0.383059 0.559585 0.192810
O O3 0.000000 0.500000 0.000000
O O4 0.250000 0.750000 0.500000
O O5 0.157784 0.843040 0.362720
O O6 0.087023 0.849689 0.438312
O O7 0.763681 0.781920 0.166807
O O8 0.323409 0.061934 0.642070
O O9 0.000000 0.000000 0.500000
O O10 0.017123 0.670505 0.230890
O O11 0.750000 0.750000 0.000000
O O12 0.610955 0.633520 0.905569
O O13 0.528911 0.699858 0.956210
O O14 0.275110 0.053963 0.369675
O O15 0.000000 0.134027 0.500000
#
# Coordination Sequence:
#
# PCOD9216695 Si02
#       8
#     4   8   4   8   2   8   4   8
#     4  11  25  41  71 100 134 184 231 297 356 422
#     4  12  24  43  70 102 138 189 234 299 366 433
#     4  10  23  39  65 100 130 176 226 296 348 414
#     4  12  25  46  69 107 144 189 240 300 369 442
#     4  10  28  50  70  98 138 196 246 290 358 432
#     4  11  26  46  72  99 141 186 243 298 354 445
#     4  12  26  42  70 108 144 184 240 296 378 436
#     4  11  24  42  68 100 145 182 231 294 362 430
#
# _framework density 19.462982
#
# number of rings (size 3 to 8) (size 9 to 14) (size 15 to 20)
#    0.000    0.696    5.217    1.043    8.522    0.696 
#    1.565    0.000    0.000    3.652    0.000    0.000 
#    0.000    0.000    0.000    0.000    0.000    0.000 
#
# Total GULP energy -128178.730297 kJ/mol
# GULP energy per Si atom -5572.988274 kJ/mol
# Density = 1.941868 g / cm^3
# Si number density = 19.462982 Si / 1000 Ang^3
#
#
#
# Elastic Constant Matrix: (Units=GPa)
#
#
# Indices 1 2 3 4 5 6 
#
# 1 88.5414 29.3526 31.1840 0.0298 -16.1699 -0.0063
# 2 29.3526 121.7590 47.3341 0.0363 -1.6842 0.0106
# 3 31.1840 47.3341 99.1137 0.0685 0.1360 0.0221
# 4 0.0298 0.0363 0.0685 36.1841 0.0153 -2.9745
# 5 -16.1699 -1.6842 0.1360 0.0153 36.7090 0.0070
# 6 -0.0063 0.0106 0.0221 -2.9745 0.0070 31.5115
#
#
#
# Elastic Compliance Matrix: (Units=1/GPa)
#
#
# Indices 1 2 3 4 5 6 
#
# 1 0.014352 -0.001983 -0.003577 -0.000005 0.006244 0.000004
# 2 -0.001983 0.010368 -0.004327 0.000000 -0.000382 -0.000001
# 3 -0.003577 -0.004327 0.013284 -0.000018 -0.001823 -0.000010
# 4 -0.000005 0.000000 -0.000018 0.027853 -0.000014 0.002629
# 5 0.006244 -0.000382 -0.001823 -0.000014 0.029981 -0.000005
# 6 0.000004 -0.000001 -0.000010 0.002629 -0.000005 0.031983
#
#
# Mechanical properties :
#
#
# Convention : Reuss Voigt Hill
#
# Bulk Modulus (GPa) = 54.85610 58.35061 56.60335
# Shear Modulus (GPa) = 32.53730 34.31713 33.42721
#
# Velocity S-wave (km/s) = 4.09314 4.20360 4.14874
# Velocity P-wave (km/s) = 7.11227 7.32160 7.21769
#
# Compressibility (1/GPa) = 0.01822951
#
# Stress axis : x y z
#
# Youngs Moduli (GPa) = 69.67857 96.45244 75.27942
#
# Poissons Ratio (x) = 0.19125 0.26928
# Poissons Ratio (y) = 0.13816 0.32574
# Poissons Ratio (z) = 0.24924 0.41735
#
# Static dielectric constant tensor:
#      x y z
#    x 2.575130 -0.003340 -0.357590 
#    y -0.003340 1.716810 0.001210 
#    z -0.357590 0.001210 1.761300 
# 
# From -- ./inp_files/312542.got.cif
#   From: 2010.05.17/outbox.cif.g08.bks.cpg/sg12_157_cif.got.tgz:312542.got - 2010.06.03 13:09:07.
