data_PCOD9216620
_publ_section_title
;
Structure prediction by ZEFSAII (Michael W. Deem and Ramdas Pophale) SiO2 
 PCOD9216620
Probable space group: C 2/M
;
_chemical_formula_sum "Si O2"
_cell_formula_units_Z 40
_cell_length_a 21.930906
_cell_length_b 15.892100
_cell_length_c 8.830304
_cell_angle_alpha 90.000000
_cell_angle_beta 34.925684
_cell_angle_gamma 90.000000
_cell_volume 1761.972897
_symmetry_space_group_name_H-M "C 2/M"
_symmetry_group_IT_number 12
_symmetry_cell_setting 'monoclinic'
loop_
_space_group_symop_operation_xyz
x,y,z
-x,y,-z
-x,-y,-z
x,-y,z
1/2+x,1/2+y,z
1/2-x,1/2+y,-z
1/2-x,1/2-y,-z
1/2+x,1/2-y,z
loop_
_atom_site_type_symbol
_atom_site_label
_atom_site_fract_x
_atom_site_fract_y
_atom_site_fract_z
Si Si1 0.451566 0.366690 0.245699
Si Si2 0.450686 0.902837 0.769167
Si Si3 0.285689 0.645496 0.807999
Si Si4 0.862232 0.297868 0.481010
Si Si5 0.832565 0.900588 0.055884
O O1 0.359452 0.404380 0.537397
O O2 0.398279 0.278330 0.300085
O O3 0.500000 0.409299 0.000000
O O4 0.553983 0.357265 0.145465
O O5 0.500000 0.902071 0.500000
O O6 0.536488 0.855435 0.695938
O O7 0.438007 0.000000 0.840778
O O8 0.335773 0.859986 0.996227
O O9 0.330578 0.740544 0.693511
O O10 0.301085 0.610518 0.944077
O O11 0.760032 0.355089 0.659183
O O12 0.839378 0.000000 0.074864
#
# Coordination Sequence:
#
# PCOD9216620 Si02
#       5
#     8   8   8   8   8
#     4  10  26  44  66  88 127 173 219 254 306 373
#     4  11  21  36  62  97 134 160 198 262 327 373
#     4  10  23  38  68  94 126 163 210 255 313 371
#     4  10  23  39  67  92 127 166 210 257 310 376
#     4  12  23  40  66  98 127 159 208 268 319 371
#
# _framework density 22.701823999999998
#
# number of rings (size 3 to 8) (size 9 to 14) (size 15 to 20)
#    1.200    0.200    2.000    3.600    2.800    3.600 
#    0.000    0.000    0.000    1.200    0.000    0.000 
#    0.000    0.000    0.000    0.000    0.000    0.000 
#
# Total GULP energy -111582.356327 kJ/mol
# GULP energy per Si atom -5579.117816 kJ/mol
# Density = 2.265015 g / cm^3
# Si number density = 22.701824 Si / 1000 Ang^3
#
#
#
# Elastic Constant Matrix: (Units=GPa)
#
#
# Indices 1 2 3 4 5 6 
#
# 1 43.7569 6.0169 42.1690 0.0000 -26.3844 0.0000
# 2 6.0169 93.6834 29.5673 0.0000 -2.6233 0.0000
# 3 42.1690 29.5673 141.3470 0.0000 -40.0688 0.0000
# 4 0.0000 0.0000 0.0000 -40.9218 0.0000 15.3418
# 5 -26.3844 -2.6233 -40.0688 0.0000 40.8378 0.0000
# 6 0.0000 0.0000 0.0000 15.3418 0.0000 -3.8415
#
#
#
# Elastic Compliance Matrix: (Units=1/GPa)
#
#
# Indices 1 2 3 4 5 6 
#
# 1 0.041472 -0.000007 -0.006616 0.000000 0.020303 0.000000
# 2 -0.000007 0.011578 -0.003062 0.000000 -0.002265 0.000000
# 3 -0.006616 -0.003062 0.011666 0.000000 0.006976 0.000000
# 4 0.000000 0.000000 0.000000 0.049142 0.000000 0.196261
# 5 0.020303 -0.002265 0.006976 0.000000 0.044303 0.000000
# 6 0.000000 0.000000 0.000000 0.196261 0.000000 0.523496
#
#
# Mechanical properties :
#
#
# Convention : Reuss Voigt Hill
#
# Bulk Modulus (GPa) = 22.05217 48.25484 35.15350
# Shear Modulus (GPa) = 6.98184 12.61718 9.79951
#
# Velocity S-wave (km/s) = 1.75560 2.36005 2.07990
# Velocity P-wave (km/s) = 3.72081 5.35990 4.61373
#
# Compressibility (1/GPa) = 0.04534702
#
# Stress axis : x y z
#
# Youngs Moduli (GPa) = 24.11242 86.37362 85.71561
#
# Poissons Ratio (x) = 0.00061 0.56709
# Poissons Ratio (y) = 0.00017 0.26244
# Poissons Ratio (z) = 0.15953 0.26446
#
# Static dielectric constant tensor:
#      x y z
#    x 1.824150 0.000000 0.035630 
#    y 0.000000 1.890820 0.000000 
#    z 0.035630 0.000000 1.863050 
# 
# From -- ./inp_files/98287.got.cif
#   From: 2010.05.17/outbox.cif.g08.bks.cpg/sg12_50_cif.got.tgz:98287.got - 2010.06.03 13:09:07.
