data_PCOD9216901
_publ_section_title
;
Structure prediction by ZEFSAII (Michael W. Deem and Ramdas Pophale) SiO2 
 PCOD9216901
Probable space group: C 2/M
;
_chemical_formula_sum "Si O2"
_cell_formula_units_Z 40
_cell_length_a 9.607877
_cell_length_b 26.373693
_cell_length_c 9.856376
_cell_angle_alpha 90.000000
_cell_angle_beta 132.671452
_cell_angle_gamma 90.000000
_cell_volume 1836.335776
_symmetry_space_group_name_H-M "C 2/M"
_symmetry_group_IT_number 12
_symmetry_cell_setting 'monoclinic'
loop_
_space_group_symop_operation_xyz
x,y,z
-x,y,-z
-x,-y,-z
x,-y,z
1/2+x,1/2+y,z
1/2-x,1/2+y,-z
1/2-x,1/2-y,-z
1/2+x,1/2-y,z
loop_
_atom_site_type_symbol
_atom_site_label
_atom_site_fract_x
_atom_site_fract_y
_atom_site_fract_z
Si Si1 0.048925 0.000000 0.732387
Si Si2 0.808837 0.697243 0.217567
Si Si3 0.472466 0.907689 0.632070
Si Si4 0.465297 0.604444 0.634092
Si Si5 0.149035 0.500000 0.295659
Si Si6 0.495377 0.290892 0.223886
O O1 0.038512 0.058155 0.777867
O O2 0.838953 0.000000 0.518526
O O3 0.246202 0.000000 0.778807
O O4 0.698742 0.706007 0.285433
O O5 0.963739 0.740086 0.288054
O O6 0.891953 0.640593 0.264812
O O7 0.654169 0.705766 0.997968
O O8 0.500000 0.930804 0.500000
O O9 0.257225 0.888982 0.494665
O O10 0.474459 0.950970 0.747931
O O11 0.500000 0.589768 0.500000
O O12 0.550248 0.659054 0.719460
#
# Coordination Sequence:
#
# PCOD9216901 Si02
#       6
#     4   8   8   8   4   8
#     4   9  16  34  55  82 113 148 179 218 277 330
#     4  10  23  41  57  80 112 147 187 226 281 332
#     4  11  20  35  57  88 113 140 186 233 271 322
#     4  11  20  36  60  85 113 146 184 226 273 328
#     4   9  17  32  55  82 115 145 178 223 276 325
#     4  10  23  41  58  78 112 151 182 228 282 330
#
# _framework density 21.782509999999998
#
# number of rings (size 3 to 8) (size 9 to 14) (size 15 to 20)
#    0.000    1.800    6.000    0.300    2.800    1.600 
#    0.000    1.000    0.000    3.600    0.000    0.000 
#    0.000    0.000    0.000    0.000    0.000    0.000 
#
# Total GULP energy -111452.210587 kJ/mol
# GULP energy per Si atom -5572.610529 kJ/mol
# Density = 2.173293 g / cm^3
# Si number density = 21.782510 Si / 1000 Ang^3
#
#
#
# Elastic Constant Matrix: (Units=GPa)
#
#
# Indices 1 2 3 4 5 6 
#
# 1 119.0099 50.9253 13.2082 0.0000 16.9491 0.0000
# 2 50.9253 173.8079 16.5415 0.0000 5.0002 0.0000
# 3 13.2082 16.5415 28.4498 0.0000 1.4699 0.0000
# 4 0.0000 0.0000 0.0000 101.5380 0.0000 17.3316
# 5 16.9491 5.0002 1.4699 0.0000 13.3551 0.0000
# 6 0.0000 0.0000 0.0000 17.3316 0.0000 46.9264
#
#
#
# Elastic Compliance Matrix: (Units=1/GPa)
#
#
# Indices 1 2 3 4 5 6 
#
# 1 0.011904 -0.002789 -0.003196 0.000000 -0.013711 0.000000
# 2 -0.002789 0.006792 -0.002721 0.000000 0.001296 0.000000
# 3 -0.003196 -0.002721 0.038171 0.000000 0.000874 0.000000
# 4 0.000000 0.000000 0.000000 0.010511 0.000000 -0.003882
# 5 -0.013711 0.001296 0.000874 0.000000 0.091697 0.000000
# 6 0.000000 0.000000 0.000000 -0.003882 0.000000 0.022744
#
#
# Mechanical properties :
#
#
# Convention : Reuss Voigt Hill
#
# Bulk Modulus (GPa) = 25.34660 53.62418 39.48539
# Shear Modulus (GPa) = 23.54234 48.40341 35.97287
#
# Velocity S-wave (km/s) = 3.29110 4.71905 4.06822
# Velocity P-wave (km/s) = 5.10914 7.37320 6.34300
#
# Compressibility (1/GPa) = 0.03945303
#
# Stress axis : x y z
#
# Youngs Moduli (GPa) = 84.00845 147.22382 26.19808
#
# Poissons Ratio (x) = 0.41062 0.08374
# Poissons Ratio (y) = 0.23431 0.07129
# Poissons Ratio (z) = 0.26852 0.40065
#
# Static dielectric constant tensor:
#      x y z
#    x 1.810020 0.000000 -0.024250 
#    y 0.000000 1.833740 0.000000 
#    z -0.024250 0.000000 1.849990 
# 
# From -- ./inp_files/122195.got.cif
#   From: 2010.05.17/outbox.cif.g08.bks.cpg/sg12_62_cif.got.tgz:122195.got - 2010.06.03 13:09:07.
