data_PCOD9216883
_publ_section_title
;
Structure prediction by ZEFSAII (Michael W. Deem and Ramdas Pophale) SiO2 
 PCOD9216883
Probable space group: C 2/M
;
_chemical_formula_sum "Si O2"
_cell_formula_units_Z 44
_cell_length_a 11.677212
_cell_length_b 28.335430
_cell_length_c 6.679035
_cell_angle_alpha 90.000000
_cell_angle_beta 91.537104
_cell_angle_gamma 90.000000
_cell_volume 2209.156020
_symmetry_space_group_name_H-M "C 2/M"
_symmetry_group_IT_number 12
_symmetry_cell_setting 'monoclinic'
loop_
_space_group_symop_operation_xyz
x,y,z
-x,y,-z
-x,-y,-z
x,-y,z
1/2+x,1/2+y,z
1/2-x,1/2+y,-z
1/2-x,1/2-y,-z
1/2+x,1/2-y,z
loop_
_atom_site_type_symbol
_atom_site_label
_atom_site_fract_x
_atom_site_fract_y
_atom_site_fract_z
Si Si1 0.500000 0.915310 0.000000
Si Si2 0.625335 0.207516 0.532148
Si Si3 0.633409 0.613009 0.955563
Si Si4 0.209089 0.217393 0.817930
Si Si5 0.187350 0.384937 0.705732
Si Si6 0.198665 0.554672 0.307487
O O1 0.420672 0.886718 0.149841
O O2 0.592196 0.941955 0.145427
O O3 0.500000 0.187035 0.500000
O O4 0.680417 0.213614 0.319217
O O5 0.621687 0.254016 0.669356
O O6 0.703755 0.168894 0.642140
O O7 0.663118 0.666892 0.889171
O O8 0.691185 0.579734 0.789433
O O9 0.500000 0.608033 0.000000
O O10 0.703694 0.600480 0.159485
O O11 0.250000 0.250000 0.000000
O O12 0.170112 0.416970 0.509470
O O13 0.220152 0.500000 0.352161
#
# Coordination Sequence:
#
# PCOD9216883 Si02
#       6
#     4   8   8   8   8   8
#     4  10  23  40  72 102 134 166 208 264 337 402
#     4  11  24  38  65  98 134 168 216 265 325 393
#     4  11  26  45  67  93 132 176 228 274 322 388
#     4  11  24  42  62  95 130 174 219 260 322 387
#     4  11  23  42  65 100 134 173 215 269 328 396
#     4  11  24  45  69  97 132 170 217 272 337 397
#
# _framework density 19.917107999999999
#
# number of rings (size 3 to 8) (size 9 to 14) (size 15 to 20)
#    0.000    1.091    3.636    1.909    5.091    5.455 
#    0.000    0.909    0.000    0.000    0.000    0.000 
#    0.000    0.000    0.000    0.000    0.000    0.000 
#
# Total GULP energy -122814.186510 kJ/mol
# GULP energy per Si atom -5582.463023 kJ/mol
# Density = 1.987178 g / cm^3
# Si number density = 19.917108 Si / 1000 Ang^3
#
#
#
# Elastic Constant Matrix: (Units=GPa)
#
#
# Indices 1 2 3 4 5 6 
#
# 1 98.5641 17.6438 48.0473 0.0000 -8.7547 0.0000
# 2 17.6438 99.5563 45.0317 0.0000 -8.8502 0.0000
# 3 48.0473 45.0317 144.1428 0.0000 -11.9396 0.0000
# 4 0.0000 0.0000 0.0000 13.2564 0.0000 -2.5094
# 5 -8.7547 -8.8502 -11.9396 0.0000 17.5447 0.0000
# 6 0.0000 0.0000 0.0000 -2.5094 0.0000 -17.6264
#
#
#
# Elastic Compliance Matrix: (Units=1/GPa)
#
#
# Indices 1 2 3 4 5 6 
#
# 1 0.012322 -0.000170 -0.003764 0.000000 0.003501 0.000000
# 2 -0.000170 0.011921 -0.003366 0.000000 0.003638 0.000000
# 3 -0.003764 -0.003366 0.009482 0.000000 0.002877 0.000000
# 4 0.000000 0.000000 0.000000 0.073456 0.000000 -0.010458
# 5 0.003501 0.003638 0.002877 0.000000 0.062537 0.000000
# 6 0.000000 0.000000 0.000000 -0.010458 0.000000 -0.055244
#
#
# Mechanical properties :
#
#
# Convention : Reuss Voigt Hill
#
# Bulk Modulus (GPa) = 52.28944 62.63430 57.46187
# Shear Modulus (GPa) = 36.91427 18.07096 27.49261
#
# Velocity S-wave (km/s) = 4.30978 3.01542 3.71934
# Velocity P-wave (km/s) = 7.14676 6.60602 6.88170
#
# Compressibility (1/GPa) = 0.01912432
#
# Stress axis : x y z
#
# Youngs Moduli (GPa) = 81.15542 83.88794 105.46074
#
# Poissons Ratio (x) = 0.01425 0.39698
# Poissons Ratio (y) = 0.01378 0.35500
# Poissons Ratio (z) = 0.30549 0.28238
#
# Static dielectric constant tensor:
#      x y z
#    x 1.700390 0.000000 0.015830 
#    y 0.000000 1.723670 0.000000 
#    z 0.015830 0.000000 1.696720 
# 
# From -- ./inp_files/8420.got.cif
#   From: 2010.05.17/outbox.cif.g08.bks.cpg/sg12_5_cif.got.tgz:8420.got - 2010.06.03 13:09:07.
