data_PCOD9216949
_publ_section_title
;
Structure prediction by ZEFSAII (Michael W. Deem and Ramdas Pophale) SiO2 
 PCOD9216949
Probable space group: C 2/M
;
_chemical_formula_sum "Si O2"
_cell_formula_units_Z 64
_cell_length_a 22.262174
_cell_length_b 21.667905
_cell_length_c 17.998052
_cell_angle_alpha 90.000000
_cell_angle_beta 17.302822
_cell_angle_gamma 90.000000
_cell_volume 2582.158754
_symmetry_space_group_name_H-M "C 2/M"
_symmetry_group_IT_number 12
_symmetry_cell_setting 'monoclinic'
loop_
_space_group_symop_operation_xyz
x,y,z
-x,y,-z
-x,-y,-z
x,-y,z
1/2+x,1/2+y,z
1/2-x,1/2+y,-z
1/2-x,1/2-y,-z
1/2+x,1/2-y,z
loop_
_atom_site_type_symbol
_atom_site_label
_atom_site_fract_x
_atom_site_fract_y
_atom_site_fract_z
Si Si1 0.177044 0.629601 0.015956
Si Si2 0.723360 0.615244 0.256425
Si Si3 0.705963 0.384953 0.807071
Si Si4 0.447195 0.255018 0.318756
Si Si5 0.629602 0.069232 0.525788
Si Si6 0.757230 0.252312 0.276710
Si Si7 0.967905 0.883702 0.224595
Si Si8 0.587385 0.569395 0.554336
O O1 0.097636 0.698147 0.126033
O O2 0.083654 0.583707 0.186444
O O3 0.130340 0.608112 0.986697
O O4 0.414916 0.619717 0.740503
O O5 0.500000 0.588832 0.500000
O O6 0.705508 0.688626 0.288863
O O7 0.766301 0.586788 0.286562
O O8 0.863009 0.421066 0.570878
O O9 0.772054 0.313596 0.727800
O O10 0.500000 0.390183 0.000000
O O11 0.645190 0.406275 0.960784
O O12 0.250000 0.250000 0.500000
O O13 0.363872 0.255031 0.501922
O O14 0.533946 0.318896 0.182897
O O15 0.776406 0.118242 0.394458
O O16 0.699331 0.000000 0.460015
O O17 0.000000 0.256612 0.000000
O O18 0.886320 0.923838 0.388980
O O19 0.520879 0.500000 0.617001
#
# Coordination Sequence:
#
# PCOD9216949 Si02
#       8
#     8   8   8   8   8   8   8   8
#     4  11  23  41  65  89 122 163 206 256 310 370
#     4  10  23  41  61  88 119 161 206 251 310 368
#     4   9  19  37  58  88 122 160 199 249 315 369
#     4  12  20  38  66  97 128 154 199 263 318 371
#     4  11  22  38  62  90 119 163 218 255 299 371
#     4  11  20  37  63  93 128 158 193 254 316 378
#     4  11  22  39  63  92 124 162 201 262 316 361
#     4  11  25  44  62  88 126 169 213 254 306 367
#
# _framework density 24.785463
#
# number of rings (size 3 to 8) (size 9 to 14) (size 15 to 20)
#    0.000    1.250    3.750    3.750    0.000    6.000 
#    2.250    0.625    0.000    3.375    0.000    0.000 
#    0.000    0.000    0.000    0.000    0.000    0.000 
#
# Total GULP energy -178730.083061 kJ/mol
# GULP energy per Si atom -5585.315096 kJ/mol
# Density = 2.472905 g / cm^3
# Si number density = 24.785463 Si / 1000 Ang^3
#
#
#
# Elastic Constant Matrix: (Units=GPa)
#
#
# Indices 1 2 3 4 5 6 
#
# 1 69.2060 6.0868 44.2838 -0.0500 38.8878 -0.0954
# 2 6.0868 98.3139 27.0251 -0.0011 13.2241 0.1073
# 3 44.2838 27.0251 135.6474 -0.1657 50.7518 0.0334
# 4 -0.0500 -0.0011 -0.1657 -14.5769 0.0039 -16.3159
# 5 38.8878 13.2241 50.7518 0.0039 62.8446 -0.0457
# 6 -0.0954 0.1073 0.0334 -16.3159 -0.0457 10.9662
#
#
#
# Elastic Compliance Matrix: (Units=1/GPa)
#
#
# Indices 1 2 3 4 5 6 
#
# 1 0.023154 0.001079 -0.003337 -0.000081 -0.011860 0.000032
# 2 0.001079 0.010837 -0.002018 0.000047 -0.001318 -0.000026
# 3 -0.003337 -0.002018 0.011366 -0.000015 -0.006690 -0.000094
# 4 -0.000081 0.000047 -0.000015 -0.025738 0.000026 -0.038295
# 5 -0.011860 -0.001318 -0.006690 0.000026 0.028931 0.000089
# 6 0.000032 -0.000026 -0.000094 -0.038295 0.000089 0.034214
#
#
# Mechanical properties :
#
#
# Convention : Reuss Voigt Hill
#
# Bulk Modulus (GPa) = 27.16952 50.88431 39.02692
# Shear Modulus (GPa) = 48.26964 26.89820 37.58392
#
# Velocity S-wave (km/s) = 4.41783 3.29787 3.89828
# Velocity P-wave (km/s) = 6.08348 5.92248 6.00352
#
# Compressibility (1/GPa) = 0.03680594
#
# Stress axis : x y z
#
# Youngs Moduli (GPa) = 43.18900 92.27852 87.97844
#
# Poissons Ratio (x) = -0.09956 0.29355
# Poissons Ratio (y) = -0.04660 0.17753
# Poissons Ratio (z) = 0.14411 0.18621
#
# Static dielectric constant tensor:
#      x y z
#    x 2.094950 -0.000130 -0.009590 
#    y -0.000130 1.955480 0.000140 
#    z -0.009590 0.000140 2.061230 
# 
# From -- ./inp_files/290901.got.cif
#   From: 2010.05.17/outbox.cif.g08.bks.cpg/sg12_146_cif.got.tgz:290901.got - 2010.06.03 13:09:07.
