data_PCOD9216324
_publ_section_title
;
Structure prediction by ZEFSAII (Michael W. Deem and Ramdas Pophale) SiO2 
 PCOD9216324
Probable space group: C 2/M
;
_chemical_formula_sum "Si O2"
_cell_formula_units_Z 52
_cell_length_a 25.829869
_cell_length_b 20.291722
_cell_length_c 8.608853
_cell_angle_alpha 90.000000
_cell_angle_beta 152.327216
_cell_angle_gamma 90.000000
_cell_volume 2095.552978
_symmetry_space_group_name_H-M "C 2/M"
_symmetry_group_IT_number 12
_symmetry_cell_setting 'monoclinic'
loop_
_space_group_symop_operation_xyz
x,y,z
-x,y,-z
-x,-y,-z
x,-y,z
1/2+x,1/2+y,z
1/2-x,1/2+y,-z
1/2-x,1/2-y,-z
1/2+x,1/2-y,z
loop_
_atom_site_type_symbol
_atom_site_label
_atom_site_fract_x
_atom_site_fract_y
_atom_site_fract_z
Si Si1 0.108466 0.000000 0.052571
Si Si2 0.051990 0.115626 0.489700
Si Si3 0.376968 0.133341 0.595506
Si Si4 0.698470 0.138336 0.275079
Si Si5 0.616941 0.282741 0.403607
Si Si6 0.215792 0.000000 0.015739
Si Si7 0.735092 0.500000 0.694161
Si Si8 0.004311 0.573032 0.327813
O O1 0.035153 0.065661 0.824291
O O2 0.214253 0.000000 0.209957
O O3 0.130061 0.000000 0.295644
O O4 0.000000 0.152053 0.500000
O O5 0.104398 0.166310 0.509562
O O6 0.140524 0.066063 0.797844
O O7 0.294194 0.129337 0.520868
O O8 0.364678 0.207254 0.501642
O O9 0.379216 0.082449 0.458146
O O10 0.500000 0.120443 0.000000
O O11 0.780777 0.193065 0.431611
O O12 0.719459 0.070495 0.240754
O O13 0.565825 0.140275 0.890541
O O14 0.500000 0.284412 0.000000
O O15 0.253502 0.000000 0.927783
O O16 0.967179 0.500000 0.170141
O O17 0.000000 0.568278 0.500000
#
# Coordination Sequence:
#
# PCOD9216324 Si02
#       8
#     4   8   8   8   8   4   4   8
#     4   9  20  34  50  84 123 165 207 250 296 364
#     4   9  18  32  51  77 119 167 201 245 288 357
#     4   9  22  40  63  87 121 159 208 270 312 369
#     4  11  22  38  60  95 124 155 210 261 316 380
#     4  11  21  37  60  91 128 172 200 240 314 390
#     4   9  18  34  48  78 125 157 206 254 293 352
#     4  12  20  33  58  90 113 165 204 250 322 373
#     4  10  22  44  68  90 115 157 213 276 328 363
#
# _framework density 24.814451999999999
#
# number of rings (size 3 to 8) (size 9 to 14) (size 15 to 20)
#    0.000    2.000    2.308    2.308    1.077    2.154 
#    2.769    2.308    0.000    0.000    0.000    0.000 
#    0.000    0.000    0.000    0.000    0.000    0.000 
#
# Total GULP energy -144755.916579 kJ/mol
# GULP energy per Si atom -5567.535253 kJ/mol
# Density = 2.475797 g / cm^3
# Si number density = 24.814452 Si / 1000 Ang^3
#
#
#
# Elastic Constant Matrix: (Units=GPa)
#
#
# Indices 1 2 3 4 5 6 
#
# 1 186.6014 55.1113 8.8596 0.0000 -13.5884 0.0000
# 2 55.1113 80.3403 -3.9085 0.0000 -28.0857 0.0000
# 3 8.8596 -3.9085 47.5357 0.0000 -11.6234 0.0000
# 4 0.0000 0.0000 0.0000 -302.5895 0.0000 99.7794
# 5 -13.5884 -28.0857 -11.6234 0.0000 22.9867 0.0000
# 6 0.0000 0.0000 0.0000 99.7794 0.0000 11.0891
#
#
#
# Elastic Compliance Matrix: (Units=1/GPa)
#
#
# Indices 1 2 3 4 5 6 
#
# 1 0.007255 -0.007487 -0.003601 0.000000 -0.006680 0.000000
# 2 -0.007487 0.033938 0.015112 0.000000 0.044682 0.000000
# 3 -0.003601 0.015112 0.030746 0.000000 0.031882 0.000000
# 4 0.000000 0.000000 0.000000 -0.000833 0.000000 0.007496
# 5 -0.006680 0.044682 0.031882 0.000000 0.110269 0.000000
# 6 0.000000 0.000000 0.000000 0.007496 0.000000 0.022732
#
#
# Mechanical properties :
#
#
# Convention : Reuss Voigt Hill
#
# Bulk Modulus (GPa) = 12.50223 48.28915 30.39569
# Shear Modulus (GPa) = 22.44945 -36.74175 -7.14615
#
# Velocity S-wave (km/s) = 3.01107 -3.85211 -1.69885
# Velocity P-wave (km/s) = 4.13980 0.53164 2.90304
#
# Compressibility (1/GPa) = 0.07998570
#
# Stress axis : x y z
#
# Youngs Moduli (GPa) = 137.83979 29.46529 32.52425
#
# Poissons Ratio (x) = 0.22061 0.11713
# Poissons Ratio (y) = 1.03202 -0.49149
# Poissons Ratio (z) = 0.49639 -0.44527
#
# Static dielectric constant tensor:
#      x y z
#    x 2.087210 0.000000 0.134330 
#    y 0.000000 1.892840 0.000000 
#    z 0.134330 0.000000 2.227120 
# 
# From -- ./inp_files/99183.got.cif
#   From: 2010.05.17/outbox.cif.g08.bks.cpg/sg12_50_cif.got.tgz:99183.got - 2010.06.03 13:09:07.
