data_PCOD9216677
_publ_section_title
;
Structure prediction by ZEFSAII (Michael W. Deem and Ramdas Pophale) SiO2 
 PCOD9216677
Probable space group: C 2/M
;
_chemical_formula_sum "Si O2"
_cell_formula_units_Z 32
_cell_length_a 11.127221
_cell_length_b 8.184470
_cell_length_c 29.837590
_cell_angle_alpha 90.000000
_cell_angle_beta 33.246383
_cell_angle_gamma 90.000000
_cell_volume 1489.745493
_symmetry_space_group_name_H-M "C 2/M"
_symmetry_group_IT_number 12
_symmetry_cell_setting 'monoclinic'
loop_
_space_group_symop_operation_xyz
x,y,z
-x,y,-z
-x,-y,-z
x,-y,z
1/2+x,1/2+y,z
1/2-x,1/2+y,-z
1/2-x,1/2-y,-z
1/2+x,1/2-y,z
loop_
_atom_site_type_symbol
_atom_site_label
_atom_site_fract_x
_atom_site_fract_y
_atom_site_fract_z
Si Si1 0.278444 0.802517 0.094304
Si Si2 0.664660 0.696216 0.820276
Si Si3 0.797640 0.500000 0.440892
Si Si4 0.448437 0.684590 0.651238
Si Si5 0.291625 0.500000 0.630756
O O1 0.295465 0.746378 0.140724
O O2 0.067469 0.750531 0.130239
O O3 0.273075 0.000000 0.096821
O O4 0.500000 0.749148 0.000000
O O5 0.672683 0.500000 0.815560
O O6 0.846709 0.768869 0.730065
O O7 0.548057 0.500000 0.534853
O O8 0.824918 0.500000 0.378850
O O9 0.909873 0.327051 0.415575
O O10 0.550040 0.500000 0.623668
O O11 0.257965 0.652329 0.673799
#
# Coordination Sequence:
#
# PCOD9216677 Si02
#       5
#     8   8   4   8   4
#     4  10  23  42  64  92 126 166 216 266 320 383
#     4  11  23  39  63  92 129 170 211 267 319 378
#     4  11  20  46  63  89 132 159 214 271 309 383
#     4  10  23  39  62  93 125 166 209 259 317 379
#     4   9  24  40  65  93 122 169 212 261 321 377
#
# _framework density 21.480177999999999
#
# number of rings (size 3 to 8) (size 9 to 14) (size 15 to 20)
#    0.750    1.000    1.250    2.250    3.500    2.500 
#    2.250    1.250    0.000    0.000    0.000    0.000 
#    0.000    0.000    0.000    0.000    0.000    0.000 
#
# Total GULP energy -89076.889171 kJ/mol
# GULP energy per Si atom -5567.305573 kJ/mol
# Density = 2.143129 g / cm^3
# Si number density = 21.480178 Si / 1000 Ang^3
#
#
#
# Elastic Constant Matrix: (Units=GPa)
#
#
# Indices 1 2 3 4 5 6 
#
# 1 121.7624 17.3196 32.8662 -0.0009 23.5427 -0.0002
# 2 17.3196 89.6551 28.5183 -0.0002 -8.6987 -0.0003
# 3 32.8662 28.5183 96.2338 -0.0021 13.0064 0.0008
# 4 -0.0009 -0.0002 -0.0021 63.2515 0.0003 8.2658
# 5 23.5427 -8.6987 13.0064 0.0003 44.5559 -0.0001
# 6 -0.0002 -0.0003 0.0008 8.2658 -0.0001 30.2517
#
#
#
# Elastic Compliance Matrix: (Units=1/GPa)
#
#
# Indices 1 2 3 4 5 6 
#
# 1 0.010023 -0.001704 -0.002246 0.000000 -0.004973 0.000000
# 2 -0.001704 0.013189 -0.003952 0.000000 0.004629 0.000000
# 3 -0.002246 -0.003952 0.012778 0.000000 -0.003315 -0.000001
# 4 0.000000 0.000000 0.000000 0.016395 0.000000 -0.004480
# 5 -0.004973 0.004629 -0.003315 0.000000 0.026943 0.000000
# 6 0.000000 0.000000 -0.000001 -0.004480 0.000000 0.034280
#
#
# Mechanical properties :
#
#
# Convention : Reuss Voigt Hill
#
# Bulk Modulus (GPa) = 49.54144 51.67326 50.60735
# Shear Modulus (GPa) = 36.72656 42.87496 39.80076
#
# Velocity S-wave (km/s) = 4.13944 4.47254 4.30921
# Velocity P-wave (km/s) = 6.77942 7.12600 6.95487
#
# Compressibility (1/GPa) = 0.02018512
#
# Stress axis : x y z
#
# Youngs Moduli (GPa) = 99.77155 75.81853 78.26197
#
# Poissons Ratio (x) = 0.12922 0.17576
# Poissons Ratio (y) = 0.17005 0.30931
# Poissons Ratio (z) = 0.22407 0.29965
#
# Static dielectric constant tensor:
#      x y z
#    x 1.850410 0.000000 -0.032210 
#    y 0.000000 0.615660 0.000000 
#    z -0.032210 0.000000 1.777290 
# 
# From -- ./inp_files/260757.got.cif
#   From: 2010.05.17/outbox.cif.g08.bks.cpg/sg12_131_cif.got.tgz:260757.got - 2010.06.03 13:09:07.
