data_PCOD9216260
_publ_section_title
;
Structure prediction by ZEFSAII (Michael W. Deem and Ramdas Pophale) SiO2 
 PCOD9216260
Probable space group: C 2/M
;
_chemical_formula_sum "Si O2"
_cell_formula_units_Z 64
_cell_length_a 9.075516
_cell_length_b 15.630776
_cell_length_c 31.555426
_cell_angle_alpha 90.000000
_cell_angle_beta 135.583184
_cell_angle_gamma 90.000000
_cell_volume 3132.890067
_symmetry_space_group_name_H-M "C 2/M"
_symmetry_group_IT_number 12
_symmetry_cell_setting 'monoclinic'
loop_
_space_group_symop_operation_xyz
x,y,z
-x,y,-z
-x,-y,-z
x,-y,z
1/2+x,1/2+y,z
1/2-x,1/2+y,-z
1/2-x,1/2-y,-z
1/2+x,1/2-y,z
loop_
_atom_site_type_symbol
_atom_site_label
_atom_site_fract_x
_atom_site_fract_y
_atom_site_fract_z
Si Si1 0.503359 0.344400 0.634421
Si Si2 0.441905 0.250331 0.091106
Si Si3 0.168564 0.898163 0.996289
Si Si4 0.736482 0.594825 0.259771
Si Si5 0.560930 0.906111 0.250428
Si Si6 0.680476 0.902765 0.500733
Si Si7 0.366213 0.834815 0.371849
Si Si8 0.897550 0.241034 0.174140
O O1 0.692654 0.404105 0.687928
O O2 0.388234 0.371879 0.567347
O O3 0.613610 0.254776 0.647585
O O4 0.324956 0.337343 0.633907
O O5 0.421839 0.338756 0.060489
O O6 0.681115 0.236980 0.155378
O O7 0.318297 0.262479 0.109481
O O8 0.358517 0.164615 0.050846
O O9 0.214046 0.000000 0.996065
O O10 0.000000 0.899054 0.000000
O O11 0.651615 0.500000 0.233830
O O12 0.823949 0.599437 0.325482
O O13 0.556372 0.665080 0.217071
O O14 0.925769 0.609720 0.265427
O O15 0.504791 0.830994 0.206892
O O16 0.501790 0.000000 0.221848
O O17 0.500000 0.901861 0.500000
O O18 0.582483 0.850296 0.441958
O O19 0.708643 0.000000 0.492306
#
# Coordination Sequence:
#
# PCOD9216260 Si02
#       8
#     8   8   8   8   8   8   8   8
#     4  11  22  38  62  88 121 164 214 265 327 394
#     4  11  24  42  69 100 133 171 214 261 307 368
#     4  10  22  43  71 102 135 172 210 255 312 370
#     4  11  25  43  63  92 129 169 215 273 329 380
#     4  11  25  43  64  92 127 171 218 270 327 384
#     4   9  19  36  57  85 118 156 208 269 326 390
#     4  11  22  38  62  88 122 164 212 265 331 391
#     4  12  24  43  65  94 133 173 217 260 314 372
#
# _framework density 20.428422000000001
#
# number of rings (size 3 to 8) (size 9 to 14) (size 15 to 20)
#    0.000    1.250    3.750    1.875    1.750    3.500 
#    0.000    2.500    0.000    4.500    0.000    0.000 
#    0.000    0.000    0.000    0.000    0.000    0.000 
#
# Total GULP energy -178575.637644 kJ/mol
# GULP energy per Si atom -5580.488676 kJ/mol
# Density = 2.038193 g / cm^3
# Si number density = 20.428422 Si / 1000 Ang^3
#
#
#
# Elastic Constant Matrix: (Units=GPa)
#
#
# Indices 1 2 3 4 5 6 
#
# 1 43.7922 32.1473 19.6669 0.0000 -3.8721 0.0000
# 2 32.1473 148.8928 42.1777 0.0000 -3.6016 0.0000
# 3 19.6669 42.1777 76.2327 0.0000 -0.4806 0.0000
# 4 0.0000 0.0000 0.0000 -1.6526 0.0000 -7.6971
# 5 -3.8721 -3.6016 -0.4806 0.0000 38.5574 0.0000
# 6 0.0000 0.0000 0.0000 -7.6971 0.0000 23.8255
#
#
#
# Elastic Compliance Matrix: (Units=1/GPa)
#
#
# Indices 1 2 3 4 5 6 
#
# 1 0.028692 -0.004797 -0.004733 0.000000 0.002374 0.000000
# 2 -0.004797 0.008785 -0.003621 0.000000 0.000294 0.000000
# 3 -0.004733 -0.003621 0.016338 0.000000 -0.000610 0.000000
# 4 0.000000 0.000000 0.000000 -0.241590 0.000000 -0.078049
# 5 0.002374 0.000294 -0.000610 0.000000 0.026194 0.000000
# 6 0.000000 0.000000 0.000000 -0.078049 0.000000 0.016757
#
#
# Mechanical properties :
#
#
# Convention : Reuss Voigt Hill
#
# Bulk Modulus (GPa) = 36.34622 50.76685 43.55654
# Shear Modulus (GPa) = -45.72405 23.80779 -10.95813
#
# Velocity S-wave (km/s) = -4.73615 3.41754 -2.31858
# Velocity P-wave (km/s) = 3.47528 6.36221 3.76830
#
# Compressibility (1/GPa) = 0.02751318
#
# Stress axis : x y z
#
# Youngs Moduli (GPa) = 34.85307 113.83378 61.20533
#
# Poissons Ratio (x) = 0.54601 0.28970
# Poissons Ratio (y) = 0.16718 0.22163
# Poissons Ratio (z) = 0.16497 0.41220
#
# Static dielectric constant tensor:
#      x y z
#    x 1.695300 0.000000 0.002480 
#    y 0.000000 1.760280 0.000000 
#    z 0.002480 0.000000 1.752520 
# 
# From -- ./inp_files/372621.got.cif
#   From: 2010.05.17/outbox.cif.g08.bks.cpg/sg12_187_cif.got.tgz:372621.got - 2010.06.03 13:09:07.
