data_PCOD9216186
_publ_section_title
;
Structure prediction by ZEFSAII (Michael W. Deem and Ramdas Pophale) SiO2 
 PCOD9216186
Probable space group: C 2/M
;
_chemical_formula_sum "Si O2"
_cell_formula_units_Z 56
_cell_length_a 17.851448
_cell_length_b 25.869434
_cell_length_c 9.635799
_cell_angle_alpha 90.000000
_cell_angle_beta 43.492730
_cell_angle_gamma 90.000000
_cell_volume 3062.684321
_symmetry_space_group_name_H-M "C 2/M"
_symmetry_group_IT_number 12
_symmetry_cell_setting 'monoclinic'
loop_
_space_group_symop_operation_xyz
x,y,z
-x,y,-z
-x,-y,-z
x,-y,z
1/2+x,1/2+y,z
1/2-x,1/2+y,-z
1/2-x,1/2-y,-z
1/2+x,1/2-y,z
loop_
_atom_site_type_symbol
_atom_site_label
_atom_site_fract_x
_atom_site_fract_y
_atom_site_fract_z
Si Si1 0.474460 0.876451 0.681278
Si Si2 0.107909 0.441397 0.947607
Si Si3 0.812879 0.703185 0.987352
Si Si4 0.742975 0.648607 0.344008
Si Si5 0.896406 0.212239 0.041807
Si Si6 0.334428 0.800188 0.492586
Si Si7 0.967807 0.193317 0.382181
O O1 0.500000 0.901861 0.500000
O O2 0.382417 0.831496 0.790342
O O3 0.583408 0.846335 0.579928
O O4 0.428016 0.913986 0.860955
O O5 0.146528 0.500000 0.917154
O O6 0.193587 0.404858 0.753279
O O7 0.000000 0.442659 0.000000
O O8 0.750000 0.750000 0.000000
O O9 0.741624 0.670378 0.188343
O O10 0.894976 0.728746 0.989170
O O11 0.799439 0.686798 0.380887
O O12 0.615723 0.648144 0.547076
O O13 0.779626 0.200506 0.267489
O O14 0.000000 0.203660 0.000000
O O15 0.926766 0.185017 0.855842
O O16 0.400133 0.746428 0.433029
O O17 0.000000 0.196884 0.500000
#
# Coordination Sequence:
#
# PCOD9216186 Si02
#       7
#     8   8   8   8   8   8   8
#     4  11  23  36  59  88 123 158 193 243 307 350
#     4  10  22  43  68  90 112 147 204 259 304 359
#     4  11  22  33  51  78 119 163 196 228 277 354
#     4  11  22  38  58  84 113 160 200 244 296 348
#     4  12  23  33  49  75 113 165 201 230 273 341
#     4  12  22  37  54  83 121 167 202 237 284 359
#     4  12  24  36  54  82 124 167 201 237 281 351
#
# _framework density 18.284614000000001
#
# number of rings (size 3 to 8) (size 9 to 14) (size 15 to 20)
#    0.000    0.714    5.714    3.429    0.000    1.429 
#    0.000    0.000    0.000    0.429    0.000    3.000 
#    0.000    0.000    0.000    0.000    0.000    0.000 
#
# Total GULP energy -156111.435052 kJ/mol
# GULP energy per Si atom -5575.408395 kJ/mol
# Density = 1.824300 g / cm^3
# Si number density = 18.284614 Si / 1000 Ang^3
#
#
#
# Elastic Constant Matrix: (Units=GPa)
#
#
# Indices 1 2 3 4 5 6 
#
# 1 87.4958 32.6937 34.2983 0.0000 4.9777 0.0000
# 2 32.6937 82.5508 35.4849 0.0000 -3.7352 0.0000
# 3 34.2983 35.4849 128.6085 0.0000 -2.3540 0.0000
# 4 0.0000 0.0000 0.0000 12.1377 0.0000 -1.4720
# 5 4.9777 -3.7352 -2.3540 0.0000 36.9401 0.0000
# 6 0.0000 0.0000 0.0000 -1.4720 0.0000 18.3180
#
#
#
# Elastic Compliance Matrix: (Units=1/GPa)
#
#
# Indices 1 2 3 4 5 6 
#
# 1 0.014337 -0.004686 -0.002577 0.000000 -0.002570 0.000000
# 2 -0.004686 0.015325 -0.002942 0.000000 0.001994 0.000000
# 3 -0.002577 -0.002942 0.009286 0.000000 0.000642 0.000000
# 4 0.000000 0.000000 0.000000 0.083199 0.000000 0.006686
# 5 -0.002570 0.001994 0.000642 0.000000 0.027660 0.000000
# 6 0.000000 0.000000 0.000000 0.006686 0.000000 0.055129
#
#
# Mechanical properties :
#
#
# Convention : Reuss Voigt Hill
#
# Bulk Modulus (GPa) = 53.94852 55.95653 54.95253
# Shear Modulus (GPa) = 21.59595 26.55769 24.07682
#
# Velocity S-wave (km/s) = 3.44044 3.81525 3.63268
# Velocity P-wave (km/s) = 6.73432 7.07656 6.90756
#
# Compressibility (1/GPa) = 0.01853619
#
# Stress axis : x y z
#
# Youngs Moduli (GPa) = 69.75053 65.25461 107.68442
#
# Poissons Ratio (x) = 0.30581 0.27755
# Poissons Ratio (y) = 0.32688 0.31681
# Poissons Ratio (z) = 0.17978 0.19198
#
# Static dielectric constant tensor:
#      x y z
#    x 1.697670 0.000000 -0.000300 
#    y 0.000000 1.630360 0.000000 
#    z -0.000300 0.000000 1.734890 
# 
# From -- ./inp_files/79057.got.cif
#   From: 2010.05.17/outbox.cif.g08.bks.cpg/sg12_40_cif.got.tgz:79057.got - 2010.06.03 13:09:07.
