data_PCOD9216938
_publ_section_title
;
Structure prediction by ZEFSAII (Michael W. Deem and Ramdas Pophale) SiO2 
 PCOD9216938
Probable space group: C 2/M
;
_chemical_formula_sum "Si O2"
_cell_formula_units_Z 40
_cell_length_a 12.820807
_cell_length_b 29.948460
_cell_length_c 5.101797
_cell_angle_alpha 90.000000
_cell_angle_beta 99.916193
_cell_angle_gamma 90.000000
_cell_volume 1929.638799
_symmetry_space_group_name_H-M "C 2/M"
_symmetry_group_IT_number 12
_symmetry_cell_setting 'monoclinic'
loop_
_space_group_symop_operation_xyz
x,y,z
-x,y,-z
-x,-y,-z
x,-y,z
1/2+x,1/2+y,z
1/2-x,1/2+y,-z
1/2-x,1/2-y,-z
1/2+x,1/2-y,z
loop_
_atom_site_type_symbol
_atom_site_label
_atom_site_fract_x
_atom_site_fract_y
_atom_site_fract_z
Si Si1 0.220162 0.871656 0.259007
Si Si2 0.175223 0.279541 0.779622
Si Si3 0.500000 0.658066 0.000000
Si Si4 0.075246 0.500000 0.279922
Si Si5 0.000000 0.778484 0.500000
Si Si6 0.328560 0.904913 0.789936
Si Si7 0.500000 0.162022 0.000000
O O1 0.254700 0.819922 0.296752
O O2 0.102315 0.871465 0.099921
O O3 0.236047 0.890684 0.553757
O O4 0.293920 0.896669 0.076081
O O5 0.107259 0.251224 0.541021
O O6 0.250000 0.250000 0.000000
O O7 0.082985 0.305510 0.897071
O O8 0.513951 0.690525 0.758117
O O9 0.141190 0.454709 0.277277
O O10 0.000000 0.500000 0.500000
O O11 0.000000 0.500000 0.000000
O O12 0.429065 0.871551 0.792311
#
# Coordination Sequence:
#
# PCOD9216938 Si02
#       7
#     8   8   4   4   4   8   4
#     4  11  25  43  64  93 132 177 222 269 334 380
#     4  11  23  39  60  91 128 183 222 283 318 381
#     4  12  25  42  66  89 125 177 232 283 310 383
#     4  12  24  42  76 109 136 163 210 260 342 423
#     4  12  24  40  60  90 126 172 238 282 326 368
#     4  11  24  44  69  98 136 168 204 271 342 408
#     4  10  23  41  60  94 137 175 214 271 328 395
#
# _framework density 20.729268000000001
#
# number of rings (size 3 to 8) (size 9 to 14) (size 15 to 20)
#    0.000    0.800    3.000    4.200    5.600    2.400 
#    0.000    0.000    0.000    3.600    0.000    0.000 
#    0.000    0.000    0.000    0.000    0.000    0.000 
#
# Total GULP energy -111896.880588 kJ/mol
# GULP energy per Si atom -5594.844029 kJ/mol
# Density = 2.068209 g / cm^3
# Si number density = 20.729268 Si / 1000 Ang^3
#
#
#
# Elastic Constant Matrix: (Units=GPa)
#
#
# Indices 1 2 3 4 5 6 
#
# 1 72.7884 20.1248 7.4335 0.0000 24.9862 0.0000
# 2 20.1248 99.1979 16.0938 0.0000 5.9350 0.0000
# 3 7.4335 16.0938 101.9592 0.0000 15.7729 0.0000
# 4 0.0000 0.0000 0.0000 28.7829 0.0000 4.1518
# 5 24.9862 5.9350 15.7729 0.0000 45.7384 0.0000
# 6 0.0000 0.0000 0.0000 4.1518 0.0000 16.0217
#
#
#
# Elastic Compliance Matrix: (Units=1/GPa)
#
#
# Indices 1 2 3 4 5 6 
#
# 1 0.017823 -0.003154 0.000677 0.000000 -0.009561 0.000000
# 2 -0.003154 0.010933 -0.001630 0.000000 0.000866 0.000000
# 3 0.000677 -0.001630 0.010606 0.000000 -0.003816 0.000000
# 4 0.000000 0.000000 0.000000 0.036092 0.000000 -0.009353
# 5 -0.009561 0.000866 -0.003816 0.000000 0.028290 0.000000
# 6 0.000000 0.000000 0.000000 -0.009353 0.000000 0.064839
#
#
# Mechanical properties :
#
#
# Convention : Reuss Voigt Hill
#
# Bulk Modulus (GPa) = 32.10247 40.13886 36.12066
# Shear Modulus (GPa) = 26.71235 33.46149 30.08692
#
# Velocity S-wave (km/s) = 3.59364 4.02209 3.81389
# Velocity P-wave (km/s) = 5.72182 6.40117 6.07100
#
# Compressibility (1/GPa) = 0.03115025
#
# Stress axis : x y z
#
# Youngs Moduli (GPa) = 56.10650 91.46383 94.28571
#
# Poissons Ratio (x) = 0.28846 -0.06387
# Poissons Ratio (y) = 0.17695 0.15367
# Poissons Ratio (z) = -0.03801 0.14907
#
# Static dielectric constant tensor:
#      x y z
#    x 1.784410 0.000000 -0.020320 
#    y 0.000000 1.643880 0.000000 
#    z -0.020320 0.000000 1.745820 
# 
# From -- ./inp_files/8580.got.cif
#   From: 2010.05.17/outbox.cif.g08.bks.cpg/sg12_5_cif.got.tgz:8580.got - 2010.06.03 13:09:07.
