data_PCOD9216907
_publ_section_title
;
Structure prediction by ZEFSAII (Michael W. Deem and Ramdas Pophale) SiO2 
 PCOD9216907
Probable space group: C 2/M
;
_chemical_formula_sum "Si O2"
_cell_formula_units_Z 48
_cell_length_a 19.916315
_cell_length_b 13.790087
_cell_length_c 15.004727
_cell_angle_alpha 90.000000
_cell_angle_beta 141.282527
_cell_angle_gamma 90.000000
_cell_volume 2577.614432
_symmetry_space_group_name_H-M "C 2/M"
_symmetry_group_IT_number 12
_symmetry_cell_setting 'monoclinic'
loop_
_space_group_symop_operation_xyz
x,y,z
-x,y,-z
-x,-y,-z
x,-y,z
1/2+x,1/2+y,z
1/2-x,1/2+y,-z
1/2-x,1/2-y,-z
1/2+x,1/2-y,z
loop_
_atom_site_type_symbol
_atom_site_label
_atom_site_fract_x
_atom_site_fract_y
_atom_site_fract_z
Si Si1 0.513103 0.387136 0.909206
Si Si2 0.824097 0.610385 0.361608
Si Si3 0.637584 0.233496 0.931185
Si Si4 0.820732 0.771172 0.660703
Si Si5 0.995461 0.608505 0.889392
Si Si6 0.056407 0.610081 0.694953
O O1 0.535553 0.500000 0.933027
O O2 0.603286 0.328012 0.950223
O O3 0.404843 0.360366 0.743535
O O4 0.500000 0.355891 0.000000
O O5 0.777489 0.500000 0.320645
O O6 0.753435 0.693429 0.333906
O O7 0.856675 0.627511 0.293049
O O8 0.938265 0.608692 0.530468
O O9 0.610007 0.148123 0.972673
O O10 0.562449 0.195081 0.772875
O O11 0.750000 0.250000 0.000000
O O12 0.750000 0.750000 0.500000
O O13 0.899510 0.680640 0.761541
O O14 0.974455 0.500000 0.834864
O O15 0.000000 0.608139 0.000000
O O16 0.077139 0.500000 0.750630
#
# Coordination Sequence:
#
# PCOD9216907 Si02
#       6
#     8   8   8   8   8   8
#     4  10  23  41  58  83 120 155 191 236 288 344
#     4   9  18  33  56  84 114 147 182 228 287 342
#     4  11  22  34  58  85 112 148 189 241 280 332
#     4  11  21  34  60  88 111 146 191 243 284 333
#     4  10  23  42  59  79 116 158 195 233 279 343
#     4   9  19  34  53  83 118 147 181 230 285 340
#
# _framework density 18.621870000000001
#
# number of rings (size 3 to 8) (size 9 to 14) (size 15 to 20)
#    0.000    2.000    0.000    6.000    4.667    4.000 
#    0.000    0.000    0.000    0.000    0.000    3.500 
#    0.000    0.000    0.000    0.000    0.000    0.000 
#
# Total GULP energy -133741.488351 kJ/mol
# GULP energy per Si atom -5572.562015 kJ/mol
# Density = 1.857949 g / cm^3
# Si number density = 18.621870 Si / 1000 Ang^3
#
#
#
# Elastic Constant Matrix: (Units=GPa)
#
#
# Indices 1 2 3 4 5 6 
#
# 1 158.7016 68.7082 31.2227 0.0000 -0.6100 0.0000
# 2 68.7082 123.4686 24.6788 0.0000 -1.2921 0.0000
# 3 31.2227 24.6788 65.9887 0.0000 -7.3646 0.0000
# 4 0.0000 0.0000 0.0000 13.8231 0.0000 -11.2977
# 5 -0.6100 -1.2921 -7.3646 0.0000 30.0351 0.0000
# 6 0.0000 0.0000 0.0000 -11.2977 0.0000 1.1005
#
#
#
# Elastic Compliance Matrix: (Units=1/GPa)
#
#
# Indices 1 2 3 4 5 6 
#
# 1 0.008673 -0.004322 -0.002559 0.000000 -0.000637 0.000000
# 2 -0.004322 0.010913 -0.002050 0.000000 -0.000121 0.000000
# 3 -0.002559 -0.002050 0.017597 0.000000 0.004175 0.000000
# 4 0.000000 0.000000 0.000000 -0.009789 0.000000 -0.100491
# 5 -0.000637 -0.000121 0.004175 0.000000 0.034300 0.000000
# 6 0.000000 0.000000 0.000000 -0.100491 0.000000 -0.122955
#
#
# Mechanical properties :
#
#
# Convention : Reuss Voigt Hill
#
# Bulk Modulus (GPa) = 51.75238 66.37536 59.06387
# Shear Modulus (GPa) = -135.28189 23.89502 -55.69343
#
# Velocity S-wave (km/s) = -8.53255 3.58602 -5.47471
# Velocity P-wave (km/s) = 8.31992 7.27098 2.85954
#
# Compressibility (1/GPa) = 0.01932278
#
# Stress axis : x y z
#
# Youngs Moduli (GPa) = 115.29929 91.63687 56.82713
#
# Poissons Ratio (x) = 0.39603 0.14539
# Poissons Ratio (y) = 0.49829 0.11649
# Poissons Ratio (z) = 0.29500 0.18784
#
# Static dielectric constant tensor:
#      x y z
#    x 1.688590 0.000000 0.008150 
#    y 0.000000 1.655130 0.000000 
#    z 0.008150 0.000000 1.664170 
# 
# From -- ./inp_files/233484.got.cif
#   From: 2010.05.17/outbox.cif.g08.bks.cpg/sg12_117_cif.got.tgz:233484.got - 2010.06.03 13:09:07.
