data_PCOD9216381
_publ_section_title
;
Structure prediction by ZEFSAII (Michael W. Deem and Ramdas Pophale) SiO2 
 PCOD9216381
Probable space group: C 2/M
;
_chemical_formula_sum "Si O2"
_cell_formula_units_Z 56
_cell_length_a 11.083710
_cell_length_b 15.995884
_cell_length_c 12.936336
_cell_angle_alpha 90.000000
_cell_angle_beta 68.482840
_cell_angle_gamma 90.000000
_cell_volume 2133.690044
_symmetry_space_group_name_H-M "C 2/M"
_symmetry_group_IT_number 12
_symmetry_cell_setting 'monoclinic'
loop_
_space_group_symop_operation_xyz
x,y,z
-x,y,-z
-x,-y,-z
x,-y,z
1/2+x,1/2+y,z
1/2-x,1/2+y,-z
1/2-x,1/2-y,-z
1/2+x,1/2-y,z
loop_
_atom_site_type_symbol
_atom_site_label
_atom_site_fract_x
_atom_site_fract_y
_atom_site_fract_z
Si Si1 0.035485 0.764775 0.317971
Si Si2 0.382514 0.405214 0.268365
Si Si3 0.927309 0.408514 0.357218
Si Si4 0.234795 0.800369 0.857505
Si Si5 0.100557 0.369423 0.875559
Si Si6 0.659196 0.410663 0.069075
Si Si7 0.857716 0.908909 0.593308
O O1 0.918502 0.829399 0.334147
O O2 0.988356 0.677297 0.378549
O O3 0.122061 0.738549 0.191630
O O4 0.137117 0.820774 0.349636
O O5 0.362928 0.500000 0.313895
O O6 0.271353 0.372155 0.227811
O O7 0.514511 0.407039 0.158081
O O8 0.979697 0.500000 0.370893
O O9 0.932677 0.401303 0.228733
O O10 0.773626 0.407220 0.430935
O O11 0.130323 0.729525 0.862825
O O12 0.197881 0.839953 0.977002
O O13 0.236541 0.406963 0.872197
O O14 0.000000 0.387587 0.000000
O O15 0.672911 0.500000 0.009502
O O16 0.000000 0.911401 0.500000
O O17 0.850759 0.000000 0.651619
#
# Coordination Sequence:
#
# PCOD9216381 Si02
#       7
#     8   8   8   8   8   8   8
#     4  12  22  40  64  91 124 159 196 253 312 362
#     4  11  22  38  58  83 118 162 211 260 304 354
#     4  11  24  42  62  93 128 161 207 256 303 364
#     4  12  23  36  55  83 120 163 210 252 298 361
#     4  12  22  36  58  82 120 167 213 251 298 349
#     4  11  23  36  53  79 115 166 220 265 301 349
#     4  10  22  44  72  97 122 155 197 249 309 374
#
# _framework density 26.245611
#
# number of rings (size 3 to 8) (size 9 to 14) (size 15 to 20)
#    0.000    0.714    4.286    3.857    0.000    7.429 
#    0.000    0.000    0.000    0.429    0.000    0.000 
#    0.000    0.000    0.000    0.000    0.000    0.000 
#
# Total GULP energy -156673.261822 kJ/mol
# GULP energy per Si atom -5595.473637 kJ/mol
# Density = 2.618587 g / cm^3
# Si number density = 26.245611 Si / 1000 Ang^3
#
#
#
# Elastic Constant Matrix: (Units=GPa)
#
#
# Indices 1 2 3 4 5 6 
#
# 1 63.5023 37.9898 11.2990 0.0000 -5.4718 0.0000
# 2 37.9898 240.7129 26.5043 0.0000 -5.1111 0.0000
# 3 11.2990 26.5043 72.9688 0.0000 -25.4548 0.0000
# 4 0.0000 0.0000 0.0000 21.6754 0.0000 -10.8080
# 5 -5.4718 -5.1111 -25.4548 0.0000 34.9928 0.0000
# 6 0.0000 0.0000 0.0000 -10.8080 0.0000 19.5257
#
#
#
# Elastic Compliance Matrix: (Units=1/GPa)
#
#
# Indices 1 2 3 4 5 6 
#
# 1 0.017665 -0.002616 -0.001279 0.000000 0.001449 0.000000
# 2 -0.002616 0.004727 -0.001627 0.000000 -0.000902 0.000000
# 3 -0.001279 -0.001627 0.019217 0.000000 0.013542 0.000000
# 4 0.000000 0.000000 0.000000 0.063723 0.000000 0.035273
# 5 0.001449 -0.000902 0.013542 0.000000 0.038523 0.000000
# 6 0.000000 0.000000 0.000000 0.035273 0.000000 0.070739
#
#
# Mechanical properties :
#
#
# Convention : Reuss Voigt Hill
#
# Bulk Modulus (GPa) = 32.71704 58.75226 45.73465
# Shear Modulus (GPa) = 21.20194 35.33150 28.26672
#
# Velocity S-wave (km/s) = 2.84531 3.67302 3.28534
# Velocity P-wave (km/s) = 4.82568 6.35785 5.64400
#
# Compressibility (1/GPa) = 0.03056512
#
# Stress axis : x y z
#
# Youngs Moduli (GPa) = 56.60850 211.54264 52.03646
#
# Poissons Ratio (x) = 0.55346 0.06658
# Poissons Ratio (y) = 0.14811 0.08464
# Poissons Ratio (z) = 0.07243 0.34408
#
# Static dielectric constant tensor:
#      x y z
#    x 2.035290 0.000000 0.053420 
#    y 0.000000 2.108890 0.000000 
#    z 0.053420 0.000000 2.118340 
# 
# From -- ./inp_files/262965.got.cif
#   From: 2010.05.17/outbox.cif.g08.bks.cpg/sg12_132_cif.got.tgz:262965.got - 2010.06.03 13:09:07.
