data_PCOD9216991
_publ_section_title
;
Structure prediction by ZEFSAII (Michael W. Deem and Ramdas Pophale) SiO2 
 PCOD9216991
Probable space group: C 2/M
;
_chemical_formula_sum "Si O2"
_cell_formula_units_Z 64
_cell_length_a 15.167306
_cell_length_b 8.751108
_cell_length_c 29.848357
_cell_angle_alpha 90.000000
_cell_angle_beta 49.476237
_cell_angle_gamma 90.000000
_cell_volume 3011.504637
_symmetry_space_group_name_H-M "C 2/M"
_symmetry_group_IT_number 12
_symmetry_cell_setting 'monoclinic'
loop_
_space_group_symop_operation_xyz
x,y,z
-x,y,-z
-x,-y,-z
x,-y,z
1/2+x,1/2+y,z
1/2-x,1/2+y,-z
1/2-x,1/2-y,-z
1/2+x,1/2-y,z
loop_
_atom_site_type_symbol
_atom_site_label
_atom_site_fract_x
_atom_site_fract_y
_atom_site_fract_z
Si Si1 0.380311 0.683515 0.120814
Si Si2 0.631168 0.682235 0.057503
Si Si3 0.154273 0.317491 0.146506
Si Si4 0.065333 0.179426 0.367472
Si Si5 0.129246 0.676999 0.438055
Si Si6 0.353356 0.819187 0.393070
Si Si7 0.294531 0.818127 0.242528
Si Si8 0.046439 0.817864 0.732129
O O1 0.376737 0.500000 0.129535
O O2 0.514287 0.726272 0.069391
O O3 0.289179 0.716308 0.111684
O O4 0.334046 0.764343 0.180838
O O5 0.640000 0.500000 0.054104
O O6 0.615156 0.740926 0.113388
O O7 0.750000 0.750000 0.000000
O O8 0.138609 0.500000 0.149093
O O9 0.076780 0.250708 0.212095
O O10 0.127205 0.226885 0.393039
O O11 0.158936 0.210255 0.297483
O O12 0.947543 0.271719 0.398887
O O13 0.038977 0.000000 0.376268
O O14 0.155734 0.500000 0.419286
O O15 0.227533 0.741875 0.438326
O O16 0.000000 0.686833 0.500000
O O17 0.405942 0.756213 0.328980
O O18 0.340651 0.000000 0.395664
O O19 0.367799 0.728267 0.255691
O O20 0.314713 0.000000 0.241378
O O21 0.039593 0.000000 0.729383
#
# Coordination Sequence:
#
# PCOD9216991 Si02
#       8
#     8   8   8   8   8   8   8   8
#     4  10  23  41  63  91 126 165 204 252 314 374
#     4  11  24  43  64  89 122 165 212 262 316 369
#     4  11  23  41  65  94 126 163 207 257 313 376
#     4  11  24  42  66  97 131 168 212 262 317 380
#     4  11  25  45  68  94 126 167 215 267 322 378
#     4  12  25  42  66  96 130 170 214 261 318 380
#     4  11  22  37  63  96 128 164 207 254 311 377
#     4  12  23  38  63  94 131 168 205 255 316 379
#
# _framework density 21.251835
#
# number of rings (size 3 to 8) (size 9 to 14) (size 15 to 20)
#    0.000    0.875    2.500    4.875    0.000    7.000 
#    0.000    2.500    0.000    0.000    0.000    0.000 
#    0.000    0.000    0.000    0.000    0.000    0.000 
#
# Total GULP energy -179104.207618 kJ/mol
# GULP energy per Si atom -5597.006488 kJ/mol
# Density = 2.120346 g / cm^3
# Si number density = 21.251835 Si / 1000 Ang^3
#
#
#
# Elastic Constant Matrix: (Units=GPa)
#
#
# Indices 1 2 3 4 5 6 
#
# 1 99.7700 23.9356 0.8165 0.0000 -35.5930 0.0000
# 2 23.9356 70.0537 11.7023 0.0000 -24.9267 -0.0001
# 3 0.8165 11.7023 42.9479 0.0000 -25.3100 0.0000
# 4 0.0000 0.0000 0.0000 29.9833 0.0000 -3.1773
# 5 -35.5930 -24.9267 -25.3100 0.0000 34.0707 0.0000
# 6 0.0000 -0.0001 0.0000 -3.1773 0.0000 31.4624
#
#
#
# Elastic Compliance Matrix: (Units=1/GPa)
#
#
# Indices 1 2 3 4 5 6 
#
# 1 0.029721 0.005562 0.033111 0.000000 0.059715 0.000000
# 2 0.005562 0.021084 0.011853 0.000000 0.030041 0.000000
# 3 0.033111 0.011853 0.079898 0.000000 0.102616 0.000000
# 4 0.000000 0.000000 0.000000 0.033713 0.000000 0.003405
# 5 0.059715 0.030041 0.102616 0.000000 0.189942 0.000000
# 6 0.000000 0.000000 0.000000 0.003405 0.000000 0.032128
#
#
# Mechanical properties :
#
#
# Convention : Reuss Voigt Hill
#
# Bulk Modulus (GPa) = 4.31490 31.74227 18.02858
# Shear Modulus (GPa) = 13.78603 30.85776 22.32190
#
# Velocity S-wave (km/s) = 2.54972 3.81465 3.24443
# Velocity P-wave (km/s) = 3.27152 5.86266 4.74730
#
# Compressibility (1/GPa) = 0.23175488
#
# Stress axis : x y z
#
# Youngs Moduli (GPa) = 33.64601 47.43042 12.51589
#
# Poissons Ratio (x) = -0.26381 -0.41441
# Poissons Ratio (y) = -0.18714 -0.14835
# Poissons Ratio (z) = -1.11405 -0.56220
#
# Static dielectric constant tensor:
#      x y z
#    x 1.790650 0.000000 -0.022010 
#    y 0.000000 1.704280 0.000000 
#    z -0.022010 0.000000 1.768010 
# 
# From -- ./inp_files/375494.got.cif
#   From: 2010.05.17/outbox.cif.g08.bks.cpg/sg12_188_cif.got.tgz:375494.got - 2010.06.03 13:09:07.
