data_PCOD9216469
_publ_section_title
;
Structure prediction by ZEFSAII (Michael W. Deem and Ramdas Pophale) SiO2 
 PCOD9216469
Probable space group: C 2/M
;
_chemical_formula_sum "Si O2"
_cell_formula_units_Z 18
_cell_length_a 10.032891
_cell_length_b 13.984082
_cell_length_c 4.931411
_cell_angle_alpha 90.000000
_cell_angle_beta 82.478966
_cell_angle_gamma 90.000000
_cell_volume 685.928427
_symmetry_space_group_name_H-M "C 2/M"
_symmetry_group_IT_number 12
_symmetry_cell_setting 'monoclinic'
loop_
_space_group_symop_operation_xyz
x,y,z
-x,y,-z
-x,-y,-z
x,-y,z
1/2+x,1/2+y,z
1/2-x,1/2+y,-z
1/2-x,1/2-y,-z
1/2+x,1/2-y,z
loop_
_atom_site_type_symbol
_atom_site_label
_atom_site_fract_x
_atom_site_fract_y
_atom_site_fract_z
Si Si1 0.500000 0.500000 0.000000
Si Si2 0.900304 0.500000 0.276190
Si Si3 0.000000 0.149503 0.500000
Si Si4 0.353254 0.791592 0.189959
O O1 0.517265 0.583020 0.232630
O O2 0.820844 0.400967 0.284879
O O3 0.000000 0.500000 0.500000
O O4 0.000000 0.500000 0.000000
O O5 0.117133 0.222458 0.564594
O O6 0.500000 0.797320 0.000000
O O7 0.250000 0.750000 0.000000
#
# Coordination Sequence:
#
# PCOD9216469 Si02
#       4
#     2   4   4   8
#     4  10  24  42  72 112 154 194 240 342 380 442
#     4  10  22  46  71 107 148 200 244 300 379 458
#     4  11  22  47  70 108 154 195 260 303 394 446
#     4  11  25  48  77 113 154 202 253 318 382 460
#
# _framework density 26.241802
#
# number of rings (size 3 to 8) (size 9 to 14) (size 15 to 20)
#    0.000    1.333    4.444    0.000    0.000    5.333 
#    0.000    0.000    0.000    0.000    0.000    0.000 
#    0.000    0.000    0.000    0.000    0.000    0.000 
#
# Total GULP energy -50202.875365 kJ/mol
# GULP energy per Si atom -5578.097263 kJ/mol
# Density = 2.618207 g / cm^3
# Si number density = 26.241802 Si / 1000 Ang^3
#
#
#
# Elastic Constant Matrix: (Units=GPa)
#
#
# Indices 1 2 3 4 5 6 
#
# 1 131.0596 87.8372 67.0565 0.0000 54.3085 0.0000
# 2 87.8372 356.8451 134.8766 0.0000 54.7541 0.0000
# 3 67.0565 134.8766 298.4800 0.0000 57.5760 0.0000
# 4 0.0000 0.0000 0.0000 64.4174 0.0000 -2.8812
# 5 54.3085 54.7541 57.5760 0.0000 58.3106 0.0000
# 6 0.0000 0.0000 0.0000 -2.8812 0.0000 34.2855
#
#
#
# Elastic Compliance Matrix: (Units=1/GPa)
#
#
# Indices 1 2 3 4 5 6 
#
# 1 0.013163 -0.001529 -0.000220 0.000000 -0.010606 0.000000
# 2 -0.001529 0.003770 -0.001176 0.000000 -0.000954 0.000000
# 3 -0.000220 -0.001176 0.004544 0.000000 -0.003178 0.000000
# 4 0.000000 0.000000 0.000000 0.015582 0.000000 0.001309
# 5 -0.010606 -0.000954 -0.003178 0.000000 0.031061 0.000000
# 6 0.000000 0.000000 0.000000 0.001309 0.000000 0.029277
#
#
# Mechanical properties :
#
#
# Convention : Reuss Voigt Hill
#
# Bulk Modulus (GPa) = 63.99780 151.76947 107.88363
# Shear Modulus (GPa) = 46.10182 64.51034 55.30608
#
# Velocity S-wave (km/s) = 4.19598 4.96351 4.59579
# Velocity P-wave (km/s) = 6.92211 9.52938 8.32841
#
# Compressibility (1/GPa) = 0.01562554
#
# Stress axis : x y z
#
# Youngs Moduli (GPa) = 75.97312 265.27865 220.06911
#
# Poissons Ratio (x) = 0.40572 0.04846
# Poissons Ratio (y) = 0.11619 0.25874
# Poissons Ratio (z) = 0.01673 0.31189
#
# Static dielectric constant tensor:
#      x y z
#    x 2.247290 0.000000 -0.199520 
#    y 0.000000 2.020310 0.000000 
#    z -0.199520 0.000000 2.004990 
# 
# From -- ./inp_files/4575.got.cif
#   From: 2010.05.17/outbox.cif.g08.bks.cpg/sg12_3_cif.got.tgz:4575.got - 2010.06.03 13:09:07.
