data_PCOD9216227
_publ_section_title
;
Structure prediction by ZEFSAII (Michael W. Deem and Ramdas Pophale) SiO2 
 PCOD9216227
Probable space group: C 2/M
;
_chemical_formula_sum "Si O2"
_cell_formula_units_Z 56
_cell_length_a 17.780152
_cell_length_b 25.355111
_cell_length_c 6.014398
_cell_angle_alpha 90.000000
_cell_angle_beta 114.664425
_cell_angle_gamma 90.000000
_cell_volume 2464.029572
_symmetry_space_group_name_H-M "C 2/M"
_symmetry_group_IT_number 12
_symmetry_cell_setting 'monoclinic'
loop_
_space_group_symop_operation_xyz
x,y,z
-x,y,-z
-x,-y,-z
x,-y,z
1/2+x,1/2+y,z
1/2-x,1/2+y,-z
1/2-x,1/2-y,-z
1/2+x,1/2-y,z
loop_
_atom_site_type_symbol
_atom_site_label
_atom_site_fract_x
_atom_site_fract_y
_atom_site_fract_z
Si Si1 0.962120 0.127539 0.706649
Si Si2 0.810851 0.939712 0.656422
Si Si3 0.366122 0.058123 0.814235
Si Si4 0.714262 0.888544 0.906781
Si Si5 0.070192 0.644051 0.422257
Si Si6 0.235001 0.285584 0.190152
Si Si7 0.602457 0.256678 0.329246
O O1 0.875655 0.096054 0.605769
O O2 0.950381 0.190488 0.724895
O O3 0.000000 0.119649 0.500000
O O4 0.000000 0.110615 0.000000
O O5 0.722296 0.941384 0.423280
O O6 0.790659 0.913972 0.871530
O O7 0.840218 0.000000 0.714360
O O8 0.418570 0.105521 0.773072
O O9 0.402457 0.000000 0.826088
O O10 0.342578 0.068555 0.040838
O O11 0.658266 0.858208 0.657656
O O12 0.736349 0.846153 0.120583
O O13 0.054607 0.705385 0.355991
O O14 0.000000 0.623685 0.500000
O O15 0.312910 0.273561 0.441494
O O16 0.144802 0.267445 0.161444
O O17 0.250000 0.250000 0.000000
#
# Coordination Sequence:
#
# PCOD9216227 Si02
#       7
#     8   8   8   8   8   8   8
#     4  12  30  48  71 107 152 196 237 295 365 431
#     4  10  24  46  73 101 136 181 239 299 352 423
#     4  10  22  43  69  97 128 173 232 292 352 412
#     4  11  21  40  68 100 129 175 234 289 352 423
#     4  11  24  41  60  96 137 176 222 276 353 428
#     4  11  21  36  68  98 127 171 230 294 342 413
#     4  11  24  41  63 100 136 182 231 287 356 424
#
# _framework density 22.726998999999999
#
# number of rings (size 3 to 8) (size 9 to 14) (size 15 to 20)
#    0.000    1.143    2.857    2.571   10.000    3.143 
#    0.000    0.714    0.000    0.000    0.000    0.000 
#    0.000    0.000    0.000    0.000    0.000    0.000 
#
# Total GULP energy -156284.853538 kJ/mol
# GULP energy per Si atom -5581.601912 kJ/mol
# Density = 2.267527 g / cm^3
# Si number density = 22.726999 Si / 1000 Ang^3
#
#
#
# Elastic Constant Matrix: (Units=GPa)
#
#
# Indices 1 2 3 4 5 6 
#
# 1 125.1111 53.8438 36.0533 0.0000 -41.4188 0.0000
# 2 53.8438 154.7096 13.8233 0.0000 -19.9489 0.0000
# 3 36.0533 13.8233 58.7936 0.0000 -12.7372 0.0000
# 4 0.0000 0.0000 0.0000 17.7020 0.0000 -6.7942
# 5 -41.4188 -19.9489 -12.7372 0.0000 44.8323 0.0000
# 6 0.0000 0.0000 0.0000 -6.7942 0.0000 10.1701
#
#
#
# Elastic Compliance Matrix: (Units=1/GPa)
#
#
# Indices 1 2 3 4 5 6 
#
# 1 0.014461 -0.003182 -0.005895 0.000000 0.010269 0.000000
# 2 -0.003182 0.007614 0.000275 0.000000 0.000527 0.000000
# 3 -0.005895 0.000275 0.020678 0.000000 0.000551 0.000000
# 4 0.000000 0.000000 0.000000 0.075970 0.000000 0.050752
# 5 0.010269 0.000527 0.000551 0.000000 0.032183 0.000000
# 6 0.000000 0.000000 0.000000 0.050752 0.000000 0.132232
#
#
# Mechanical properties :
#
#
# Convention : Reuss Voigt Hill
#
# Bulk Modulus (GPa) = 39.76129 60.67278 50.21704
# Shear Modulus (GPa) = 16.17465 30.20046 23.18756
#
# Velocity S-wave (km/s) = 2.67065 3.64928 3.19762
# Velocity P-wave (km/s) = 5.20029 6.67163 5.98137
#
# Compressibility (1/GPa) = 0.02515009
#
# Stress axis : x y z
#
# Youngs Moduli (GPa) = 69.15363 131.32887 48.36022
#
# Poissons Ratio (x) = 0.41788 0.28507
# Poissons Ratio (y) = 0.22004 -0.01330
# Poissons Ratio (z) = 0.40764 -0.03612
#
# Static dielectric constant tensor:
#      x y z
#    x 1.979480 0.000000 -0.027230 
#    y 0.000000 1.712750 0.000000 
#    z -0.027230 0.000000 1.927460 
# 
# From -- ./inp_files/17701.got.cif
#   From: 2010.05.17/outbox.cif.g08.bks.cpg/sg12_9_cif.got.tgz:17701.got - 2010.06.03 13:09:07.
