data_PCOD9216784
_publ_section_title
;
Structure prediction by ZEFSAII (Michael W. Deem and Ramdas Pophale) SiO2 
 PCOD9216784
Probable space group: C 2/M
;
_chemical_formula_sum "Si O2"
_cell_formula_units_Z 44
_cell_length_a 8.001483
_cell_length_b 19.921623
_cell_length_c 17.041335
_cell_angle_alpha 90.000000
_cell_angle_beta 48.329845
_cell_angle_gamma 90.000000
_cell_volume 2029.132765
_symmetry_space_group_name_H-M "C 2/M"
_symmetry_group_IT_number 12
_symmetry_cell_setting 'monoclinic'
loop_
_space_group_symop_operation_xyz
x,y,z
-x,y,-z
-x,-y,-z
x,-y,z
1/2+x,1/2+y,z
1/2-x,1/2+y,-z
1/2-x,1/2-y,-z
1/2+x,1/2-y,z
loop_
_atom_site_type_symbol
_atom_site_label
_atom_site_fract_x
_atom_site_fract_y
_atom_site_fract_z
Si Si1 0.887640 0.696115 0.277901
Si Si2 0.895493 0.160812 0.784552
Si Si3 0.820069 0.574605 0.830843
Si Si4 0.265321 0.419328 0.425256
Si Si5 0.206278 0.925482 0.044347
Si Si6 0.500000 0.345836 0.500000
O O1 0.769077 0.671928 0.236199
O O2 0.693433 0.699837 0.402711
O O3 0.004188 0.766566 0.227972
O O4 0.055039 0.636046 0.248259
O O5 0.765703 0.129281 0.898025
O O6 0.092747 0.112229 0.691030
O O7 0.909426 0.500000 0.783010
O O8 0.559221 0.576041 0.891325
O O9 0.826189 0.582899 0.923438
O O10 0.286188 0.500000 0.418386
O O11 0.382299 0.389798 0.467897
O O12 0.000000 0.402920 0.500000
O O13 0.256432 0.000000 0.059280
#
# Coordination Sequence:
#
# PCOD9216784 Si02
#       6
#     8   8   8   8   8   4
#     4  11  25  40  61  89 120 169 202 255 308 360
#     4  11  24  39  60  88 123 158 210 249 303 373
#     4   9  20  39  64  92 120 158 202 247 313 366
#     4  10  23  40  63  92 120 162 209 257 312 366
#     4   9  19  39  65  91 122 157 199 253 303 372
#     4  10  25  42  62  88 129 164 210 262 307 370
#
# _framework density 21.684141
#
# number of rings (size 3 to 8) (size 9 to 14) (size 15 to 20)
#    0.000    2.000    0.000    3.000    6.364    7.273 
#    0.000    1.818    0.000    0.000    0.000    0.000 
#    0.000    0.000    0.000    0.000    0.000    0.000 
#
# Total GULP energy -123003.232615 kJ/mol
# GULP energy per Si atom -5591.056028 kJ/mol
# Density = 2.163479 g / cm^3
# Si number density = 21.684141 Si / 1000 Ang^3
#
#
#
# Elastic Constant Matrix: (Units=GPa)
#
#
# Indices 1 2 3 4 5 6 
#
# 1 72.6963 13.1788 11.0914 0.0000 -7.4017 0.0000
# 2 13.1788 75.3805 32.5727 0.0000 -5.9554 0.0000
# 3 11.0914 32.5727 59.0597 0.0000 -4.0632 0.0000
# 4 0.0000 0.0000 0.0000 42.4206 0.0000 29.9311
# 5 -7.4017 -5.9554 -4.0632 0.0000 31.2167 0.0000
# 6 0.0000 0.0000 0.0000 29.9311 0.0000 -34.5790
#
#
#
# Elastic Compliance Matrix: (Units=1/GPa)
#
#
# Indices 1 2 3 4 5 6 
#
# 1 0.014599 -0.001605 -0.001654 0.000000 0.002940 0.000000
# 2 -0.001605 0.017730 -0.009354 0.000000 0.001784 0.000000
# 3 -0.001654 -0.009354 0.022453 0.000000 0.000746 0.000000
# 4 0.000000 0.000000 0.000000 0.014635 0.000000 0.012668
# 5 0.002940 0.001784 0.000746 0.000000 0.033169 0.000000
# 6 0.000000 0.000000 0.000000 0.012668 0.000000 -0.017954
#
#
# Mechanical properties :
#
#
# Convention : Reuss Voigt Hill
#
# Bulk Modulus (GPa) = 33.83590 35.64694 34.74142
# Shear Modulus (GPa) = 41.76791 17.83123 29.79957
#
# Velocity S-wave (km/s) = 4.39361 2.87072 3.71112
# Velocity P-wave (km/s) = 6.43244 5.24050 5.86682
#
# Compressibility (1/GPa) = 0.02955441
#
# Stress axis : x y z
#
# Youngs Moduli (GPa) = 68.49990 56.40275 44.53762
#
# Poissons Ratio (x) = 0.09054 0.07367
# Poissons Ratio (y) = 0.10996 0.41661
# Poissons Ratio (z) = 0.11330 0.52759
#
# Static dielectric constant tensor:
#      x y z
#    x 1.812800 0.000000 -0.003100 
#    y 0.000000 1.797600 0.000000 
#    z -0.003100 0.000000 1.783960 
# 
# From -- ./inp_files/256869.got.cif
#   From: 2010.05.17/outbox.cif.g08.bks.cpg/sg12_129_cif.got.tgz:256869.got - 2010.06.03 13:09:07.
