data_PCOD9216064
_publ_section_title
;
Structure prediction by ZEFSAII (Michael W. Deem and Ramdas Pophale) SiO2 
 PCOD9216064
Probable space group: C 2/M
;
_chemical_formula_sum "Si O2"
_cell_formula_units_Z 56
_cell_length_a 13.274419
_cell_length_b 13.513713
_cell_length_c 14.493216
_cell_angle_alpha 90.000000
_cell_angle_beta 90.187057
_cell_angle_gamma 90.000000
_cell_volume 2599.876170
_symmetry_space_group_name_H-M "C 2/M"
_symmetry_group_IT_number 12
_symmetry_cell_setting 'monoclinic'
loop_
_space_group_symop_operation_xyz
x,y,z
-x,y,-z
-x,-y,-z
x,-y,z
1/2+x,1/2+y,z
1/2-x,1/2+y,-z
1/2-x,1/2-y,-z
1/2+x,1/2-y,z
loop_
_atom_site_type_symbol
_atom_site_label
_atom_site_fract_x
_atom_site_fract_y
_atom_site_fract_z
Si Si1 0.753470 0.612929 0.642034
Si Si2 0.335870 0.114592 0.440026
Si Si3 0.569160 0.887595 0.859033
Si Si4 0.847226 0.611717 0.931887
Si Si5 0.240573 0.256773 0.812254
Si Si6 0.355719 0.385911 0.697913
Si Si7 0.959177 0.196004 0.399399
O O1 0.779032 0.500000 0.664786
O O2 0.809093 0.639134 0.546393
O O3 0.769388 0.685163 0.727523
O O4 0.635146 0.625895 0.621585
O O5 0.235026 0.124513 0.377470
O O6 0.417432 0.192351 0.405351
O O7 0.367963 0.000000 0.435189
O O8 0.450472 0.872638 0.873921
O O9 0.628098 0.800606 0.807302
O O10 0.584713 0.000000 0.821422
O O11 0.619060 0.885141 0.961480
O O12 0.810796 0.500000 0.912904
O O13 0.767354 0.693433 0.901598
O O14 0.310487 0.351928 0.795405
O O15 0.385697 0.500000 0.698178
O O16 0.450526 0.320782 0.670193
O O17 0.000000 0.168828 0.500000
#
# Coordination Sequence:
#
# PCOD9216064 Si02
#       7
#     8   8   8   8   8   8   8
#     4  11  23  38  57  86 121 156 198 251 300 346
#     4  10  22  43  61  82 116 159 205 251 295 344
#     4   9  20  41  65  89 118 152 194 235 286 358
#     4   9  20  40  65  90 117 154 192 233 291 360
#     4  12  22  36  62  91 121 151 193 247 299 344
#     4  11  24  39  59  85 118 160 204 243 293 354
#     4  12  22  38  62  82 110 161 208 245 291 351
#
# _framework density 21.539487999999999
#
# number of rings (size 3 to 8) (size 9 to 14) (size 15 to 20)
#    0.000    1.429    2.857    3.857    2.000    0.857 
#    0.000    1.429    0.000    0.000    0.000    6.000 
#    0.000    0.000    0.000    0.000    0.000    0.000 
#
# Total GULP energy -156563.365438 kJ/mol
# GULP energy per Si atom -5591.548766 kJ/mol
# Density = 2.149046 g / cm^3
# Si number density = 21.539488 Si / 1000 Ang^3
#
#
#
# Elastic Constant Matrix: (Units=GPa)
#
#
# Indices 1 2 3 4 5 6 
#
# 1 53.0298 25.4232 -0.1369 0.0000 -7.6295 0.0000
# 2 25.4232 106.8654 23.2772 0.0000 -11.0259 0.0000
# 3 -0.1369 23.2772 49.3204 0.0000 0.4638 0.0000
# 4 0.0000 0.0000 0.0000 23.2335 0.0000 5.3369
# 5 -7.6295 -11.0259 0.4638 0.0000 28.2841 0.0000
# 6 0.0000 0.0000 0.0000 5.3369 0.0000 32.6638
#
#
#
# Elastic Compliance Matrix: (Units=1/GPa)
#
#
# Indices 1 2 3 4 5 6 
#
# 1 0.021999 -0.005404 0.002576 0.000000 0.003785 0.000000
# 2 -0.005404 0.012267 -0.005837 0.000000 0.003420 0.000000
# 3 0.002576 -0.005837 0.023056 0.000000 -0.001959 0.000000
# 4 0.000000 0.000000 0.000000 0.044720 0.000000 -0.007307
# 5 0.003785 0.003420 -0.001959 0.000000 0.037742 0.000000
# 6 0.000000 0.000000 0.000000 -0.007307 0.000000 0.031809
#
#
# Mechanical properties :
#
#
# Convention : Reuss Voigt Hill
#
# Bulk Modulus (GPa) = 25.00457 34.03805 29.52131
# Shear Modulus (GPa) = 24.72134 27.54642 26.13388
#
# Velocity S-wave (km/s) = 3.39148 3.58002 3.48703
# Velocity P-wave (km/s) = 5.19327 5.73809 5.47247
#
# Compressibility (1/GPa) = 0.03999268
#
# Stress axis : x y z
#
# Youngs Moduli (GPa) = 45.45573 81.51629 43.37279
#
# Poissons Ratio (x) = 0.44053 -0.11173
# Poissons Ratio (y) = 0.24565 0.25316
# Poissons Ratio (z) = -0.11710 0.47580
#
# Static dielectric constant tensor:
#      x y z
#    x 1.753580 0.000000 -0.004600 
#    y 0.000000 1.800860 0.000000 
#    z -0.004600 0.000000 1.816400 
# 
# From -- ./inp_files/205011.got.cif
#   From: 2010.05.17/outbox.cif.g08.bks.cpg/sg12_103_cif.got.tgz:205011.got - 2010.06.03 13:09:07.
