data_PCOD9216521
_publ_section_title
;
Structure prediction by ZEFSAII (Michael W. Deem and Ramdas Pophale) SiO2 
 PCOD9216521
Probable space group: C 2/M
;
_chemical_formula_sum "Si O2"
_cell_formula_units_Z 60
_cell_length_a 23.146455
_cell_length_b 21.581821
_cell_length_c 11.883688
_cell_angle_alpha 90.000000
_cell_angle_beta 29.640168
_cell_angle_gamma 90.000000
_cell_volume 2935.858876
_symmetry_space_group_name_H-M "C 2/M"
_symmetry_group_IT_number 12
_symmetry_cell_setting 'monoclinic'
loop_
_space_group_symop_operation_xyz
x,y,z
-x,y,-z
-x,-y,-z
x,-y,z
1/2+x,1/2+y,z
1/2-x,1/2+y,-z
1/2-x,1/2-y,-z
1/2+x,1/2-y,z
loop_
_atom_site_type_symbol
_atom_site_label
_atom_site_fract_x
_atom_site_fract_y
_atom_site_fract_z
Si Si1 0.765582 0.815724 0.621887
Si Si2 0.635475 0.718033 0.147237
Si Si3 0.085741 0.666014 0.126402
Si Si4 0.134574 0.430268 0.232489
Si Si5 0.158698 0.676963 0.561670
Si Si6 0.186027 0.119699 0.883967
Si Si7 0.500000 0.614891 0.500000
Si Si8 0.441104 0.569428 0.356918
O O1 0.685976 0.816771 0.867779
O O2 0.827095 0.748810 0.501964
O O3 0.683447 0.823895 0.651935
O O4 0.856730 0.872943 0.470804
O O5 0.597534 0.663509 0.293800
O O6 0.750000 0.750000 0.000000
O O7 0.552287 0.776148 0.264835
O O8 0.651365 0.684238 0.001732
O O9 0.135647 0.613091 0.122236
O O10 0.967487 0.651471 0.260235
O O11 0.168765 0.500000 0.144564
O O12 0.218094 0.408392 0.192368
O O13 0.000000 0.429384 0.500000
O O14 0.255206 0.635914 0.333337
O O15 0.067479 0.080134 0.084419
O O16 0.464433 0.576137 0.451649
O O17 0.397384 0.500000 0.405922
#
# Coordination Sequence:
#
# PCOD9216521 Si02
#       8
#     8   8   8   8   8   8   4   8
#     4  11  26  44  67  99 129 175 223 271 337 385
#     4  11  21  32  59  97 130 161 204 258 329 390
#     4  12  23  41  66  96 134 169 216 271 329 395
#     4  11  24  40  62  94 132 171 211 261 325 396
#     4  11  24  44  69  96 133 169 220 283 329 386
#     4  11  22  41  66  98 129 171 213 268 328 391
#     4  10  23  36  60  94 131 166 208 256 334 394
#     4  11  25  45  66  95 135 177 223 269 327 403
#
# _framework density 20.43695
#
# number of rings (size 3 to 8) (size 9 to 14) (size 15 to 20)
#    0.000    0.933    4.000    3.400    4.667    1.067 
#    0.000    2.667    0.000    1.600    0.000    0.000 
#    0.000    0.000    0.000    0.000    0.000    0.000 
#
# Total GULP energy -167616.793098 kJ/mol
# GULP energy per Si atom -5587.226437 kJ/mol
# Density = 2.039043 g / cm^3
# Si number density = 20.436950 Si / 1000 Ang^3
#
#
#
# Elastic Constant Matrix: (Units=GPa)
#
#
# Indices 1 2 3 4 5 6 
#
# 1 59.0461 24.6146 12.7125 0.0000 4.6448 0.0000
# 2 24.6146 116.0489 23.0274 0.0000 8.8322 0.0000
# 3 12.7125 23.0274 60.7010 0.0000 0.7472 0.0000
# 4 0.0000 0.0000 0.0000 16.9156 0.0000 -0.9578
# 5 4.6448 8.8322 0.7472 0.0000 29.7850 0.0000
# 6 0.0000 0.0000 0.0000 -0.9578 0.0000 8.9551
#
#
#
# Elastic Compliance Matrix: (Units=1/GPa)
#
#
# Indices 1 2 3 4 5 6 
#
# 1 0.019069 -0.003365 -0.002694 0.000000 -0.001908 0.000000
# 2 -0.003365 0.010130 -0.003109 0.000000 -0.002401 0.000000
# 3 -0.002694 -0.003109 0.018207 0.000000 0.000885 0.000000
# 4 0.000000 0.000000 0.000000 0.059477 0.000000 0.006361
# 5 -0.001908 -0.002401 0.000885 0.000000 0.034561 0.000000
# 6 0.000000 0.000000 0.000000 0.006361 0.000000 0.112349
#
#
# Mechanical properties :
#
#
# Convention : Reuss Voigt Hill
#
# Bulk Modulus (GPa) = 34.39804 39.61166 37.00485
# Shear Modulus (GPa) = 17.74194 22.82722 20.28458
#
# Velocity S-wave (km/s) = 2.94960 3.34572 3.15389
# Velocity P-wave (km/s) = 5.33555 5.86085 5.60436
#
# Compressibility (1/GPa) = 0.02907142
#
# Stress axis : x y z
#
# Youngs Moduli (GPa) = 52.44209 98.71290 54.92470
#
# Poissons Ratio (x) = 0.33216 0.14794
# Poissons Ratio (y) = 0.17646 0.17075
# Poissons Ratio (z) = 0.14125 0.30688
#
# Static dielectric constant tensor:
#      x y z
#    x 1.856620 0.000000 0.105200 
#    y 0.000000 1.734680 0.000000 
#    z 0.105200 0.000000 1.867060 
# 
# From -- ./inp_files/178014.got.cif
#   From: 2010.05.17/outbox.cif.g08.bks.cpg/sg12_90_cif.got.tgz:178014.got - 2010.06.03 13:09:07.
