data_PCOD9216650
_publ_section_title
;
Structure prediction by ZEFSAII (Michael W. Deem and Ramdas Pophale) SiO2 
 PCOD9216650
Probable space group: C 2/M
;
_chemical_formula_sum "Si O2"
_cell_formula_units_Z 50
_cell_length_a 9.763468
_cell_length_b 24.818512
_cell_length_c 14.237847
_cell_angle_alpha 90.000000
_cell_angle_beta 126.794399
_cell_angle_gamma 90.000000
_cell_volume 2762.757517
_symmetry_space_group_name_H-M "C 2/M"
_symmetry_group_IT_number 12
_symmetry_cell_setting 'monoclinic'
loop_
_space_group_symop_operation_xyz
x,y,z
-x,y,-z
-x,-y,-z
x,-y,z
1/2+x,1/2+y,z
1/2-x,1/2+y,-z
1/2-x,1/2-y,-z
1/2+x,1/2-y,z
loop_
_atom_site_type_symbol
_atom_site_label
_atom_site_fract_x
_atom_site_fract_y
_atom_site_fract_z
Si Si1 0.365059 0.210618 0.367945
Si Si2 0.450195 0.437128 0.875232
Si Si3 0.019527 0.759256 0.776814
Si Si4 0.283723 0.637144 0.102060
Si Si5 0.027383 0.360507 0.165051
Si Si6 0.559357 0.091549 0.675237
Si Si7 0.500000 0.000000 0.500000
O O1 0.500000 0.230604 0.500000
O O2 0.390739 0.244550 0.283944
O O3 0.413717 0.149240 0.363475
O O4 0.168609 0.216031 0.317568
O O5 0.493589 0.500000 0.886695
O O6 0.560694 0.403746 0.846920
O O7 0.249786 0.429568 0.777010
O O8 0.500000 0.417524 0.000000
O O9 0.136586 0.803197 0.876602
O O10 0.993348 0.702697 0.818805
O O11 0.188758 0.632537 0.162858
O O12 0.141431 0.625203 0.964619
O O13 0.032428 0.394588 0.263374
O O14 0.478529 0.047712 0.572891
#
# Coordination Sequence:
#
# PCOD9216650 Si02
#       7
#     8   8   8   8   8   8   2
#     4  11  22  37  58  88 119 166 211 258 302 365
#     4  11  22  39  64  92 119 157 208 267 318 366
#     4  11  21  37  59  88 129 165 203 253 310 375
#     4  11  21  39  62  92 130 166 194 254 323 379
#     4  10  23  39  58  96 130 162 204 248 313 391
#     4  11  22  40  65  89 123 157 216 258 308 363
#     4  12  24  44  70  88 116 170 210 272 300 360
#
# _framework density 18.097860000000001
#
# number of rings (size 3 to 8) (size 9 to 14) (size 15 to 20)
#    0.000    1.120    6.400    0.960    0.000    0.000 
#    4.320    0.800    0.000    0.960    0.000    0.000 
#    0.000    0.000    0.000    0.000    0.000    0.000 
#
# Total GULP energy -139260.508971 kJ/mol
# GULP energy per Si atom -5570.420359 kJ/mol
# Density = 1.805667 g / cm^3
# Si number density = 18.097860 Si / 1000 Ang^3
#
#
#
# Elastic Constant Matrix: (Units=GPa)
#
#
# Indices 1 2 3 4 5 6 
#
# 1 92.6379 42.4231 15.0209 0.0000 -12.1326 0.0000
# 2 42.4231 70.9903 13.9912 0.0000 -25.7223 0.0000
# 3 15.0209 13.9912 44.6133 0.0000 -16.3666 0.0000
# 4 0.0000 0.0000 0.0000 21.4117 0.0000 -3.3761
# 5 -12.1326 -25.7223 -16.3666 0.0000 21.9702 0.0000
# 6 0.0000 0.0000 0.0000 -3.3761 0.0000 14.0971
#
#
#
# Elastic Compliance Matrix: (Units=1/GPa)
#
#
# Indices 1 2 3 4 5 6 
#
# 1 0.015727 -0.011455 -0.004729 0.000000 -0.008250 0.000000
# 2 -0.011455 0.033312 0.007426 0.000000 0.038208 0.000000
# 3 -0.004729 0.007426 0.032901 0.000000 0.030593 0.000000
# 4 0.000000 0.000000 0.000000 0.048536 0.000000 0.011624
# 5 -0.008250 0.038208 0.030593 0.000000 0.108483 0.000000
# 6 0.000000 0.000000 0.000000 0.011624 0.000000 0.073720
#
#
# Mechanical properties :
#
#
# Convention : Reuss Voigt Hill
#
# Bulk Modulus (GPa) = 15.52205 39.01245 27.26725
# Shear Modulus (GPa) = 14.21783 20.61623 17.41703
#
# Velocity S-wave (km/s) = 2.80591 3.37880 3.10559
# Velocity P-wave (km/s) = 4.36954 6.06835 5.28761
#
# Compressibility (1/GPa) = 0.06442446
#
# Stress axis : x y z
#
# Youngs Moduli (GPa) = 63.58474 30.01883 30.39413
#
# Poissons Ratio (x) = 0.34388 0.14373
# Poissons Ratio (y) = 0.72839 -0.22572
# Poissons Ratio (z) = 0.30069 -0.22293
#
# Static dielectric constant tensor:
#      x y z
#    x 1.598020 0.000000 -0.003200 
#    y 0.000000 1.622100 0.000000 
#    z -0.003200 0.000000 1.640910 
# 
# From -- ./inp_files/124429.got.cif
#   From: 2010.05.17/outbox.cif.g08.bks.cpg/sg12_63_cif.got.tgz:124429.got - 2010.06.03 13:09:07.
