data_PCOD9216976
_publ_section_title
;
Structure prediction by ZEFSAII (Michael W. Deem and Ramdas Pophale) SiO2 
 PCOD9216976
Probable space group: C 2/M
;
_chemical_formula_sum "Si O2"
_cell_formula_units_Z 48
_cell_length_a 13.416057
_cell_length_b 18.338188
_cell_length_c 30.781449
_cell_angle_alpha 90.000000
_cell_angle_beta 161.272999
_cell_angle_gamma 90.000000
_cell_volume 2431.395875
_symmetry_space_group_name_H-M "C 2/M"
_symmetry_group_IT_number 12
_symmetry_cell_setting 'monoclinic'
loop_
_space_group_symop_operation_xyz
x,y,z
-x,y,-z
-x,-y,-z
x,-y,z
1/2+x,1/2+y,z
1/2-x,1/2+y,-z
1/2-x,1/2-y,-z
1/2+x,1/2-y,z
loop_
_atom_site_type_symbol
_atom_site_label
_atom_site_fract_x
_atom_site_fract_y
_atom_site_fract_z
Si Si1 0.868679 0.295071 0.649817
Si Si2 0.405152 0.084854 0.323904
Si Si3 0.787430 0.630210 0.950096
Si Si4 0.348911 0.205507 0.138489
Si Si5 0.265916 0.155321 0.783638
Si Si6 0.644958 0.915520 0.515615
O O1 0.500000 0.285032 0.500000
O O2 0.957729 0.364989 0.657440
O O3 0.985177 0.301692 0.747142
O O4 0.058950 0.227297 0.707868
O O5 0.525533 0.114998 0.420437
O O6 0.031236 0.089955 0.170464
O O7 0.498409 0.000000 0.357741
O O8 0.685202 0.709751 0.889777
O O9 0.000000 0.595825 0.000000
O O10 0.004686 0.641491 0.081554
O O11 0.534431 0.166980 0.176881
O O12 0.000000 0.176737 0.000000
O O13 0.012170 0.092917 0.671763
O O14 0.500000 0.883652 0.500000
O O15 0.548914 0.000000 0.474629
#
# Coordination Sequence:
#
# PCOD9216976 Si02
#       6
#     8   8   8   8   8   8
#     4  12  25  39  64  96 124 167 215 260 310 376
#     4  11  25  44  63  91 132 173 210 256 315 378
#     4  11  21  38  65  95 125 160 204 265 322 370
#     4  11  22  39  60  93 126 160 201 261 318 366
#     4  12  22  38  66  92 127 159 213 265 318 371
#     4  10  23  41  62  92 130 166 207 264 320 375
#
# _framework density 19.741745999999999
#
# number of rings (size 3 to 8) (size 9 to 14) (size 15 to 20)
#    0.000    0.833    5.000    4.000    2.333    2.667 
#    0.000    0.833    0.000    2.000    0.000    0.000 
#    0.000    0.000    0.000    0.000    0.000    0.000 
#
# Total GULP energy -134143.320787 kJ/mol
# GULP energy per Si atom -5589.305033 kJ/mol
# Density = 1.969681 g / cm^3
# Si number density = 19.741746 Si / 1000 Ang^3
#
#
#
# Elastic Constant Matrix: (Units=GPa)
#
#
# Indices 1 2 3 4 5 6 
#
# 1 239.9586 69.5386 86.6596 -0.0450 -52.4667 -0.0331
# 2 69.5386 61.5040 16.9830 -0.0247 -35.8147 -0.0156
# 3 86.6596 16.9830 160.1628 -0.0389 -20.0436 -0.0171
# 4 -0.0450 -0.0247 -0.0389 24.8523 0.0296 2.2084
# 5 -52.4667 -35.8147 -20.0436 0.0296 73.0524 0.0147
# 6 -0.0331 -0.0156 -0.0171 2.2084 0.0147 9.9469
#
#
#
# Elastic Compliance Matrix: (Units=1/GPa)
#
#
# Indices 1 2 3 4 5 6 
#
# 1 0.007636 -0.007086 -0.003240 0.000000 0.001121 0.000007
# 2 -0.007086 0.029504 0.001946 0.000007 0.009909 0.000010
# 3 -0.003240 0.001946 0.007889 0.000007 0.000792 0.000003
# 4 0.000000 0.000007 0.000007 0.041048 -0.000010 -0.009113
# 5 0.001121 0.009909 0.000792 -0.000010 0.019569 -0.000006
# 6 0.000007 0.000010 0.000003 -0.009113 -0.000006 0.102557
#
#
# Mechanical properties :
#
#
# Convention : Reuss Voigt Hill
#
# Bulk Modulus (GPa) = 35.37474 89.77643 62.57558
# Shear Modulus (GPa) = 21.33217 40.79993 31.06605
#
# Velocity S-wave (km/s) = 3.29076 4.55101 3.97119
# Velocity P-wave (km/s) = 5.69179 8.55510 7.26588
#
# Compressibility (1/GPa) = 0.02826876
#
# Stress axis : x y z
#
# Youngs Moduli (GPa) = 130.95536 33.89381 126.75112
#
# Poissons Ratio (x) = 0.24018 0.41068
# Poissons Ratio (y) = 0.92796 -0.24662
# Poissons Ratio (z) = 0.42430 -0.06595
#
# Static dielectric constant tensor:
#      x y z
#    x 1.678930 0.000000 0.010430 
#    y 0.000000 1.716770 -0.000010 
#    z 0.010430 -0.000010 1.668670 
# 
# From -- ./inp_files/89411.got.cif
#   From: 2010.05.17/outbox.cif.g08.bks.cpg/sg12_45_cif.got.tgz:89411.got - 2010.06.03 13:09:07.
