data_PCOD9216532
_publ_section_title
;
Structure prediction by ZEFSAII (Michael W. Deem and Ramdas Pophale) SiO2 
 PCOD9216532
Probable space group: C 2/M
;
_chemical_formula_sum "Si O2"
_cell_formula_units_Z 56
_cell_length_a 20.622388
_cell_length_b 22.538782
_cell_length_c 7.866405
_cell_angle_alpha 90.000000
_cell_angle_beta 134.304823
_cell_angle_gamma 90.000000
_cell_volume 2616.595731
_symmetry_space_group_name_H-M "C 2/M"
_symmetry_group_IT_number 12
_symmetry_cell_setting 'monoclinic'
loop_
_space_group_symop_operation_xyz
x,y,z
-x,y,-z
-x,-y,-z
x,-y,z
1/2+x,1/2+y,z
1/2-x,1/2+y,-z
1/2-x,1/2-y,-z
1/2+x,1/2-y,z
loop_
_atom_site_type_symbol
_atom_site_label
_atom_site_fract_x
_atom_site_fract_y
_atom_site_fract_z
Si Si1 0.372009 0.570086 0.434130
Si Si2 0.927139 0.069375 0.136734
Si Si3 0.543051 0.253383 0.261510
Si Si4 0.267853 0.677719 0.389121
Si Si5 0.136207 0.749225 0.908740
Si Si6 0.733621 0.645056 0.229648
Si Si7 0.082570 0.648886 0.544947
O O1 0.354119 0.500000 0.433172
O O2 0.394442 0.575816 0.273833
O O3 0.468561 0.587408 0.695538
O O4 0.294142 0.614078 0.355854
O O5 0.924123 0.000000 0.091649
O O6 0.852086 0.103748 0.895120
O O7 0.639570 0.284185 0.460913
O O8 0.547749 0.183091 0.313973
O O9 0.500000 0.263103 0.000000
O O10 0.462232 0.276368 0.232663
O O11 0.183565 0.708194 0.139292
O O12 0.247723 0.673766 0.552648
O O13 0.201629 0.805994 0.031639
O O14 0.115706 0.705446 0.717369
O O15 0.825485 0.614693 0.330764
O O16 0.000000 0.620956 0.500000
#
# Coordination Sequence:
#
# PCOD9216532 Si02
#       7
#     8   8   8   8   8   8   8
#     4   9  20  38  56  81 114 151 192 234 279 335
#     4   9  20  37  58  82 112 150 193 235 277 332
#     4  11  21  36  51  79 120 147 183 229 285 337
#     4  12  23  35  56  84 118 157 187 230 291 341
#     4  11  22  36  54  81 113 148 195 232 275 345
#     4  12  21  35  54  80 113 149 186 236 281 340
#     4  10  23  37  55  78 109 155 191 237 284 336
#
# _framework density 21.401854
#
# number of rings (size 3 to 8) (size 9 to 14) (size 15 to 20)
#    0.000    1.429    2.857    4.286    2.000    0.571 
#    0.000    1.429    0.000    0.429    0.000    3.000 
#    0.000   12.571    0.000    0.000    0.000    0.000 
#
# Total GULP energy -156304.505338 kJ/mol
# GULP energy per Si atom -5582.303762 kJ/mol
# Density = 2.135314 g / cm^3
# Si number density = 21.401854 Si / 1000 Ang^3
#
#
#
# Elastic Constant Matrix: (Units=GPa)
#
#
# Indices 1 2 3 4 5 6 
#
# 1 77.0261 6.9754 12.8375 0.0000 27.2885 0.0000
# 2 6.9754 55.6528 14.1145 0.0000 8.0331 0.0000
# 3 12.8375 14.1145 85.8626 0.0000 7.6687 0.0000
# 4 0.0000 0.0000 0.0000 24.0981 0.0000 6.6067
# 5 27.2885 8.0331 7.6687 0.0000 33.5647 0.0000
# 6 0.0000 0.0000 0.0000 6.6067 0.0000 25.0183
#
#
#
# Elastic Compliance Matrix: (Units=1/GPa)
#
#
# Indices 1 2 3 4 5 6 
#
# 1 0.018411 0.000184 -0.001472 0.000000 -0.014676 0.000000
# 2 0.000184 0.019256 -0.002826 0.000000 -0.004113 0.000000
# 3 -0.001472 -0.002826 0.012417 0.000000 -0.000964 0.000000
# 4 0.000000 0.000000 0.000000 0.044736 0.000000 -0.011814
# 5 -0.014676 -0.004113 -0.000964 0.000000 0.042929 0.000000
# 6 0.000000 0.000000 0.000000 -0.011814 0.000000 0.043090
#
#
# Mechanical properties :
#
#
# Convention : Reuss Voigt Hill
#
# Bulk Modulus (GPa) = 23.89120 31.82179 27.85650
# Shear Modulus (GPa) = 24.62835 28.84383 26.73609
#
# Velocity S-wave (km/s) = 3.39596 3.67512 3.53830
# Velocity P-wave (km/s) = 5.15404 5.73670 5.45316
#
# Compressibility (1/GPa) = 0.04185641
#
# Stress axis : x y z
#
# Youngs Moduli (GPa) = 54.31660 51.93270 80.53355
#
# Poissons Ratio (x) = -0.00956 0.11856
# Poissons Ratio (y) = -0.01000 0.22755
# Poissons Ratio (z) = 0.07996 0.14674
#
# Static dielectric constant tensor:
#      x y z
#    x 1.839010 0.000000 -0.012640 
#    y 0.000000 1.768630 0.000000 
#    z -0.012640 0.000000 1.823580 
# 
# From -- ./inp_files/99696.got.cif
#   From: 2010.05.17/outbox.cif.g08.bks.cpg/sg12_50_cif.got.tgz:99696.got - 2010.06.03 13:09:07.
