data_PCOD9216920
_publ_section_title
;
Structure prediction by ZEFSAII (Michael W. Deem and Ramdas Pophale) SiO2 
 PCOD9216920
Probable space group: C 2/M
;
_chemical_formula_sum "Si O2"
_cell_formula_units_Z 44
_cell_length_a 8.966360
_cell_length_b 18.147068
_cell_length_c 15.023837
_cell_angle_alpha 90.000000
_cell_angle_beta 124.855029
_cell_angle_gamma 90.000000
_cell_volume 2006.020572
_symmetry_space_group_name_H-M "C 2/M"
_symmetry_group_IT_number 12
_symmetry_cell_setting 'monoclinic'
loop_
_space_group_symop_operation_xyz
x,y,z
-x,y,-z
-x,-y,-z
x,-y,z
1/2+x,1/2+y,z
1/2-x,1/2+y,-z
1/2-x,1/2-y,-z
1/2+x,1/2-y,z
loop_
_atom_site_type_symbol
_atom_site_label
_atom_site_fract_x
_atom_site_fract_y
_atom_site_fract_z
Si Si1 0.820973 0.000000 0.001431
Si Si2 0.000000 0.871755 0.500000
Si Si3 0.275593 0.500000 0.186023
Si Si4 0.016902 0.627477 0.906929
Si Si5 0.408498 0.500000 0.587024
Si Si6 0.075146 0.340319 0.625913
Si Si7 0.331437 0.781690 0.691337
Si Si8 0.619451 0.000000 0.630856
O O1 0.692941 0.925672 0.948031
O O2 0.874170 0.000000 0.124126
O O3 0.000000 0.000000 0.000000
O O4 0.141568 0.825123 0.607023
O O5 0.121151 0.926669 0.480036
O O6 0.147218 0.569934 0.143991
O O7 0.383280 0.500000 0.314256
O O8 0.960095 0.684319 0.811073
O O9 0.000000 0.663021 0.000000
O O10 0.312370 0.500000 0.648662
O O11 0.270403 0.301314 0.690514
O O12 0.084112 0.423355 0.666942
O O13 0.000000 0.343511 0.500000
O O14 0.941931 0.291244 0.638676
O O15 0.500000 0.000000 0.500000
#
# Coordination Sequence:
#
# PCOD9216920 Si02
#       8
#     4   4   4   8   4   8   8   4
#     4   9  19  36  63  97 132 174 231 284 338 394
#     4  11  22  34  62  99 142 172 224 261 346 410
#     4   9  17  34  58  91 129 173 219 266 328 398
#     4   9  20  40  63  91 131 175 227 279 334 400
#     4  11  21  33  59  99 132 178 218 269 322 421
#     4  11  25  42  65  95 140 179 228 270 343 402
#     4  12  24  41  68  97 135 182 220 283 341 404
#     4  10  23  41  59  90 140 179 225 275 324 385
#
# _framework density 21.933972000000001
#
# number of rings (size 3 to 8) (size 9 to 14) (size 15 to 20)
#    0.000    1.636    2.727    3.818    2.545    3.636 
#    0.000    2.727    0.000    0.000    0.000    0.636 
#    0.000    0.000    0.000    0.182    0.000    0.000 
#
# Total GULP energy -122757.933238 kJ/mol
# GULP energy per Si atom -5579.906056 kJ/mol
# Density = 2.188405 g / cm^3
# Si number density = 21.933972 Si / 1000 Ang^3
#
#
#
# Elastic Constant Matrix: (Units=GPa)
#
#
# Indices 1 2 3 4 5 6 
#
# 1 110.6234 36.1466 16.4629 0.0000 -5.1468 0.0000
# 2 36.1466 100.2823 31.1882 0.0000 3.4250 0.0000
# 3 16.4629 31.1882 105.3782 0.0000 1.7898 0.0000
# 4 0.0000 0.0000 0.0000 -29.4945 0.0000 8.7888
# 5 -5.1468 3.4250 1.7898 0.0000 15.2877 0.0000
# 6 0.0000 0.0000 0.0000 8.7888 0.0000 26.9426
#
#
#
# Elastic Compliance Matrix: (Units=1/GPa)
#
#
# Indices 1 2 3 4 5 6 
#
# 1 0.010572 -0.003774 -0.000611 0.000000 0.004476 0.000000
# 2 -0.003774 0.012396 -0.003017 0.000000 -0.003694 0.000000
# 3 -0.000611 -0.003017 0.010491 0.000000 -0.000758 0.000000
# 4 0.000000 0.000000 0.000000 -0.030901 0.000000 0.010080
# 5 0.004476 -0.003694 -0.000758 0.000000 0.067836 0.000000
# 6 0.000000 0.000000 0.000000 0.010080 0.000000 0.033828
#
#
# Mechanical properties :
#
#
# Convention : Reuss Voigt Hill
#
# Bulk Modulus (GPa) = 53.59897 53.76439 53.68168
# Shear Modulus (GPa) = 39.92266 18.04624 28.98445
#
# Velocity S-wave (km/s) = 4.27093 2.87148 3.63911
# Velocity P-wave (km/s) = 6.98646 5.96314 6.49498
#
# Compressibility (1/GPa) = 0.01865708
#
# Stress axis : x y z
#
# Youngs Moduli (GPa) = 94.59094 80.66882 95.32217
#
# Poissons Ratio (x) = 0.30440 0.05822
# Poissons Ratio (y) = 0.35694 0.28755
# Poissons Ratio (z) = 0.05778 0.24335
#
# Static dielectric constant tensor:
#      x y z
#    x 1.791620 0.000000 0.108790 
#    y 0.000000 1.846500 0.000000 
#    z 0.108790 0.000000 2.174380 
# 
# From -- ./inp_files/197313.got.cif
#   From: 2010.05.17/outbox.cif.g08.bks.cpg/sg12_99_cif.got.tgz:197313.got - 2010.06.03 13:09:07.
