data_PCOD9216384
_publ_section_title
;
Structure prediction by ZEFSAII (Michael W. Deem and Ramdas Pophale) SiO2 
 PCOD9216384
Probable space group: C 2/M
;
_chemical_formula_sum "Si O2"
_cell_formula_units_Z 44
_cell_length_a 9.401862
_cell_length_b 11.875614
_cell_length_c 18.250081
_cell_angle_alpha 90.000000
_cell_angle_beta 74.507110
_cell_angle_gamma 90.000000
_cell_volume 1963.632449
_symmetry_space_group_name_H-M "C 2/M"
_symmetry_group_IT_number 12
_symmetry_cell_setting 'monoclinic'
loop_
_space_group_symop_operation_xyz
x,y,z
-x,y,-z
-x,-y,-z
x,-y,z
1/2+x,1/2+y,z
1/2-x,1/2+y,-z
1/2-x,1/2-y,-z
1/2+x,1/2-y,z
loop_
_atom_site_type_symbol
_atom_site_label
_atom_site_fract_x
_atom_site_fract_y
_atom_site_fract_z
Si Si1 0.976766 0.000000 0.090052
Si Si2 0.651055 0.000000 0.201793
Si Si3 0.257544 0.628623 0.704962
Si Si4 0.050168 0.720598 0.235366
Si Si5 0.292996 0.307670 0.917082
Si Si6 0.178538 0.133214 0.475347
Si Si7 0.568339 0.000000 0.909164
O O1 0.816410 0.000000 0.147386
O O2 0.066199 0.889127 0.098572
O O3 0.000000 0.000000 0.000000
O O4 0.608544 0.895697 0.259904
O O5 0.542497 0.000000 0.144093
O O6 0.231250 0.500000 0.731252
O O7 0.404384 0.673489 0.723319
O O8 0.270141 0.633917 0.616267
O O9 0.122991 0.706661 0.749620
O O10 0.149159 0.718930 0.148467
O O11 0.166263 0.386436 0.900565
O O12 0.250000 0.250000 0.000000
O O13 0.250000 0.250000 0.500000
O O14 0.000000 0.144445 0.500000
O O15 0.209458 0.000000 0.497778
O O16 0.500000 0.000000 0.000000
#
# Coordination Sequence:
#
# PCOD9216384 Si02
#       7
#     4   4   8   8   8   8   4
#     4  11  23  39  57  85 121 152 222 287 343 407
#     4  12  24  40  60  94 124 171 218 280 344 409
#     4  11  25  46  70 102 142 185 226 281 348 414
#     4  12  24  43  67  93 139 177 232 283 347 413
#     4  11  25  42  63  91 120 178 231 288 346 410
#     4  10  22  44  73 109 147 186 234 285 344 424
#     4  11  23  41  65  87 125 167 225 293 368 412
#
# _framework density 22.407454000000001
#
# number of rings (size 3 to 8) (size 9 to 14) (size 15 to 20)
#    0.000    0.909    0.909    6.545    2.545    4.000 
#    3.273    0.909    0.000    0.000    0.000    0.000 
#    0.000    0.000    0.000    0.000    0.000    0.000 
#
# Total GULP energy -122781.235972 kJ/mol
# GULP energy per Si atom -5580.965271 kJ/mol
# Density = 2.235645 g / cm^3
# Si number density = 22.407454 Si / 1000 Ang^3
#
#
#
# Elastic Constant Matrix: (Units=GPa)
#
#
# Indices 1 2 3 4 5 6 
#
# 1 121.6908 60.6335 18.4184 0.0000 -5.5276 0.0000
# 2 60.6335 146.8048 28.3618 0.0000 11.2413 0.0000
# 3 18.4184 28.3618 67.4316 0.0000 0.0310 0.0000
# 4 0.0000 0.0000 0.0000 25.1656 0.0000 6.6983
# 5 -5.5276 11.2413 0.0310 0.0000 26.1444 0.0000
# 6 0.0000 0.0000 0.0000 6.6983 0.0000 11.0686
#
#
#
# Elastic Compliance Matrix: (Units=1/GPa)
#
#
# Indices 1 2 3 4 5 6 
#
# 1 0.010869 -0.004619 -0.001028 0.000000 0.004285 0.000000
# 2 -0.004619 0.009652 -0.002796 0.000000 -0.005123 0.000000
# 3 -0.001028 -0.002796 0.016286 0.000000 0.000965 0.000000
# 4 0.000000 0.000000 0.000000 0.047366 0.000000 -0.028665
# 5 0.004285 -0.005123 0.000965 0.000000 0.041357 0.000000
# 6 0.000000 0.000000 0.000000 -0.028665 0.000000 0.107692
#
#
# Mechanical properties :
#
#
# Convention : Reuss Voigt Hill
#
# Bulk Modulus (GPa) = 50.19567 61.19494 55.69531
# Shear Modulus (GPa) = 19.47433 27.70996 23.59214
#
# Velocity S-wave (km/s) = 2.95125 3.52040 3.24832
# Velocity P-wave (km/s) = 5.83636 6.62523 6.24327
#
# Compressibility (1/GPa) = 0.01992204
#
# Stress axis : x y z
#
# Youngs Moduli (GPa) = 92.00399 103.60790 61.40209
#
# Poissons Ratio (x) = 0.47853 0.06313
# Poissons Ratio (y) = 0.42494 0.17166
# Poissons Ratio (z) = 0.09459 0.28965
#
# Static dielectric constant tensor:
#      x y z
#    x 1.840290 0.000000 -0.058760 
#    y 0.000000 2.588210 0.000000 
#    z -0.058760 0.000000 1.713660 
# 
# From -- ./inp_files/299322.got.cif
#   From: 2010.05.17/outbox.cif.g08.bks.cpg/sg12_150_cif.got.tgz:299322.got - 2010.06.03 13:09:07.
