data_PCOD9216542
_publ_section_title
;
Structure prediction by ZEFSAII (Michael W. Deem and Ramdas Pophale) SiO2 
 PCOD9216542
Probable space group: C 2/M
;
_chemical_formula_sum "Si O2"
_cell_formula_units_Z 46
_cell_length_a 8.813681
_cell_length_b 24.598628
_cell_length_c 14.761437
_cell_angle_alpha 90.000000
_cell_angle_beta 141.304576
_cell_angle_gamma 90.000000
_cell_volume 2000.792963
_symmetry_space_group_name_H-M "C 2/M"
_symmetry_group_IT_number 12
_symmetry_cell_setting 'monoclinic'
loop_
_space_group_symop_operation_xyz
x,y,z
-x,y,-z
-x,-y,-z
x,-y,z
1/2+x,1/2+y,z
1/2-x,1/2+y,-z
1/2-x,1/2-y,-z
1/2+x,1/2-y,z
loop_
_atom_site_type_symbol
_atom_site_label
_atom_site_fract_x
_atom_site_fract_y
_atom_site_fract_z
Si Si1 0.586439 0.942617 0.894746
Si Si2 0.874624 0.676023 0.029115
Si Si3 0.259319 0.912443 0.574747
Si Si4 0.920069 0.708161 0.680268
Si Si5 0.500000 0.500000 0.000000
Si Si6 0.000000 0.406516 0.500000
Si Si7 0.816430 0.189395 0.720548
O O1 0.556789 0.887665 0.934103
O O2 0.457199 0.934170 0.737720
O O3 0.491191 0.000000 0.889386
O O4 0.865417 0.953721 0.000014
O O5 0.978383 0.698823 0.170817
O O6 0.589102 0.682090 0.882035
O O7 0.000000 0.701456 0.000000
O O8 0.272515 0.846046 0.583439
O O9 0.352202 0.931716 0.517911
O O10 0.000000 0.927746 0.500000
O O11 0.147500 0.711086 0.720921
O O12 0.798124 0.767115 0.630134
O O13 0.204232 0.367924 0.639145
#
# Coordination Sequence:
#
# PCOD9216542 Si02
#       7
#     8   8   8   8   2   4   8
#     4   9  22  40  68  89 115 164 196 261 323 361
#     4  11  23  38  63  89 122 158 203 263 310 368
#     4  10  23  41  64  89 130 165 210 255 305 376
#     4  10  23  37  59  89 121 168 205 255 310 352
#     4   8  20  40  68  86 124 138 212 244 324 374
#     4  10  26  36  61  92 122 174 207 246 314 368
#     4  11  23  38  59  87 128 161 214 250 304 373
#
# _framework density 22.990886
#
# number of rings (size 3 to 8) (size 9 to 14) (size 15 to 20)
#    0.522    1.391    0.000    2.087   15.826    2.087 
#    0.000    0.435    0.000    0.000    0.000    0.000 
#    0.000    0.000    0.000    0.000    0.000    0.000 
#
# Total GULP energy -128087.523856 kJ/mol
# GULP energy per Si atom -5569.022776 kJ/mol
# Density = 2.293856 g / cm^3
# Si number density = 22.990886 Si / 1000 Ang^3
#
#
#
# Elastic Constant Matrix: (Units=GPa)
#
#
# Indices 1 2 3 4 5 6 
#
# 1 170.2619 -2.7877 42.1337 0.0000 -17.0970 0.0000
# 2 -2.7877 81.8921 3.0083 0.0000 -10.6079 0.0000
# 3 42.1337 3.0083 38.3764 0.0000 -3.5681 0.0000
# 4 0.0000 0.0000 0.0000 22.8670 0.0000 21.8058
# 5 -17.0970 -10.6079 -3.5681 0.0000 31.6232 0.0000
# 6 0.0000 0.0000 0.0000 21.8058 0.0000 17.8361
#
#
#
# Elastic Compliance Matrix: (Units=1/GPa)
#
#
# Indices 1 2 3 4 5 6 
#
# 1 0.008543 0.001140 -0.009099 0.000000 0.003974 0.000000
# 2 0.001140 0.012932 -0.001824 0.000000 0.004749 0.000000
# 3 -0.009099 -0.001824 0.036054 0.000000 -0.001463 0.000000
# 4 0.000000 0.000000 0.000000 -0.263712 0.000000 0.322406
# 5 0.003974 0.004749 -0.001463 0.000000 0.035199 0.000000
# 6 0.000000 0.000000 0.000000 0.322406 0.000000 -0.338097
#
#
# Mechanical properties :
#
#
# Convention : Reuss Voigt Hill
#
# Bulk Modulus (GPa) = 26.34100 41.69321 34.01710
# Shear Modulus (GPa) = -10.48524 31.01034 10.26255
#
# Velocity S-wave (km/s) = -2.13787 3.67660 2.11505
# Velocity P-wave (km/s) = 2.32121 6.01641 4.55989
#
# Compressibility (1/GPa) = 0.03796363
#
# Stress axis : x y z
#
# Youngs Moduli (GPa) = 117.05896 77.32704 27.73592
#
# Poissons Ratio (x) = -0.08814 0.25237
# Poissons Ratio (y) = -0.13343 0.05058
# Poissons Ratio (z) = 1.06511 0.14102
#
# Static dielectric constant tensor:
#      x y z
#    x 1.856830 0.000000 -0.010090 
#    y 0.000000 2.025590 0.000000 
#    z -0.010090 0.000000 1.860700 
# 
# From -- ./inp_files/201080.got.cif
#   From: 2010.05.17/outbox.cif.g08.bks.cpg/sg12_101_cif.got.tgz:201080.got - 2010.06.03 13:09:07.
