data_PCOD9216785
_publ_section_title
;
Structure prediction by ZEFSAII (Michael W. Deem and Ramdas Pophale) SiO2 
 PCOD9216785
Probable space group: C 2/M
;
_chemical_formula_sum "Si O2"
_cell_formula_units_Z 48
_cell_length_a 5.410070
_cell_length_b 22.871062
_cell_length_c 18.985925
_cell_angle_alpha 90.000000
_cell_angle_beta 64.652317
_cell_angle_gamma 90.000000
_cell_volume 2123.039291
_symmetry_space_group_name_H-M "C 2/M"
_symmetry_group_IT_number 12
_symmetry_cell_setting 'monoclinic'
loop_
_space_group_symop_operation_xyz
x,y,z
-x,y,-z
-x,-y,-z
x,-y,z
1/2+x,1/2+y,z
1/2-x,1/2+y,-z
1/2-x,1/2-y,-z
1/2+x,1/2-y,z
loop_
_atom_site_type_symbol
_atom_site_label
_atom_site_fract_x
_atom_site_fract_y
_atom_site_fract_z
Si Si1 0.869345 0.070447 0.590246
Si Si2 0.890291 0.500000 0.906036
Si Si3 0.739643 0.762704 0.338552
Si Si4 0.234380 0.896484 0.679907
Si Si5 0.042606 0.000000 0.804639
Si Si6 0.007217 0.716770 0.829976
Si Si7 0.813759 0.371079 0.957551
O O1 0.557270 0.091514 0.632413
O O2 0.000000 0.088192 0.500000
O O3 0.061396 0.091489 0.630295
O O4 0.863538 0.000000 0.594234
O O5 0.716924 0.500000 0.854974
O O6 0.816774 0.440965 0.955437
O O7 0.216810 0.500000 0.854416
O O8 0.421943 0.749994 0.383610
O O9 0.793174 0.827622 0.302741
O O10 0.851820 0.719263 0.263822
O O11 0.123442 0.941670 0.751427
O O12 0.220542 0.749784 0.854712
O O13 0.945801 0.653895 0.869913
O O14 0.500000 0.350964 0.000000
O O15 0.000000 0.351009 0.000000
#
# Coordination Sequence:
#
# PCOD9216785 Si02
#       7
#     8   4   8   8   4   8   8
#     4  11  22  41  67 103 144 182 222 270 322 393
#     4  12  28  43  68  94 137 170 213 270 343 396
#     4  10  23  40  66  92 134 171 221 275 334 391
#     4  12  23  42  67 103 139 175 226 271 340 396
#     4  12  26  39  69 102 132 172 211 284 327 408
#     4  10  23  40  63  92 122 160 215 270 323 379
#     4  12  26  46  70  91 127 172 219 267 328 410
#
# _framework density 22.609096000000001
#
# number of rings (size 3 to 8) (size 9 to 14) (size 15 to 20)
#    0.000    0.833    1.667    5.000    9.333    3.333 
#    0.000    0.000    0.000   10.000    0.000    0.000 
#    0.000    0.000    0.000    0.000    0.000    0.000 
#
# Total GULP energy -134304.932839 kJ/mol
# GULP energy per Si atom -5596.038868 kJ/mol
# Density = 2.255764 g / cm^3
# Si number density = 22.609096 Si / 1000 Ang^3
#
#
#
# Elastic Constant Matrix: (Units=GPa)
#
#
# Indices 1 2 3 4 5 6 
#
# 1 232.8049 23.1972 45.0939 0.0000 27.7051 0.0000
# 2 23.1972 42.6102 -9.4020 0.0000 0.8841 0.0000
# 3 45.0939 -9.4020 52.8908 0.0000 9.6315 0.0000
# 4 0.0000 0.0000 0.0000 -21.0010 0.0000 3.9982
# 5 27.7051 0.8841 9.6315 0.0000 19.1750 0.0000
# 6 0.0000 0.0000 0.0000 3.9982 0.0000 19.8723
#
#
#
# Elastic Compliance Matrix: (Units=1/GPa)
#
#
# Indices 1 2 3 4 5 6 
#
# 1 0.006545 -0.004569 -0.005183 0.000000 -0.006643 0.000000
# 2 -0.004569 0.027849 0.008671 0.000000 0.000962 0.000000
# 3 -0.005183 0.008671 0.025950 0.000000 -0.005946 0.000000
# 4 0.000000 0.000000 0.000000 -0.045860 0.000000 0.009227
# 5 -0.006643 0.000962 -0.005946 0.000000 0.064691 0.000000
# 6 0.000000 0.000000 0.000000 0.009227 0.000000 0.048465
#
#
# Mechanical properties :
#
#
# Convention : Reuss Voigt Hill
#
# Bulk Modulus (GPa) = 17.18742 49.56490 33.37616
# Shear Modulus (GPa) = 33.51294 21.57039 27.54166
#
# Velocity S-wave (km/s) = 3.85421 3.09213 3.49401
# Velocity P-wave (km/s) = 5.23690 5.89224 5.57421
#
# Compressibility (1/GPa) = 0.05818208
#
# Stress axis : x y z
#
# Youngs Moduli (GPa) = 152.78519 35.90768 38.53601
#
# Poissons Ratio (x) = 0.16406 0.19972
# Poissons Ratio (y) = 0.69807 -0.33414
# Poissons Ratio (z) = 0.79186 -0.31135
#
# Static dielectric constant tensor:
#      x y z
#    x 1.859370 0.000000 0.007090 
#    y 0.000000 1.839190 0.000000 
#    z 0.007090 0.000000 1.785600 
# 
# From -- ./inp_files/253226.got.cif
#   From: 2010.05.17/outbox.cif.g08.bks.cpg/sg12_127_cif.got.tgz:253226.got - 2010.06.03 13:09:07.
