data_PCOD9216497
_publ_section_title
;
Structure prediction by ZEFSAII (Michael W. Deem and Ramdas Pophale) SiO2 
 PCOD9216497
Probable space group: C 2/M
;
_chemical_formula_sum "Si O2"
_cell_formula_units_Z 52
_cell_length_a 5.146588
_cell_length_b 29.114803
_cell_length_c 21.658027
_cell_angle_alpha 90.000000
_cell_angle_beta 113.079704
_cell_angle_gamma 90.000000
_cell_volume 2985.528983
_symmetry_space_group_name_H-M "C 2/M"
_symmetry_group_IT_number 12
_symmetry_cell_setting 'monoclinic'
loop_
_space_group_symop_operation_xyz
x,y,z
-x,y,-z
-x,-y,-z
x,-y,z
1/2+x,1/2+y,z
1/2-x,1/2+y,-z
1/2-x,1/2-y,-z
1/2+x,1/2-y,z
loop_
_atom_site_type_symbol
_atom_site_label
_atom_site_fract_x
_atom_site_fract_y
_atom_site_fract_z
Si Si1 0.520894 0.134754 0.871129
Si Si2 0.835059 0.720221 0.921651
Si Si3 0.500000 0.603672 0.000000
Si Si4 0.313068 0.448162 0.099080
Si Si5 0.334646 0.081159 0.223429
Si Si6 0.319768 0.555848 0.541389
Si Si7 0.476443 0.554074 0.303790
O O1 0.337364 0.177683 0.875225
O O2 0.802426 0.134637 0.938933
O O3 0.362877 0.088036 0.877146
O O4 0.603099 0.128428 0.807597
O O5 0.530686 0.739731 0.911051
O O6 0.000000 0.706227 0.000000
O O7 0.669459 0.571282 0.968597
O O8 0.206496 0.500000 0.092366
O O9 0.629658 0.446101 0.157032
O O10 0.640803 0.059341 0.263751
O O11 0.155989 0.081753 0.269728
O O12 0.500000 0.571956 0.500000
O O13 0.326365 0.500000 0.541612
O O14 0.438827 0.568812 0.619323
O O15 0.000000 0.570247 0.500000
O O16 0.549654 0.500000 0.302258
#
# Coordination Sequence:
#
# PCOD9216497 Si02
#       7
#     8   8   4   8   8   8   8
#     4  11  24  39  55  75 106 130 174 221 273 324
#     4  10  23  38  62  83  99 123 164 218 283 336
#     4  10  23  34  52  72 102 132 170 220 273 308
#     4  11  22  36  51  70 101 137 180 219 262 311
#     4  11  23  34  51  72 100 139 177 218 263 304
#     4   9  17  29  46  69  96 130 174 227 267 289
#     4  11  20  33  50  72 102 138 185 224 256 299
#
# _framework density 17.417349000000002
#
# number of rings (size 3 to 8) (size 9 to 14) (size 15 to 20)
#    0.000    1.538    1.538    3.923    7.538    6.769 
#    0.000    0.000    0.000    0.000    0.000    0.000 
#    0.000    0.000    0.000    0.000    0.000   53.846 
#
# Total GULP energy -145242.577464 kJ/mol
# GULP energy per Si atom -5586.252979 kJ/mol
# Density = 1.737771 g / cm^3
# Si number density = 17.417349 Si / 1000 Ang^3
#
#
#
# Elastic Constant Matrix: (Units=GPa)
#
#
# Indices 1 2 3 4 5 6 
#
# 1 105.0815 12.5895 46.3218 0.0000 -15.5940 0.0000
# 2 12.5895 47.2561 10.3142 0.0000 -9.2597 0.0000
# 3 46.3218 10.3142 111.4676 0.0000 -14.6562 0.0000
# 4 0.0000 0.0000 0.0000 7.7265 0.0000 -16.0763
# 5 -15.5940 -9.2597 -14.6562 0.0000 30.8371 0.0000
# 6 0.0000 0.0000 0.0000 -16.0763 0.0000 4.1616
#
#
#
# Elastic Compliance Matrix: (Units=1/GPa)
#
#
# Indices 1 2 3 4 5 6 
#
# 1 0.012200 -0.001577 -0.004453 0.000000 0.003579 0.000000
# 2 -0.001577 0.022858 -0.000706 0.000000 0.005731 0.000000
# 3 -0.004453 -0.000706 0.011267 0.000000 0.002891 0.000000
# 4 0.000000 0.000000 0.000000 -0.018390 0.000000 -0.071042
# 5 0.003579 0.005731 0.002891 0.000000 0.037333 0.000000
# 6 0.000000 0.000000 0.000000 -0.071042 0.000000 -0.034144
#
#
# Mechanical properties :
#
#
# Convention : Reuss Voigt Hill
#
# Bulk Modulus (GPa) = 30.43892 44.69513 37.56703
# Shear Modulus (GPa) = 90.01215 21.51702 55.76459
#
# Velocity S-wave (km/s) = 7.19665 3.51861 5.66447
# Velocity P-wave (km/s) = 9.30429 6.49803 8.02478
#
# Compressibility (1/GPa) = 0.03285268
#
# Stress axis : x y z
#
# Youngs Moduli (GPa) = 81.97052 43.74746 88.75265
#
# Poissons Ratio (x) = 0.06898 0.39523
# Poissons Ratio (y) = 0.12925 0.06269
# Poissons Ratio (z) = 0.36503 0.03090
#
# Static dielectric constant tensor:
#      x y z
#    x 1.645770 0.000000 -0.001280 
#    y 0.000000 1.599780 0.000000 
#    z -0.001280 0.000000 1.602760 
# 
# From -- ./inp_files/298230.got.cif
#   From: 2010.05.17/outbox.cif.g08.bks.cpg/sg12_150_cif.got.tgz:298230.got - 2010.06.03 13:09:07.
