data_PCOD9216367
_publ_section_title
;
Structure prediction by ZEFSAII (Michael W. Deem and Ramdas Pophale) SiO2 
 PCOD9216367
Probable space group: C 2/M
;
_chemical_formula_sum "Si O2"
_cell_formula_units_Z 56
_cell_length_a 20.032620
_cell_length_b 14.213747
_cell_length_c 9.558539
_cell_angle_alpha 90.000000
_cell_angle_beta 97.780900
_cell_angle_gamma 90.000000
_cell_volume 2696.626462
_symmetry_space_group_name_H-M "C 2/M"
_symmetry_group_IT_number 12
_symmetry_cell_setting 'monoclinic'
loop_
_space_group_symop_operation_xyz
x,y,z
-x,y,-z
-x,-y,-z
x,-y,z
1/2+x,1/2+y,z
1/2-x,1/2+y,-z
1/2-x,1/2-y,-z
1/2+x,1/2-y,z
loop_
_atom_site_type_symbol
_atom_site_label
_atom_site_fract_x
_atom_site_fract_y
_atom_site_fract_z
Si Si1 0.629112 0.110837 0.781087
Si Si2 0.362828 0.893641 0.700885
Si Si3 0.352712 0.399384 0.791506
Si Si4 0.181275 0.718117 0.054245
Si Si5 0.504854 0.604582 0.832538
Si Si6 0.729125 0.156282 0.574276
Si Si7 0.498911 0.787770 0.335312
O O1 0.681677 0.165068 0.696186
O O2 0.554705 0.128978 0.702639
O O3 0.645592 0.000000 0.787053
O O4 0.637420 0.157672 0.934365
O O5 0.316457 0.846526 0.806997
O O6 0.317752 0.897509 0.548842
O O7 0.427935 0.826490 0.693489
O O8 0.383706 0.000000 0.744333
O O9 0.339829 0.500000 0.858354
O O10 0.349541 0.315503 0.900470
O O11 0.427992 0.400117 0.755540
O O12 0.297643 0.386839 0.655062
O O13 0.250000 0.750000 0.000000
O O14 0.535774 0.500000 0.816108
O O15 0.529104 0.698657 0.762077
O O16 0.500000 0.615848 0.000000
O O17 0.750000 0.250000 0.500000
O O18 0.500000 0.763746 0.500000
#
# Coordination Sequence:
#
# PCOD9216367 Si02
#       7
#     8   8   8   8   8   8   8
#     4  12  26  43  67  99 139 180 221 277 343 407
#     4  12  25  43  67  99 138 180 226 277 334 405
#     4  11  22  40  69  95 126 174 221 273 340 401
#     4  12  24  43  66  97 133 173 223 280 336 400
#     4  10  22  44  71  96 129 177 227 280 340 399
#     4  12  22  42  66  95 134 177 223 276 337 402
#     4  12  25  42  68 101 139 180 226 278 337 403
#
# _framework density 20.766687000000001
#
# number of rings (size 3 to 8) (size 9 to 14) (size 15 to 20)
#    0.000    0.429    5.714    3.000    0.000    1.429 
#    0.000    1.429    0.000    0.000    0.000    0.000 
#    0.000    0.000    0.000    0.000    0.000    0.000 
#
# Total GULP energy -156285.648950 kJ/mol
# GULP energy per Si atom -5581.630320 kJ/mol
# Density = 2.071942 g / cm^3
# Si number density = 20.766687 Si / 1000 Ang^3
#
#
#
# Elastic Constant Matrix: (Units=GPa)
#
#
# Indices 1 2 3 4 5 6 
#
# 1 58.8884 2.0007 1.2965 0.0000 11.8812 0.0000
# 2 2.0007 149.3318 31.9414 0.0000 -18.1681 0.0000
# 3 1.2965 31.9414 94.4696 0.0000 4.9979 0.0000
# 4 0.0000 0.0000 0.0000 0.6682 0.0000 2.1665
# 5 11.8812 -18.1681 4.9979 0.0000 28.2546 0.0000
# 6 0.0000 0.0000 0.0000 2.1665 0.0000 14.9985
#
#
#
# Elastic Compliance Matrix: (Units=1/GPa)
#
#
# Indices 1 2 3 4 5 6 
#
# 1 0.018836 -0.001505 0.000727 0.000000 -0.009017 0.000000
# 2 -0.001505 0.008156 -0.003077 0.000000 0.006422 0.000000
# 3 0.000727 -0.003077 0.011847 0.000000 -0.004380 0.000000
# 4 0.000000 0.000000 0.000000 2.815091 0.000000 -0.406640
# 5 -0.009017 0.006422 -0.004380 0.000000 0.044088 0.000000
# 6 0.000000 0.000000 0.000000 -0.406640 0.000000 0.125413
#
#
# Mechanical properties :
#
#
# Convention : Reuss Voigt Hill
#
# Bulk Modulus (GPa) = 32.12288 41.46300 36.79294
# Shear Modulus (GPa) = 1.64392 26.61432 14.12912
#
# Velocity S-wave (km/s) = 0.89069 3.58381 2.61123
# Velocity P-wave (km/s) = 4.06938 6.09380 5.18142
#
# Compressibility (1/GPa) = 0.03113046
#
# Stress axis : x y z
#
# Youngs Moduli (GPa) = 53.09094 122.60885 84.40642
#
# Poissons Ratio (x) = 0.18452 -0.06140
# Poissons Ratio (y) = 0.07990 0.25970
# Poissons Ratio (z) = -0.03862 0.37723
#
# Static dielectric constant tensor:
#      x y z
#    x 1.759380 0.000000 0.016940 
#    y 0.000000 1.862210 0.000000 
#    z 0.016940 0.000000 1.738370 
# 
# From -- ./inp_files/86356.got.cif
#   From: 2010.05.17/outbox.cif.g08.bks.cpg/sg12_44_cif.got.tgz:86356.got - 2010.06.03 13:09:07.
