data_PCOD9216129
_publ_section_title
;
Structure prediction by ZEFSAII (Michael W. Deem and Ramdas Pophale) SiO2 
 PCOD9216129
Probable space group: C 2/M
;
_chemical_formula_sum "Si O2"
_cell_formula_units_Z 56
_cell_length_a 18.959292
_cell_length_b 13.823687
_cell_length_c 21.455956
_cell_angle_alpha 90.000000
_cell_angle_beta 30.492676
_cell_angle_gamma 90.000000
_cell_volume 2853.438339
_symmetry_space_group_name_H-M "C 2/M"
_symmetry_group_IT_number 12
_symmetry_cell_setting 'monoclinic'
loop_
_space_group_symop_operation_xyz
x,y,z
-x,y,-z
-x,-y,-z
x,-y,z
1/2+x,1/2+y,z
1/2-x,1/2+y,-z
1/2-x,1/2-y,-z
1/2+x,1/2-y,z
loop_
_atom_site_type_symbol
_atom_site_label
_atom_site_fract_x
_atom_site_fract_y
_atom_site_fract_z
Si Si1 0.053419 0.117181 0.390290
Si Si2 0.503254 0.609611 0.801491
Si Si3 0.408938 0.276511 0.387794
Si Si4 0.321495 0.109249 0.982317
Si Si5 0.112929 0.616239 0.201146
Si Si6 0.160564 0.382680 0.892219
Si Si7 0.434175 0.617174 0.985350
O O1 0.211716 0.148380 0.249821
O O2 0.000000 0.145970 0.500000
O O3 0.951671 0.159208 0.414718
O O4 0.049996 0.000000 0.390588
O O5 0.560552 0.500000 0.757366
O O6 0.555520 0.665998 0.702286
O O7 0.337476 0.602022 0.917781
O O8 0.514069 0.653597 0.862672
O O9 0.250000 0.250000 0.500000
O O10 0.501074 0.179354 0.321951
O O11 0.320143 0.154117 0.051537
O O12 0.378428 0.000000 0.946365
O O13 0.394897 0.150999 0.865526
O O14 0.090492 0.500000 0.219802
O O15 0.269021 0.634136 0.106790
O O16 0.173403 0.500000 0.883385
O O17 0.000000 0.361928 0.000000
O O18 0.448305 0.500000 0.971536
O O19 0.500000 0.649657 0.000000
#
# Coordination Sequence:
#
# PCOD9216129 Si02
#       7
#     8   8   8   8   8   8   8
#     4  10  22  43  66  86 120 167 204 247 309 365
#     4   9  17  34  60  85 113 149 190 237 293 350
#     4  12  25  39  57  84 116 159 211 252 281 352
#     4   8  14  29  55  83 112 143 181 234 293 355
#     4   9  20  37  58  85 117 150 184 237 298 345
#     4   9  16  29  55  88 117 148 191 241 293 353
#     4   8  15  32  60  91 116 144 183 229 294 366
#
# _framework density 19.625446
#
# number of rings (size 3 to 8) (size 9 to 14) (size 15 to 20)
#    0.000    2.714    1.429    2.143    0.000    4.571 
#    2.571    3.571    0.000    0.429    0.000    0.000 
#    0.000    0.000    0.000    0.000    0.000    0.000 
#
# Total GULP energy -156069.197938 kJ/mol
# GULP energy per Si atom -5573.899926 kJ/mol
# Density = 1.958078 g / cm^3
# Si number density = 19.625446 Si / 1000 Ang^3
#
#
#
# Elastic Constant Matrix: (Units=GPa)
#
#
# Indices 1 2 3 4 5 6 
#
# 1 153.4171 24.3444 70.7699 0.0000 24.3643 0.0000
# 2 24.3444 69.7955 29.1025 -0.0001 10.8318 0.0000
# 3 70.7699 29.1025 92.6591 -0.0001 6.1230 0.0000
# 4 0.0000 -0.0001 -0.0001 15.8845 0.0000 6.5516
# 5 24.3643 10.8318 6.1230 0.0000 26.4900 0.0000
# 6 0.0000 0.0000 0.0000 6.5516 0.0000 9.0588
#
#
#
# Elastic Compliance Matrix: (Units=1/GPa)
#
#
# Indices 1 2 3 4 5 6 
#
# 1 0.011885 0.000950 -0.008762 0.000000 -0.009295 0.000000
# 2 0.000950 0.017433 -0.005761 0.000000 -0.006671 0.000000
# 3 -0.008762 -0.005761 0.018894 0.000000 0.006047 0.000000
# 4 0.000000 0.000000 0.000000 0.089718 0.000000 -0.064887
# 5 -0.009295 -0.006671 0.006047 0.000000 0.047629 0.000000
# 6 0.000000 0.000000 0.000000 -0.064887 0.000000 0.157319
#
#
# Mechanical properties :
#
#
# Convention : Reuss Voigt Hill
#
# Bulk Modulus (GPa) = 47.46407 62.70059 55.08233
# Shear Modulus (GPa) = 13.26101 23.06364 18.16232
#
# Velocity S-wave (km/s) = 2.60225 3.43182 3.04542
# Velocity P-wave (km/s) = 5.76771 6.90805 6.36347
#
# Compressibility (1/GPa) = 0.02106857
#
# Stress axis : x y z
#
# Youngs Moduli (GPa) = 84.13783 57.36133 52.92710
#
# Poissons Ratio (x) = -0.05452 0.46374
# Poissons Ratio (y) = -0.07996 0.30489
# Poissons Ratio (z) = 0.73720 0.33043
#
# Static dielectric constant tensor:
#      x y z
#    x 1.719200 0.000000 0.033870 
#    y 0.000000 1.757830 0.000000 
#    z 0.033870 0.000000 1.679200 
# 
# From -- ./inp_files/316692.got.cif
#   From: 2010.05.17/outbox.cif.g08.bks.cpg/sg12_159_cif.got.tgz:316692.got - 2010.06.03 13:09:07.
