data_PCOD9216231
_publ_section_title
;
Structure prediction by ZEFSAII (Michael W. Deem and Ramdas Pophale) SiO2 
 PCOD9216231
Probable space group: C 2/M
;
_chemical_formula_sum "Si O2"
_cell_formula_units_Z 32
_cell_length_a 26.070361
_cell_length_b 11.110344
_cell_length_c 9.023294
_cell_angle_alpha 90.000000
_cell_angle_beta 31.116792
_cell_angle_gamma 90.000000
_cell_volume 1350.669007
_symmetry_space_group_name_H-M "C 2/M"
_symmetry_group_IT_number 12
_symmetry_cell_setting 'monoclinic'
loop_
_space_group_symop_operation_xyz
x,y,z
-x,y,-z
-x,-y,-z
x,-y,z
1/2+x,1/2+y,z
1/2-x,1/2+y,-z
1/2-x,1/2-y,-z
1/2+x,1/2-y,z
loop_
_atom_site_type_symbol
_atom_site_label
_atom_site_fract_x
_atom_site_fract_y
_atom_site_fract_z
Si Si1 0.953784 0.131423 0.779428
Si Si2 0.449428 0.133802 0.348431
Si Si3 0.756021 0.723011 0.656944
Si Si4 0.288542 0.127606 0.975696
O O1 0.000000 0.141360 0.500000
O O2 0.985022 0.246674 0.800191
O O3 0.984777 0.000000 0.762109
O O4 0.835013 0.138408 0.069008
O O5 0.359272 0.165788 0.458579
O O6 0.490965 0.000000 0.212173
O O7 0.398647 0.123641 0.637373
O O8 0.750000 0.750000 0.500000
O O9 0.731481 0.847461 0.804030
O O10 0.241614 0.000000 0.048995
O O11 0.250000 0.250000 0.000000
#
# Coordination Sequence:
#
# PCOD9216231 Si02
#       4
#     8   8   8   8
#     4  11  24  43  70 102 135 177 230 283 338 407
#     4  10  22  43  69  98 133 176 231 283 333 404
#     4  11  24  43  66 101 141 180 223 282 349 410
#     4   9  19  36  62  93 124 168 221 273 328 394
#
# _framework density 23.691963000000001
#
# number of rings (size 3 to 8) (size 9 to 14) (size 15 to 20)
#    0.000    1.750    2.500    0.750    0.000    9.500 
#    0.000    2.500    0.000    0.000    0.000    0.000 
#    0.000    0.000    0.000    0.000    0.000    0.000 
#
# Total GULP energy -89264.908818 kJ/mol
# GULP energy per Si atom -5579.056801 kJ/mol
# Density = 2.363804 g / cm^3
# Si number density = 23.691963 Si / 1000 Ang^3
#
#
#
# Elastic Constant Matrix: (Units=GPa)
#
#
# Indices 1 2 3 4 5 6 
#
# 1 116.6224 75.2519 36.8001 0.0000 4.0258 0.0000
# 2 75.2519 250.0391 27.8584 0.0000 -10.9129 0.0000
# 3 36.8001 27.8584 49.7186 0.0000 15.7623 0.0000
# 4 0.0000 0.0000 0.0000 5.5021 0.0000 -5.7102
# 5 4.0258 -10.9129 15.7623 0.0000 44.3518 0.0000
# 6 0.0000 0.0000 0.0000 -5.7102 0.0000 24.9231
#
#
#
# Elastic Compliance Matrix: (Units=1/GPa)
#
#
# Indices 1 2 3 4 5 6 
#
# 1 0.013088 -0.002961 -0.008363 0.000000 0.001055 0.000000
# 2 -0.002961 0.005124 -0.001312 0.000000 0.001996 0.000000
# 3 -0.008363 -0.001312 0.030315 0.000000 -0.010338 0.000000
# 4 0.000000 0.000000 0.000000 0.238446 0.000000 0.054631
# 5 0.001055 0.001996 -0.010338 0.000000 0.026616 0.000000
# 6 0.000000 0.000000 0.000000 0.054631 0.000000 0.052640
#
#
# Mechanical properties :
#
#
# Convention : Reuss Voigt Hill
#
# Bulk Modulus (GPa) = 43.00042 77.35567 60.17804
# Shear Modulus (GPa) = 12.52342 33.38670 22.95506
#
# Velocity S-wave (km/s) = 2.30161 3.75800 3.11609
# Velocity P-wave (km/s) = 5.02518 7.17994 6.19693
#
# Compressibility (1/GPa) = 0.02325559
#
# Stress axis : x y z
#
# Youngs Moduli (GPa) = 76.40741 195.16637 32.98659
#
# Poissons Ratio (x) = 0.57791 0.27585
# Poissons Ratio (y) = 0.22625 0.04328
# Poissons Ratio (z) = 0.63896 0.25606
#
# Static dielectric constant tensor:
#      x y z
#    x 1.995100 0.000000 0.012950 
#    y 0.000000 1.960820 0.000000 
#    z 0.012950 0.000000 1.938240 
# 
# From -- ./inp_files/110290.got.cif
#   From: 2010.05.17/outbox.cif.g08.bks.cpg/sg12_56_cif.got.tgz:110290.got - 2010.06.03 13:09:07.
