data_PCOD9216797
_publ_section_title
;
Structure prediction by ZEFSAII (Michael W. Deem and Ramdas Pophale) SiO2 
 PCOD9216797
Probable space group: C 2/M
;
_chemical_formula_sum "Si O2"
_cell_formula_units_Z 40
_cell_length_a 14.263440
_cell_length_b 12.534690
_cell_length_c 11.109514
_cell_angle_alpha 90.000000
_cell_angle_beta 55.915530
_cell_angle_gamma 90.000000
_cell_volume 1645.032929
_symmetry_space_group_name_H-M "C 2/M"
_symmetry_group_IT_number 12
_symmetry_cell_setting 'monoclinic'
loop_
_space_group_symop_operation_xyz
x,y,z
-x,y,-z
-x,-y,-z
x,-y,z
1/2+x,1/2+y,z
1/2-x,1/2+y,-z
1/2-x,1/2-y,-z
1/2+x,1/2-y,z
loop_
_atom_site_type_symbol
_atom_site_label
_atom_site_fract_x
_atom_site_fract_y
_atom_site_fract_z
Si Si1 0.314515 0.196990 0.565042
Si Si2 0.888450 0.877534 0.700691
Si Si3 0.732375 0.882732 0.031226
Si Si4 0.014283 0.698116 0.741600
Si Si5 0.620262 0.321384 0.870698
O O1 0.250000 0.250000 0.500000
O O2 0.362226 0.292881 0.614478
O O3 0.417284 0.143698 0.417473
O O4 0.220855 0.134375 0.711058
O O5 0.982238 0.817279 0.714918
O O6 0.916258 0.000000 0.649067
O O7 0.777882 0.885363 0.863597
O O8 0.601770 0.861870 0.149378
O O9 0.812707 0.806900 0.052802
O O10 0.760637 0.000000 0.060503
O O11 0.080118 0.719556 0.819196
O O12 0.500000 0.371703 0.000000
#
# Coordination Sequence:
#
# PCOD9216797 Si02
#       5
#     8   8   8   8   8
#     4  10  23  40  63  96 133 178 224 272 342 407
#     4  11  22  39  68  99 130 172 225 279 334 399
#     4  11  24  42  69 104 137 180 230 278 338 406
#     4  11  22  41  67  96 140 180 223 278 344 402
#     4  11  21  39  67  95 131 177 225 274 337 397
#
# _framework density 24.315622999999999
#
# number of rings (size 3 to 8) (size 9 to 14) (size 15 to 20)
#    0.000    1.200    4.000    2.400    0.000    2.800 
#    0.000    9.000    0.000   10.800    0.000    0.000 
#    0.000    0.000    0.000    0.000    0.000    0.000 
#
# Total GULP energy -111457.767430 kJ/mol
# GULP energy per Si atom -5572.888372 kJ/mol
# Density = 2.426028 g / cm^3
# Si number density = 24.315623 Si / 1000 Ang^3
#
#
#
# Elastic Constant Matrix: (Units=GPa)
#
#
# Indices 1 2 3 4 5 6 
#
# 1 91.4603 -11.7509 31.1469 0.0000 13.8190 0.0000
# 2 -11.7509 74.5882 11.2465 0.0000 -1.7466 0.0000
# 3 31.1469 11.2465 269.6032 0.0000 -26.4751 0.0000
# 4 0.0000 0.0000 0.0000 10.1747 0.0000 1.9949
# 5 13.8190 -1.7466 -26.4751 0.0000 54.6782 0.0000
# 6 0.0000 0.0000 0.0000 1.9949 0.0000 -14.2179
#
#
#
# Elastic Compliance Matrix: (Units=1/GPa)
#
#
# Indices 1 2 3 4 5 6 
#
# 1 0.012474 0.002162 -0.001926 0.000000 -0.004016 0.000000
# 2 0.002162 0.013868 -0.000880 0.000000 -0.000530 0.000000
# 3 -0.001926 -0.000880 0.004214 0.000000 0.002499 0.000000
# 4 0.000000 0.000000 0.000000 0.095651 0.000000 0.013421
# 5 -0.004016 -0.000530 0.002499 0.000000 0.020497 0.000000
# 6 0.000000 0.000000 0.000000 0.013421 0.000000 -0.068451
#
#
# Mechanical properties :
#
#
# Convention : Reuss Voigt Hill
#
# Bulk Modulus (GPa) = 34.16835 55.21519 44.69177
# Shear Modulus (GPa) = 55.99280 37.12762 46.56021
#
# Velocity S-wave (km/s) = 4.80390 3.91180 4.38062
# Velocity P-wave (km/s) = 6.69720 6.56962 6.63372
#
# Compressibility (1/GPa) = 0.02926685
#
# Stress axis : x y z
#
# Youngs Moduli (GPa) = 80.16686 72.10946 237.31978
#
# Poissons Ratio (x) = -0.15587 0.45699
# Poissons Ratio (y) = -0.17328 0.20889
# Poissons Ratio (z) = 0.15437 0.06347
#
# Static dielectric constant tensor:
#      x y z
#    x 1.960510 0.000000 -0.048950 
#    y 0.000000 1.938570 0.000000 
#    z -0.048950 0.000000 2.063080 
# 
# From -- ./inp_files/142545.got.cif
#   From: 2010.05.17/outbox.cif.g08.bks.cpg/sg12_72_cif.got.tgz:142545.got - 2010.06.03 13:09:07.
