data_PCOD9216577
_publ_section_title
;
Structure prediction by ZEFSAII (Michael W. Deem and Ramdas Pophale) SiO2 
 PCOD9216577
Probable space group: C 2/M
;
_chemical_formula_sum "Si O2"
_cell_formula_units_Z 40
_cell_length_a 11.653878
_cell_length_b 26.065437
_cell_length_c 9.516033
_cell_angle_alpha 90.000000
_cell_angle_beta 129.049311
_cell_angle_gamma 90.000000
_cell_volume 2244.869356
_symmetry_space_group_name_H-M "C 2/M"
_symmetry_group_IT_number 12
_symmetry_cell_setting 'monoclinic'
loop_
_space_group_symop_operation_xyz
x,y,z
-x,y,-z
-x,-y,-z
x,-y,z
1/2+x,1/2+y,z
1/2-x,1/2+y,-z
1/2-x,1/2-y,-z
1/2+x,1/2-y,z
loop_
_atom_site_type_symbol
_atom_site_label
_atom_site_fract_x
_atom_site_fract_y
_atom_site_fract_z
Si Si1 0.566732 0.165995 0.702018
Si Si2 0.138057 0.941340 0.712123
Si Si3 0.139338 0.355351 0.203974
Si Si4 0.110706 0.868505 0.953590
Si Si5 0.109651 0.787117 0.714268
O O1 0.500000 0.152150 0.500000
O O2 0.430997 0.155933 0.701335
O O3 0.604009 0.226645 0.733598
O O4 0.719168 0.137878 0.862916
O O5 0.256594 0.904430 0.729755
O O6 0.102337 0.915203 0.835188
O O7 0.000000 0.941133 0.500000
O O8 0.187383 0.000000 0.768827
O O9 0.231575 0.307517 0.214077
O O10 0.000000 0.365059 0.000000
O O11 0.072887 0.818851 0.826848
O O12 0.000000 0.872791 0.000000
O O13 0.000000 0.799822 0.500000
#
# Coordination Sequence:
#
# PCOD9216577 Si02
#       5
#     8   8   8   8   8
#     4  11  25  36  56  91 126 166 200 242 297 344
#     4  10  23  45  70  89 111 155 203 248 308 368
#     4  11  21  39  62  88 121 156 207 250 289 354
#     4  11  23  38  61  90 124 156 194 255 302 353
#     4  10  23  38  57  85 122 173 207 234 284 356
#
# _framework density 17.818408999999999
#
# number of rings (size 3 to 8) (size 9 to 14) (size 15 to 20)
#    0.000    1.400    4.000    3.000    8.400    2.400 
#    0.000    0.000    0.000    1.200    0.000    0.000 
#    0.000    0.000    0.000    0.000    0.000    0.000 
#
# Total GULP energy -111615.033655 kJ/mol
# GULP energy per Si atom -5580.751683 kJ/mol
# Density = 1.777785 g / cm^3
# Si number density = 17.818409 Si / 1000 Ang^3
#
#
#
# Elastic Constant Matrix: (Units=GPa)
#
#
# Indices 1 2 3 4 5 6 
#
# 1 165.6003 66.9379 44.0621 0.0000 -18.0143 0.0000
# 2 66.9379 67.6379 53.6237 0.0000 -13.1460 0.0000
# 3 44.0621 53.6237 94.6201 0.0000 -8.6795 0.0000
# 4 0.0000 0.0000 0.0000 36.5779 0.0000 12.9571
# 5 -18.0143 -13.1460 -8.6795 0.0000 33.3359 0.0000
# 6 0.0000 0.0000 0.0000 12.9571 0.0000 12.3674
#
#
#
# Elastic Compliance Matrix: (Units=1/GPa)
#
#
# Indices 1 2 3 4 5 6 
#
# 1 0.010301 -0.011258 0.001728 0.000000 0.001577 0.000000
# 2 -0.011258 0.040738 -0.017344 0.000000 0.005466 0.000000
# 3 0.001728 -0.017344 0.019518 0.000000 -0.000824 0.000000
# 4 0.000000 0.000000 0.000000 0.043473 0.000000 -0.045545
# 5 0.001577 0.005466 -0.000824 0.000000 0.032791 0.000000
# 6 0.000000 0.000000 0.000000 -0.045545 0.000000 0.128575
#
#
# Mechanical properties :
#
#
# Convention : Reuss Voigt Hill
#
# Bulk Modulus (GPa) = 59.48963 73.01174 66.25069
# Shear Modulus (GPa) = 14.93672 27.33854 21.13763
#
# Velocity S-wave (km/s) = 2.89844 3.92125 3.44798
# Velocity P-wave (km/s) = 6.68284 7.84640 7.28788
#
# Compressibility (1/GPa) = 0.01680965
#
# Stress axis : x y z
#
# Youngs Moduli (GPa) = 97.07844 24.54695 51.23601
#
# Poissons Ratio (x) = 0.27634 -0.08852
# Poissons Ratio (y) = 1.09287 0.88862
# Poissons Ratio (z) = -0.16773 0.42573
#
# Static dielectric constant tensor:
#      x y z
#    x 1.576850 0.000000 -0.020170 
#    y 0.000000 1.595980 0.000000 
#    z -0.020170 0.000000 1.636530 
# 
# From -- ./inp_files/52110.got.cif
#   From: 2010.05.17/outbox.cif.g08.bks.cpg/sg12_27_cif.got.tgz:52110.got - 2010.06.03 13:09:07.
