data_PCOD9216954
_publ_section_title
;
Structure prediction by ZEFSAII (Michael W. Deem and Ramdas Pophale) SiO2 
 PCOD9216954
Probable space group: C 2/M
;
_chemical_formula_sum "Si O2"
_cell_formula_units_Z 40
_cell_length_a 5.304918
_cell_length_b 13.235327
_cell_length_c 25.896716
_cell_angle_alpha 90.000000
_cell_angle_beta 109.876456
_cell_angle_gamma 90.000000
_cell_volume 1709.950575
_symmetry_space_group_name_H-M "C 2/M"
_symmetry_group_IT_number 12
_symmetry_cell_setting 'monoclinic'
loop_
_space_group_symop_operation_xyz
x,y,z
-x,y,-z
-x,-y,-z
x,-y,z
1/2+x,1/2+y,z
1/2-x,1/2+y,-z
1/2-x,1/2-y,-z
1/2+x,1/2-y,z
loop_
_atom_site_type_symbol
_atom_site_label
_atom_site_fract_x
_atom_site_fract_y
_atom_site_fract_z
Si Si1 0.225701 0.221617 0.326671
Si Si2 0.802727 0.000000 0.658284
Si Si3 0.000000 0.820044 0.500000
Si Si4 0.093385 0.682684 0.063646
Si Si5 0.316830 0.500000 0.413082
Si Si6 0.133666 0.500000 0.146177
Si Si7 0.471216 0.195924 0.793908
O O1 0.529639 0.247828 0.358448
O O2 0.185463 0.104670 0.310007
O O3 0.134939 0.290923 0.272222
O O4 0.506315 0.000000 0.612552
O O5 0.039583 0.000000 0.632856
O O6 0.750000 0.750000 0.500000
O O7 0.912730 0.899606 0.449342
O O8 0.339690 0.758972 0.070935
O O9 0.169419 0.589046 0.104533
O O10 0.000000 0.648212 0.000000
O O11 0.077514 0.587936 0.185918
O O12 0.281249 0.273349 0.812222
#
# Coordination Sequence:
#
# PCOD9216954 Si02
#       7
#     8   4   4   8   4   4   8
#     4  10  23  41  61  89 123 166 216 266 315 365
#     4  12  24  41  66  92 132 170 215 268 308 370
#     4  11  24  45  70  98 140 171 202 267 322 366
#     4  10  23  42  63  93 127 158 204 261 317 385
#     4  11  26  42  67 106 127 169 226 251 309 394
#     4  12  23  40  67  92 123 169 210 258 320 382
#     4  10  24  41  60  89 123 162 214 263 314 375
#
# _framework density 23.392488
#
# number of rings (size 3 to 8) (size 9 to 14) (size 15 to 20)
#    0.000    1.400    0.000    3.900    0.000   16.000 
#    0.000    3.000    0.000    0.000    0.000    0.000 
#    0.000    0.000    0.000    0.000    0.000    0.000 
#
# Total GULP energy -111383.641099 kJ/mol
# GULP energy per Si atom -5569.182055 kJ/mol
# Density = 2.333925 g / cm^3
# Si number density = 23.392488 Si / 1000 Ang^3
#
#
#
# Elastic Constant Matrix: (Units=GPa)
#
#
# Indices 1 2 3 4 5 6 
#
# 1 150.8668 28.6376 3.8574 0.0000 -10.1260 0.0000
# 2 28.6376 175.6492 34.5031 0.0000 -20.9373 0.0000
# 3 3.8574 34.5031 72.0942 0.0000 -11.6574 0.0000
# 4 0.0000 0.0000 0.0000 49.5984 0.0000 -15.9548
# 5 -10.1260 -20.9373 -11.6574 0.0000 28.2326 0.0000
# 6 0.0000 0.0000 0.0000 -15.9548 0.0000 22.5008
#
#
#
# Elastic Compliance Matrix: (Units=1/GPa)
#
#
# Indices 1 2 3 4 5 6 
#
# 1 0.006934 -0.000981 0.000410 0.000000 0.001929 0.000000
# 2 -0.000981 0.006797 -0.002617 0.000000 0.003608 0.000000
# 3 0.000410 -0.002617 0.015871 0.000000 0.004760 0.000000
# 4 0.000000 0.000000 0.000000 0.026120 0.000000 0.018521
# 5 0.001929 0.003608 0.004760 0.000000 0.040753 0.000000
# 6 0.000000 0.000000 0.000000 0.018521 0.000000 0.057576
#
#
# Mechanical properties :
#
#
# Convention : Reuss Voigt Hill
#
# Bulk Modulus (GPa) = 43.05502 59.17847 51.11675
# Shear Modulus (GPa) = 29.73220 42.17384 35.95302
#
# Velocity S-wave (km/s) = 3.56900 4.25064 3.92465
# Velocity P-wave (km/s) = 5.95224 7.03161 6.51432
#
# Compressibility (1/GPa) = 0.02322609
#
# Stress axis : x y z
#
# Youngs Moduli (GPa) = 144.22594 147.11637 63.00843
#
# Poissons Ratio (x) = 0.14435 -0.02586
# Poissons Ratio (y) = 0.14151 0.16490
# Poissons Ratio (z) = -0.05920 0.38502
#
# Static dielectric constant tensor:
#      x y z
#    x 1.994490 0.000000 0.016810 
#    y 0.000000 1.828400 0.000000 
#    z 0.016810 0.000000 1.934260 
# 
# From -- ./inp_files/371394.got.cif
#   From: 2010.05.17/outbox.cif.g08.bks.cpg/sg12_186_cif.got.tgz:371394.got - 2010.06.03 13:09:07.
