data_PCOD9216105
_publ_section_title
;
Structure prediction by ZEFSAII (Michael W. Deem and Ramdas Pophale) SiO2 
 PCOD9216105
Probable space group: C 2/M
;
_chemical_formula_sum "Si O2"
_cell_formula_units_Z 64
_cell_length_a 14.345197
_cell_length_b 19.661100
_cell_length_c 14.436397
_cell_angle_alpha 90.000000
_cell_angle_beta 133.506210
_cell_angle_gamma 90.000000
_cell_volume 2953.185170
_symmetry_space_group_name_H-M "C 2/M"
_symmetry_group_IT_number 12
_symmetry_cell_setting 'monoclinic'
loop_
_space_group_symop_operation_xyz
x,y,z
-x,y,-z
-x,-y,-z
x,-y,z
1/2+x,1/2+y,z
1/2-x,1/2+y,-z
1/2-x,1/2-y,-z
1/2+x,1/2-y,z
loop_
_atom_site_type_symbol
_atom_site_label
_atom_site_fract_x
_atom_site_fract_y
_atom_site_fract_z
Si Si1 0.016251 0.577264 0.662442
Si Si2 0.857047 0.072095 0.935504
Si Si3 0.138760 0.922302 0.643096
Si Si4 0.607574 0.712156 0.310423
Si Si5 0.821326 0.424569 0.033936
Si Si6 0.783882 0.644779 0.577187
Si Si7 0.166191 0.824237 0.828381
Si Si8 0.793626 0.312341 0.264027
O O1 0.032254 0.500000 0.639117
O O2 0.082155 0.637596 0.647772
O O3 0.866403 0.591502 0.575342
O O4 0.083582 0.581396 0.812064
O O5 0.798775 0.140647 0.859221
O O6 0.800553 0.000000 0.859806
O O7 0.821394 0.070127 0.018426
O O8 0.000000 0.071492 0.000000
O O9 0.237673 0.884948 0.642637
O O10 0.130357 0.884779 0.734320
O O11 0.000000 0.920459 0.500000
O O12 0.178650 0.000000 0.682263
O O13 0.661720 0.671629 0.436426
O O14 0.621312 0.791601 0.342720
O O15 0.458690 0.692445 0.193181
O O16 0.714177 0.699734 0.303639
O O17 0.848846 0.500000 0.009722
O O18 0.799550 0.354030 0.963779
O O19 0.182155 0.757323 0.774734
#
# Coordination Sequence:
#
# PCOD9216105 Si02
#       8
#     8   8   8   8   8   8   8   8
#     4  10  22  43  65  91 128 170 207 250 316 373
#     4   9  18  36  58  83 121 165 204 250 308 365
#     4  11  23  41  64  92 123 163 212 259 310 363
#     4  11  24  39  63  94 123 158 212 255 319 369
#     4   9  20  38  61  87 122 166 205 251 309 369
#     4  11  22  43  64  88 124 169 205 254 310 382
#     4  12  22  40  63  93 126 161 212 263 308 368
#     4  11  22  38  60  93 125 163 204 260 311 377
#
# _framework density 21.671514999999999
#
# number of rings (size 3 to 8) (size 9 to 14) (size 15 to 20)
#    0.000    1.500    3.750    2.625    0.000    2.500 
#    2.250    5.625    0.000    2.250    0.000    0.000 
#    0.000    0.000    0.000    0.000    0.000    0.000 
#
# Total GULP energy -178289.425397 kJ/mol
# GULP energy per Si atom -5571.544544 kJ/mol
# Density = 2.162219 g / cm^3
# Si number density = 21.671515 Si / 1000 Ang^3
#
#
#
# Elastic Constant Matrix: (Units=GPa)
#
#
# Indices 1 2 3 4 5 6 
#
# 1 78.2252 14.6015 -11.2193 0.0000 -0.0610 0.0000
# 2 14.6015 120.0677 27.4265 0.0000 2.2445 0.0000
# 3 -11.2193 27.4265 36.4809 0.0000 -0.7219 0.0000
# 4 0.0000 0.0000 0.0000 20.9450 0.0000 -3.0692
# 5 -0.0610 2.2445 -0.7219 0.0000 22.8807 0.0000
# 6 0.0000 0.0000 0.0000 -3.0692 0.0000 28.2364
#
#
#
# Elastic Compliance Matrix: (Units=1/GPa)
#
#
# Indices 1 2 3 4 5 6 
#
# 1 0.014409 -0.003354 0.006965 0.000000 0.000587 0.000000
# 2 -0.003354 0.010871 -0.009231 0.000000 -0.001367 0.000000
# 3 0.006965 -0.009231 0.036535 0.000000 0.002077 0.000000
# 4 0.000000 0.000000 0.000000 0.048517 0.000000 0.005274
# 5 0.000587 -0.001367 0.002077 0.000000 0.043906 0.000000
# 6 0.000000 0.000000 0.000000 0.005274 0.000000 0.035988
#
#
# Mechanical properties :
#
#
# Convention : Reuss Voigt Hill
#
# Bulk Modulus (GPa) = 19.77345 32.93236 26.35290
# Shear Modulus (GPa) = 22.90163 28.01009 25.45586
#
# Velocity S-wave (km/s) = 3.25431 3.59901 3.43100
# Velocity P-wave (km/s) = 4.82335 5.70085 5.28036
#
# Compressibility (1/GPa) = 0.05057287
#
# Stress axis : x y z
#
# Youngs Moduli (GPa) = 69.40085 91.99020 27.37129
#
# Poissons Ratio (x) = 0.30855 -0.19063
# Poissons Ratio (y) = 0.23278 0.25267
# Poissons Ratio (z) = -0.48335 0.84918
#
# Static dielectric constant tensor:
#      x y z
#    x 1.849040 0.000000 -0.019480 
#    y 0.000000 1.818100 0.000000 
#    z -0.019480 0.000000 1.855470 
# 
# From -- ./inp_files/216858.got.cif
#   From: 2010.05.17/outbox.cif.g08.bks.cpg/sg12_109_cif.got.tgz:216858.got - 2010.06.03 13:09:07.
