data_PCOD9216230
_publ_section_title
;
Structure prediction by ZEFSAII (Michael W. Deem and Ramdas Pophale) SiO2 
 PCOD9216230
Probable space group: C 2/M
;
_chemical_formula_sum "Si O2"
_cell_formula_units_Z 34
_cell_length_a 18.919934
_cell_length_b 12.751282
_cell_length_c 22.665959
_cell_angle_alpha 90.000000
_cell_angle_beta 164.371946
_cell_angle_gamma 90.000000
_cell_volume 1473.096750
_symmetry_space_group_name_H-M "C 2/M"
_symmetry_group_IT_number 12
_symmetry_cell_setting 'monoclinic'
loop_
_space_group_symop_operation_xyz
x,y,z
-x,y,-z
-x,-y,-z
x,-y,z
1/2+x,1/2+y,z
1/2-x,1/2+y,-z
1/2-x,1/2-y,-z
1/2+x,1/2-y,z
loop_
_atom_site_type_symbol
_atom_site_label
_atom_site_fract_x
_atom_site_fract_y
_atom_site_fract_z
Si Si1 0.684782 0.341434 0.249413
Si Si2 0.551330 0.619859 0.393610
Si Si3 0.481143 0.300373 0.762985
Si Si4 0.721032 0.114968 0.241449
Si Si5 0.500000 0.500000 0.000000
O O1 0.609704 0.371297 0.255454
O O2 0.600652 0.220663 0.170343
O O3 0.558037 0.410166 0.097050
O O4 0.000000 0.347793 0.500000
O O5 0.648077 0.500000 0.479013
O O6 0.492787 0.640970 0.278108
O O7 0.765644 0.707475 0.582888
O O8 0.307178 0.630510 0.242464
O O9 0.750000 0.250000 0.000000
O O10 0.000000 0.108584 0.500000
O O11 0.594683 0.000000 0.148205
#
# Coordination Sequence:
#
# PCOD9216230 Si02
#       5
#     8   8   8   8   2
#     4  11  24  48  69  96 139 178 232 277 341 406
#     4  10  22  43  69  97 134 176 215 281 360 399
#     4  11  25  42  66 100 135 174 226 281 330 409
#     4   9  17  38  73  98 123 166 215 274 348 405
#     4  12  30  40  74  98 132 192 240 280 318 396
#
# _framework density 23.080628999999998
#
# number of rings (size 3 to 8) (size 9 to 14) (size 15 to 20)
#    0.000    1.647    4.706    0.353    4.941    0.941 
#    4.235    0.588    0.000    0.000    0.000    0.000 
#    0.000    0.000    0.000    0.000    0.000    0.000 
#
# Total GULP energy -94842.900428 kJ/mol
# GULP energy per Si atom -5578.994143 kJ/mol
# Density = 2.302810 g / cm^3
# Si number density = 23.080629 Si / 1000 Ang^3
#
#
#
# Elastic Constant Matrix: (Units=GPa)
#
#
# Indices 1 2 3 4 5 6 
#
# 1 197.2711 43.5525 43.2905 -0.0142 -36.6056 -0.0062
# 2 43.5525 154.8976 11.5483 0.1632 -17.4545 0.1412
# 3 43.2905 11.5483 55.9092 0.1699 -21.7775 0.1217
# 4 -0.0142 0.1632 0.1699 27.9872 0.0121 -17.7370
# 5 -36.6056 -17.4545 -21.7775 0.0121 47.5471 0.0139
# 6 -0.0062 0.1412 0.1217 -17.7370 0.0139 30.1578
#
#
#
# Elastic Compliance Matrix: (Units=1/GPa)
#
#
# Indices 1 2 3 4 5 6 
#
# 1 0.006736 -0.001275 -0.003791 0.000073 0.002981 0.000064
# 2 -0.001275 0.006989 0.000197 -0.000104 0.001674 -0.000096
# 3 -0.003791 0.000197 0.023946 -0.000345 0.008121 -0.000305
# 4 0.000073 -0.000104 -0.000345 0.056969 -0.000164 0.033508
# 5 0.002981 0.001674 0.008121 -0.000164 0.027661 -0.000149
# 6 0.000064 -0.000096 -0.000305 0.033508 -0.000149 0.052868
#
#
# Mechanical properties :
#
#
# Convention : Reuss Voigt Hill
#
# Bulk Modulus (GPa) = 35.80359 67.20674 51.50517
# Shear Modulus (GPa) = 25.74403 41.78419 33.76411
#
# Velocity S-wave (km/s) = 3.34338 4.25945 3.82891
# Velocity P-wave (km/s) = 5.51818 7.30561 6.47388
#
# Compressibility (1/GPa) = 0.02793016
#
# Stress axis : x y z
#
# Youngs Moduli (GPa) = 148.45727 143.08922 41.76008
#
# Poissons Ratio (x) = 0.18251 0.15833
# Poissons Ratio (y) = 0.18936 -0.00821
# Poissons Ratio (z) = 0.56286 -0.02812
#
# Static dielectric constant tensor:
#      x y z
#    x 1.715610 0.000150 -0.075020 
#    y 0.000150 1.836990 -0.000070 
#    z -0.075020 -0.000070 1.882000 
# 
# From -- ./inp_files/284359.got.cif
#   From: 2010.05.17/outbox.cif.g08.bks.cpg/sg12_143_cif.got.tgz:284359.got - 2010.06.03 13:09:07.
