data_PCOD9216978
_publ_section_title
;
Structure prediction by ZEFSAII (Michael W. Deem and Ramdas Pophale) SiO2 
 PCOD9216978
Probable space group: C 2/M
;
_chemical_formula_sum "Si O2"
_cell_formula_units_Z 40
_cell_length_a 9.853967
_cell_length_b 26.496283
_cell_length_c 16.920623
_cell_angle_alpha 90.000000
_cell_angle_beta 28.762607
_cell_angle_gamma 90.000000
_cell_volume 2125.795477
_symmetry_space_group_name_H-M "C 2/M"
_symmetry_group_IT_number 12
_symmetry_cell_setting 'monoclinic'
loop_
_space_group_symop_operation_xyz
x,y,z
-x,y,-z
-x,-y,-z
x,-y,z
1/2+x,1/2+y,z
1/2-x,1/2+y,-z
1/2-x,1/2-y,-z
1/2+x,1/2-y,z
loop_
_atom_site_type_symbol
_atom_site_label
_atom_site_fract_x
_atom_site_fract_y
_atom_site_fract_z
Si Si1 0.798950 0.267753 0.887399
Si Si2 0.855402 0.890121 0.488752
Si Si3 0.668155 0.884098 0.148663
Si Si4 0.739999 0.293512 0.571174
Si Si5 0.596802 0.060080 0.861722
O O1 0.916711 0.324674 0.817985
O O2 0.978456 0.224089 0.756179
O O3 0.500000 0.270585 0.000000
O O4 0.750000 0.250000 0.000000
O O5 0.542331 0.906985 0.677121
O O6 0.805483 0.844262 0.454328
O O7 0.000000 0.876868 0.500000
O O8 0.081773 0.925759 0.328480
O O9 0.598772 0.911743 0.102259
O O10 0.000000 0.887314 0.000000
O O11 0.750000 0.250000 0.500000
O O12 0.000000 0.295465 0.500000
O O13 0.563796 0.000000 0.871818
O O14 0.500000 0.074773 0.000000
#
# Coordination Sequence:
#
# PCOD9216978 Si02
#       5
#     8   8   8   8   8
#     4  11  25  37  57  89 127 172 211 250 304 369
#     4  10  23  41  65  91 127 167 215 256 314 376
#     4  10  23  41  62  93 131 162 214 259 309 379
#     4  12  24  38  60  88 130 169 212 255 304 364
#     4  10  24  45  70  95 122 160 212 268 326 378
#
# _framework density 18.816485
#
# number of rings (size 3 to 8) (size 9 to 14) (size 15 to 20)
#    0.000    1.400    2.000    1.800   14.000    4.000 
#    0.000    0.000    0.000    3.000    0.000    0.000 
#    0.000    0.000    0.000    0.000    0.000    0.000 
#
# Total GULP energy -111510.676424 kJ/mol
# GULP energy per Si atom -5575.533821 kJ/mol
# Density = 1.877366 g / cm^3
# Si number density = 18.816485 Si / 1000 Ang^3
#
#
#
# Elastic Constant Matrix: (Units=GPa)
#
#
# Indices 1 2 3 4 5 6 
#
# 1 99.6680 51.9361 56.2042 0.0005 18.3515 -0.0001
# 2 51.9361 54.1843 25.6220 0.0002 1.9413 -0.0002
# 3 56.2042 25.6220 148.1129 0.0015 16.2610 -0.0013
# 4 0.0005 0.0002 0.0015 31.4266 -0.0005 3.6344
# 5 18.3515 1.9413 16.2610 -0.0005 40.6893 0.0003
# 6 -0.0001 -0.0002 -0.0013 3.6344 0.0003 32.7873
#
#
#
# Elastic Compliance Matrix: (Units=1/GPa)
#
#
# Indices 1 2 3 4 5 6 
#
# 1 0.026157 -0.022346 -0.005106 0.000000 -0.008691 0.000000
# 2 -0.022346 0.039198 0.000834 0.000000 0.007875 0.000000
# 3 -0.005106 0.000834 0.008677 0.000000 -0.001205 0.000000
# 4 0.000000 0.000000 0.000000 0.032233 0.000001 -0.003573
# 5 -0.008691 0.007875 -0.001205 0.000001 0.028602 0.000000
# 6 0.000000 0.000000 0.000000 -0.003573 0.000000 0.030896
#
#
# Mechanical properties :
#
#
# Convention : Reuss Voigt Hill
#
# Bulk Modulus (GPa) = 48.08533 63.27664 55.68099
# Shear Modulus (GPa) = 22.13068 32.19416 27.16242
#
# Velocity S-wave (km/s) = 3.43320 4.14086 3.80352
# Velocity P-wave (km/s) = 6.42854 7.52088 6.99606
#
# Compressibility (1/GPa) = 0.02079636
#
# Stress axis : x y z
#
# Youngs Moduli (GPa) = 38.23045 25.51165 115.24541
#
# Poissons Ratio (x) = 0.57008 0.58845
# Poissons Ratio (y) = 0.85430 -0.09614
# Poissons Ratio (z) = 0.19521 -0.02128
#
# Static dielectric constant tensor:
#      x y z
#    x 1.572550 0.000000 -0.005940 
#    y 0.000000 1.644770 0.000000 
#    z -0.005940 0.000000 1.505360 
# 
# From -- ./inp_files/41458.got.cif
#   From: 2010.05.17/outbox.cif.g08.bks.cpg/sg12_21_cif.got.tgz:41458.got - 2010.06.03 13:09:07.
