data_PCOD9216792
_publ_section_title
;
Structure prediction by ZEFSAII (Michael W. Deem and Ramdas Pophale) SiO2 
 PCOD9216792
Probable space group: C 2/M
;
_chemical_formula_sum "Si O2"
_cell_formula_units_Z 56
_cell_length_a 13.277366
_cell_length_b 20.724852
_cell_length_c 9.656673
_cell_angle_alpha 90.000000
_cell_angle_beta 92.316633
_cell_angle_gamma 90.000000
_cell_volume 2655.068911
_symmetry_space_group_name_H-M "C 2/M"
_symmetry_group_IT_number 12
_symmetry_cell_setting 'monoclinic'
loop_
_space_group_symop_operation_xyz
x,y,z
-x,y,-z
-x,-y,-z
x,-y,z
1/2+x,1/2+y,z
1/2-x,1/2+y,-z
1/2-x,1/2-y,-z
1/2+x,1/2-y,z
loop_
_atom_site_type_symbol
_atom_site_label
_atom_site_fract_x
_atom_site_fract_y
_atom_site_fract_z
Si Si1 0.404902 0.160235 0.733214
Si Si2 0.599199 0.926163 0.724315
Si Si3 0.972530 0.200350 0.835552
Si Si4 0.315839 0.928046 0.962602
Si Si5 0.395421 0.428938 0.909353
Si Si6 0.272709 0.157742 0.451633
Si Si7 0.399143 0.718849 0.410828
O O1 0.508487 0.123978 0.698893
O O2 0.422173 0.233826 0.779829
O O3 0.332116 0.153486 0.599582
O O4 0.357448 0.123635 0.860329
O O5 0.627847 0.923758 0.887396
O O6 0.694526 0.901522 0.641560
O O7 0.572590 0.000000 0.687339
O O8 0.904573 0.136141 0.821358
O O9 0.066964 0.192513 0.736427
O O10 0.000000 0.208204 0.000000
O O11 0.198258 0.921105 0.992178
O O12 0.333672 0.000000 0.906298
O O13 0.382428 0.500000 0.841045
O O14 0.500000 0.431057 0.000000
O O15 0.320765 0.222408 0.386031
O O16 0.158479 0.169118 0.492086
O O17 0.500000 0.739883 0.500000
#
# Coordination Sequence:
#
# PCOD9216792 Si02
#       7
#     8   8   8   8   8   8   8
#     4  12  23  40  63  98 127 164 214 269 321 378
#     4  11  23  42  65  92 131 171 212 264 321 383
#     4  11  23  39  67  98 124 161 213 262 319 372
#     4  10  23  40  63  94 129 171 212 263 329 374
#     4   9  21  41  62  89 130 167 203 259 320 377
#     4  11  25  41  65  91 129 175 214 252 322 386
#     4  11  23  45  62  91 132 169 203 266 326 372
#
# _framework density 21.091730999999999
#
# number of rings (size 3 to 8) (size 9 to 14) (size 15 to 20)
#    0.000    1.286    2.857    2.143    6.000    3.429 
#    0.000    0.714    0.000    0.857    0.000    0.000 
#    0.000    0.000    0.000    0.000    0.000    0.000 
#
# Total GULP energy -156493.535364 kJ/mol
# GULP energy per Si atom -5589.054834 kJ/mol
# Density = 2.104372 g / cm^3
# Si number density = 21.091731 Si / 1000 Ang^3
#
#
#
# Elastic Constant Matrix: (Units=GPa)
#
#
# Indices 1 2 3 4 5 6 
#
# 1 75.5159 29.4081 12.3595 0.0000 -15.9121 0.0000
# 2 29.4081 161.9839 47.4254 0.0000 -29.8221 0.0000
# 3 12.3595 47.4254 93.9078 0.0000 -24.1216 0.0000
# 4 0.0000 0.0000 0.0000 -2.2056 0.0000 14.4551
# 5 -15.9121 -29.8221 -24.1216 0.0000 33.9799 0.0000
# 6 0.0000 0.0000 0.0000 14.4551 0.0000 -1.8400
#
#
#
# Elastic Compliance Matrix: (Units=1/GPa)
#
#
# Indices 1 2 3 4 5 6 
#
# 1 0.015093 -0.001794 0.000404 0.000000 0.005780 0.000000
# 2 -0.001794 0.008098 -0.002744 0.000000 0.004319 0.000000
# 3 0.000404 -0.002744 0.013956 0.000000 0.007688 0.000000
# 4 0.000000 0.000000 0.000000 0.008980 0.000000 0.070550
# 5 0.005780 0.004319 0.007688 0.000000 0.041384 0.000000
# 6 0.000000 0.000000 0.000000 0.070550 0.000000 0.010765
#
#
# Mechanical properties :
#
#
# Convention : Reuss Voigt Hill
#
# Bulk Modulus (GPa) = 34.62759 56.64373 45.63566
# Shear Modulus (GPa) = 43.04053 22.13450 32.58751
#
# Velocity S-wave (km/s) = 4.52224 3.24302 3.93496
# Velocity P-wave (km/s) = 6.61217 6.39821 6.50607
#
# Compressibility (1/GPa) = 0.02887871
#
# Stress axis : x y z
#
# Youngs Moduli (GPa) = 66.25705 123.49183 71.65288
#
# Poissons Ratio (x) = 0.22159 -0.02898
# Poissons Ratio (y) = 0.11889 0.19662
# Poissons Ratio (z) = -0.02680 0.33887
#
# Static dielectric constant tensor:
#      x y z
#    x 1.798750 0.000000 0.011330 
#    y 0.000000 1.784270 0.000000 
#    z 0.011330 0.000000 1.737750 
# 
# From -- ./inp_files/64053.got.cif
#   From: 2010.05.17/outbox.cif.g08.bks.cpg/sg12_33_cif.got.tgz:64053.got - 2010.06.03 13:09:07.
