data_PCOD9216303
_publ_section_title
;
Structure prediction by ZEFSAII (Michael W. Deem and Ramdas Pophale) SiO2 
 PCOD9216303
Probable space group: C 2/M
;
_chemical_formula_sum "Si O2"
_cell_formula_units_Z 48
_cell_length_a 10.792035
_cell_length_b 26.527161
_cell_length_c 18.743233
_cell_angle_alpha 90.000000
_cell_angle_beta 24.630047
_cell_angle_gamma 90.000000
_cell_volume 2236.259017
_symmetry_space_group_name_H-M "C 2/M"
_symmetry_group_IT_number 12
_symmetry_cell_setting 'monoclinic'
loop_
_space_group_symop_operation_xyz
x,y,z
-x,y,-z
-x,-y,-z
x,-y,z
1/2+x,1/2+y,z
1/2-x,1/2+y,-z
1/2-x,1/2-y,-z
1/2+x,1/2-y,z
loop_
_atom_site_type_symbol
_atom_site_label
_atom_site_fract_x
_atom_site_fract_y
_atom_site_fract_z
Si Si1 0.167875 0.151884 0.206264
Si Si2 0.147384 0.416133 0.494453
Si Si3 0.820276 0.826616 0.259121
Si Si4 0.660089 0.943559 0.652131
Si Si5 0.266398 0.148007 0.915077
Si Si6 0.225489 0.216631 0.315970
O O1 0.160693 0.175585 0.288663
O O2 0.990459 0.098830 0.300809
O O3 0.950326 0.184262 0.269367
O O4 0.500000 0.150565 0.000000
O O5 0.132745 0.440593 0.580179
O O6 0.000000 0.440066 0.500000
O O7 0.955223 0.364256 0.601705
O O8 0.743309 0.771563 0.270695
O O9 0.093990 0.855672 0.079592
O O10 0.463538 0.899624 0.789826
O O11 0.000000 0.936151 0.500000
O O12 0.567723 0.000000 0.722802
O O13 0.461951 0.197957 0.816402
O O14 0.000000 0.153526 0.000000
O O15 0.000000 0.216480 0.500000
#
# Coordination Sequence:
#
# PCOD9216303 Si02
#       6
#     8   8   8   8   8   8
#     4  11  23  39  63  92 130 184 225 279 331 403
#     4  10  22  44  65  94 139 180 223 278 352 411
#     4  11  25  41  60  98 134 186 230 273 335 412
#     4  11  25  46  75 104 131 174 234 291 352 418
#     4  12  24  41  67  98 137 176 220 289 343 392
#     4  12  26  41  64  95 138 189 236 277 332 400
#
# _framework density 21.464418999999999
#
# number of rings (size 3 to 8) (size 9 to 14) (size 15 to 20)
#    0.000    0.833    3.333    4.500    2.333    2.000 
#    0.000    0.000    0.000    0.500    0.000    0.000 
#    0.000    0.000    0.000    0.000    0.000    0.000 
#
# Total GULP energy -133997.793892 kJ/mol
# GULP energy per Si atom -5583.241412 kJ/mol
# Density = 2.141557 g / cm^3
# Si number density = 21.464419 Si / 1000 Ang^3
#
#
#
# Elastic Constant Matrix: (Units=GPa)
#
#
# Indices 1 2 3 4 5 6 
#
# 1 117.1611 33.4350 26.5166 -0.2508 -3.1405 -0.5647
# 2 33.4350 69.4890 24.7190 0.5738 -1.2999 0.8027
# 3 26.5166 24.7190 102.5556 0.0868 6.2250 -0.2109
# 4 -0.2508 0.5738 0.0868 12.2168 -0.0793 9.0199
# 5 -3.1405 -1.2999 6.2250 -0.0793 39.4914 0.0256
# 6 -0.5647 0.8027 -0.2109 9.0199 0.0256 40.3321
#
#
#
# Elastic Compliance Matrix: (Units=1/GPa)
#
#
# Indices 1 2 3 4 5 6 
#
# 1 0.010159 -0.004288 -0.001649 0.000319 0.000927 0.000147
# 2 -0.004288 0.017608 -0.003180 -0.000685 0.000739 -0.000274
# 3 -0.001649 -0.003180 0.011064 -0.000059 -0.001980 0.000113
# 4 0.000319 -0.000685 -0.000059 0.098076 0.000223 -0.021916
# 5 0.000927 0.000739 -0.001980 0.000223 0.025733 -0.000078
# 6 0.000147 -0.000274 0.000113 -0.021916 -0.000078 0.029704
#
#
# Mechanical properties :
#
#
# Convention : Reuss Voigt Hill
#
# Bulk Modulus (GPa) = 48.55400 50.94965 49.75182
# Shear Modulus (GPa) = 22.99447 32.04372 27.51909
#
# Velocity S-wave (km/s) = 3.27660 3.86797 3.58450
# Velocity P-wave (km/s) = 6.08149 6.61336 6.35300
#
# Compressibility (1/GPa) = 0.02059563
#
# Stress axis : x y z
#
# Youngs Moduli (GPa) = 98.43973 56.79257 90.38150
#
# Poissons Ratio (x) = 0.24353 0.14906
# Poissons Ratio (y) = 0.42212 0.28743
# Poissons Ratio (z) = 0.16235 0.18061
#
# Static dielectric constant tensor:
#      x y z
#    x 1.966470 0.000010 0.085530 
#    y 0.000010 1.746530 0.000090 
#    z 0.085530 0.000090 1.829990 
# 
# From -- ./inp_files/307527.got.cif
#   From: 2010.05.17/outbox.cif.g08.bks.cpg/sg12_154_cif.got.tgz:307527.got - 2010.06.03 13:09:07.
