data_PCOD9216649
_publ_section_title
;
Structure prediction by ZEFSAII (Michael W. Deem and Ramdas Pophale) SiO2 
 PCOD9216649
Probable space group: C 2/M
;
_chemical_formula_sum "Si O2"
_cell_formula_units_Z 44
_cell_length_a 9.856985
_cell_length_b 21.291679
_cell_length_c 13.576529
_cell_angle_alpha 90.000000
_cell_angle_beta 114.184064
_cell_angle_gamma 90.000000
_cell_volume 2599.256014
_symmetry_space_group_name_H-M "C 2/M"
_symmetry_group_IT_number 12
_symmetry_cell_setting 'monoclinic'
loop_
_space_group_symop_operation_xyz
x,y,z
-x,y,-z
-x,-y,-z
x,-y,z
1/2+x,1/2+y,z
1/2-x,1/2+y,-z
1/2-x,1/2-y,-z
1/2+x,1/2-y,z
loop_
_atom_site_type_symbol
_atom_site_label
_atom_site_fract_x
_atom_site_fract_y
_atom_site_fract_z
Si Si1 0.652955 0.428936 0.590872
Si Si2 0.312004 0.621250 0.184416
Si Si3 0.173818 0.500000 0.034011
Si Si4 0.092335 0.120293 0.130389
Si Si5 0.830440 0.251602 0.920242
Si Si6 0.295231 0.000000 0.192565
Si Si7 0.416011 0.000000 0.580952
O O1 0.500000 0.402657 0.500000
O O2 0.611717 0.500000 0.611004
O O3 0.689470 0.394127 0.701420
O O4 0.798803 0.441867 0.565467
O O5 0.241444 0.562562 0.103695
O O6 0.473237 0.629100 0.181877
O O7 0.225835 0.686366 0.148652
O O8 0.192454 0.500000 0.922173
O O9 0.000000 0.500000 0.000000
O O10 0.181543 0.185022 0.138778
O O11 0.198969 0.062202 0.186823
O O12 0.000000 0.108331 0.000000
O O13 0.750000 0.250000 0.000000
O O14 0.000000 0.258786 0.000000
O O15 0.453350 0.000000 0.297076
O O16 0.500000 0.000000 0.500000
#
# Coordination Sequence:
#
# PCOD9216649 Si02
#       7
#     8   8   4   8   8   4   4
#     4   9  21  40  62  87 117 161 204 243 312 360
#     4  12  21  37  61  84 125 155 208 244 292 381
#     4  12  21  32  53  90 117 154 183 251 309 343
#     4  11  22  36  55  91 117 168 197 234 314 356
#     4  11  21  38  55  84 124 166 202 236 297 375
#     4  12  22  34  59  88 128 139 201 261 294 360
#     4  10  23  39  58  94 121 156 198 246 316 361
#
# _framework density 16.927921000000001
#
# number of rings (size 3 to 8) (size 9 to 14) (size 15 to 20)
#    0.545    0.545    6.364    2.455    2.545    1.455 
#    0.000    0.000    0.000    2.182    0.000    0.000 
#    0.000    0.000    0.000    0.000    0.000    0.000 
#
# Total GULP energy -122545.075914 kJ/mol
# GULP energy per Si atom -5570.230723 kJ/mol
# Density = 1.688939 g / cm^3
# Si number density = 16.927921 Si / 1000 Ang^3
#
#
#
# Elastic Constant Matrix: (Units=GPa)
#
#
# Indices 1 2 3 4 5 6 
#
# 1 130.6907 48.5308 38.9685 0.0000 -5.4849 0.0000
# 2 48.5308 132.8271 44.1770 0.0000 8.5539 0.0000
# 3 38.9685 44.1770 93.2919 0.0000 -1.6184 0.0000
# 4 0.0000 0.0000 0.0000 32.1388 0.0000 2.6000
# 5 -5.4849 8.5539 -1.6184 0.0000 29.7055 0.0000
# 6 0.0000 0.0000 0.0000 2.6000 0.0000 26.7371
#
#
#
# Elastic Compliance Matrix: (Units=1/GPa)
#
#
# Indices 1 2 3 4 5 6 
#
# 1 0.009571 -0.002774 -0.002642 0.000000 0.002422 0.000000
# 2 -0.002774 0.009980 -0.003629 0.000000 -0.003584 0.000000
# 3 -0.002642 -0.003629 0.013564 0.000000 0.001296 0.000000
# 4 0.000000 0.000000 0.000000 0.031362 0.000000 -0.003050
# 5 0.002422 -0.003584 0.001296 0.000000 0.035214 0.000000
# 6 0.000000 0.000000 0.000000 -0.003050 0.000000 0.037698
#
#
# Mechanical properties :
#
#
# Convention : Reuss Voigt Hill
#
# Bulk Modulus (GPa) = 66.56181 68.90692 67.73436
# Shear Modulus (GPa) = 31.15503 32.72519 31.94011
#
# Velocity S-wave (km/s) = 4.29470 4.40160 4.34848
# Velocity P-wave (km/s) = 7.99992 8.16251 8.08162
#
# Compressibility (1/GPa) = 0.01502363
#
# Stress axis : x y z
#
# Youngs Moduli (GPa) = 104.47833 100.19985 73.72564
#
# Poissons Ratio (x) = 0.27798 0.19480
# Poissons Ratio (y) = 0.28985 0.26757
# Poissons Ratio (z) = 0.27606 0.36365
#
# Static dielectric constant tensor:
#      x y z
#    x 1.586520 0.000000 0.017720 
#    y 0.000000 1.594570 0.000000 
#    z 0.017720 0.000000 1.538860 
# 
# From -- ./inp_files/197302.got.cif
#   From: 2010.05.17/outbox.cif.g08.bks.cpg/sg12_99_cif.got.tgz:197302.got - 2010.06.03 13:09:07.
