data_PCOD9216641
_publ_section_title
;
Structure prediction by ZEFSAII (Michael W. Deem and Ramdas Pophale) SiO2 
 PCOD9216641
Probable space group: C 2/M
;
_chemical_formula_sum "Si O2"
_cell_formula_units_Z 56
_cell_length_a 16.096341
_cell_length_b 18.503079
_cell_length_c 18.550686
_cell_angle_alpha 90.000000
_cell_angle_beta 30.858727
_cell_angle_gamma 90.000000
_cell_volume 2833.892196
_symmetry_space_group_name_H-M "C 2/M"
_symmetry_group_IT_number 12
_symmetry_cell_setting 'monoclinic'
loop_
_space_group_symop_operation_xyz
x,y,z
-x,y,-z
-x,-y,-z
x,-y,z
1/2+x,1/2+y,z
1/2-x,1/2+y,-z
1/2-x,1/2-y,-z
1/2+x,1/2-y,z
loop_
_atom_site_type_symbol
_atom_site_label
_atom_site_fract_x
_atom_site_fract_y
_atom_site_fract_z
Si Si1 0.013888 0.627683 0.630734
Si Si2 0.908509 0.588332 0.990201
Si Si3 0.917633 0.779851 0.488303
Si Si4 0.436489 0.330891 0.768178
Si Si5 0.172504 0.913325 0.846303
Si Si6 0.049124 0.312768 0.756139
Si Si7 0.690060 0.419405 0.672202
O O1 0.023361 0.700151 0.576500
O O2 0.137658 0.577865 0.495597
O O3 0.828067 0.606090 0.776609
O O4 0.077502 0.640137 0.663338
O O5 0.901893 0.500000 0.982141
O O6 0.995102 0.635264 0.861853
O O7 0.730533 0.626158 0.121088
O O8 0.000000 0.597870 0.000000
O O9 0.724724 0.779038 0.641517
O O10 0.000000 0.806053 0.500000
O O11 0.975722 0.822296 0.374306
O O12 0.431496 0.252284 0.813569
O O13 0.559025 0.375768 0.725749
O O14 0.208780 0.888709 0.738286
O O15 0.163134 0.000000 0.854192
O O16 0.000000 0.883597 0.000000
O O17 0.625112 0.500000 0.728628
#
# Coordination Sequence:
#
# PCOD9216641 Si02
#       7
#     8   8   8   8   8   8   8
#     4  11  21  39  62  94 128 166 213 264 322 385
#     4  11  26  47  67  94 134 179 225 274 333 396
#     4  11  21  40  67  94 129 164 212 272 328 387
#     4  11  22  43  65  98 130 169 220 272 331 394
#     4  10  23  39  57  89 131 170 210 255 312 392
#     4  11  23  43  67  98 128 166 222 273 331 392
#     4  11  21  37  62  90 129 172 212 264 328 389
#
# _framework density 19.760808000000001
#
# number of rings (size 3 to 8) (size 9 to 14) (size 15 to 20)
#    0.000    1.143    2.857    4.286    2.000    2.286 
#    0.000    0.000    0.000    3.000    0.000    0.000 
#    0.000    0.000    0.000    0.000    0.000    0.000 
#
# Total GULP energy -156090.265843 kJ/mol
# GULP energy per Si atom -5574.652352 kJ/mol
# Density = 1.971583 g / cm^3
# Si number density = 19.760808 Si / 1000 Ang^3
#
#
#
# Elastic Constant Matrix: (Units=GPa)
#
#
# Indices 1 2 3 4 5 6 
#
# 1 97.1982 32.4219 20.9149 -0.0005 -9.7681 0.0040
# 2 32.4219 78.4094 40.0841 0.0055 0.8524 0.0009
# 3 20.9149 40.0841 101.5464 0.0068 -17.9786 0.0042
# 4 -0.0005 0.0055 0.0068 33.8949 -0.0009 4.7875
# 5 -9.7681 0.8524 -17.9786 -0.0009 33.8657 -0.0007
# 6 0.0040 0.0009 0.0042 4.7875 -0.0007 40.7173
#
#
#
# Elastic Compliance Matrix: (Units=1/GPa)
#
#
# Indices 1 2 3 4 5 6 
#
# 1 0.012384 -0.005266 0.000203 0.000001 0.003812 -0.000001
# 2 -0.005266 0.018761 -0.007366 -0.000002 -0.005901 0.000001
# 3 0.000203 -0.007366 0.014080 -0.000001 0.007719 -0.000001
# 4 0.000001 -0.000002 -0.000001 0.030001 0.000001 -0.003528
# 5 0.003812 -0.005901 0.007719 0.000001 0.034874 -0.000001
# 6 -0.000001 0.000001 -0.000001 -0.003528 -0.000001 0.024974
#
#
# Mechanical properties :
#
#
# Convention : Reuss Voigt Hill
#
# Bulk Modulus (GPa) = 49.09824 51.55509 50.32667
# Shear Modulus (GPa) = 29.99011 33.94446 31.96728
#
# Velocity S-wave (km/s) = 3.89994 4.14909 4.02644
# Velocity P-wave (km/s) = 6.72157 7.00710 6.86582
#
# Compressibility (1/GPa) = 0.02036733
#
# Stress axis : x y z
#
# Youngs Moduli (GPa) = 80.74750 53.30292 71.02260
#
# Poissons Ratio (x) = 0.28070 -0.01442
# Poissons Ratio (y) = 0.42522 0.52314
# Poissons Ratio (z) = -0.01639 0.39262
#
# Static dielectric constant tensor:
#      x y z
#    x 1.728230 0.000000 -0.004420 
#    y 0.000000 1.734380 0.000000 
#    z -0.004420 0.000000 1.704270 
# 
# From -- ./inp_files/272332.got.cif
#   From: 2010.05.17/outbox.cif.g08.bks.cpg/sg12_137_cif.got.tgz:272332.got - 2010.06.03 13:09:07.
