data_PCOD9216778
_publ_section_title
;
Structure prediction by ZEFSAII (Michael W. Deem and Ramdas Pophale) SiO2 
 PCOD9216778
Probable space group: C 2/M
;
_chemical_formula_sum "Si O2"
_cell_formula_units_Z 56
_cell_length_a 5.391402
_cell_length_b 23.008220
_cell_length_c 22.638687
_cell_angle_alpha 90.000000
_cell_angle_beta 76.222689
_cell_angle_gamma 90.000000
_cell_volume 2727.454174
_symmetry_space_group_name_H-M "C 2/M"
_symmetry_group_IT_number 12
_symmetry_cell_setting 'monoclinic'
loop_
_space_group_symop_operation_xyz
x,y,z
-x,y,-z
-x,-y,-z
x,-y,z
1/2+x,1/2+y,z
1/2-x,1/2+y,-z
1/2-x,1/2-y,-z
1/2+x,1/2-y,z
loop_
_atom_site_type_symbol
_atom_site_label
_atom_site_fract_x
_atom_site_fract_y
_atom_site_fract_z
Si Si1 0.574569 0.429878 0.675419
Si Si2 0.326127 0.500000 0.923907
Si Si3 0.784344 0.929142 0.465656
Si Si4 0.283767 0.372227 0.966234
Si Si5 0.880934 0.782754 0.869035
Si Si6 0.405902 0.000000 0.844132
Si Si7 0.003423 0.397274 0.746569
Si Si8 0.486990 0.763834 0.263039
O O1 0.571558 0.500000 0.678413
O O2 0.645097 0.411902 0.604902
O O3 0.291465 0.408894 0.708171
O O4 0.792175 0.408900 0.708173
O O5 0.287158 0.441579 0.962850
O O6 0.616169 0.500000 0.883617
O O7 0.116719 0.500000 0.883602
O O8 0.500000 0.910371 0.500000
O O9 0.000000 0.910371 0.500000
O O10 0.783599 0.000000 0.466400
O O11 0.351540 0.345956 0.898454
O O12 0.500000 0.352821 0.000000
O O13 0.000000 0.352823 0.000000
O O14 0.610822 0.750004 0.889139
O O15 0.954063 0.778574 0.795907
O O16 0.447801 0.942362 0.802207
O O17 0.987652 0.329205 0.762323
O O18 0.701908 0.750001 0.298123
#
# Coordination Sequence:
#
# PCOD9216778 Si02
#       8
#     8   4   8   8   8   4   8   8
#     4  11  20  36  55  89 132 170 211 255 304 366
#     4  12  28  43  68  90 124 155 200 236 294 372
#     4   9  17  29  49  78 120 173 215 250 296 355
#     4  12  26  46  70  91 120 150 192 247 301 358
#     4  10  23  40  63  89 115 148 189 240 299 354
#     4  12  26  39  66  92 120 165 200 240 292 386
#     4  12  23  39  60  91 125 165 209 252 310 362
#     4  10  23  40  63  85 122 154 202 253 308 359
#
# _framework density 20.531969
#
# number of rings (size 3 to 8) (size 9 to 14) (size 15 to 20)
#    0.000    1.143    1.429    4.714    8.000    4.000 
#    0.000    0.000    0.000    0.000    0.000    0.000 
#    0.000   40.000    0.000    0.000    0.000    0.000 
#
# Total GULP energy -156537.903344 kJ/mol
# GULP energy per Si atom -5590.639405 kJ/mol
# Density = 2.048524 g / cm^3
# Si number density = 20.531969 Si / 1000 Ang^3
#
#
#
# Elastic Constant Matrix: (Units=GPa)
#
#
# Indices 1 2 3 4 5 6 
#
# 1 224.5078 13.8246 50.7965 0.0000 -2.9029 0.0000
# 2 13.8246 40.1370 -8.5864 0.0000 -0.5963 0.0000
# 3 50.7965 -8.5864 64.3218 0.0000 -1.3851 0.0000
# 4 0.0000 0.0000 0.0000 -6.3142 0.0000 -0.5532
# 5 -2.9029 -0.5963 -1.3851 0.0000 32.6545 0.0000
# 6 0.0000 0.0000 0.0000 -0.5532 0.0000 14.4430
#
#
#
# Elastic Compliance Matrix: (Units=1/GPa)
#
#
# Indices 1 2 3 4 5 6 
#
# 1 0.005766 -0.003042 -0.004954 0.000000 0.000247 0.000000
# 2 -0.003042 0.027264 0.006052 0.000000 0.000484 0.000000
# 3 -0.004954 0.006052 0.020278 0.000000 0.000530 0.000000
# 4 0.000000 0.000000 0.000000 -0.157844 0.000000 -0.006046
# 5 0.000247 0.000484 0.000530 0.000000 0.030677 0.000000
# 6 0.000000 0.000000 0.000000 -0.006046 0.000000 0.069006
#
#
# Mechanical properties :
#
#
# Convention : Reuss Voigt Hill
#
# Bulk Modulus (GPa) = 20.23430 49.00401 34.61916
# Shear Modulus (GPa) = 322.39990 26.35212 174.37601
#
# Velocity S-wave (km/s) = 12.54449 3.58644 9.22569
# Velocity P-wave (km/s) = 14.82213 6.40851 11.41850
#
# Compressibility (1/GPa) = 0.04942103
#
# Stress axis : x y z
#
# Youngs Moduli (GPa) = 173.44338 36.67794 49.31347
#
# Poissons Ratio (x) = 0.11157 0.24430
# Poissons Ratio (y) = 0.52761 -0.29846
# Poissons Ratio (z) = 0.85923 -0.22199
#
# Static dielectric constant tensor:
#      x y z
#    x 1.786160 0.000000 -0.002510 
#    y 0.000000 1.729660 0.000000 
#    z -0.002510 0.000000 1.692280 
# 
# From -- ./inp_files/298085.got.cif
#   From: 2010.05.17/outbox.cif.g08.bks.cpg/sg12_150_cif.got.tgz:298085.got - 2010.06.03 13:09:07.
