data_PCOD9216415
_publ_section_title
;
Structure prediction by ZEFSAII (Michael W. Deem and Ramdas Pophale) SiO2 
 PCOD9216415
Probable space group: C 2/M
;
_chemical_formula_sum "Si O2"
_cell_formula_units_Z 56
_cell_length_a 19.069494
_cell_length_b 11.479393
_cell_length_c 12.375937
_cell_angle_alpha 90.000000
_cell_angle_beta 74.672970
_cell_angle_gamma 90.000000
_cell_volume 2612.812032
_symmetry_space_group_name_H-M "C 2/M"
_symmetry_group_IT_number 12
_symmetry_cell_setting 'monoclinic'
loop_
_space_group_symop_operation_xyz
x,y,z
-x,y,-z
-x,-y,-z
x,-y,z
1/2+x,1/2+y,z
1/2-x,1/2+y,-z
1/2-x,1/2-y,-z
1/2+x,1/2-y,z
loop_
_atom_site_type_symbol
_atom_site_label
_atom_site_fract_x
_atom_site_fract_y
_atom_site_fract_z
Si Si1 0.798642 0.804886 0.141292
Si Si2 0.084968 0.628739 0.571964
Si Si3 0.108531 0.869991 0.426268
Si Si4 0.840346 0.632060 0.938017
Si Si5 0.956403 0.870346 0.116482
Si Si6 0.730195 0.190799 0.622089
Si Si7 0.535909 0.756663 0.261184
O O1 0.731825 0.863203 0.106961
O O2 0.873055 0.874870 0.118163
O O3 0.778686 0.775085 0.272201
O O4 0.819495 0.692931 0.059408
O O5 0.090488 0.500000 0.515275
O O6 0.092367 0.751861 0.502958
O O7 0.152646 0.631644 0.628918
O O8 0.005444 0.641639 0.657464
O O9 0.195769 0.876568 0.380511
O O10 0.071055 0.836624 0.328408
O O11 0.084979 0.000000 0.474791
O O12 0.863290 0.500000 0.946647
O O13 0.902266 0.699412 0.845685
O O14 0.971711 0.801331 0.218317
O O15 0.986509 0.000000 0.119496
O O16 0.000000 0.813739 0.000000
O O17 0.750000 0.250000 0.500000
#
# Coordination Sequence:
#
# PCOD9216415 Si02
#       7
#     8   8   8   8   8   8   8
#     4  11  22  47  67  96 136 176 229 281 341 412
#     4  11  25  44  70  99 137 181 226 284 347 408
#     4  11  25  45  69  98 137 180 231 287 341 407
#     4  11  25  42  68 100 134 179 226 279 345 415
#     4  11  23  41  66  96 134 174 221 279 339 403
#     4  10  22  45  69  99 133 175 231 285 340 406
#     4  12  23  43  65  99 137 172 231 278 344 408
#
# _framework density 21.432846999999999
#
# number of rings (size 3 to 8) (size 9 to 14) (size 15 to 20)
#    0.000    1.000    4.286    2.143    0.000    4.571 
#    0.000    2.143    0.000    0.000    0.000    0.000 
#    0.000    0.000    0.000    0.000    0.000    0.000 
#
# Total GULP energy -156136.919479 kJ/mol
# GULP energy per Si atom -5576.318553 kJ/mol
# Density = 2.138406 g / cm^3
# Si number density = 21.432847 Si / 1000 Ang^3
#
#
#
# Elastic Constant Matrix: (Units=GPa)
#
#
# Indices 1 2 3 4 5 6 
#
# 1 123.4705 11.7560 16.5094 0.0000 2.7629 0.0000
# 2 11.7560 120.9804 32.5159 0.0000 11.4718 0.0000
# 3 16.5094 32.5159 90.4425 0.0000 2.8118 0.0000
# 4 0.0000 0.0000 0.0000 -26.7070 0.0000 29.5102
# 5 2.7629 11.4718 2.8118 0.0000 37.0615 0.0000
# 6 0.0000 0.0000 0.0000 29.5102 0.0000 -23.0636
#
#
#
# Elastic Compliance Matrix: (Units=1/GPa)
#
#
# Indices 1 2 3 4 5 6 
#
# 1 0.008329 -0.000406 -0.001362 0.000000 -0.000392 0.000000
# 2 -0.000406 0.009424 -0.003232 0.000000 -0.002642 0.000000
# 3 -0.001362 -0.003232 0.012463 0.000000 0.000156 0.000000
# 4 0.000000 0.000000 0.000000 0.090484 0.000000 0.115776
# 5 -0.000392 -0.002642 0.000156 0.000000 0.027817 0.000000
# 6 0.000000 0.000000 0.000000 0.115776 0.000000 0.104778
#
#
# Mechanical properties :
#
#
# Convention : Reuss Voigt Hill
#
# Bulk Modulus (GPa) = 49.46785 50.71732 50.09258
# Shear Modulus (GPa) = 18.51619 15.73232 17.12425
#
# Velocity S-wave (km/s) = 2.94243 2.71224 2.82968
# Velocity P-wave (km/s) = 5.88850 5.78991 5.83941
#
# Compressibility (1/GPa) = 0.02021515
#
# Stress axis : x y z
#
# Youngs Moduli (GPa) = 120.06728 106.10722 80.24071
#
# Poissons Ratio (x) = 0.04309 0.10930
# Poissons Ratio (y) = 0.04875 0.25934
# Poissons Ratio (z) = 0.16355 0.34294
#
# Static dielectric constant tensor:
#      x y z
#    x 1.781540 0.000000 -0.005680 
#    y 0.000000 1.788710 0.000000 
#    z -0.005680 0.000000 1.833350 
# 
# From -- ./inp_files/165602.got.cif
#   From: 2010.05.17/outbox.cif.g08.bks.cpg/sg12_83_cif.got.tgz:165602.got - 2010.06.03 13:09:07.
