data_PCOD9216766
_publ_section_title
;
Structure prediction by ZEFSAII (Michael W. Deem and Ramdas Pophale) SiO2 
 PCOD9216766
Probable space group: C 2/M
;
_chemical_formula_sum "Si O2"
_cell_formula_units_Z 52
_cell_length_a 24.615659
_cell_length_b 25.618444
_cell_length_c 5.120249
_cell_angle_alpha 90.000000
_cell_angle_beta 49.634538
_cell_angle_gamma 90.000000
_cell_volume 2460.196061
_symmetry_space_group_name_H-M "C 2/M"
_symmetry_group_IT_number 12
_symmetry_cell_setting 'monoclinic'
loop_
_space_group_symop_operation_xyz
x,y,z
-x,y,-z
-x,-y,-z
x,-y,z
1/2+x,1/2+y,z
1/2-x,1/2+y,-z
1/2-x,1/2-y,-z
1/2+x,1/2-y,z
loop_
_atom_site_type_symbol
_atom_site_label
_atom_site_fract_x
_atom_site_fract_y
_atom_site_fract_z
Si Si1 0.683874 0.290206 0.715258
Si Si2 0.316159 0.361523 0.785954
Si Si3 0.086650 0.440432 0.910468
Si Si4 0.840710 0.396054 0.839996
Si Si5 0.000000 0.358593 0.000000
Si Si6 0.950083 0.061219 0.408357
Si Si7 0.921016 0.700145 0.864722
O O1 0.750000 0.250000 0.500000
O O2 0.671941 0.318022 0.475276
O O3 0.696418 0.333302 0.898081
O O4 0.616823 0.255257 0.006955
O O5 0.382254 0.401052 0.600301
O O6 0.243148 0.390032 0.934471
O O7 0.067663 0.500000 0.929236
O O8 0.125795 0.416018 0.535466
O O9 0.137523 0.435345 0.999353
O O10 0.017998 0.402701 0.163811
O O11 0.873705 0.341297 0.848322
O O12 0.063860 0.319867 0.885511
O O13 0.000000 0.073913 0.500000
O O14 0.928372 0.000000 0.497457
O O15 0.000000 0.066645 0.000000
O O16 0.000000 0.702356 0.500000
#
# Coordination Sequence:
#
# PCOD9216766 Si02
#       7
#     8   8   8   8   4   8   8
#     4  12  27  43  70  99 139 183 230 289 345 401
#     4  12  26  46  71 101 139 176 229 285 340 417
#     4  11  23  40  64  97 131 173 229 279 322 389
#     4  11  24  42  66  94 134 179 223 276 337 400
#     4  10  23  40  62  88 134 180 217 272 332 392
#     4  10  23  46  74 103 140 179 221 285 362 422
#     4  11  24  42  66  94 134 186 234 267 341 404
#
# _framework density 21.136527999999998
#
# number of rings (size 3 to 8) (size 9 to 14) (size 15 to 20)
#    0.000    0.923    3.077    3.000    4.308    3.077 
#    0.000    3.846    0.000    0.000    0.000    0.000 
#    0.000    0.000    0.000    0.000    0.000    0.000 
#
# Total GULP energy -145160.802764 kJ/mol
# GULP energy per Si atom -5583.107799 kJ/mol
# Density = 2.108842 g / cm^3
# Si number density = 21.136528 Si / 1000 Ang^3
#
#
#
# Elastic Constant Matrix: (Units=GPa)
#
#
# Indices 1 2 3 4 5 6 
#
# 1 152.5182 53.1279 61.5441 0.0000 -8.3094 0.0000
# 2 53.1279 76.6882 34.5852 0.0000 -17.2588 0.0000
# 3 61.5441 34.5852 89.8142 0.0000 -2.3959 0.0000
# 4 0.0000 0.0000 0.0000 -45.8100 0.0000 -16.7324
# 5 -8.3094 -17.2588 -2.3959 0.0000 50.5068 0.0000
# 6 0.0000 0.0000 0.0000 -16.7324 0.0000 37.6574
#
#
#
# Elastic Compliance Matrix: (Units=1/GPa)
#
#
# Indices 1 2 3 4 5 6 
#
# 1 0.010345 -0.004857 -0.005224 0.000000 -0.000206 0.000000
# 2 -0.004857 0.019498 -0.004029 0.000000 0.005673 0.000000
# 3 -0.005224 -0.004029 0.016226 0.000000 -0.001466 0.000000
# 4 0.000000 0.000000 0.000000 -0.018781 0.000000 -0.008345
# 5 -0.000206 0.005673 -0.001466 0.000000 0.021634 0.000000
# 6 0.000000 0.000000 0.000000 -0.008345 0.000000 0.022847
#
#
# Mechanical properties :
#
#
# Convention : Reuss Voigt Hill
#
# Bulk Modulus (GPa) = 56.02324 68.61500 62.31912
# Shear Modulus (GPa) = 47.19648 19.78840 33.49244
#
# Velocity S-wave (km/s) = 4.73052 3.06309 3.98499
# Velocity P-wave (km/s) = 7.51000 6.71143 7.12191
#
# Compressibility (1/GPa) = 0.01784974
#
# Stress axis : x y z
#
# Youngs Moduli (GPa) = 96.66098 51.28646 61.62933
#
# Poissons Ratio (x) = 0.24912 0.32196
# Poissons Ratio (y) = 0.46952 0.24828
# Poissons Ratio (z) = 0.50497 0.20661
#
# Static dielectric constant tensor:
#      x y z
#    x 1.762690 0.000000 -0.007900 
#    y 0.000000 1.760270 0.000000 
#    z -0.007900 0.000000 1.838110 
# 
# From -- ./inp_files/26171.got.cif
#   From: 2010.05.17/outbox.cif.g08.bks.cpg/sg12_14_cif.got.tgz:26171.got - 2010.06.03 13:09:07.
