data_PCOD9216225
_publ_section_title
;
Structure prediction by ZEFSAII (Michael W. Deem and Ramdas Pophale) SiO2 
 PCOD9216225
Probable space group: C 2/M
;
_chemical_formula_sum "Si O2"
_cell_formula_units_Z 44
_cell_length_a 22.786472
_cell_length_b 17.733593
_cell_length_c 12.331353
_cell_angle_alpha 90.000000
_cell_angle_beta 21.582611
_cell_angle_gamma 90.000000
_cell_volume 1832.931724
_symmetry_space_group_name_H-M "C 2/M"
_symmetry_group_IT_number 12
_symmetry_cell_setting 'monoclinic'
loop_
_space_group_symop_operation_xyz
x,y,z
-x,y,-z
-x,-y,-z
x,-y,z
1/2+x,1/2+y,z
1/2-x,1/2+y,-z
1/2-x,1/2-y,-z
1/2+x,1/2-y,z
loop_
_atom_site_type_symbol
_atom_site_label
_atom_site_fract_x
_atom_site_fract_y
_atom_site_fract_z
Si Si1 0.175333 0.294478 0.906233
Si Si2 0.154308 0.355790 0.168248
Si Si3 0.327044 0.415156 0.481864
Si Si4 0.632824 0.181144 0.677519
Si Si5 0.963685 0.500000 0.402929
Si Si6 0.189504 0.121405 0.881234
O O1 0.211977 0.305412 0.969571
O O2 0.200263 0.208548 0.826232
O O3 0.986399 0.310638 0.217465
O O4 0.270003 0.355250 0.671141
O O5 0.000000 0.324435 0.500000
O O6 0.088235 0.433832 0.231070
O O7 0.289028 0.374337 0.024949
O O8 0.280403 0.500000 0.593326
O O9 0.239121 0.391826 0.521156
O O10 0.516012 0.407728 0.146980
O O11 0.750000 0.250000 0.500000
O O12 0.500000 0.181393 0.000000
O O13 0.829459 0.565637 0.606540
#
# Coordination Sequence:
#
# PCOD9216225 Si02
#       6
#     8   8   8   8   4   8
#     4  11  25  41  69  97 131 178 230 273 340 411
#     4  10  23  41  66  94 133 177 222 272 335 402
#     4  11  25  44  69  99 136 174 224 288 342 396
#     4  10  22  43  69  96 135 176 225 277 340 404
#     4  10  23  42  66  89 138 183 215 274 338 397
#     4  11  21  41  66  95 132 174 220 277 337 397
#
# _framework density 24.00526
#
# number of rings (size 3 to 8) (size 9 to 14) (size 15 to 20)
#    0.000    1.455    2.727    3.000    6.364    4.000 
#    0.000    0.909    0.000    1.636    0.000    0.000 
#    0.000    0.000    0.000    0.000    0.000    0.000 
#
# Total GULP energy -122515.996698 kJ/mol
# GULP energy per Si atom -5568.908941 kJ/mol
# Density = 2.395062 g / cm^3
# Si number density = 24.005260 Si / 1000 Ang^3
#
#
#
# Elastic Constant Matrix: (Units=GPa)
#
#
# Indices 1 2 3 4 5 6 
#
# 1 69.3011 7.9855 5.6460 0.0005 -22.4299 -0.0003
# 2 7.9855 194.6493 25.0487 0.0037 -7.7598 -0.0013
# 3 5.6460 25.0487 88.4749 0.0038 -38.0749 -0.0016
# 4 0.0005 0.0037 0.0038 34.2380 -0.0003 -17.1206
# 5 -22.4299 -7.7598 -38.0749 -0.0003 35.1927 0.0002
# 6 -0.0003 -0.0013 -0.0016 -17.1206 0.0002 9.2749
#
#
#
# Elastic Compliance Matrix: (Units=1/GPa)
#
#
# Indices 1 2 3 4 5 6 
#
# 1 0.021196 -0.001087 0.008730 -0.000003 0.022714 -0.000003
# 2 -0.001087 0.005401 -0.002331 -0.000002 -0.002024 -0.000003
# 3 0.008730 -0.002331 0.025409 -0.000008 0.032540 -0.000012
# 4 -0.000003 -0.000002 -0.000008 0.379498 -0.000012 0.700517
# 5 0.022714 -0.002024 0.032540 -0.000012 0.077651 -0.000017
# 6 -0.000003 -0.000003 -0.000012 0.700517 -0.000017 1.400904
#
#
# Mechanical properties :
#
#
# Convention : Reuss Voigt Hill
#
# Bulk Modulus (GPa) = 15.96677 47.75396 31.86036
# Shear Modulus (GPa) = 2.60374 36.65747 19.63061
#
# Velocity S-wave (km/s) = 1.04260 3.91200 2.86276
# Velocity P-wave (km/s) = 2.84871 6.35148 4.92222
#
# Compressibility (1/GPa) = 0.06263008
#
# Stress axis : x y z
#
# Youngs Moduli (GPa) = 47.17977 185.14021 39.35625
#
# Poissons Ratio (x) = 0.20134 -0.34359
# Poissons Ratio (y) = 0.05131 0.09173
# Poissons Ratio (z) = -0.41190 0.43151
#
# Static dielectric constant tensor:
#      x y z
#    x 2.070630 0.000000 0.045240 
#    y 0.000000 1.923580 0.000000 
#    z 0.045240 0.000000 1.878510 
# 
# From -- ./inp_files/241384.got.cif
#   From: 2010.05.17/outbox.cif.g08.bks.cpg/sg12_121_cif.got.tgz:241384.got - 2010.06.03 13:09:07.
