data_PCOD9216440
_publ_section_title
;
Structure prediction by ZEFSAII (Michael W. Deem and Ramdas Pophale) SiO2 
 PCOD9216440
Probable space group: C 2/M
;
_chemical_formula_sum "Si O2"
_cell_formula_units_Z 40
_cell_length_a 14.316885
_cell_length_b 23.110147
_cell_length_c 8.940834
_cell_angle_alpha 90.000000
_cell_angle_beta 39.644000
_cell_angle_gamma 90.000000
_cell_volume 1887.385068
_symmetry_space_group_name_H-M "C 2/M"
_symmetry_group_IT_number 12
_symmetry_cell_setting 'monoclinic'
loop_
_space_group_symop_operation_xyz
x,y,z
-x,y,-z
-x,-y,-z
x,-y,z
1/2+x,1/2+y,z
1/2-x,1/2+y,-z
1/2-x,1/2-y,-z
1/2+x,1/2-y,z
loop_
_atom_site_type_symbol
_atom_site_label
_atom_site_fract_x
_atom_site_fract_y
_atom_site_fract_z
Si Si1 0.642919 0.151938 0.423410
Si Si2 0.861797 0.353541 0.226137
Si Si3 0.971070 0.845738 0.364085
Si Si4 0.647298 0.742820 0.981003
Si Si5 0.628314 0.432490 0.965140
O O1 0.500000 0.160783 0.500000
O O2 0.605869 0.159199 0.641258
O O3 0.767172 0.197563 0.227423
O O4 0.720245 0.091011 0.289705
O O5 0.692135 0.371472 0.440523
O O6 0.862834 0.300095 0.106631
O O7 0.000000 0.391539 0.000000
O O8 0.000000 0.829700 0.500000
O O9 0.001440 0.789419 0.222583
O O10 0.083619 0.893453 0.162436
O O11 0.750000 0.750000 0.000000
O O12 0.634850 0.500000 0.992943
O O13 0.500000 0.423311 0.000000
#
# Coordination Sequence:
#
# PCOD9216440 Si02
#       5
#     8   8   8   8   8
#     4  11  25  42  62  94 132 169 217 268 317 388
#     4  12  26  38  61  93 132 175 211 262 318 375
#     4  11  24  42  65  96 131 165 220 264 315 389
#     4  11  24  38  61  93 128 177 214 256 313 383
#     4  10  22  45  74  95 119 166 220 275 330 380
#
# _framework density 21.193342999999999
#
# number of rings (size 3 to 8) (size 9 to 14) (size 15 to 20)
#    0.000    1.000    4.000    1.800   11.200    0.800 
#    0.000    0.000    0.000    1.200    0.000    0.000 
#    0.000    0.000    0.000    0.000    0.000    0.000 
#
# Total GULP energy -111720.660978 kJ/mol
# GULP energy per Si atom -5586.033049 kJ/mol
# Density = 2.114511 g / cm^3
# Si number density = 21.193343 Si / 1000 Ang^3
#
#
#
# Elastic Constant Matrix: (Units=GPa)
#
#
# Indices 1 2 3 4 5 6 
#
# 1 96.1401 -11.7133 30.1284 0.0000 12.2426 0.0000
# 2 -11.7133 63.0563 24.6257 0.0000 10.3496 0.0000
# 3 30.1284 24.6257 158.0040 0.0000 14.8984 0.0000
# 4 0.0000 0.0000 0.0000 17.2491 0.0000 -0.8230
# 5 12.2426 10.3496 14.8984 0.0000 47.3438 0.0000
# 6 0.0000 0.0000 0.0000 -0.8230 0.0000 16.4542
#
#
#
# Elastic Compliance Matrix: (Units=1/GPa)
#
#
# Indices 1 2 3 4 5 6 
#
# 1 0.012072 0.003769 -0.002594 0.000000 -0.003129 0.000000
# 2 0.003769 0.018473 -0.003221 0.000000 -0.004000 0.000000
# 3 -0.002594 -0.003221 0.007416 0.000000 -0.000959 0.000000
# 4 0.000000 0.000000 0.000000 0.058113 0.000000 0.002907
# 5 -0.003129 -0.004000 -0.000959 0.000000 0.023107 0.000000
# 6 0.000000 0.000000 0.000000 0.002907 0.000000 0.060920
#
#
# Mechanical properties :
#
#
# Convention : Reuss Voigt Hill
#
# Bulk Modulus (GPa) = 29.52461 44.80911 37.16686
# Shear Modulus (GPa) = 25.57757 34.48670 30.03214
#
# Velocity S-wave (km/s) = 3.47777 4.03829 3.76846
# Velocity P-wave (km/s) = 5.48524 6.55230 6.04237
#
# Compressibility (1/GPa) = 0.03387005
#
# Stress axis : x y z
#
# Youngs Moduli (GPa) = 82.83459 54.13206 134.84309
#
# Poissons Ratio (x) = -0.20404 0.34983
# Poissons Ratio (y) = -0.31223 0.43430
# Poissons Ratio (z) = 0.21490 0.17435
#
# Static dielectric constant tensor:
#      x y z
#    x 1.797260 0.000000 -0.046250 
#    y 0.000000 1.773810 0.000000 
#    z -0.046250 0.000000 1.808790 
# 
# From -- ./inp_files/52341.got.cif
#   From: 2010.05.17/outbox.cif.g08.bks.cpg/sg12_27_cif.got.tgz:52341.got - 2010.06.03 13:09:07.
