data_PCOD9216517
_publ_section_title
;
Structure prediction by ZEFSAII (Michael W. Deem and Ramdas Pophale) SiO2 
 PCOD9216517
Probable space group: C 2/M
;
_chemical_formula_sum "Si O2"
_cell_formula_units_Z 48
_cell_length_a 11.332822
_cell_length_b 28.009315
_cell_length_c 12.172839
_cell_angle_alpha 90.000000
_cell_angle_beta 136.553243
_cell_angle_gamma 90.000000
_cell_volume 2657.167682
_symmetry_space_group_name_H-M "C 2/M"
_symmetry_group_IT_number 12
_symmetry_cell_setting 'monoclinic'
loop_
_space_group_symop_operation_xyz
x,y,z
-x,y,-z
-x,-y,-z
x,-y,z
1/2+x,1/2+y,z
1/2-x,1/2+y,-z
1/2-x,1/2-y,-z
1/2+x,1/2-y,z
loop_
_atom_site_type_symbol
_atom_site_label
_atom_site_fract_x
_atom_site_fract_y
_atom_site_fract_z
Si Si1 0.004123 0.194833 0.176330
Si Si2 0.831906 0.553182 0.240196
Si Si3 0.759385 0.551834 0.446576
Si Si4 0.112482 0.713913 0.349793
Si Si5 0.226450 0.662170 0.818905
Si Si6 0.900415 0.858750 0.543846
O O1 0.031403 0.251504 0.204531
O O2 0.165739 0.171950 0.219606
O O3 0.000891 0.172557 0.296553
O O4 0.837754 0.184048 0.992573
O O5 0.784806 0.500000 0.161756
O O6 0.756698 0.554294 0.312832
O O7 0.783933 0.605395 0.162525
O O8 0.038573 0.554195 0.387883
O O9 0.693587 0.500000 0.436576
O O10 0.657855 0.593722 0.434475
O O11 0.250000 0.750000 0.500000
O O12 0.231653 0.670665 0.394446
O O13 0.956776 0.689201 0.311663
O O14 0.000000 0.868172 0.500000
#
# Coordination Sequence:
#
# PCOD9216517 Si02
#       6
#     8   8   8   8   8   8
#     4  10  24  37  56  87 117 149 188 235 297 343
#     4   9  17  32  61  91 113 143 188 243 297 340
#     4   9  17  32  56  87 114 144 190 243 287 335
#     4  10  23  36  58  81 111 156 194 239 275 337
#     4  11  20  40  62  83 120 149 184 245 294 346
#     4  11  22  37  55  82 114 151 198 234 277 339
#
# _framework density 18.064347000000001
#
# number of rings (size 3 to 8) (size 9 to 14) (size 15 to 20)
#    0.000    2.000    3.333    1.500    4.667    2.333 
#    0.000    2.500    0.000    0.000    0.000    2.333 
#    0.000    0.000    0.000    0.000    0.000    0.000 
#
# Total GULP energy -133642.219302 kJ/mol
# GULP energy per Si atom -5568.425804 kJ/mol
# Density = 1.802323 g / cm^3
# Si number density = 18.064347 Si / 1000 Ang^3
#
#
#
# Elastic Constant Matrix: (Units=GPa)
#
#
# Indices 1 2 3 4 5 6 
#
# 1 81.6353 14.1246 16.3083 0.0000 6.0671 0.0000
# 2 14.1246 96.5308 23.0594 0.0000 12.3428 0.0000
# 3 16.3083 23.0594 52.0090 0.0000 -2.0137 0.0000
# 4 0.0000 0.0000 0.0000 23.2117 0.0000 -2.0027
# 5 6.0671 12.3428 -2.0137 0.0000 19.3299 0.0000
# 6 0.0000 0.0000 0.0000 -2.0027 0.0000 18.1844
#
#
#
# Elastic Compliance Matrix: (Units=1/GPa)
#
#
# Indices 1 2 3 4 5 6 
#
# 1 0.013491 -0.000400 -0.004224 0.000000 -0.004419 0.000000
# 2 -0.000400 0.012964 -0.005962 0.000000 -0.008774 0.000000
# 3 -0.004224 -0.005962 0.023489 0.000000 0.007580 0.000000
# 4 0.000000 0.000000 0.000000 0.043495 0.000000 0.004790
# 5 -0.004419 -0.008774 0.007580 0.000000 0.059512 0.000000
# 6 0.000000 0.000000 0.000000 0.004790 0.000000 0.055520
#
#
# Mechanical properties :
#
#
# Convention : Reuss Voigt Hill
#
# Bulk Modulus (GPa) = 34.75659 37.46218 36.10939
# Shear Modulus (GPa) = 20.90006 23.92406 22.41206
#
# Velocity S-wave (km/s) = 3.40513 3.64315 3.52615
# Velocity P-wave (km/s) = 5.89424 6.20322 6.05070
#
# Compressibility (1/GPa) = 0.02877152
#
# Stress axis : x y z
#
# Youngs Moduli (GPa) = 74.12302 77.13687 42.57326
#
# Poissons Ratio (x) = 0.03085 0.17983
# Poissons Ratio (y) = 0.02964 0.25383
# Poissons Ratio (z) = 0.31311 0.45990
#
# Static dielectric constant tensor:
#      x y z
#    x 1.606380 0.000000 0.014930 
#    y 0.000000 1.704090 0.000000 
#    z 0.014930 0.000000 1.635670 
# 
# From -- ./inp_files/136765.got.cif
#   From: 2010.05.17/outbox.cif.g08.bks.cpg/sg12_69_cif.got.tgz:136765.got - 2010.06.03 13:09:07.
