data_PCOD9216242
_publ_section_title
;
Structure prediction by ZEFSAII (Michael W. Deem and Ramdas Pophale) SiO2 
 PCOD9216242
Probable space group: C 2/M
;
_chemical_formula_sum "Si O2"
_cell_formula_units_Z 44
_cell_length_a 9.894797
_cell_length_b 23.661361
_cell_length_c 12.274587
_cell_angle_alpha 90.000000
_cell_angle_beta 128.002828
_cell_angle_gamma 90.000000
_cell_volume 2264.482113
_symmetry_space_group_name_H-M "C 2/M"
_symmetry_group_IT_number 12
_symmetry_cell_setting 'monoclinic'
loop_
_space_group_symop_operation_xyz
x,y,z
-x,y,-z
-x,-y,-z
x,-y,z
1/2+x,1/2+y,z
1/2-x,1/2+y,-z
1/2-x,1/2-y,-z
1/2+x,1/2-y,z
loop_
_atom_site_type_symbol
_atom_site_label
_atom_site_fract_x
_atom_site_fract_y
_atom_site_fract_z
Si Si1 0.815088 0.735369 0.183451
Si Si2 0.515135 0.000000 0.874520
Si Si3 0.193650 0.219948 0.360511
Si Si4 0.563092 0.877578 0.823455
Si Si5 0.156484 0.603833 0.497110
Si Si6 0.000000 0.687213 0.000000
Si Si7 0.808636 0.000000 0.450612
O O1 0.801612 0.737512 0.308182
O O2 0.796858 0.670019 0.136996
O O3 0.998367 0.761457 0.242489
O O4 0.662897 0.773408 0.063054
O O5 0.605020 0.057654 0.875007
O O6 0.330556 0.000000 0.718580
O O7 0.500000 0.000000 0.000000
O O8 0.250000 0.250000 0.500000
O O9 0.230924 0.153605 0.395538
O O10 0.439023 0.874657 0.658585
O O11 0.468553 0.852736 0.881828
O O12 0.270614 0.553117 0.509391
O O13 0.000000 0.586938 0.500000
O O14 0.000000 0.000000 0.500000
#
# Coordination Sequence:
#
# PCOD9216242 Si02
#       7
#     8   4   8   8   8   4   4
#     4  12  24  40  62  97 133 172 211 268 325 395
#     4  10  22  43  70  86 127 175 221 269 321 396
#     4  12  22  38  63  94 131 166 211 261 327 390
#     4  11  22  40  67  94 122 170 221 266 321 386
#     4  11  21  42  65  94 129 168 212 266 329 391
#     4  12  24  41  62  97 134 168 222 266 330 392
#     4  10  25  41  64 101 128 164 223 275 329 381
#
# _framework density 19.430491
#
# number of rings (size 3 to 8) (size 9 to 14) (size 15 to 20)
#    0.000    0.727    6.364    1.364    0.000    4.364 
#    0.000    0.000    0.000    0.545    0.000    0.000 
#    0.000    0.000    0.000    0.000    0.000    0.000 
#
# Total GULP energy -122786.964115 kJ/mol
# GULP energy per Si atom -5581.225642 kJ/mol
# Density = 1.938627 g / cm^3
# Si number density = 19.430491 Si / 1000 Ang^3
#
#
#
# Elastic Constant Matrix: (Units=GPa)
#
#
# Indices 1 2 3 4 5 6 
#
# 1 118.4512 52.1577 22.5193 0.0000 -9.3169 0.0000
# 2 52.1577 131.8531 21.2855 0.0000 4.5078 0.0000
# 3 22.5193 21.2855 70.3936 0.0000 -17.1796 0.0000
# 4 0.0000 0.0000 0.0000 18.4005 0.0000 -15.2605
# 5 -9.3169 4.5078 -17.1796 0.0000 33.5464 0.0000
# 6 0.0000 0.0000 0.0000 -15.2605 0.0000 32.6016
#
#
#
# Elastic Compliance Matrix: (Units=1/GPa)
#
#
# Indices 1 2 3 4 5 6 
#
# 1 0.010756 -0.004102 -0.001528 0.000000 0.002756 0.000000
# 2 -0.004102 0.009747 -0.002552 0.000000 -0.003756 0.000000
# 3 -0.001528 -0.002552 0.017652 0.000000 0.008959 0.000000
# 4 0.000000 0.000000 0.000000 0.088832 0.000000 0.041581
# 5 0.002756 -0.003756 0.008959 0.000000 0.035668 0.000000
# 6 0.000000 0.000000 0.000000 0.041581 0.000000 0.050137
#
#
# Mechanical properties :
#
#
# Convention : Reuss Voigt Hill
#
# Bulk Modulus (GPa) = 45.88802 56.95812 51.42307
# Shear Modulus (GPa) = 21.14879 31.89205 26.52042
#
# Velocity S-wave (km/s) = 3.30272 4.05574 3.69845
# Velocity P-wave (km/s) = 6.18156 7.16306 6.69034
#
# Compressibility (1/GPa) = 0.02179218
#
# Stress axis : x y z
#
# Youngs Moduli (GPa) = 92.97193 102.59233 56.64921
#
# Poissons Ratio (x) = 0.42087 0.08655
# Poissons Ratio (y) = 0.38140 0.14455
# Poissons Ratio (z) = 0.14204 0.26178
#
# Static dielectric constant tensor:
#      x y z
#    x 1.672140 0.000000 -0.033280 
#    y 0.000000 1.728780 0.000000 
#    z -0.033280 0.000000 1.697720 
# 
# From -- ./inp_files/122694.got.cif
#   From: 2010.05.17/outbox.cif.g08.bks.cpg/sg12_62_cif.got.tgz:122694.got - 2010.06.03 13:09:07.
