data_PCOD9216935
_publ_section_title
;
Structure prediction by ZEFSAII (Michael W. Deem and Ramdas Pophale) SiO2 
 PCOD9216935
Probable space group: C 2/M
;
_chemical_formula_sum "Si O2"
_cell_formula_units_Z 48
_cell_length_a 22.145288
_cell_length_b 8.733619
_cell_length_c 12.374208
_cell_angle_alpha 90.000000
_cell_angle_beta 80.049493
_cell_angle_gamma 90.000000
_cell_volume 2357.275963
_symmetry_space_group_name_H-M "C 2/M"
_symmetry_group_IT_number 12
_symmetry_cell_setting 'monoclinic'
loop_
_space_group_symop_operation_xyz
x,y,z
-x,y,-z
-x,-y,-z
x,-y,z
1/2+x,1/2+y,z
1/2-x,1/2+y,-z
1/2-x,1/2-y,-z
1/2+x,1/2-y,z
loop_
_atom_site_type_symbol
_atom_site_label
_atom_site_fract_x
_atom_site_fract_y
_atom_site_fract_z
Si Si1 0.572300 0.323961 0.966278
Si Si2 0.155064 0.321885 0.778681
Si Si3 0.736961 0.819538 0.122313
Si Si4 0.436921 0.185179 0.579540
Si Si5 0.681029 0.181739 0.522638
Si Si6 0.890418 0.816805 0.806759
O O1 0.593907 0.500000 0.944118
O O2 0.593439 0.222265 0.859984
O O3 0.500000 0.326978 0.000000
O O4 0.597344 0.266653 0.073599
O O5 0.170085 0.500000 0.793044
O O6 0.205844 0.217819 0.819864
O O7 0.154877 0.295913 0.651429
O O8 0.678482 0.738136 0.192903
O O9 0.726521 0.000000 0.116220
O O10 0.750000 0.750000 0.000000
O O11 0.500000 0.232801 0.500000
O O12 0.373377 0.237880 0.540450
O O13 0.433905 0.245182 0.702872
O O14 0.436062 0.000000 0.579474
O O15 0.750000 0.250000 0.500000
O O16 0.687923 0.000000 0.500523
O O17 0.895586 0.000000 0.802218
#
# Coordination Sequence:
#
# PCOD9216935 Si02
#       6
#     8   8   8   8   8   8
#     4  10  23  41  60  87 124 165 206 252 312 374
#     4  11  23  39  63  94 125 158 205 257 310 373
#     4  12  23  38  61  91 125 161 201 247 307 371
#     4  10  23  43  66  91 125 167 214 263 316 376
#     4  10  23  42  63  92 124 163 210 259 311 369
#     4  11  23  40  63  92 126 160 205 259 311 372
#
# _framework density 20.362487000000002
#
# number of rings (size 3 to 8) (size 9 to 14) (size 15 to 20)
#    0.000    1.333    1.667    3.500    2.333    6.000 
#    0.000    0.000    0.000    0.000    0.000    0.000 
#    0.000    0.000    0.000    0.000    0.000    0.000 
#
# Total GULP energy -134090.739881 kJ/mol
# GULP energy per Si atom -5587.114162 kJ/mol
# Density = 2.031614 g / cm^3
# Si number density = 20.362487 Si / 1000 Ang^3
#
#
#
# Elastic Constant Matrix: (Units=GPa)
#
#
# Indices 1 2 3 4 5 6 
#
# 1 73.8282 13.4609 26.6305 0.0000 -16.0334 0.0000
# 2 13.4609 26.3762 35.1239 0.0000 -5.6906 0.0000
# 3 26.6305 35.1239 89.2678 0.0000 -28.4055 0.0000
# 4 0.0000 0.0000 0.0000 111.9516 0.0000 -60.4341
# 5 -16.0334 -5.6906 -28.4055 0.0000 37.4638 0.0000
# 6 0.0000 0.0000 0.0000 -60.4341 0.0000 61.5454
#
#
#
# Elastic Compliance Matrix: (Units=1/GPa)
#
#
# Indices 1 2 3 4 5 6 
#
# 1 0.016088 -0.006215 -0.000611 0.000000 0.005478 0.000000
# 2 -0.006215 0.089377 -0.039328 0.000000 -0.018902 0.000000
# 3 -0.000611 -0.039328 0.032784 0.000000 0.018622 0.000000
# 4 0.000000 0.000000 0.000000 0.019008 0.000000 0.018665
# 5 0.005478 -0.018902 0.018622 0.000000 0.040285 0.000000
# 6 0.000000 0.000000 0.000000 0.018665 0.000000 0.034576
#
#
# Mechanical properties :
#
#
# Convention : Reuss Voigt Hill
#
# Bulk Modulus (GPa) = 21.76640 37.76698 29.76669
# Shear Modulus (GPa) = 14.71709 49.80928 32.26319
#
# Velocity S-wave (km/s) = 2.69133 4.95120 3.98482
# Velocity P-wave (km/s) = 4.51335 7.16055 5.98514
#
# Compressibility (1/GPa) = 0.04594238
#
# Stress axis : x y z
#
# Youngs Moduli (GPa) = 62.15745 11.18852 30.50236
#
# Poissons Ratio (x) = 0.06954 0.01863
# Poissons Ratio (y) = 0.38632 1.19959
# Poissons Ratio (z) = 0.03797 0.44002
#
# Static dielectric constant tensor:
#      x y z
#    x 1.767580 0.000000 0.045050 
#    y 0.000000 1.708110 0.000000 
#    z 0.045050 0.000000 1.675670 
# 
# From -- ./inp_files/172198.got.cif
#   From: 2010.05.17/outbox.cif.g08.bks.cpg/sg12_87_cif.got.tgz:172198.got - 2010.06.03 13:09:07.
