data_PCOD9216239
_publ_section_title
;
Structure prediction by ZEFSAII (Michael W. Deem and Ramdas Pophale) SiO2 
 PCOD9216239
Probable space group: C 2/M
;
_chemical_formula_sum "Si O2"
_cell_formula_units_Z 24
_cell_length_a 7.997050
_cell_length_b 27.919970
_cell_length_c 7.936810
_cell_angle_alpha 90.000000
_cell_angle_beta 35.244542
_cell_angle_gamma 90.000000
_cell_volume 1022.627056
_symmetry_space_group_name_H-M "C 2/M"
_symmetry_group_IT_number 12
_symmetry_cell_setting 'monoclinic'
loop_
_space_group_symop_operation_xyz
x,y,z
-x,y,-z
-x,-y,-z
x,-y,z
1/2+x,1/2+y,z
1/2-x,1/2+y,-z
1/2-x,1/2-y,-z
1/2+x,1/2-y,z
loop_
_atom_site_type_symbol
_atom_site_label
_atom_site_fract_x
_atom_site_fract_y
_atom_site_fract_z
Si Si1 0.177421 0.554007 0.694903
Si Si2 0.202693 0.131858 0.678449
Si Si3 0.187873 0.209520 0.189037
O O1 0.500000 0.550419 0.500000
O O2 0.069790 0.500000 0.744276
O O3 0.188543 0.588361 0.526662
O O4 0.000000 0.573489 0.000000
O O5 0.500000 0.155560 0.500000
O O6 0.004993 0.167775 0.733777
O O7 0.000000 0.115863 0.000000
O O8 0.000000 0.228572 0.500000
O O9 0.500000 0.192520 0.000000
O O10 0.250000 0.250000 0.000000
#
# Coordination Sequence:
#
# PCOD9216239 Si02
#       3
#     8   8   8
#     4  10  22  43  70 101 139 184 231 280 342 411
#     4  12  26  44  69 105 143 181 231 285 346 412
#     4  12  27  49  73  99 137 182 234 289 349 412
#
# _framework density 23.468968
#
# number of rings (size 3 to 8) (size 9 to 14) (size 15 to 20)
#    0.000    0.667    0.000    7.000    0.000    6.667 
#    0.000    0.000    0.000    0.000    0.000    0.000 
#    0.000    0.000    0.000    0.000    0.000    0.000 
#
# Total GULP energy -67281.464220 kJ/mol
# GULP energy per Si atom -5606.788685 kJ/mol
# Density = 2.341555 g / cm^3
# Si number density = 23.468968 Si / 1000 Ang^3
#
#
#
# Elastic Constant Matrix: (Units=GPa)
#
#
# Indices 1 2 3 4 5 6 
#
# 1 144.7452 72.8080 77.8057 0.0000 -8.9909 0.0000
# 2 72.8080 135.9409 62.8026 0.0000 27.2915 0.0000
# 3 77.8057 62.8026 225.4154 0.0000 32.5828 0.0000
# 4 0.0000 0.0000 0.0000 22.6773 0.0000 -2.3467
# 5 -8.9909 27.2915 32.5828 0.0000 75.8589 0.0000
# 6 0.0000 0.0000 0.0000 -2.3467 0.0000 7.4868
#
#
#
# Elastic Compliance Matrix: (Units=1/GPa)
#
#
# Indices 1 2 3 4 5 6 
#
# 1 0.011867 -0.005873 -0.003165 0.000000 0.004879 0.000000
# 2 -0.005873 0.011696 -0.000557 0.000000 -0.004665 0.000000
# 3 -0.003165 -0.000557 0.006087 0.000000 -0.002789 0.000000
# 4 0.000000 0.000000 0.000000 0.045575 0.000000 0.014285
# 5 0.004879 -0.004665 -0.002789 0.000000 0.016637 0.000000
# 6 0.000000 0.000000 0.000000 0.014285 0.000000 0.138045
#
#
# Mechanical properties :
#
#
# Convention : Reuss Voigt Hill
#
# Bulk Modulus (GPa) = 95.60880 103.65935 99.63408
# Shear Modulus (GPa) = 19.79534 40.71695 30.25615
#
# Velocity S-wave (km/s) = 2.90740 4.16976 3.59444
# Velocity P-wave (km/s) = 7.21786 8.21262 7.73126
#
# Compressibility (1/GPa) = 0.01045929
#
# Stress axis : x y z
#
# Youngs Moduli (GPa) = 84.26409 85.50240 164.28169
#
# Poissons Ratio (x) = 0.50218 0.51997
# Poissons Ratio (y) = 0.49491 0.09150
# Poissons Ratio (z) = 0.26671 0.04762
#
# Static dielectric constant tensor:
#      x y z
#    x 1.905440 0.000000 0.002420 
#    y 0.000000 1.907280 0.000000 
#    z 0.002420 0.000000 1.842530 
# 
# From -- ./inp_files/41245.got.cif
#   From: 2010.05.17/outbox.cif.g08.bks.cpg/sg12_21_cif.got.tgz:41245.got - 2010.06.03 13:09:07.
