data_PCOD9216185
_publ_section_title
;
Structure prediction by ZEFSAII (Michael W. Deem and Ramdas Pophale) SiO2 
 PCOD9216185
Probable space group: C 2/M
;
_chemical_formula_sum "Si O2"
_cell_formula_units_Z 44
_cell_length_a 22.976380
_cell_length_b 17.481374
_cell_length_c 5.903799
_cell_angle_alpha 90.000000
_cell_angle_beta 54.996325
_cell_angle_gamma 90.000000
_cell_volume 1942.377979
_symmetry_space_group_name_H-M "C 2/M"
_symmetry_group_IT_number 12
_symmetry_cell_setting 'monoclinic'
loop_
_space_group_symop_operation_xyz
x,y,z
-x,y,-z
-x,-y,-z
x,-y,z
1/2+x,1/2+y,z
1/2-x,1/2+y,-z
1/2-x,1/2-y,-z
1/2+x,1/2-y,z
loop_
_atom_site_type_symbol
_atom_site_label
_atom_site_fract_x
_atom_site_fract_y
_atom_site_fract_z
Si Si1 0.289846 0.000000 0.240259
Si Si2 0.231725 0.636735 0.382336
Si Si3 0.963808 0.330785 0.833439
Si Si4 0.444308 0.500000 0.821940
Si Si5 0.000000 0.864897 0.000000
Si Si6 0.065609 0.500000 0.187542
Si Si7 0.864413 0.228602 0.289440
Si Si8 0.288454 0.500000 0.974080
O O1 0.296803 0.925216 0.375064
O O2 0.213931 0.000000 0.290551
O O3 0.352840 0.000000 0.914205
O O4 0.173894 0.704340 0.477273
O O5 0.301626 0.674772 0.337969
O O6 0.252733 0.580563 0.130167
O O7 0.943225 0.419147 0.910902
O O8 0.000000 0.323513 0.500000
O O9 0.898332 0.272333 0.996455
O O10 0.000000 0.315637 0.000000
O O11 0.500000 0.500000 0.500000
O O12 0.461240 0.422339 0.916543
O O13 0.364767 0.500000 0.913911
O O14 0.068242 0.816861 0.753097
O O15 0.000000 0.500000 0.500000
#
# Coordination Sequence:
#
# PCOD9216185 Si02
#       8
#     4   8   8   4   4   4   8   4
#     4  11  23  44  69  97 134 197 233 299 358 444
#     4  10  24  45  65  96 145 176 242 290 366 445
#     4  11  24  44  69 105 143 188 242 305 371 437
#     4  11  26  44  72 105 132 181 247 311 361 437
#     4  11  24  46  72  99 136 178 244 297 376 428
#     4  10  22  43  68 102 141 186 252 304 357 438
#     4  11  22  45  68 101 136 190 227 308 371 440
#     4  11  24  45  69 101 135 190 246 292 368 445
#
# _framework density 22.652645
#
# number of rings (size 3 to 8) (size 9 to 14) (size 15 to 20)
#    0.000    1.273    4.545    0.273    2.545    3.636 
#    3.273    1.818    0.000    0.000    0.000    0.000 
#    0.000    0.000    0.000    0.000    0.000    0.000 
#
# Total GULP energy -122477.591933 kJ/mol
# GULP energy per Si atom -5567.163270 kJ/mol
# Density = 2.260109 g / cm^3
# Si number density = 22.652645 Si / 1000 Ang^3
#
#
#
# Elastic Constant Matrix: (Units=GPa)
#
#
# Indices 1 2 3 4 5 6 
#
# 1 87.8940 29.4685 24.1925 0.0000 -18.2447 0.0000
# 2 29.4685 125.7976 25.4952 0.0000 -21.5559 0.0000
# 3 24.1925 25.4952 67.7280 0.0000 -16.3070 0.0000
# 4 0.0000 0.0000 0.0000 1.2115 0.0000 -3.0398
# 5 -18.2447 -21.5559 -16.3070 0.0000 30.8214 0.0000
# 6 0.0000 0.0000 0.0000 -3.0398 0.0000 29.5521
#
#
#
# Elastic Compliance Matrix: (Units=1/GPa)
#
#
# Indices 1 2 3 4 5 6 
#
# 1 0.013911 -0.001716 -0.003013 0.000000 0.005440 0.000000
# 2 -0.001716 0.009526 -0.001849 0.000000 0.004668 0.000000
# 3 -0.003013 -0.001849 0.018103 0.000000 0.006501 0.000000
# 4 0.000000 0.000000 0.000000 1.112525 0.000000 0.114435
# 5 0.005440 0.004668 0.006501 0.000000 0.042370 0.000000
# 6 0.000000 0.000000 0.000000 0.114435 0.000000 0.045609
#
#
# Mechanical properties :
#
#
# Convention : Reuss Voigt Hill
#
# Bulk Modulus (GPa) = 35.23176 48.85911 42.04544
# Shear Modulus (GPa) = 3.95363 25.80124 14.87743
#
# Velocity S-wave (km/s) = 1.32254 3.37856 2.56552
# Velocity P-wave (km/s) = 4.23308 6.06920 5.23231
#
# Compressibility (1/GPa) = 0.02838348
#
# Stress axis : x y z
#
# Youngs Moduli (GPa) = 71.88391 104.97735 55.24085
#
# Poissons Ratio (x) = 0.18012 0.16646
# Poissons Ratio (y) = 0.12334 0.10214
# Poissons Ratio (z) = 0.21661 0.19410
#
# Static dielectric constant tensor:
#      x y z
#    x 1.971340 0.000000 -0.005060 
#    y 0.000000 2.455290 0.000000 
#    z -0.005060 0.000000 1.931370 
# 
# From -- ./inp_files/28696.got.cif
#   From: 2010.05.17/outbox.cif.g08.bks.cpg/sg12_15_cif.got.tgz:28696.got - 2010.06.03 13:09:07.
