data_PCOD9216029
_publ_section_title
;
Structure prediction by ZEFSAII (Michael W. Deem and Ramdas Pophale) SiO2 
 PCOD9216029
Probable space group: C 2/M
;
_chemical_formula_sum "Si O2"
_cell_formula_units_Z 34
_cell_length_a 20.605641
_cell_length_b 7.662622
_cell_length_c 9.624712
_cell_angle_alpha 90.000000
_cell_angle_beta 97.485589
_cell_angle_gamma 90.000000
_cell_volume 1506.725739
_symmetry_space_group_name_H-M "C 2/M"
_symmetry_group_IT_number 12
_symmetry_cell_setting 'monoclinic'
loop_
_space_group_symop_operation_xyz
x,y,z
-x,y,-z
-x,-y,-z
x,-y,z
1/2+x,1/2+y,z
1/2-x,1/2+y,-z
1/2-x,1/2-y,-z
1/2+x,1/2-y,z
loop_
_atom_site_type_symbol
_atom_site_label
_atom_site_fract_x
_atom_site_fract_y
_atom_site_fract_z
Si Si1 0.685614 0.790281 0.571169
Si Si2 0.426253 0.788767 0.944529
Si Si3 0.938767 0.191943 0.640461
Si Si4 0.000000 0.500000 0.500000
Si Si5 0.812395 0.290699 0.111659
O O1 0.750000 0.750000 0.500000
O O2 0.621943 0.709625 0.481909
O O3 0.693590 0.728222 0.731812
O O4 0.674233 0.000000 0.567120
O O5 0.410498 0.721456 0.786700
O O6 0.423267 0.000000 0.939861
O O7 0.500000 0.736367 0.000000
O O8 0.376000 0.725867 0.047196
O O9 0.987943 0.346214 0.614306
O O10 0.968515 0.000000 0.641388
O O11 0.817703 0.500000 0.122685
O O12 0.750000 0.250000 0.000000
#
# Coordination Sequence:
#
# PCOD9216029 Si02
#       5
#     8   8   8   2   8
#     4  11  23  42  68 100 141 182 231 288 343 410
#     4  10  22  42  70  96 135 182 226 286 350 405
#     4  12  26  44  71 103 136 184 233 282 347 411
#     4  12  26  48  70  98 148 180 228 290 336 418
#     4  10  23  40  65  96 132 180 226 279 345 406
#
# _framework density 22.565487000000001
#
# number of rings (size 3 to 8) (size 9 to 14) (size 15 to 20)
#    0.000    1.176    2.353    2.471    3.294    7.059 
#    0.000    0.000    0.000    0.000    0.000    0.000 
#    0.000    0.000    0.000    0.000    0.000    0.000 
#
# Total GULP energy -94912.958188 kJ/mol
# GULP energy per Si atom -5583.115188 kJ/mol
# Density = 2.251413 g / cm^3
# Si number density = 22.565487 Si / 1000 Ang^3
#
#
#
# Elastic Constant Matrix: (Units=GPa)
#
#
# Indices 1 2 3 4 5 6 
#
# 1 103.1253 13.5213 71.5110 0.0000 -14.3312 0.0000
# 2 13.5213 130.3803 22.7901 0.0000 -13.4417 0.0000
# 3 71.5110 22.7901 222.9933 0.0000 -18.6408 0.0000
# 4 0.0000 0.0000 0.0000 14.1486 0.0000 -0.6246
# 5 -14.3312 -13.4417 -18.6408 0.0000 48.6334 0.0000
# 6 0.0000 0.0000 0.0000 -0.6246 0.0000 2.1764
#
#
#
# Elastic Compliance Matrix: (Units=1/GPa)
#
#
# Indices 1 2 3 4 5 6 
#
# 1 0.012727 -0.000423 -0.003858 0.000000 0.002155 0.000000
# 2 -0.000423 0.008000 -0.000524 0.000000 0.001885 0.000000
# 3 -0.003858 -0.000524 0.005856 0.000000 0.000963 0.000000
# 4 0.000000 0.000000 0.000000 0.071585 0.000000 0.020545
# 5 0.002155 0.001885 0.000963 0.000000 0.022087 0.000000
# 6 0.000000 0.000000 0.000000 0.020545 0.000000 0.465380
#
#
# Mechanical properties :
#
#
# Convention : Reuss Voigt Hill
#
# Bulk Modulus (GPa) = 58.92266 74.68263 66.80264
# Shear Modulus (GPa) = 8.32081 36.23678 22.27879
#
# Velocity S-wave (km/s) = 1.92234 4.01165 3.14553
# Velocity P-wave (km/s) = 5.57636 7.39091 6.54681
#
# Compressibility (1/GPa) = 0.01697140
#
# Stress axis : x y z
#
# Youngs Moduli (GPa) = 78.57187 125.00338 170.77330
#
# Poissons Ratio (x) = 0.05292 0.65885
# Poissons Ratio (y) = 0.03327 0.08952
# Poissons Ratio (z) = 0.30313 0.06553
#
# Static dielectric constant tensor:
#      x y z
#    x 1.586630 0.000000 -0.028380 
#    y 0.000000 1.857630 0.000000 
#    z -0.028380 0.000000 1.820920 
# 
# From -- ./inp_files/82043.got.cif
#   From: 2010.05.17/outbox.cif.g08.bks.cpg/sg12_42_cif.got.tgz:82043.got - 2010.06.03 13:09:07.
