data_PCOD9216786
_publ_section_title
;
Structure prediction by ZEFSAII (Michael W. Deem and Ramdas Pophale) SiO2 
 PCOD9216786
Probable space group: C 2/M
;
_chemical_formula_sum "Si O2"
_cell_formula_units_Z 48
_cell_length_a 11.551417
_cell_length_b 18.436855
_cell_length_c 12.818074
_cell_angle_alpha 90.000000
_cell_angle_beta 113.889435
_cell_angle_gamma 90.000000
_cell_volume 2496.015068
_symmetry_space_group_name_H-M "C 2/M"
_symmetry_group_IT_number 12
_symmetry_cell_setting 'monoclinic'
loop_
_space_group_symop_operation_xyz
x,y,z
-x,y,-z
-x,-y,-z
x,-y,z
1/2+x,1/2+y,z
1/2-x,1/2+y,-z
1/2-x,1/2-y,-z
1/2+x,1/2-y,z
loop_
_atom_site_type_symbol
_atom_site_label
_atom_site_fract_x
_atom_site_fract_y
_atom_site_fract_z
Si Si1 0.549296 0.919124 0.320282
Si Si2 0.885211 0.350953 0.874679
Si Si3 0.808688 0.831411 0.032469
Si Si4 0.078331 0.799717 0.220756
Si Si5 0.399319 0.227845 0.557210
Si Si6 0.246872 0.083725 0.200992
O O1 0.586239 0.900957 0.214021
O O2 0.601348 0.857016 0.413839
O O3 0.397261 0.914680 0.270331
O O4 0.590244 0.000000 0.363183
O O5 0.762453 0.368926 0.896916
O O6 0.868793 0.270302 0.821381
O O7 0.000000 0.351154 0.000000
O O8 0.954781 0.823812 0.113039
O O9 0.750000 0.750000 0.000000
O O10 0.784096 0.877689 0.920330
O O11 0.044922 0.770828 0.322704
O O12 0.177403 0.865005 0.258605
O O13 0.500000 0.239590 0.500000
O O14 0.250000 0.250000 0.500000
O O15 0.205064 0.000000 0.187589
#
# Coordination Sequence:
#
# PCOD9216786 Si02
#       6
#     8   8   8   8   8   8
#     4  10  23  40  63  92 124 156 197 250 308 369
#     4  11  19  33  58  89 125 165 197 239 293 365
#     4  12  20  33  57  90 127 167 203 241 294 365
#     4  11  23  36  60  85 124 159 206 258 304 359
#     4  11  25  44  70  93 115 156 216 272 316 362
#     4  11  22  38  60  93 130 165 198 238 299 376
#
# _framework density 19.230653
#
# number of rings (size 3 to 8) (size 9 to 14) (size 15 to 20)
#    0.000    1.000    5.000    2.500    4.667    2.667 
#    0.000    0.833    0.000    1.000    0.000    0.000 
#    0.000    0.000    0.000    0.000    0.000    0.000 
#
# Total GULP energy -134061.119545 kJ/mol
# GULP energy per Si atom -5585.879981 kJ/mol
# Density = 1.918688 g / cm^3
# Si number density = 19.230653 Si / 1000 Ang^3
#
#
#
# Elastic Constant Matrix: (Units=GPa)
#
#
# Indices 1 2 3 4 5 6 
#
# 1 81.4806 42.6481 25.2652 0.0000 -19.7072 0.0000
# 2 42.6481 136.4355 32.1415 0.0000 -3.9048 0.0000
# 3 25.2652 32.1415 62.3703 0.0000 -15.2265 0.0000
# 4 0.0000 0.0000 0.0000 20.1898 0.0000 7.0565
# 5 -19.7072 -3.9048 -15.2265 0.0000 39.2521 0.0000
# 6 0.0000 0.0000 0.0000 7.0565 0.0000 23.7224
#
#
#
# Elastic Compliance Matrix: (Units=1/GPa)
#
#
# Indices 1 2 3 4 5 6 
#
# 1 0.017249 -0.004496 -0.002944 0.000000 0.007071 0.000000
# 2 -0.004496 0.009545 -0.003774 0.000000 -0.002772 0.000000
# 3 -0.002944 -0.003774 0.020676 0.000000 0.006167 0.000000
# 4 0.000000 0.000000 0.000000 0.055277 0.000000 -0.016443
# 5 0.007071 -0.002772 0.006167 0.000000 0.031143 0.000000
# 6 0.000000 0.000000 0.000000 -0.016443 0.000000 0.047045
#
#
# Mechanical properties :
#
#
# Convention : Reuss Voigt Hill
#
# Bulk Modulus (GPa) = 39.93344 53.37732 46.65538
# Shear Modulus (GPa) = 23.61710 28.64829 26.13269
#
# Velocity S-wave (km/s) = 3.50822 3.86388 3.69034
# Velocity P-wave (km/s) = 6.10088 6.90816 6.51703
#
# Compressibility (1/GPa) = 0.02504167
#
# Stress axis : x y z
#
# Youngs Moduli (GPa) = 57.97363 104.77111 48.36420
#
# Poissons Ratio (x) = 0.47104 0.14240
# Poissons Ratio (y) = 0.26064 0.18253
# Poissons Ratio (z) = 0.17069 0.39542
#
# Static dielectric constant tensor:
#      x y z
#    x 1.707660 0.000000 -0.015510 
#    y 0.000000 1.670790 0.000000 
#    z -0.015510 0.000000 1.683320 
# 
# From -- ./inp_files/131779.got.cif
#   From: 2010.05.17/outbox.cif.g08.bks.cpg/sg12_66_cif.got.tgz:131779.got - 2010.06.03 13:09:07.
