data_PCOD9216896
_publ_section_title
;
Structure prediction by ZEFSAII (Michael W. Deem and Ramdas Pophale) SiO2 
 PCOD9216896
Probable space group: C 2/M
;
_chemical_formula_sum "Si O2"
_cell_formula_units_Z 40
_cell_length_a 12.907702
_cell_length_b 12.816013
_cell_length_c 21.623636
_cell_angle_alpha 90.000000
_cell_angle_beta 151.034987
_cell_angle_gamma 90.000000
_cell_volume 1732.299772
_symmetry_space_group_name_H-M "C 2/M"
_symmetry_group_IT_number 12
_symmetry_cell_setting 'monoclinic'
loop_
_space_group_symop_operation_xyz
x,y,z
-x,y,-z
-x,-y,-z
x,-y,z
1/2+x,1/2+y,z
1/2-x,1/2+y,-z
1/2-x,1/2-y,-z
1/2+x,1/2-y,z
loop_
_atom_site_type_symbol
_atom_site_label
_atom_site_fract_x
_atom_site_fract_y
_atom_site_fract_z
Si Si1 0.936266 0.288206 0.804694
Si Si2 0.058639 0.837625 0.679489
Si Si3 0.213765 0.887317 0.355876
Si Si4 0.375606 0.622442 0.999245
Si Si5 0.095565 0.613325 0.413450
O O1 0.779845 0.361301 0.762697
O O2 0.791182 0.219089 0.683502
O O3 0.032417 0.200107 0.900696
O O4 0.123991 0.348474 0.867719
O O5 0.008416 0.884486 0.720125
O O6 0.037680 0.712403 0.675882
O O7 0.847655 0.869814 0.529499
O O8 0.385901 0.886064 0.501662
O O9 0.220343 0.000000 0.327143
O O10 0.401646 0.500000 0.028090
O O11 0.500000 0.641802 0.000000
O O12 0.020643 0.500000 0.353308
#
# Coordination Sequence:
#
# PCOD9216896 Si02
#       5
#     8   8   8   8   8
#     4  11  21  35  61  84 104 143 191 228 269 327
#     4   9  18  34  54  81 116 144 177 225 268 317
#     4   9  18  34  55  81 110 142 184 225 264 313
#     4  10  23  41  56  79 113 143 178 231 287 332
#     4   8  17  34  54  79 116 151 177 219 268 318
#
# _framework density 23.090693999999999
#
# number of rings (size 3 to 8) (size 9 to 14) (size 15 to 20)
#    1.200    1.400    0.000    1.800    0.000    4.000 
#    0.000    3.000    0.000    7.800    0.000    0.000 
#    0.000    0.000    0.000    0.000    0.000    0.000 
#
# Total GULP energy -111572.771763 kJ/mol
# GULP energy per Si atom -5578.638588 kJ/mol
# Density = 2.303814 g / cm^3
# Si number density = 23.090694 Si / 1000 Ang^3
#
#
#
# Elastic Constant Matrix: (Units=GPa)
#
#
# Indices 1 2 3 4 5 6 
#
# 1 75.3382 27.1226 28.0806 -0.0001 30.5534 0.0000
# 2 27.1226 107.6849 11.5967 0.0004 7.8472 0.0000
# 3 28.0806 11.5967 72.6347 0.0006 37.2855 -0.0001
# 4 -0.0001 0.0004 0.0006 10.9931 -0.0001 3.8831
# 5 30.5534 7.8472 37.2855 -0.0001 42.6698 0.0000
# 6 0.0000 0.0000 -0.0001 3.8831 0.0000 28.4131
#
#
#
# Elastic Compliance Matrix: (Units=1/GPa)
#
#
# Indices 1 2 3 4 5 6 
#
# 1 0.020365 -0.004112 -0.000216 0.000000 -0.013637 0.000000
# 2 -0.004112 0.010293 -0.001076 0.000000 0.001992 0.000000
# 3 -0.000216 -0.001076 0.025101 -0.000002 -0.021581 0.000000
# 4 0.000000 0.000000 -0.000002 0.095581 0.000001 -0.013063
# 5 -0.013637 0.001992 -0.021581 0.000001 0.051692 0.000000
# 6 0.000000 0.000000 0.000000 -0.013063 0.000000 0.036980
#
#
# Mechanical properties :
#
#
# Convention : Reuss Voigt Hill
#
# Bulk Modulus (GPa) = 22.24716 43.25086 32.74901
# Shear Modulus (GPa) = 18.81084 29.00571 23.90827
#
# Velocity S-wave (km/s) = 2.85730 3.54809 3.22127
# Velocity P-wave (km/s) = 4.53224 5.96295 5.29613
#
# Compressibility (1/GPa) = 0.04494956
#
# Stress axis : x y z
#
# Youngs Moduli (GPa) = 49.10369 97.15489 39.83906
#
# Poissons Ratio (x) = 0.39953 0.00862
# Poissons Ratio (y) = 0.20193 0.04287
# Poissons Ratio (z) = 0.01062 0.10454
#
# Static dielectric constant tensor:
#      x y z
#    x 1.958900 0.000000 0.037120 
#    y 0.000000 1.819400 0.000000 
#    z 0.037120 0.000000 1.933710 
# 
# From -- ./inp_files/358093.got.cif
#   From: 2010.05.17/outbox.cif.g08.bks.cpg/sg12_180_cif.got.tgz:358093.got - 2010.06.03 13:09:07.
