data_PCOD9216847
_publ_section_title
;
Structure prediction by ZEFSAII (Michael W. Deem and Ramdas Pophale) SiO2 
 PCOD9216847
Probable space group: C 2/M
;
_chemical_formula_sum "Si O2"
_cell_formula_units_Z 42
_cell_length_a 14.093929
_cell_length_b 10.502895
_cell_length_c 13.665473
_cell_angle_alpha 90.000000
_cell_angle_beta 113.289566
_cell_angle_gamma 90.000000
_cell_volume 1858.033890
_symmetry_space_group_name_H-M "C 2/M"
_symmetry_group_IT_number 12
_symmetry_cell_setting 'monoclinic'
loop_
_space_group_symop_operation_xyz
x,y,z
-x,y,-z
-x,-y,-z
x,-y,z
1/2+x,1/2+y,z
1/2-x,1/2+y,-z
1/2-x,1/2-y,-z
1/2+x,1/2-y,z
loop_
_atom_site_type_symbol
_atom_site_label
_atom_site_fract_x
_atom_site_fract_y
_atom_site_fract_z
Si Si1 0.391805 0.359031 0.076136
Si Si2 0.114850 0.354186 0.588021
Si Si3 0.780629 0.647763 0.647315
Si Si4 0.183757 0.696577 0.110176
Si Si5 0.500000 0.000000 0.000000
Si Si6 0.014943 0.355062 0.753847
O O1 0.435345 0.500000 0.103928
O O2 0.285127 0.346218 0.092972
O O3 0.462597 0.252189 0.156984
O O4 0.355836 0.329979 0.950629
O O5 0.146479 0.500000 0.578182
O O6 0.196002 0.251277 0.581576
O O7 0.000000 0.333702 0.500000
O O8 0.096704 0.346267 0.698616
O O9 0.748445 0.500000 0.620169
O O10 0.792999 0.678917 0.767317
O O11 0.899903 0.658414 0.662202
O O12 0.089818 0.607258 0.046326
O O13 0.019756 0.500000 0.799808
#
# Coordination Sequence:
#
# PCOD9216847 Si02
#       6
#     8   8   8   8   2   8
#     4  11  23  39  58  92 125 163 211 260 306 361
#     4  10  23  44  66  93 129 162 201 263 332 380
#     4  11  22  41  64  94 122 163 219 256 303 377
#     4  11  23  35  61  86 127 165 206 255 303 364
#     4  12  20  40  58  88 118 178 204 248 298 368
#     4  10  23  40  66  92 122 168 209 255 314 385
#
# _framework density 22.60454
#
# number of rings (size 3 to 8) (size 9 to 14) (size 15 to 20)
#    0.000    1.333    3.810    1.143    4.000    3.429 
#    0.000    3.333    0.000    0.000    0.000    0.000 
#    0.000    0.000    0.000    0.000    0.000    0.000 
#
# Total GULP energy -117152.802569 kJ/mol
# GULP energy per Si atom -5578.704884 kJ/mol
# Density = 2.255309 g / cm^3
# Si number density = 22.604540 Si / 1000 Ang^3
#
#
#
# Elastic Constant Matrix: (Units=GPa)
#
#
# Indices 1 2 3 4 5 6 
#
# 1 102.3876 60.5237 7.9867 0.0000 17.8955 0.0000
# 2 60.5237 187.4032 48.1423 0.0000 30.0073 0.0000
# 3 7.9867 48.1423 48.2407 0.0000 8.4335 0.0000
# 4 0.0000 0.0000 0.0000 32.1620 0.0000 35.2325
# 5 17.8955 30.0073 8.4335 0.0000 42.8812 0.0000
# 6 0.0000 0.0000 0.0000 35.2325 0.0000 72.4751
#
#
#
# Elastic Compliance Matrix: (Units=1/GPa)
#
#
# Indices 1 2 3 4 5 6 
#
# 1 0.012593 -0.004320 0.002710 0.000000 -0.002765 0.000000
# 2 -0.004320 0.009289 -0.008009 0.000000 -0.003122 0.000000
# 3 0.002710 -0.008009 0.028470 0.000000 -0.001126 0.000000
# 4 0.000000 0.000000 0.000000 0.066514 0.000000 -0.032335
# 5 -0.002765 -0.003122 -0.001126 0.000000 0.026880 0.000000
# 6 0.000000 0.000000 0.000000 -0.032335 0.000000 0.029517
#
#
# Mechanical properties :
#
#
# Convention : Reuss Voigt Hill
#
# Bulk Modulus (GPa) = 32.14062 63.48187 47.81125
# Shear Modulus (GPa) = 24.64614 44.26223 34.45419
#
# Velocity S-wave (km/s) = 3.30558 4.42986 3.90836
# Velocity P-wave (km/s) = 5.36830 7.36950 6.44702
#
# Compressibility (1/GPa) = 0.03111327
#
# Stress axis : x y z
#
# Youngs Moduli (GPa) = 79.41209 107.65852 35.12484
#
# Poissons Ratio (x) = 0.46512 -0.09519
# Poissons Ratio (y) = 0.34309 0.28130
# Poissons Ratio (z) = -0.21522 0.86220
#
# Static dielectric constant tensor:
#      x y z
#    x 1.632290 0.000000 0.102280 
#    y 0.000000 1.832570 0.000000 
#    z 0.102280 0.000000 1.757960 
# 
# From -- ./inp_files/267560.got.cif
#   From: 2010.05.17/outbox.cif.g08.bks.cpg/sg12_134_cif.got.tgz:267560.got - 2010.06.03 13:09:07.
