data_PCOD9216716
_publ_section_title
;
Structure prediction by ZEFSAII (Michael W. Deem and Ramdas Pophale) SiO2 
 PCOD9216716
Probable space group: C 2/M
;
_chemical_formula_sum "Si O2"
_cell_formula_units_Z 40
_cell_length_a 24.341902
_cell_length_b 13.808535
_cell_length_c 10.667138
_cell_angle_alpha 90.000000
_cell_angle_beta 31.623005
_cell_angle_gamma 90.000000
_cell_volume 1879.978786
_symmetry_space_group_name_H-M "C 2/M"
_symmetry_group_IT_number 12
_symmetry_cell_setting 'monoclinic'
loop_
_space_group_symop_operation_xyz
x,y,z
-x,y,-z
-x,-y,-z
x,-y,z
1/2+x,1/2+y,z
1/2-x,1/2+y,-z
1/2-x,1/2-y,-z
1/2+x,1/2-y,z
loop_
_atom_site_type_symbol
_atom_site_label
_atom_site_fract_x
_atom_site_fract_y
_atom_site_fract_z
Si Si1 0.103414 0.886490 0.083176
Si Si2 0.299029 0.390805 0.854666
Si Si3 0.914661 0.888871 0.274647
Si Si4 0.292182 0.241824 0.641001
Si Si5 0.414493 0.110450 0.569288
O O1 0.115369 0.863821 0.206878
O O2 0.185640 0.820386 0.847101
O O3 0.134112 0.000000 0.008312
O O4 0.986440 0.878475 0.259765
O O5 0.319054 0.500000 0.769695
O O6 0.193245 0.392289 0.142952
O O7 0.113521 0.329645 0.499955
O O8 0.825563 0.808345 0.459776
O O9 0.876312 0.000000 0.338581
O O10 0.000000 0.874186 0.000000
O O11 0.283060 0.316502 0.774822
O O12 0.500000 0.150184 0.500000
O O13 0.445409 0.000000 0.477663
#
# Coordination Sequence:
#
# PCOD9216716 Si02
#       5
#     8   8   8   8   8
#     4   9  19  36  55  76 109 141 169 214 270 323
#     4   9  18  31  48  80 112 135 166 209 264 319
#     4  10  23  40  55  75 104 141 184 228 271 307
#     4  11  20  30  58  79 105 137 180 216 255 321
#     4   9  18  30  47  75 113 142 161 200 259 321
#
# _framework density 21.276835999999999
#
# number of rings (size 3 to 8) (size 9 to 14) (size 15 to 20)
#    0.000    2.400    0.000    4.800    5.600    0.800 
#    0.000    3.000    0.000    2.400    0.000    0.000 
#    0.000    0.000    0.000    0.000    0.000    0.000 
#
# Total GULP energy -111690.477362 kJ/mol
# GULP energy per Si atom -5584.523868 kJ/mol
# Density = 2.122841 g / cm^3
# Si number density = 21.276836 Si / 1000 Ang^3
#
#
#
# Elastic Constant Matrix: (Units=GPa)
#
#
# Indices 1 2 3 4 5 6 
#
# 1 26.1927 -1.7417 -2.3542 0.0000 -11.3528 0.0000
# 2 -1.7417 127.7930 43.5402 0.0000 0.6059 0.0000
# 3 -2.3542 43.5402 63.3425 0.0000 2.0359 0.0000
# 4 0.0000 0.0000 0.0000 37.7831 0.0000 -1.2220
# 5 -11.3528 0.6059 2.0359 0.0000 22.9652 0.0000
# 6 0.0000 0.0000 0.0000 -1.2220 0.0000 15.3335
#
#
#
# Elastic Compliance Matrix: (Units=1/GPa)
#
#
# Indices 1 2 3 4 5 6 
#
# 1 0.048664 0.000256 0.000862 0.000000 0.023974 0.000000
# 2 0.000256 0.010222 -0.007033 0.000000 0.000480 0.000000
# 3 0.000862 -0.007033 0.020693 0.000000 -0.001223 0.000000
# 4 0.000000 0.000000 0.000000 0.026535 0.000000 0.002115
# 5 0.023974 0.000480 -0.001223 0.000000 0.055491 0.000000
# 6 0.000000 0.000000 0.000000 0.002115 0.000000 0.065385
#
#
# Mechanical properties :
#
#
# Convention : Reuss Voigt Hill
#
# Bulk Modulus (GPa) = 14.76015 32.91298 23.83656
# Shear Modulus (GPa) = 19.12755 27.07530 23.10143
#
# Velocity S-wave (km/s) = 3.00156 3.57112 3.29865
# Velocity P-wave (km/s) = 4.35485 5.70143 5.07302
#
# Compressibility (1/GPa) = 0.06775001
#
# Stress axis : x y z
#
# Youngs Moduli (GPa) = 20.54905 97.82414 48.32651
#
# Poissons Ratio (x) = -0.02502 -0.04167
# Poissons Ratio (y) = -0.00526 0.33986
# Poissons Ratio (z) = -0.01772 0.68796
#
# Static dielectric constant tensor:
#      x y z
#    x 1.820570 0.000000 0.015920 
#    y 0.000000 1.825590 0.000000 
#    z 0.015920 0.000000 1.787640 
# 
# From -- ./inp_files/188958.got.cif
#   From: 2010.05.17/outbox.cif.g08.bks.cpg/sg12_95_cif.got.tgz:188958.got - 2010.06.03 13:09:07.
