data_PCOD9216007
_publ_section_title
;
Structure prediction by ZEFSAII (Michael W. Deem and Ramdas Pophale) SiO2 
 PCOD9216007
Probable space group: C 2/M
;
_chemical_formula_sum "Si O2"
_cell_formula_units_Z 32
_cell_length_a 8.150109
_cell_length_b 19.323309
_cell_length_c 11.361093
_cell_angle_alpha 90.000000
_cell_angle_beta 123.411598
_cell_angle_gamma 90.000000
_cell_volume 1493.531515
_symmetry_space_group_name_H-M "C 2/M"
_symmetry_group_IT_number 12
_symmetry_cell_setting 'monoclinic'
loop_
_space_group_symop_operation_xyz
x,y,z
-x,y,-z
-x,-y,-z
x,-y,z
1/2+x,1/2+y,z
1/2-x,1/2+y,-z
1/2-x,1/2-y,-z
1/2+x,1/2-y,z
loop_
_atom_site_type_symbol
_atom_site_label
_atom_site_fract_x
_atom_site_fract_y
_atom_site_fract_z
Si Si1 0.000000 0.234184 0.000000
Si Si2 0.789276 0.000000 0.063118
Si Si3 0.646386 0.323775 0.450513
Si Si4 0.500000 0.094234 0.500000
Si Si5 0.262953 0.000000 0.230435
Si Si6 0.193017 0.844420 0.866666
O O1 0.853109 0.289662 0.879737
O O2 0.134279 0.184485 0.972861
O O3 0.742005 0.925010 0.103158
O O4 0.027674 0.000000 0.151293
O O5 0.703613 0.000000 0.896473
O O6 0.500000 0.336354 0.500000
O O7 0.750000 0.250000 0.500000
O O8 0.833203 0.371957 0.513538
O O9 0.506818 0.334509 0.283785
O O10 0.364598 0.060672 0.344450
#
# Coordination Sequence:
#
# PCOD9216007 Si02
#       6
#     4   4   8   4   4   8
#     4  10  24  42  68  94 144 176 232 306 348 426
#     4  11  22  41  74 100 141 185 241 290 357 428
#     4  12  25  42  69 101 141 186 236 289 351 427
#     4  11  24  44  70 102 140 183 240 282 358 421
#     4  10  22  42  69  98 134 193 226 289 357 427
#     4  11  24  44  67 105 134 187 239 291 358 424
#
# _framework density 21.425727999999999
#
# number of rings (size 3 to 8) (size 9 to 14) (size 15 to 20)
#    0.000    1.000    3.750    3.000    0.000    4.500 
#    0.000    5.625    0.000    0.000    0.000    0.000 
#    0.000    0.000    0.000    0.000    0.000    0.000 
#
# Total GULP energy -89133.156378 kJ/mol
# GULP energy per Si atom -5570.822274 kJ/mol
# Density = 2.137696 g / cm^3
# Si number density = 21.425728 Si / 1000 Ang^3
#
#
#
# Elastic Constant Matrix: (Units=GPa)
#
#
# Indices 1 2 3 4 5 6 
#
# 1 110.3896 39.1856 12.5358 0.0000 19.6888 0.0000
# 2 39.1856 123.0199 42.7736 0.0000 5.1252 0.0000
# 3 12.5358 42.7736 110.3123 0.0000 15.6085 0.0000
# 4 0.0000 0.0000 0.0000 1.1935 0.0000 -14.0875
# 5 19.6888 5.1252 15.6085 0.0000 31.6234 0.0000
# 6 0.0000 0.0000 0.0000 -14.0875 0.0000 -1.8782
#
#
#
# Elastic Compliance Matrix: (Units=1/GPa)
#
#
# Indices 1 2 3 4 5 6 
#
# 1 0.011545 -0.003786 0.001168 0.000000 -0.007151 0.000000
# 2 -0.003786 0.010639 -0.004069 0.000000 0.002641 0.000000
# 3 0.001168 -0.004069 0.011310 0.000000 -0.005650 0.000000
# 4 0.000000 0.000000 0.000000 0.009358 0.000000 -0.070192
# 5 -0.007151 0.002641 -0.005650 0.000000 0.038435 0.000000
# 6 0.000000 0.000000 0.000000 -0.070192 0.000000 -0.005947
#
#
# Mechanical properties :
#
#
# Convention : Reuss Voigt Hill
#
# Bulk Modulus (GPa) = 49.70004 59.19018 54.44511
# Shear Modulus (GPa) = 52.39910 22.80287 37.60099
#
# Velocity S-wave (km/s) = 4.95068 3.26586 4.19375
# Velocity P-wave (km/s) = 7.47835 6.47355 6.99402
#
# Compressibility (1/GPa) = 0.02012071
#
# Stress axis : x y z
#
# Youngs Moduli (GPa) = 86.61397 93.99091 88.42065
#
# Poissons Ratio (x) = 0.35582 -0.10325
# Poissons Ratio (y) = 0.32789 0.35977
# Poissons Ratio (z) = -0.10114 0.38244
#
# Static dielectric constant tensor:
#      x y z
#    x 1.760950 0.000000 -0.027450 
#    y 0.000000 1.861340 0.000000 
#    z -0.027450 0.000000 1.772700 
# 
# From -- ./inp_files/37727.got.cif
#   From: 2010.05.17/outbox.cif.g08.bks.cpg/sg12_19_cif.got.tgz:37727.got - 2010.06.03 13:09:07.
