data_PCOD9216288
_publ_section_title
;
Structure prediction by ZEFSAII (Michael W. Deem and Ramdas Pophale) SiO2 
 PCOD9216288
Probable space group: C 2/M
;
_chemical_formula_sum "Si O2"
_cell_formula_units_Z 42
_cell_length_a 11.296523
_cell_length_b 17.897018
_cell_length_c 9.580657
_cell_angle_alpha 90.000000
_cell_angle_beta 67.203872
_cell_angle_gamma 90.000000
_cell_volume 1785.663206
_symmetry_space_group_name_H-M "C 2/M"
_symmetry_group_IT_number 12
_symmetry_cell_setting 'monoclinic'
loop_
_space_group_symop_operation_xyz
x,y,z
-x,y,-z
-x,-y,-z
x,-y,z
1/2+x,1/2+y,z
1/2-x,1/2+y,-z
1/2-x,1/2-y,-z
1/2+x,1/2-y,z
loop_
_atom_site_type_symbol
_atom_site_label
_atom_site_fract_x
_atom_site_fract_y
_atom_site_fract_z
Si Si1 0.172938 0.322862 0.085185
Si Si2 0.159767 0.111382 0.749846
Si Si3 0.000000 0.000000 0.000000
Si Si4 0.107290 0.583221 0.555372
Si Si5 0.529563 0.293233 0.324388
Si Si6 0.728305 0.091528 0.794618
O O1 0.260032 0.369129 0.150352
O O2 0.068257 0.282689 0.228691
O O3 0.250000 0.250000 0.000000
O O4 0.150640 0.376499 0.963624
O O5 0.261787 0.078948 0.594223
O O6 0.095866 0.179725 0.699698
O O7 0.045288 0.062919 0.864812
O O8 0.055594 0.500000 0.610246
O O9 0.153145 0.610453 0.686121
O O10 0.000000 0.616730 0.500000
O O11 0.500000 0.283555 0.500000
O O12 0.639993 0.358694 0.265455
O O13 0.748263 0.000000 0.793630
#
# Coordination Sequence:
#
# PCOD9216288 Si02
#       6
#     8   8   2   8   8   8
#     4  10  25  46  64 104 152 196 240 305 382 454
#     4  12  25  44  74 111 146 199 246 319 380 446
#     4  12  24  40  76 116 150 180 244 324 390 444
#     4  10  22  45  72 109 151 189 243 309 387 457
#     4  11  24  45  74 110 151 196 255 318 375 453
#     4  10  22  43  75 110 145 194 254 315 381 446
#
# _framework density 23.520672000000001
#
# number of rings (size 3 to 8) (size 9 to 14) (size 15 to 20)
#    0.000    1.333    2.857    2.286    5.333    1.905 
#   10.286    0.000    0.000    4.000    0.000    0.000 
#    0.000    0.000    0.000    0.000    0.000    0.000 
#
# Total GULP energy -116961.840205 kJ/mol
# GULP energy per Si atom -5569.611438 kJ/mol
# Density = 2.346714 g / cm^3
# Si number density = 23.520672 Si / 1000 Ang^3
#
#
#
# Elastic Constant Matrix: (Units=GPa)
#
#
# Indices 1 2 3 4 5 6 
#
# 1 101.5652 29.1934 64.9245 0.0000 27.0250 0.0000
# 2 29.1934 94.5895 59.8309 0.0000 3.0266 0.0000
# 3 64.9245 59.8309 219.0459 0.0000 30.4879 0.0000
# 4 0.0000 0.0000 0.0000 55.7880 0.0000 -30.0377
# 5 27.0250 3.0266 30.4879 0.0000 45.3192 0.0000
# 6 0.0000 0.0000 0.0000 -30.0377 0.0000 15.4727
#
#
#
# Elastic Compliance Matrix: (Units=1/GPa)
#
#
# Indices 1 2 3 4 5 6 
#
# 1 0.013890 -0.002468 -0.002552 0.000000 -0.006401 0.000000
# 2 -0.002468 0.013331 -0.003300 0.000000 0.002801 0.000000
# 3 -0.002552 -0.003300 0.006598 0.000000 -0.002697 0.000000
# 4 0.000000 0.000000 0.000000 -0.395995 0.000000 -0.768760
# 5 -0.006401 0.002801 -0.002697 0.000000 0.027510 0.000000
# 6 0.000000 0.000000 0.000000 -0.768760 0.000000 -1.427794
#
#
# Mechanical properties :
#
#
# Convention : Reuss Voigt Hill
#
# Bulk Modulus (GPa) = 58.20614 80.34426 69.27520
# Shear Modulus (GPa) = -2.87341 40.73276 18.92968
#
# Velocity S-wave (km/s) = -1.10648 4.16599 2.84000
# Velocity P-wave (km/s) = 4.81333 7.57455 6.34594
#
# Compressibility (1/GPa) = 0.01718032
#
# Stress axis : x y z
#
# Youngs Moduli (GPa) = 71.99547 75.01182 151.55491
#
# Poissons Ratio (x) = 0.18512 0.38674
# Poissons Ratio (y) = 0.17768 0.50009
# Poissons Ratio (z) = 0.18372 0.24752
#
# Static dielectric constant tensor:
#      x y z
#    x 1.912270 0.000000 -0.056530 
#    y 0.000000 1.849870 0.000000 
#    z -0.056530 0.000000 1.884600 
# 
# From -- ./inp_files/49186.got.cif
#   From: 2010.05.17/outbox.cif.g08.bks.cpg/sg12_25_cif.got.tgz:49186.got - 2010.06.03 13:09:07.
