data_PCOD9216188
_publ_section_title
;
Structure prediction by ZEFSAII (Michael W. Deem and Ramdas Pophale) SiO2 
 PCOD9216188
Probable space group: C 2/M
;
_chemical_formula_sum "Si O2"
_cell_formula_units_Z 48
_cell_length_a 9.638448
_cell_length_b 16.818057
_cell_length_c 27.070126
_cell_angle_alpha 90.000000
_cell_angle_beta 145.822611
_cell_angle_gamma 90.000000
_cell_volume 2465.026831
_symmetry_space_group_name_H-M "C 2/M"
_symmetry_group_IT_number 12
_symmetry_cell_setting 'monoclinic'
loop_
_space_group_symop_operation_xyz
x,y,z
-x,y,-z
-x,-y,-z
x,-y,z
1/2+x,1/2+y,z
1/2-x,1/2+y,-z
1/2-x,1/2-y,-z
1/2+x,1/2-y,z
loop_
_atom_site_type_symbol
_atom_site_label
_atom_site_fract_x
_atom_site_fract_y
_atom_site_fract_z
Si Si1 0.223352 0.594294 0.901269
Si Si2 0.704480 0.591566 0.289745
Si Si3 0.227227 0.833874 0.784592
Si Si4 0.601060 0.851407 0.754750
Si Si5 0.108219 0.327886 0.477075
Si Si6 0.600447 0.407116 0.641018
O O1 0.178312 0.500000 0.894575
O O2 0.188516 0.616022 0.833471
O O3 0.014671 0.643262 0.869086
O O4 0.500000 0.612294 0.000000
O O5 0.723341 0.500000 0.311063
O O6 0.430722 0.623686 0.219569
O O7 0.780613 0.601431 0.255538
O O8 0.890547 0.645379 0.376708
O O9 0.175472 0.740415 0.771457
O O10 0.126216 0.868697 0.702857
O O11 0.304417 0.863231 0.667512
O O12 0.250000 0.250000 0.500000
O O13 0.322055 0.394402 0.541632
O O14 0.000000 0.316356 0.500000
O O15 0.663215 0.500000 0.661661
#
# Coordination Sequence:
#
# PCOD9216188 Si02
#       6
#     8   8   8   8   8   8
#     4  10  22  43  68  91 122 165 205 245 305 380
#     4  12  24  38  62  92 123 159 206 261 309 355
#     4  11  21  39  64  90 123 161 205 249 308 368
#     4  11  23  41  62  93 125 160 202 255 310 367
#     4  12  26  41  61  90 126 168 214 262 306 357
#     4  11  23  41  63  86 124 171 214 253 301 368
#
# _framework density 19.472404000000001
#
# number of rings (size 3 to 8) (size 9 to 14) (size 15 to 20)
#    0.000    0.833    1.667    8.500    2.333    1.333 
#    0.000    2.500    0.000    3.000    0.000    0.000 
#    0.000    0.000    0.000    0.000    0.000    0.000 
#
# Total GULP energy -134255.512983 kJ/mol
# GULP energy per Si atom -5593.979708 kJ/mol
# Density = 1.942808 g / cm^3
# Si number density = 19.472404 Si / 1000 Ang^3
#
#
#
# Elastic Constant Matrix: (Units=GPa)
#
#
# Indices 1 2 3 4 5 6 
#
# 1 116.0677 11.3260 34.1666 0.0000 20.6829 -0.0001
# 2 11.3260 109.2627 13.5238 -0.0001 17.8658 0.0000
# 3 34.1666 13.5238 82.2659 0.0002 24.0517 -0.0005
# 4 0.0000 -0.0001 0.0002 18.7069 -0.0001 8.7845
# 5 20.6829 17.8658 24.0517 -0.0001 28.8802 0.0000
# 6 -0.0001 0.0000 -0.0005 8.7845 0.0000 27.2599
#
#
#
# Elastic Compliance Matrix: (Units=1/GPa)
#
#
# Indices 1 2 3 4 5 6 
#
# 1 0.010349 0.000116 -0.002815 0.000000 -0.005139 0.000000
# 2 0.000116 0.010187 0.000190 0.000000 -0.006543 0.000000
# 3 -0.002815 0.000190 0.016838 0.000000 -0.012125 0.000000
# 4 0.000000 0.000000 0.000000 0.062988 0.000000 -0.020298
# 5 -0.005139 -0.006543 -0.012125 0.000000 0.052452 0.000000
# 6 0.000000 0.000000 0.000000 -0.020298 0.000000 0.043225
#
#
# Mechanical properties :
#
#
# Convention : Reuss Voigt Hill
#
# Bulk Modulus (GPa) = 30.90552 47.29214 39.09883
# Shear Modulus (GPa) = 23.60269 31.54140 27.57204
#
# Velocity S-wave (km/s) = 3.48531 4.02904 3.76700
# Velocity P-wave (km/s) = 5.66590 6.78113 6.24845
#
# Compressibility (1/GPa) = 0.03235668
#
# Stress axis : x y z
#
# Youngs Moduli (GPa) = 96.63120 98.16861 59.38833
#
# Poissons Ratio (x) = -0.01138 0.16715
# Poissons Ratio (y) = -0.01120 -0.01130
# Poissons Ratio (z) = 0.27198 -0.01867
#
# Static dielectric constant tensor:
#      x y z
#    x 1.677790 0.000000 0.014000 
#    y 0.000000 1.670860 0.000000 
#    z 0.014000 0.000000 1.670690 
# 
# From -- ./inp_files/356296.got.cif
#   From: 2010.05.17/outbox.cif.g08.bks.cpg/sg12_179_cif.got.tgz:356296.got - 2010.06.03 13:09:07.
