data_PCOD9216922
_publ_section_title
;
Structure prediction by ZEFSAII (Michael W. Deem and Ramdas Pophale) SiO2 
 PCOD9216922
Probable space group: C 2/M
;
_chemical_formula_sum "Si O2"
_cell_formula_units_Z 40
_cell_length_a 21.006726
_cell_length_b 21.262377
_cell_length_c 7.412754
_cell_angle_alpha 90.000000
_cell_angle_beta 145.119379
_cell_angle_gamma 90.000000
_cell_volume 1893.415398
_symmetry_space_group_name_H-M "C 2/M"
_symmetry_group_IT_number 12
_symmetry_cell_setting 'monoclinic'
loop_
_space_group_symop_operation_xyz
x,y,z
-x,y,-z
-x,-y,-z
x,-y,z
1/2+x,1/2+y,z
1/2-x,1/2+y,-z
1/2-x,1/2-y,-z
1/2+x,1/2-y,z
loop_
_atom_site_type_symbol
_atom_site_label
_atom_site_fract_x
_atom_site_fract_y
_atom_site_fract_z
Si Si1 0.663439 0.147827 0.234881
Si Si2 0.417649 0.826052 0.557519
Si Si3 0.832455 0.430524 0.091197
Si Si4 0.896478 0.803514 0.635869
Si Si5 0.424705 0.568731 0.500335
O O1 0.638205 0.145697 0.388907
O O2 0.779372 0.183443 0.464226
O O3 0.550682 0.177584 0.891931
O O4 0.670216 0.084588 0.129504
O O5 0.388334 0.874142 0.331170
O O6 0.377204 0.753835 0.451595
O O7 0.878259 0.500000 0.232887
O O8 0.704392 0.430641 0.854341
O O9 0.936792 0.869316 0.646955
O O10 0.000000 0.782954 0.000000
O O11 0.500000 0.573453 0.500000
O O12 0.446762 0.500000 0.638574
#
# Coordination Sequence:
#
# PCOD9216922 Si02
#       5
#     8   8   8   8   8
#     4  10  23  41  59  92 125 153 209 252 297 369
#     4  11  23  39  65  91 123 162 203 255 304 364
#     4  10  23  42  63  89 124 163 204 254 309 361
#     4  11  23  39  63  90 125 162 199 254 306 357
#     4   9  21  40  61  92 124 158 207 249 298 371
#
# _framework density 21.125845999999999
#
# number of rings (size 3 to 8) (size 9 to 14) (size 15 to 20)
#    0.000    1.800    2.000    1.200    2.800    7.600 
#    0.000    2.000    0.000    0.000    0.000    0.000 
#    0.000    0.000    0.000    0.000    0.000    0.000 
#
# Total GULP energy -111474.981686 kJ/mol
# GULP energy per Si atom -5573.749084 kJ/mol
# Density = 2.107776 g / cm^3
# Si number density = 21.125846 Si / 1000 Ang^3
#
#
#
# Elastic Constant Matrix: (Units=GPa)
#
#
# Indices 1 2 3 4 5 6 
#
# 1 121.3932 60.1990 29.1100 0.0000 20.0624 0.0000
# 2 60.1990 171.0363 29.3196 0.0000 -16.8821 0.0000
# 3 29.1100 29.3196 52.2289 0.0000 16.8204 0.0000
# 4 0.0000 0.0000 0.0000 19.9284 0.0000 -3.9993
# 5 20.0624 -16.8821 16.8204 0.0000 39.4287 0.0000
# 6 0.0000 0.0000 0.0000 -3.9993 0.0000 13.5370
#
#
#
# Elastic Compliance Matrix: (Units=1/GPa)
#
#
# Indices 1 2 3 4 5 6 
#
# 1 0.012261 -0.004763 -0.001732 0.000000 -0.007539 0.000000
# 2 -0.004763 0.009301 -0.005368 0.000000 0.008696 0.000000
# 3 -0.001732 -0.005368 0.027337 0.000000 -0.013079 0.000000
# 4 0.000000 0.000000 0.000000 0.053342 0.000000 0.015759
# 5 -0.007539 0.008696 -0.013079 0.000000 0.038501 0.000000
# 6 0.000000 0.000000 0.000000 0.015759 0.000000 0.078527
#
#
# Mechanical properties :
#
#
# Convention : Reuss Voigt Hill
#
# Bulk Modulus (GPa) = 39.72215 64.65728 52.18971
# Shear Modulus (GPa) = 19.88977 29.64748 24.76862
#
# Velocity S-wave (km/s) = 3.07170 3.75023 3.42779
# Velocity P-wave (km/s) = 5.60570 7.03026 6.35800
#
# Compressibility (1/GPa) = 0.02517487
#
# Stress axis : x y z
#
# Youngs Moduli (GPa) = 81.56110 107.51068 36.58023
#
# Poissons Ratio (x) = 0.51203 0.06336
# Poissons Ratio (y) = 0.38844 0.19635
# Poissons Ratio (z) = 0.14127 0.57707
#
# Static dielectric constant tensor:
#      x y z
#    x 1.772680 0.000000 -0.015910 
#    y 0.000000 1.807690 0.000000 
#    z -0.015910 0.000000 1.781090 
# 
# From -- ./inp_files/48579.got.cif
#   From: 2010.05.17/outbox.cif.g08.bks.cpg/sg12_25_cif.got.tgz:48579.got - 2010.06.03 13:09:07.
