data_PCOD9216816
_publ_section_title
;
Structure prediction by ZEFSAII (Michael W. Deem and Ramdas Pophale) SiO2 
 PCOD9216816
Probable space group: C 2/M
;
_chemical_formula_sum "Si O2"
_cell_formula_units_Z 32
_cell_length_a 15.633558
_cell_length_b 9.941627
_cell_length_c 24.516833
_cell_angle_alpha 90.000000
_cell_angle_beta 21.898696
_cell_angle_gamma 90.000000
_cell_volume 1421.181943
_symmetry_space_group_name_H-M "C 2/M"
_symmetry_group_IT_number 12
_symmetry_cell_setting 'monoclinic'
loop_
_space_group_symop_operation_xyz
x,y,z
-x,y,-z
-x,-y,-z
x,-y,z
1/2+x,1/2+y,z
1/2-x,1/2+y,-z
1/2-x,1/2-y,-z
1/2+x,1/2-y,z
loop_
_atom_site_type_symbol
_atom_site_label
_atom_site_fract_x
_atom_site_fract_y
_atom_site_fract_z
Si Si1 0.520427 0.148434 0.733105
Si Si2 0.110913 0.159182 0.281071
Si Si3 0.501467 0.648239 0.922246
Si Si4 0.179858 0.733746 0.354868
O O1 0.532924 0.263001 0.679628
O O2 0.702469 0.162462 0.673629
O O3 0.537401 0.000000 0.697623
O O4 0.268836 0.160510 0.910413
O O5 0.360473 0.231662 0.130668
O O6 0.054173 0.197696 0.377412
O O7 0.113195 0.000000 0.272186
O O8 0.570398 0.500000 0.902226
O O9 0.607711 0.655839 0.798497
O O10 0.000000 0.658184 0.500000
#
# Coordination Sequence:
#
# PCOD9216816 Si02
#       4
#     8   8   8   8
#     4  11  22  41  68  92 123 164 205 255 312 365
#     4  10  23  40  64  96 125 159 207 257 307 365
#     4   9  21  41  64  93 125 160 205 255 309 363
#     4  10  24  43  63  90 126 168 206 251 306 370
#
# _framework density 22.516470000000002
#
# number of rings (size 3 to 8) (size 9 to 14) (size 15 to 20)
#    1.500    0.500    0.000    3.000    0.000    8.500 
#    0.000    0.000    0.000    0.000    0.000    0.000 
#    0.000    0.000    0.000    0.000    0.000    0.000 
#
# Total GULP energy -89117.535262 kJ/mol
# GULP energy per Si atom -5569.845954 kJ/mol
# Density = 2.246522 g / cm^3
# Si number density = 22.516470 Si / 1000 Ang^3
#
#
#
# Elastic Constant Matrix: (Units=GPa)
#
#
# Indices 1 2 3 4 5 6 
#
# 1 129.9930 62.7703 55.3783 0.0057 23.4579 0.0048
# 2 62.7703 172.1968 29.8041 0.0059 10.1251 0.0036
# 3 55.3783 29.8041 82.8417 0.0056 15.0585 0.0070
# 4 0.0057 0.0059 0.0056 7.1374 0.0005 -9.3906
# 5 23.4579 10.1251 15.0585 0.0005 39.1080 -0.0033
# 6 0.0048 0.0036 0.0070 -9.3906 -0.0033 26.6097
#
#
#
# Elastic Compliance Matrix: (Units=1/GPa)
#
#
# Indices 1 2 3 4 5 6 
#
# 1 0.012897 -0.003296 -0.006650 -0.000005 -0.004322 -0.000003
# 2 -0.003296 0.007059 -0.000391 -0.000006 0.000300 -0.000002
# 3 -0.006650 -0.000391 0.017111 -0.000023 -0.002499 -0.000012
# 4 -0.000005 -0.000006 -0.000023 0.261543 0.000018 0.092299
# 5 -0.004322 0.000300 -0.002499 0.000018 0.029047 0.000011
# 6 -0.000003 -0.000002 -0.000012 0.092299 0.000011 0.070153
#
#
# Mechanical properties :
#
#
# Convention : Reuss Voigt Hill
#
# Bulk Modulus (GPa) = 60.99924 75.65965 68.32945
# Shear Modulus (GPa) = 11.79386 30.37627 21.08506
#
# Velocity S-wave (km/s) = 2.29112 3.67695 3.06343
# Velocity P-wave (km/s) = 5.84369 7.19038 6.55173
#
# Compressibility (1/GPa) = 0.01639365
#
# Stress axis : x y z
#
# Youngs Moduli (GPa) = 77.53513 141.66602 58.44046
#
# Poissons Ratio (x) = 0.46697 0.38864
# Poissons Ratio (y) = 0.25558 0.02283
# Poissons Ratio (z) = 0.51562 0.05534
#
# Static dielectric constant tensor:
#      x y z
#    x 1.867750 0.000000 0.037980 
#    y 0.000000 1.793250 0.000010 
#    z 0.037980 0.000010 1.884990 
# 
# From -- ./inp_files/212311.got.cif
#   From: 2010.05.17/outbox.cif.g08.bks.cpg/sg12_107_cif.got.tgz:212311.got - 2010.06.03 13:09:07.
