data_PCOD9216807
_publ_section_title
;
Structure prediction by ZEFSAII (Michael W. Deem and Ramdas Pophale) SiO2 
 PCOD9216807
Probable space group: C 2/M
;
_chemical_formula_sum "Si O2"
_cell_formula_units_Z 58
_cell_length_a 23.720859
_cell_length_b 15.376823
_cell_length_c 7.189904
_cell_angle_alpha 90.000000
_cell_angle_beta 92.453748
_cell_angle_gamma 90.000000
_cell_volume 2620.123336
_symmetry_space_group_name_H-M "C 2/M"
_symmetry_group_IT_number 12
_symmetry_cell_setting 'monoclinic'
loop_
_space_group_symop_operation_xyz
x,y,z
-x,y,-z
-x,-y,-z
x,-y,z
1/2+x,1/2+y,z
1/2-x,1/2+y,-z
1/2-x,1/2-y,-z
1/2+x,1/2-y,z
loop_
_atom_site_type_symbol
_atom_site_label
_atom_site_fract_x
_atom_site_fract_y
_atom_site_fract_z
Si Si1 0.817677 0.098366 0.740988
Si Si2 0.555115 0.200089 0.083519
Si Si3 0.431806 0.665956 0.641044
Si Si4 0.716676 0.399324 0.697026
Si Si5 0.158597 0.402285 0.212062
Si Si6 0.875342 0.240943 0.267144
Si Si7 0.500000 0.500000 0.500000
Si Si8 0.195263 0.598876 0.791792
O O1 0.874620 0.151667 0.752979
O O2 0.802000 0.096257 0.519979
O O3 0.759928 0.129436 0.825397
O O4 0.828769 0.000000 0.806473
O O5 0.531886 0.274803 0.217051
O O6 0.600339 0.148796 0.216354
O O7 0.500000 0.149977 0.000000
O O8 0.588835 0.236693 0.910217
O O9 0.413039 0.709743 0.444935
O O10 0.461264 0.576272 0.593725
O O11 0.716343 0.500000 0.768856
O O12 0.781205 0.366029 0.710089
O O13 0.671001 0.334834 0.780777
O O14 0.152788 0.500000 0.286129
O O15 0.168783 0.407540 0.991577
O O16 0.840585 0.328203 0.317805
O O17 0.196833 0.500000 0.713489
#
# Coordination Sequence:
#
# PCOD9216807 Si02
#       8
#     8   8   8   8   8   8   2   8
#     4   9  18  34  56  90 122 155 204 244 308 384
#     4  11  25  43  60  91 119 162 228 260 303 378
#     4  11  24  41  66  85 120 171 206 264 311 361
#     4   9  19  34  56  92 124 160 201 255 322 391
#     4   9  20  38  61  89 126 163 199 260 329 373
#     4  10  23  40  64  92 128 165 205 265 325 374
#     4  12  24  48  66  84 130 170 220 256 308 356
#     4   9  19  34  58  90 131 161 197 255 318 386
#
# _framework density 22.136362999999999
#
# number of rings (size 3 to 8) (size 9 to 14) (size 15 to 20)
#    0.000    2.207    0.690    0.828    6.759    2.483 
#    1.241    1.034    0.000    0.000    0.000    5.793 
#    0.000    0.000    0.000    0.000    0.000    0.000 
#
# Total GULP energy -161611.322485 kJ/mol
# GULP energy per Si atom -5572.804224 kJ/mol
# Density = 2.208598 g / cm^3
# Si number density = 22.136363 Si / 1000 Ang^3
#
#
#
# Elastic Constant Matrix: (Units=GPa)
#
#
# Indices 1 2 3 4 5 6 
#
# 1 111.3474 40.6210 16.4706 0.0000 3.3107 0.0000
# 2 40.6210 63.0947 9.0106 0.0000 -5.3039 0.0000
# 3 16.4706 9.0106 44.2716 0.0000 -1.1169 0.0000
# 4 0.0000 0.0000 0.0000 2.5517 0.0000 11.3784
# 5 3.3107 -5.3039 -1.1169 0.0000 25.6646 0.0000
# 6 0.0000 0.0000 0.0000 11.3784 0.0000 14.7667
#
#
#
# Elastic Compliance Matrix: (Units=1/GPa)
#
#
# Indices 1 2 3 4 5 6 
#
# 1 0.012391 -0.007816 -0.003104 0.000000 -0.003349 0.000000
# 2 -0.007816 0.021526 -0.001337 0.000000 0.005399 0.000000
# 3 -0.003104 -0.001337 0.024044 0.000000 0.001170 0.000000
# 4 0.000000 0.000000 0.000000 -0.160880 0.000000 0.123964
# 5 -0.003349 0.005399 0.001170 0.000000 0.040563 0.000000
# 6 0.000000 0.000000 0.000000 0.123964 0.000000 -0.027800
#
#
# Mechanical properties :
#
#
# Convention : Reuss Voigt Hill
#
# Bulk Modulus (GPa) = 29.89730 38.99090 34.44410
# Shear Modulus (GPa) = -91.75320 18.77070 -36.49125
#
# Velocity S-wave (km/s) = -6.44508 2.91513 -4.06455
# Velocity P-wave (km/s) = 6.46917 5.38357 2.53646
#
# Compressibility (1/GPa) = 0.03344783
#
# Stress axis : x y z
#
# Youngs Moduli (GPa) = 80.70531 46.45611 41.59013
#
# Poissons Ratio (x) = 0.36308 0.12908
# Poissons Ratio (y) = 0.63076 0.05562
# Poissons Ratio (z) = 0.25047 0.06212
#
# Static dielectric constant tensor:
#      x y z
#    x 1.829990 0.000000 -0.007000 
#    y 0.000000 1.848500 0.000000 
#    z -0.007000 0.000000 1.837310 
# 
# From -- ./inp_files/96416.got.cif
#   From: 2010.05.17/outbox.cif.g08.bks.cpg/sg12_49_cif.got.tgz:96416.got - 2010.06.03 13:09:07.
