data_PCOD9216153
_publ_section_title
;
Structure prediction by ZEFSAII (Michael W. Deem and Ramdas Pophale) SiO2 
 PCOD9216153
Probable space group: C 2/M
;
_chemical_formula_sum "Si O2"
_cell_formula_units_Z 64
_cell_length_a 28.520940
_cell_length_b 9.702927
_cell_length_c 16.432977
_cell_angle_alpha 90.000000
_cell_angle_beta 137.187300
_cell_angle_gamma 90.000000
_cell_volume 3090.570992
_symmetry_space_group_name_H-M "C 2/M"
_symmetry_group_IT_number 12
_symmetry_cell_setting 'monoclinic'
loop_
_space_group_symop_operation_xyz
x,y,z
-x,y,-z
-x,-y,-z
x,-y,z
1/2+x,1/2+y,z
1/2-x,1/2+y,-z
1/2-x,1/2-y,-z
1/2+x,1/2-y,z
loop_
_atom_site_type_symbol
_atom_site_label
_atom_site_fract_x
_atom_site_fract_y
_atom_site_fract_z
Si Si1 0.956492 0.346536 0.526330
Si Si2 0.528073 0.154798 0.901190
Si Si3 0.192712 0.156356 0.968951
Si Si4 0.079367 0.148672 0.168086
Si Si5 0.186306 0.837710 0.453072
Si Si6 0.035881 0.162126 0.750876
Si Si7 0.808607 0.335300 0.381371
Si Si8 0.834391 0.227870 0.876559
O O1 0.964618 0.500000 0.575189
O O2 0.874962 0.330320 0.407488
O O3 0.000000 0.345422 0.500000
O O4 0.987123 0.228794 0.622000
O O5 0.473540 0.226858 0.891043
O O6 0.525100 0.253465 0.819458
O O7 0.506908 0.000000 0.856015
O O8 0.607791 0.156209 0.032313
O O9 0.117009 0.180366 0.834249
O O10 0.213387 0.000000 0.979848
O O11 0.250000 0.250000 0.000000
O O12 0.181601 0.170924 0.052913
O O13 0.130435 0.161979 0.309993
O O14 0.123239 0.148654 0.140610
O O15 0.043465 0.000000 0.130226
O O16 0.250000 0.750000 0.500000
O O17 0.167206 0.749240 0.508327
O O18 0.201430 0.000000 0.490434
O O19 0.022722 0.000000 0.745665
O O20 0.793139 0.500000 0.377052
O O21 0.741098 0.260288 0.259708
#
# Coordination Sequence:
#
# PCOD9216153 Si02
#       8
#     8   8   8   8   8   8   8   8
#     4  10  23  41  67 100 131 167 213 269 330 384
#     4  11  25  43  65  96 132 170 214 268 326 380
#     4  10  23  41  66  94 123 165 214 268 325 382
#     4  11  23  41  67  95 129 174 221 262 317 387
#     4  11  23  40  63  95 132 175 219 264 320 381
#     4  10  22  43  67  92 127 171 219 265 319 390
#     4  11  23  42  66  95 132 173 218 265 318 386
#     4  11  24  42  65  94 129 170 218 264 318 385
#
# _framework density 20.708148000000001
#
# number of rings (size 3 to 8) (size 9 to 14) (size 15 to 20)
#    0.000    1.375    1.250    3.375    1.750   10.750 
#    0.000    0.000    0.000    0.000    0.000    0.000 
#    0.000    0.000    0.000    0.000    0.000    0.000 
#
# Total GULP energy -178450.578428 kJ/mol
# GULP energy per Si atom -5576.580576 kJ/mol
# Density = 2.066102 g / cm^3
# Si number density = 20.708148 Si / 1000 Ang^3
#
#
#
# Elastic Constant Matrix: (Units=GPa)
#
#
# Indices 1 2 3 4 5 6 
#
# 1 116.4876 53.2220 29.8938 0.0000 25.2617 0.0000
# 2 53.2220 126.8152 50.5659 0.0000 23.6038 0.0000
# 3 29.8938 50.5659 103.1387 0.0000 6.8631 0.0000
# 4 0.0000 0.0000 0.0000 86.0763 0.0000 -104.7541
# 5 25.2617 23.6038 6.8631 0.0000 19.6639 0.0000
# 6 0.0000 0.0000 0.0000 -104.7541 0.0000 214.2146
#
#
#
# Elastic Compliance Matrix: (Units=1/GPa)
#
#
# Indices 1 2 3 4 5 6 
#
# 1 0.012957 -0.002255 -0.001763 0.000000 -0.013323 0.000000
# 2 -0.002255 0.012784 -0.004900 0.000000 -0.010739 0.000000
# 3 -0.001763 -0.004900 0.012354 0.000000 0.003835 0.000000
# 4 0.000000 0.000000 0.000000 0.028694 0.000000 0.014032
# 5 -0.013323 -0.010739 0.003835 0.000000 0.079523 0.000000
# 6 0.000000 0.000000 0.000000 0.014032 0.000000 0.011530
#
#
# Mechanical properties :
#
#
# Convention : Reuss Voigt Hill
#
# Bulk Modulus (GPa) = 49.36054 68.20056 58.78055
# Shear Modulus (GPa) = 27.40770 78.17493 52.79132
#
# Velocity S-wave (km/s) = 3.64197 6.15083 5.05454
# Velocity P-wave (km/s) = 6.44774 9.13506 7.90641
#
# Compressibility (1/GPa) = 0.02025910
#
# Stress axis : x y z
#
# Youngs Moduli (GPa) = 77.18094 78.22112 80.94712
#
# Poissons Ratio (x) = 0.17637 0.14274
# Poissons Ratio (y) = 0.17402 0.39661
# Poissons Ratio (z) = 0.13610 0.38326
#
# Static dielectric constant tensor:
#      x y z
#    x 1.810220 0.000000 -0.024270 
#    y 0.000000 1.734010 0.000000 
#    z -0.024270 0.000000 1.772130 
# 
# From -- ./inp_files/295733.got.cif
#   From: 2010.05.17/outbox.cif.g08.bks.cpg/sg12_148_cif.got.tgz:295733.got - 2010.06.03 13:09:07.
