data_PCOD9216214
_publ_section_title
;
Structure prediction by ZEFSAII (Michael W. Deem and Ramdas Pophale) SiO2 
 PCOD9216214
Probable space group: C 2/M
;
_chemical_formula_sum "Si O2"
_cell_formula_units_Z 28
_cell_length_a 14.788628
_cell_length_b 12.213262
_cell_length_c 11.089963
_cell_angle_alpha 90.000000
_cell_angle_beta 49.964565
_cell_angle_gamma 90.000000
_cell_volume 1533.621204
_symmetry_space_group_name_H-M "C 2/M"
_symmetry_group_IT_number 12
_symmetry_cell_setting 'monoclinic'
loop_
_space_group_symop_operation_xyz
x,y,z
-x,y,-z
-x,-y,-z
x,-y,z
1/2+x,1/2+y,z
1/2-x,1/2+y,-z
1/2-x,1/2-y,-z
1/2+x,1/2-y,z
loop_
_atom_site_type_symbol
_atom_site_label
_atom_site_fract_x
_atom_site_fract_y
_atom_site_fract_z
Si Si1 0.241185 0.500000 0.009884
Si Si2 0.641441 0.881903 0.880399
Si Si3 0.638325 0.000000 0.366963
Si Si4 0.985469 0.000000 0.158401
Si Si5 0.793172 0.814253 0.345601
O O1 0.183578 0.500000 0.190524
O O2 0.193348 0.398252 0.970213
O O3 0.382725 0.500000 0.900718
O O4 0.685763 0.776772 0.774049
O O5 0.674452 0.000000 0.791988
O O6 0.500000 0.876881 0.000000
O O7 0.500000 0.000000 0.500000
O O8 0.692561 0.895309 0.386250
O O9 0.908964 0.892347 0.259757
O O10 0.000000 0.000000 0.000000
O O11 0.750000 0.750000 0.500000
#
# Coordination Sequence:
#
# PCOD9216214 Si02
#       5
#     4   8   4   4   8
#     4  10  22  43  69  93 126 171 224 273 314 402
#     4   9  22  41  67  94 124 172 219 263 324 390
#     4  11  27  42  60 102 130 168 222 274 339 377
#     4  11  22  46  65  97 130 173 224 271 325 392
#     4  11  25  41  68  92 136 174 212 274 335 392
#
# _framework density 18.257442000000001
#
# number of rings (size 3 to 8) (size 9 to 14) (size 15 to 20)
#    0.857    0.857    2.857    0.857    8.000    3.429 
#    0.000    1.429    0.000    0.000    0.000    0.000 
#    0.000    0.000    0.000    0.000    0.000    0.000 
#
# Total GULP energy -78044.769898 kJ/mol
# GULP energy per Si atom -5574.626421 kJ/mol
# Density = 1.821589 g / cm^3
# Si number density = 18.257442 Si / 1000 Ang^3
#
#
#
# Elastic Constant Matrix: (Units=GPa)
#
#
# Indices 1 2 3 4 5 6 
#
# 1 179.8515 73.2067 92.3086 0.0000 -17.4063 0.0000
# 2 73.2067 161.2952 83.7337 0.0000 1.9545 0.0000
# 3 92.3086 83.7337 132.6635 0.0000 -2.5034 0.0000
# 4 0.0000 0.0000 0.0000 34.3419 0.0000 14.6369
# 5 -17.4063 1.9545 -2.5034 0.0000 39.9055 0.0000
# 6 0.0000 0.0000 0.0000 14.6369 0.0000 7.6132
#
#
#
# Elastic Compliance Matrix: (Units=1/GPa)
#
#
# Indices 1 2 3 4 5 6 
#
# 1 0.009346 -0.001412 -0.005540 0.000000 0.003798 0.000000
# 2 -0.001412 0.009461 -0.005016 0.000000 -0.001394 0.000000
# 3 -0.005540 -0.005016 0.014535 0.000000 -0.001259 0.000000
# 4 0.000000 0.000000 0.000000 0.161248 0.000000 -0.310010
# 5 0.003798 -0.001394 -0.001259 0.000000 0.026705 0.000000
# 6 0.000000 0.000000 0.000000 -0.310010 0.000000 0.727364
#
#
# Mechanical properties :
#
#
# Convention : Reuss Voigt Hill
#
# Bulk Modulus (GPa) = 106.30780 108.03426 107.17103
# Shear Modulus (GPa) = 5.12437 31.34289 18.23363
#
# Velocity S-wave (km/s) = 1.67715 4.14783 3.16364
# Velocity P-wave (km/s) = 7.88061 9.06865 8.49542
#
# Compressibility (1/GPa) = 0.00940665
#
# Stress axis : x y z
#
# Youngs Moduli (GPa) = 106.99903 105.69430 68.80001
#
# Poissons Ratio (x) = 0.14921 0.38117
# Poissons Ratio (y) = 0.15105 0.34508
# Poissons Ratio (z) = 0.59280 0.53013
#
# Static dielectric constant tensor:
#      x y z
#    x 1.621350 0.000000 -0.001000 
#    y 0.000000 1.638490 0.000000 
#    z -0.001000 0.000000 1.645940 
# 
# From -- ./inp_files/139382.got.cif
#   From: 2010.05.17/outbox.cif.g08.bks.cpg/sg12_70_cif.got.tgz:139382.got - 2010.06.03 13:09:07.
