data_PCOD9216509
_publ_section_title
;
Structure prediction by ZEFSAII (Michael W. Deem and Ramdas Pophale) SiO2 
 PCOD9216509
Probable space group: C 2/M
;
_chemical_formula_sum "Si O2"
_cell_formula_units_Z 48
_cell_length_a 24.375193
_cell_length_b 28.190054
_cell_length_c 11.606176
_cell_angle_alpha 90.000000
_cell_angle_beta 159.543522
_cell_angle_gamma 90.000000
_cell_volume 2787.244465
_symmetry_space_group_name_H-M "C 2/M"
_symmetry_group_IT_number 12
_symmetry_cell_setting 'monoclinic'
loop_
_space_group_symop_operation_xyz
x,y,z
-x,y,-z
-x,-y,-z
x,-y,z
1/2+x,1/2+y,z
1/2-x,1/2+y,-z
1/2-x,1/2-y,-z
1/2+x,1/2-y,z
loop_
_atom_site_type_symbol
_atom_site_label
_atom_site_fract_x
_atom_site_fract_y
_atom_site_fract_z
Si Si1 0.418157 0.396287 0.154989
Si Si2 0.743407 0.895425 0.048580
Si Si3 0.960802 0.183263 0.050670
Si Si4 0.065261 0.299902 0.752770
Si Si5 0.070553 0.000000 0.822259
Si Si6 0.251893 0.000000 0.933467
Si Si7 0.300092 0.755665 0.370209
O O1 0.295485 0.387765 0.017885
O O2 0.591182 0.395449 0.555793
O O3 0.416689 0.357664 0.053267
O O4 0.390001 0.448987 0.048900
O O5 0.669346 0.948224 0.916915
O O6 0.634977 0.852612 0.876873
O O7 0.106789 0.212321 0.390255
O O8 0.000000 0.166541 0.000000
O O9 0.816776 0.220082 0.770149
O O10 0.923995 0.293479 0.564847
O O11 0.000000 0.284881 0.500000
O O12 0.199137 0.264994 0.065010
O O13 0.158015 0.000000 0.870196
O O14 0.884639 0.000000 0.431062
#
# Coordination Sequence:
#
# PCOD9216509 Si02
#       7
#     8   8   8   8   4   4   8
#     4   9  16  29  50  77 100 131 162 203 249 292
#     4   9  16  29  50  75 106 129 161 199 246 304
#     4  11  21  37  54  72  97 132 174 212 245 286
#     4  11  20  33  50  75 104 134 161 202 250 304
#     4   7  12  24  45  72 103 124 159 199 241 296
#     4   7  12  24  45  72  99 136 157 186 242 300
#     4  10  23  36  49  71 101 134 173 201 250 293
#
# _framework density 17.221309999999999
#
# number of rings (size 3 to 8) (size 9 to 14) (size 15 to 20)
#    0.000    2.500    1.667    4.000    0.000    1.333 
#    0.000    0.833    0.000    1.000    0.000    0.000 
#    0.000    4.000    0.000    0.000    0.000    0.000 
#
# Total GULP energy -133736.369600 kJ/mol
# GULP energy per Si atom -5572.348733 kJ/mol
# Density = 1.718211 g / cm^3
# Si number density = 17.221310 Si / 1000 Ang^3
#
#
#
# Elastic Constant Matrix: (Units=GPa)
#
#
# Indices 1 2 3 4 5 6 
#
# 1 53.6016 38.2308 7.3025 0.0000 -3.6150 0.0000
# 2 38.2308 122.1395 20.7097 0.0000 8.1499 0.0000
# 3 7.3025 20.7097 45.3530 0.0000 6.3463 0.0000
# 4 0.0000 0.0000 0.0000 -14.7962 0.0000 2.4079
# 5 -3.6150 8.1499 6.3463 0.0000 12.1219 0.0000
# 6 0.0000 0.0000 0.0000 2.4079 0.0000 13.2558
#
#
#
# Elastic Compliance Matrix: (Units=1/GPa)
#
#
# Indices 1 2 3 4 5 6 
#
# 1 0.026282 -0.008837 -0.002293 0.000000 0.014980 0.000000
# 2 -0.008837 0.012044 -0.002778 0.000000 -0.009278 0.000000
# 3 -0.002293 -0.002778 0.025381 0.000000 -0.012104 0.000000
# 4 0.000000 0.000000 0.000000 -0.065644 0.000000 0.011924
# 5 0.014980 -0.009278 -0.012104 0.000000 0.099538 0.000000
# 6 0.000000 0.000000 0.000000 0.011924 0.000000 0.073273
#
#
# Mechanical properties :
#
#
# Convention : Reuss Voigt Hill
#
# Bulk Modulus (GPa) = 27.86283 39.28666 33.57475
# Shear Modulus (GPa) = 23.73587 12.43971 18.08779
#
# Velocity S-wave (km/s) = 3.71655 2.69056 3.24437
# Velocity P-wave (km/s) = 5.88485 5.70215 5.79422
#
# Compressibility (1/GPa) = 0.03589011
#
# Stress axis : x y z
#
# Youngs Moduli (GPa) = 38.04908 83.03105 39.39997
#
# Poissons Ratio (x) = 0.73377 0.09033
# Poissons Ratio (y) = 0.33625 0.10946
# Poissons Ratio (z) = 0.08723 0.23068
#
# Static dielectric constant tensor:
#      x y z
#    x 1.546990 0.000000 0.007180 
#    y 0.000000 1.618260 0.000000 
#    z 0.007180 0.000000 1.611980 
# 
# From -- ./inp_files/124781.got.cif
#   From: 2010.05.17/outbox.cif.g08.bks.cpg/sg12_63_cif.got.tgz:124781.got - 2010.06.03 13:09:07.
