data_PCOD9216926
_publ_section_title
;
Structure prediction by ZEFSAII (Michael W. Deem and Ramdas Pophale) SiO2 
 PCOD9216926
Probable space group: C 2/M
;
_chemical_formula_sum "Si O2"
_cell_formula_units_Z 56
_cell_length_a 15.386699
_cell_length_b 8.698466
_cell_length_c 24.792634
_cell_angle_alpha 90.000000
_cell_angle_beta 62.110030
_cell_angle_gamma 90.000000
_cell_volume 2932.838512
_symmetry_space_group_name_H-M "C 2/M"
_symmetry_group_IT_number 12
_symmetry_cell_setting 'monoclinic'
loop_
_space_group_symop_operation_xyz
x,y,z
-x,y,-z
-x,-y,-z
x,-y,z
1/2+x,1/2+y,z
1/2-x,1/2+y,-z
1/2-x,1/2-y,-z
1/2+x,1/2-y,z
loop_
_atom_site_type_symbol
_atom_site_label
_atom_site_fract_x
_atom_site_fract_y
_atom_site_fract_z
Si Si1 0.828678 0.682526 0.227926
Si Si2 0.725637 0.179761 0.565202
Si Si3 0.070072 0.815076 0.907062
Si Si4 0.393519 0.317282 0.683572
Si Si5 0.919180 0.819943 0.307789
Si Si6 0.091364 0.678344 0.433314
Si Si7 0.151106 0.186131 0.999979
O O1 0.828523 0.500000 0.220766
O O2 0.878335 0.757730 0.161742
O O3 0.716045 0.732587 0.269756
O O4 0.884831 0.726553 0.266174
O O5 0.750000 0.250000 0.500000
O O6 0.639932 0.265921 0.622143
O O7 0.822060 0.209948 0.573050
O O8 0.703210 0.000000 0.566699
O O9 0.954561 0.767496 0.942961
O O10 0.068834 0.000000 0.908491
O O11 0.131442 0.767440 0.942934
O O12 0.392915 0.500000 0.670196
O O13 0.466897 0.297494 0.711872
O O14 0.431861 0.223342 0.621028
O O15 0.899593 0.000000 0.304326
O O16 0.123782 0.500000 0.427055
O O17 0.000000 0.696290 0.500000
O O18 0.157595 0.000000 0.000021
O O19 0.250000 0.250000 0.000000
#
# Coordination Sequence:
#
# PCOD9216926 Si02
#       7
#     8   8   8   8   8   8   8
#     4  11  23  40  61  89 123 161 205 255 302 359
#     4  12  24  39  59  85 117 152 195 249 307 366
#     4   9  20  39  60  86 123 167 204 245 301 362
#     4  10  23  41  60  84 117 155 196 247 306 364
#     4  11  23  41  63  87 117 158 200 247 310 368
#     4  11  23  38  59  87 115 148 195 247 304 368
#     4   9  19  37  62  91 125 162 205 251 299 353
#
# _framework density 19.09413
#
# number of rings (size 3 to 8) (size 9 to 14) (size 15 to 20)
#    0.000    1.571    1.429    4.286    0.000    7.429 
#    0.000    5.714    0.000    0.000    0.000    0.000 
#    0.000    0.000    0.000    0.000    0.000    0.000 
#
# Total GULP energy -156382.555492 kJ/mol
# GULP energy per Si atom -5585.091268 kJ/mol
# Density = 1.905067 g / cm^3
# Si number density = 19.094130 Si / 1000 Ang^3
#
#
#
# Elastic Constant Matrix: (Units=GPa)
#
#
# Indices 1 2 3 4 5 6 
#
# 1 118.9048 14.7547 48.6703 0.0000 -3.0693 0.0000
# 2 14.7547 20.4043 13.9240 0.0000 -7.8893 0.0000
# 3 48.6703 13.9240 128.3105 0.0000 -1.1711 0.0000
# 4 0.0000 0.0000 0.0000 32.6127 0.0000 1.8445
# 5 -3.0693 -7.8893 -1.1711 0.0000 14.6823 0.0000
# 6 0.0000 0.0000 0.0000 1.8445 0.0000 32.4222
#
#
#
# Elastic Compliance Matrix: (Units=1/GPa)
#
#
# Indices 1 2 3 4 5 6 
#
# 1 0.010465 -0.005722 -0.003359 0.000000 -0.001155 0.000000
# 2 -0.005722 0.070757 -0.005176 0.000000 0.036411 0.000000
# 3 -0.003359 -0.005176 0.009605 0.000000 -0.002717 0.000000
# 4 0.000000 0.000000 0.000000 0.030762 0.000000 -0.001750
# 5 -0.001155 0.036411 -0.002717 0.000000 0.087216 0.000000
# 6 0.000000 0.000000 0.000000 -0.001750 0.000000 0.030943
#
#
# Mechanical properties :
#
#
# Convention : Reuss Voigt Hill
#
# Bulk Modulus (GPa) = 16.04782 46.92418 31.48600
# Shear Modulus (GPa) = 17.29906 28.62814 22.96360
#
# Velocity S-wave (km/s) = 3.01323 3.87630 3.47169
# Velocity P-wave (km/s) = 4.53088 6.68302 5.70928
#
# Compressibility (1/GPa) = 0.06231377
#
# Stress axis : x y z
#
# Youngs Moduli (GPa) = 95.55368 14.13281 104.11574
#
# Poissons Ratio (x) = 0.08086 0.34976
# Poissons Ratio (y) = 0.54673 0.53888
# Poissons Ratio (z) = 0.32099 0.07315
#
# Static dielectric constant tensor:
#      x y z
#    x 1.683520 0.000000 0.009100 
#    y 0.000000 1.645780 0.000000 
#    z 0.009100 0.000000 1.665120 
# 
# From -- ./inp_files/338437.got.cif
#   From: 2010.05.17/outbox.cif.g08.bks.cpg/sg12_170_cif.got.tgz:338437.got - 2010.06.03 13:09:07.
