data_PCOD9216882
_publ_section_title
;
Structure prediction by ZEFSAII (Michael W. Deem and Ramdas Pophale) SiO2 
 PCOD9216882
Probable space group: C 2/M
;
_chemical_formula_sum "Si O2"
_cell_formula_units_Z 52
_cell_length_a 12.373868
_cell_length_b 16.326713
_cell_length_c 14.109937
_cell_angle_alpha 90.000000
_cell_angle_beta 126.530066
_cell_angle_gamma 90.000000
_cell_volume 2290.547528
_symmetry_space_group_name_H-M "C 2/M"
_symmetry_group_IT_number 12
_symmetry_cell_setting 'monoclinic'
loop_
_space_group_symop_operation_xyz
x,y,z
-x,y,-z
-x,-y,-z
x,-y,z
1/2+x,1/2+y,z
1/2-x,1/2+y,-z
1/2-x,1/2-y,-z
1/2+x,1/2-y,z
loop_
_atom_site_type_symbol
_atom_site_label
_atom_site_fract_x
_atom_site_fract_y
_atom_site_fract_z
Si Si1 0.728536 0.154998 0.963076
Si Si2 0.858112 0.318739 0.445724
Si Si3 0.044507 0.905876 0.801526
Si Si4 0.767721 0.000000 0.342054
Si Si5 0.561108 0.876935 0.129569
Si Si6 0.376830 0.637036 0.539893
Si Si7 0.158562 0.192863 0.173369
O O1 0.571609 0.134214 0.873853
O O2 0.804332 0.145312 0.902757
O O3 0.750000 0.250000 0.000000
O O4 0.802817 0.105594 0.085359
O O5 0.754261 0.365870 0.459289
O O6 0.883888 0.229855 0.506178
O O7 0.786190 0.305828 0.308398
O O8 0.000000 0.360754 0.500000
O O9 0.004529 0.881398 0.674012
O O10 0.958360 0.850424 0.827795
O O11 0.005710 0.000000 0.791778
O O12 0.674306 0.070632 0.239550
O O13 0.849226 0.071845 0.444455
O O14 0.615623 0.786127 0.133874
O O15 0.500000 0.910439 0.000000
#
# Coordination Sequence:
#
# PCOD9216882 Si02
#       7
#     8   8   8   4   8   8   8
#     4  12  25  41  71 100 130 173 229 276 328 404
#     4  10  23  40  71  96 127 174 232 273 325 398
#     4  11  24  45  68  98 138 173 224 279 337 389
#     4  12  25  46  66  96 140 179 220 271 333 396
#     4  12  25  45  68  96 135 181 216 275 338 397
#     4  10  23  45  67  96 132 178 216 279 328 390
#     4  11  23  43  68  98 131 177 223 277 334 395
#
# _framework density 22.701995
#
# number of rings (size 3 to 8) (size 9 to 14) (size 15 to 20)
#    0.000    0.923    5.385    0.692    5.385    1.231 
#    0.000    0.769    0.000    0.000    0.000    0.000 
#    0.000    0.000    0.000    0.000    0.000    0.000 
#
# Total GULP energy -145045.850321 kJ/mol
# GULP energy per Si atom -5578.686551 kJ/mol
# Density = 2.265032 g / cm^3
# Si number density = 22.701995 Si / 1000 Ang^3
#
#
#
# Elastic Constant Matrix: (Units=GPa)
#
#
# Indices 1 2 3 4 5 6 
#
# 1 91.6127 1.9747 56.8524 0.0000 3.1432 0.0000
# 2 1.9747 85.0119 25.2389 0.0000 -7.5436 0.0000
# 3 56.8524 25.2389 158.0121 0.0000 -6.9453 0.0000
# 4 0.0000 0.0000 0.0000 -12.0785 0.0000 80.9763
# 5 3.1432 -7.5436 -6.9453 0.0000 27.9514 0.0000
# 6 0.0000 0.0000 0.0000 80.9763 0.0000 -78.3041
#
#
#
# Elastic Compliance Matrix: (Units=1/GPa)
#
#
# Indices 1 2 3 4 5 6 
#
# 1 0.014371 0.001047 -0.005456 0.000000 -0.002689 0.000000
# 2 0.001047 0.012658 -0.002279 0.000000 0.002732 0.000000
# 3 -0.005456 -0.002279 0.008751 0.000000 0.002173 0.000000
# 4 0.000000 0.000000 0.000000 0.013955 0.000000 0.014431
# 5 -0.002689 0.002732 0.002173 0.000000 0.037356 0.000000
# 6 0.000000 0.000000 0.000000 0.014431 0.000000 0.002153
#
#
# Mechanical properties :
#
#
# Convention : Reuss Voigt Hill
#
# Bulk Modulus (GPa) = 44.63212 55.86318 50.24765
# Shear Modulus (GPa) = 45.41886 4.21847 24.81866
#
# Velocity S-wave (km/s) = 4.47772 1.36463 3.31000
# Velocity P-wave (km/s) = 6.81440 5.20995 6.06546
#
# Compressibility (1/GPa) = 0.02240539
#
# Stress axis : x y z
#
# Youngs Moduli (GPa) = 69.58355 79.00365 114.26947
#
# Poissons Ratio (x) = -0.08275 0.62348
# Poissons Ratio (y) = -0.07289 0.26037
# Poissons Ratio (z) = 0.37966 0.18001
#
# Static dielectric constant tensor:
#      x y z
#    x 1.942890 0.000000 0.006840 
#    y 0.000000 1.796840 0.000000 
#    z 0.006840 0.000000 1.831170 
# 
# From -- ./inp_files/216880.got.cif
#   From: 2010.05.17/outbox.cif.g08.bks.cpg/sg12_109_cif.got.tgz:216880.got - 2010.06.03 13:09:07.
