data_PCOD9216328
_publ_section_title
;
Structure prediction by ZEFSAII (Michael W. Deem and Ramdas Pophale) SiO2 
 PCOD9216328
Probable space group: C 2/M
;
_chemical_formula_sum "Si O2"
_cell_formula_units_Z 56
_cell_length_a 17.711493
_cell_length_b 28.210567
_cell_length_c 9.002376
_cell_angle_alpha 90.000000
_cell_angle_beta 143.154904
_cell_angle_gamma 90.000000
_cell_volume 2697.271196
_symmetry_space_group_name_H-M "C 2/M"
_symmetry_group_IT_number 12
_symmetry_cell_setting 'monoclinic'
loop_
_space_group_symop_operation_xyz
x,y,z
-x,y,-z
-x,-y,-z
x,-y,z
1/2+x,1/2+y,z
1/2-x,1/2+y,-z
1/2-x,1/2-y,-z
1/2+x,1/2-y,z
loop_
_atom_site_type_symbol
_atom_site_label
_atom_site_fract_x
_atom_site_fract_y
_atom_site_fract_z
Si Si1 0.249716 0.408497 0.297535
Si Si2 0.991220 0.845927 0.664337
Si Si3 0.409657 0.175095 0.465129
Si Si4 0.584218 0.824934 0.012699
Si Si5 0.195188 0.236372 0.574240
Si Si6 0.250575 0.403101 0.939311
Si Si7 0.859166 0.500000 0.357432
Si Si8 0.642943 0.000000 0.287070
O O1 0.383356 0.383962 0.538320
O O2 0.141521 0.371792 0.174724
O O3 0.218544 0.455526 0.337576
O O4 0.244668 0.411152 0.108654
O O5 0.933626 0.795578 0.635272
O O6 0.000000 0.839135 0.500000
O O7 0.122680 0.873547 0.904685
O O8 0.500000 0.204482 0.500000
O O9 0.309727 0.212609 0.358795
O O10 0.357440 0.131424 0.292116
O O11 0.494607 0.161845 0.738170
O O12 0.707644 0.794626 0.175029
O O13 0.500000 0.798061 0.000000
O O14 0.250000 0.250000 0.500000
O O15 0.219996 0.453741 0.817986
O O16 0.867871 0.500000 0.550800
O O17 0.000000 0.500000 0.500000
O O18 0.500000 0.000000 0.000000
#
# Coordination Sequence:
#
# PCOD9216328 Si02
#       8
#     8   8   8   8   8   8   4   4
#     4  10  22  44  68  96 131 178 225 278 337 410
#     4   9  22  45  69  97 134 181 234 279 336 414
#     4  12  25  40  67  96 131 178 224 284 344 400
#     4  11  23  40  63  92 135 170 226 277 336 409
#     4  11  24  41  64  97 135 181 230 283 339 406
#     4  11  24  44  70 100 137 177 227 288 346 405
#     4  12  28  45  70 109 143 172 229 292 350 411
#     4  12  26  41  72 101 133 180 225 276 348 412
#
# _framework density 20.761724000000001
#
# number of rings (size 3 to 8) (size 9 to 14) (size 15 to 20)
#    0.000    1.143    2.857    2.571    6.000    1.143 
#    0.000    5.000    0.000    0.000    0.000    0.000 
#    0.000    0.000    0.000    0.000    0.000    0.000 
#
# Total GULP energy -156021.447587 kJ/mol
# GULP energy per Si atom -5572.194557 kJ/mol
# Density = 2.071447 g / cm^3
# Si number density = 20.761724 Si / 1000 Ang^3
#
#
#
# Elastic Constant Matrix: (Units=GPa)
#
#
# Indices 1 2 3 4 5 6 
#
# 1 108.4623 35.3199 31.2132 0.0000 -1.2970 0.0000
# 2 35.3199 126.4168 27.2536 0.0000 0.3457 0.0000
# 3 31.2132 27.2536 95.3443 0.0000 6.4495 0.0000
# 4 0.0000 0.0000 0.0000 41.5457 0.0000 3.5777
# 5 -1.2970 0.3457 6.4495 0.0000 28.8781 0.0000
# 6 0.0000 0.0000 0.0000 3.5777 0.0000 39.9568
#
#
#
# Elastic Compliance Matrix: (Units=1/GPa)
#
#
# Indices 1 2 3 4 5 6 
#
# 1 0.010865 -0.002403 -0.002950 0.000000 0.001176 0.000000
# 2 -0.002403 0.008967 -0.001789 0.000000 0.000184 0.000000
# 3 -0.002950 -0.001789 0.012156 0.000000 -0.002826 0.000000
# 4 0.000000 0.000000 0.000000 0.024257 0.000000 -0.002172
# 5 0.001176 0.000184 -0.002826 0.000000 0.035310 0.000000
# 6 0.000000 0.000000 0.000000 -0.002172 0.000000 0.025222
#
#
# Mechanical properties :
#
#
# Convention : Reuss Voigt Hill
#
# Bulk Modulus (GPa) = 56.47966 57.53298 57.00632
# Shear Modulus (GPa) = 36.50650 37.83856 37.17253
#
# Velocity S-wave (km/s) = 4.19782 4.27372 4.23594
# Velocity P-wave (km/s) = 7.12450 7.21971 7.17226
#
# Compressibility (1/GPa) = 0.01770549
#
# Stress axis : x y z
#
# Youngs Moduli (GPa) = 92.03690 111.52162 82.26090
#
# Poissons Ratio (x) = 0.26798 0.24264
# Poissons Ratio (y) = 0.22116 0.14716
# Poissons Ratio (z) = 0.27147 0.19950
#
# Static dielectric constant tensor:
#      x y z
#    x 1.770050 0.000000 0.157340 
#    y 0.000000 1.763340 0.000000 
#    z 0.157340 0.000000 1.253890 
# 
# From -- ./inp_files/80154.got.cif
#   From: 2010.05.17/outbox.cif.g08.bks.cpg/sg12_41_cif.got.tgz:80154.got - 2010.06.03 13:09:07.
