data_PCOD9216595
_publ_section_title
;
Structure prediction by ZEFSAII (Michael W. Deem and Ramdas Pophale) SiO2 
 PCOD9216595
Probable space group: C 2/M
;
_chemical_formula_sum "Si O2"
_cell_formula_units_Z 32
_cell_length_a 8.613402
_cell_length_b 16.819032
_cell_length_c 11.244165
_cell_angle_alpha 90.000000
_cell_angle_beta 86.213746
_cell_angle_gamma 90.000000
_cell_volume 1625.376477
_symmetry_space_group_name_H-M "C 2/M"
_symmetry_group_IT_number 12
_symmetry_cell_setting 'monoclinic'
loop_
_space_group_symop_operation_xyz
x,y,z
-x,y,-z
-x,-y,-z
x,-y,z
1/2+x,1/2+y,z
1/2-x,1/2+y,-z
1/2-x,1/2-y,-z
1/2+x,1/2-y,z
loop_
_atom_site_type_symbol
_atom_site_label
_atom_site_fract_x
_atom_site_fract_y
_atom_site_fract_z
Si Si1 0.923092 0.000000 0.818013
Si Si2 0.241581 0.500000 0.068950
Si Si3 0.802176 0.739559 0.272906
Si Si4 0.038573 0.861675 0.369064
Si Si5 0.427547 0.167023 0.877479
O O1 0.913746 0.075594 0.733126
O O2 0.094711 0.000000 0.868829
O O3 0.794172 0.000000 0.927984
O O4 0.144784 0.579315 0.104498
O O5 0.680746 0.700003 0.368277
O O6 0.704045 0.773441 0.165852
O O7 0.891894 0.812833 0.327040
O O8 0.930628 0.676610 0.222215
O O9 0.000000 0.896007 0.500000
O O10 0.500000 0.191686 0.000000
#
# Coordination Sequence:
#
# PCOD9216595 Si02
#       5
#     4   4   8   8   8
#     4  11  23  40  61  90 117 161 201 242 299 355
#     4  11  23  40  61  86 127 156 194 248 299 356
#     4  10  23  38  61  93 121 150 205 242 298 353
#     4  11  22  42  64  87 120 160 202 246 292 348
#     4  11  21  38  60  90 124 159 191 244 300 358
#
# _framework density 19.687745
#
# number of rings (size 3 to 8) (size 9 to 14) (size 15 to 20)
#    0.000    1.250    2.500    3.750    0.000    3.000 
#    0.000    0.000    0.000    1.500    0.000    0.000 
#    0.000    0.000    0.000    0.000    0.000    0.000 
#
# Total GULP energy -89388.395270 kJ/mol
# GULP energy per Si atom -5586.774704 kJ/mol
# Density = 1.964294 g / cm^3
# Si number density = 19.687745 Si / 1000 Ang^3
#
#
#
# Elastic Constant Matrix: (Units=GPa)
#
#
# Indices 1 2 3 4 5 6 
#
# 1 98.2727 38.1407 19.6429 0.0000 1.4724 0.0000
# 2 38.1407 91.4479 33.2384 0.0000 -10.5536 0.0000
# 3 19.6429 33.2384 84.2937 0.0000 -2.5469 0.0000
# 4 0.0000 0.0000 0.0000 20.8271 0.0000 -14.3109
# 5 1.4724 -10.5536 -2.5469 0.0000 14.6154 0.0000
# 6 0.0000 0.0000 0.0000 -14.3109 0.0000 42.8861
#
#
#
# Elastic Compliance Matrix: (Units=1/GPa)
#
#
# Indices 1 2 3 4 5 6 
#
# 1 0.012593 -0.005548 -0.000911 0.000000 -0.005434 0.000000
# 2 -0.005548 0.016320 -0.004795 0.000000 0.011508 0.000000
# 3 -0.000911 -0.004795 0.013938 0.000000 -0.000942 0.000000
# 4 0.000000 0.000000 0.000000 0.062299 0.000000 0.020789
# 5 -0.005434 0.011508 -0.000942 0.000000 0.077114 0.000000
# 6 0.000000 0.000000 0.000000 0.020789 0.000000 0.030255
#
#
# Mechanical properties :
#
#
# Convention : Reuss Voigt Hill
#
# Bulk Modulus (GPa) = 49.15709 50.67317 49.91513
# Shear Modulus (GPa) = 20.67775 27.86521 24.27148
#
# Velocity S-wave (km/s) = 3.24433 3.76621 3.51497
# Velocity P-wave (km/s) = 6.24954 6.68631 6.47161
#
# Compressibility (1/GPa) = 0.02034295
#
# Stress axis : x y z
#
# Youngs Moduli (GPa) = 79.41234 61.27487 71.74776
#
# Poissons Ratio (x) = 0.33995 0.06536
# Poissons Ratio (y) = 0.44058 0.34401
# Poissons Ratio (z) = 0.07234 0.29379
#
# Static dielectric constant tensor:
#      x y z
#    x 1.691120 0.000000 0.001870 
#    y 0.000000 1.682420 0.000000 
#    z 0.001870 0.000000 1.677060 
# 
# From -- ./inp_files/37570.got.cif
#   From: 2010.05.17/outbox.cif.g08.bks.cpg/sg12_19_cif.got.tgz:37570.got - 2010.06.03 13:09:07.
