data_PCOD9216251
_publ_section_title
;
Structure prediction by ZEFSAII (Michael W. Deem and Ramdas Pophale) SiO2 
 PCOD9216251
Probable space group: C 2/M
;
_chemical_formula_sum "Si O2"
_cell_formula_units_Z 42
_cell_length_a 19.437378
_cell_length_b 7.321634
_cell_length_c 12.298580
_cell_angle_alpha 90.000000
_cell_angle_beta 67.161985
_cell_angle_gamma 90.000000
_cell_volume 1613.042770
_symmetry_space_group_name_H-M "C 2/M"
_symmetry_group_IT_number 12
_symmetry_cell_setting 'monoclinic'
loop_
_space_group_symop_operation_xyz
x,y,z
-x,y,-z
-x,-y,-z
x,-y,z
1/2+x,1/2+y,z
1/2-x,1/2+y,-z
1/2-x,1/2-y,-z
1/2+x,1/2-y,z
loop_
_atom_site_type_symbol
_atom_site_label
_atom_site_fract_x
_atom_site_fract_y
_atom_site_fract_z
Si Si1 0.477182 0.780788 0.210039
Si Si2 0.798386 0.293972 0.140518
Si Si3 0.270990 0.716107 0.610696
Si Si4 0.646875 0.218639 0.116676
Si Si5 0.564873 0.212007 0.534922
Si Si6 0.000000 0.000000 0.000000
O O1 0.562385 0.750296 0.200902
O O2 0.428911 0.721369 0.344500
O O3 0.471933 0.660532 0.105433
O O4 0.468755 0.000000 0.193185
O O5 0.827676 0.500000 0.134481
O O6 0.787151 0.208478 0.265156
O O7 0.713266 0.298965 0.146820
O O8 0.843571 0.209116 0.013006
O O9 0.270722 0.500000 0.628422
O O10 0.250000 0.750000 0.500000
O O11 0.355716 0.780270 0.572793
O O12 0.659944 0.000000 0.107440
O O13 0.500000 0.293900 0.500000
O O14 0.544702 0.000000 0.563329
#
# Coordination Sequence:
#
# PCOD9216251 Si02
#       6
#     8   8   8   8   8   2
#     4  10  23  42  64  94 131 168 218 278 328 396
#     4   9  19  35  58  89 122 158 205 260 316 385
#     4  11  24  40  60  92 131 172 217 264 323 394
#     4   9  18  36  61  88 120 158 204 263 329 376
#     4  10  22  43  70  97 129 173 221 278 340 397
#     4  12  26  40  62  90 124 172 222 254 338 394
#
# _framework density 26.037748000000001
#
# number of rings (size 3 to 8) (size 9 to 14) (size 15 to 20)
#    0.000    2.095    0.000    2.000    2.667    4.952 
#    0.000    3.810    0.000    0.000    0.000    0.000 
#    0.000    0.000    0.000    0.000    0.000    0.000 
#
# Total GULP energy -117220.062459 kJ/mol
# GULP energy per Si atom -5581.907736 kJ/mol
# Density = 2.597848 g / cm^3
# Si number density = 26.037748 Si / 1000 Ang^3
#
#
#
# Elastic Constant Matrix: (Units=GPa)
#
#
# Indices 1 2 3 4 5 6 
#
# 1 84.6455 -16.8846 -9.3441 0.0000 8.8401 0.0000
# 2 -16.8846 139.7992 21.8714 0.0000 8.2099 0.0000
# 3 -9.3441 21.8714 170.5131 0.0000 8.3424 0.0000
# 4 0.0000 0.0000 0.0000 6.6147 0.0000 2.4975
# 5 8.8401 8.2099 8.3424 0.0000 40.3787 0.0000
# 6 0.0000 0.0000 0.0000 2.4975 0.0000 6.8591
#
#
#
# Elastic Compliance Matrix: (Units=1/GPa)
#
#
# Indices 1 2 3 4 5 6 
#
# 1 0.012539 0.001603 0.000638 0.000000 -0.003203 0.000000
# 2 0.001603 0.007573 -0.000799 0.000000 -0.001726 0.000000
# 3 0.000638 -0.000799 0.006062 0.000000 -0.001230 0.000000
# 4 0.000000 0.000000 0.000000 0.175276 0.000000 -0.063821
# 5 -0.003203 -0.001726 -0.001230 0.000000 0.026072 0.000000
# 6 0.000000 0.000000 0.000000 -0.063821 0.000000 0.169030
#
#
# Mechanical properties :
#
#
# Convention : Reuss Voigt Hill
#
# Bulk Modulus (GPa) = 34.41465 42.91592 38.66529
# Shear Modulus (GPa) = 12.39608 37.39150 24.89379
#
# Velocity S-wave (km/s) = 2.18430 3.79364 3.09539
# Velocity P-wave (km/s) = 4.42803 5.97552 5.25901
#
# Compressibility (1/GPa) = 0.02905739
#
# Stress axis : x y z
#
# Youngs Moduli (GPa) = 79.75372 132.04743 164.95398
#
# Poissons Ratio (x) = -0.21162 -0.10528
# Poissons Ratio (y) = -0.12781 0.13182
# Poissons Ratio (z) = -0.05090 0.10552
#
# Static dielectric constant tensor:
#      x y z
#    x 1.991260 0.000000 0.074100 
#    y 0.000000 1.983290 0.000000 
#    z 0.074100 0.000000 2.028170 
# 
# From -- ./inp_files/163019.got.cif
#   From: 2010.05.17/outbox.cif.g08.bks.cpg/sg12_82_cif.got.tgz:163019.got - 2010.06.03 13:09:07.
