data_PCOD9216323
_publ_section_title
;
Structure prediction by ZEFSAII (Michael W. Deem and Ramdas Pophale) SiO2 
 PCOD9216323
Probable space group: C 2/M
;
_chemical_formula_sum "Si O2"
_cell_formula_units_Z 48
_cell_length_a 9.967410
_cell_length_b 26.208069
_cell_length_c 11.212128
_cell_angle_alpha 90.000000
_cell_angle_beta 113.095172
_cell_angle_gamma 90.000000
_cell_volume 2694.167273
_symmetry_space_group_name_H-M "C 2/M"
_symmetry_group_IT_number 12
_symmetry_cell_setting 'monoclinic'
loop_
_space_group_symop_operation_xyz
x,y,z
-x,y,-z
-x,-y,-z
x,-y,z
1/2+x,1/2+y,z
1/2-x,1/2+y,-z
1/2-x,1/2-y,-z
1/2+x,1/2-y,z
loop_
_atom_site_type_symbol
_atom_site_label
_atom_site_fract_x
_atom_site_fract_y
_atom_site_fract_z
Si Si1 0.130398 0.292333 0.294548
Si Si2 0.185522 0.697216 0.925555
Si Si3 0.151930 0.178027 0.266373
Si Si4 0.323845 0.646646 0.184097
Si Si5 0.145863 0.380767 0.487307
Si Si6 0.846982 0.060323 0.379984
O O1 0.156343 0.233328 0.331728
O O2 0.264907 0.314282 0.264601
O O3 0.108820 0.329789 0.398287
O O4 0.984092 0.295839 0.163847
O O5 0.271223 0.684792 0.834105
O O6 0.250000 0.750000 0.000000
O O7 0.217007 0.653964 0.034900
O O8 0.237327 0.136800 0.373997
O O9 0.984016 0.162415 0.197261
O O10 0.332023 0.592595 0.253413
O O11 0.219155 0.420586 0.423030
O O12 0.000000 0.399576 0.500000
O O13 0.000000 0.072961 0.500000
O O14 0.842127 0.000000 0.358431
#
# Coordination Sequence:
#
# PCOD9216323 Si02
#       6
#     8   8   8   8   8   8
#     4  11  22  36  55  83 128 166 193 232 284 351
#     4  12  22  36  56  83 127 170 195 225 279 356
#     4  12  21  37  55  86 124 164 196 234 285 348
#     4  11  23  35  60  88 117 154 205 237 284 352
#     4  11  23  39  58  90 117 152 197 253 299 347
#     4  10  22  44  68  85 109 150 201 260 309 346
#
# _framework density 17.816265999999999
#
# number of rings (size 3 to 8) (size 9 to 14) (size 15 to 20)
#    0.000    0.833    6.667    1.500    0.000    0.333 
#    0.000    0.000    0.000   11.000    0.000    0.000 
#    0.000    0.000    0.000    0.000    0.000    0.000 
#
# Total GULP energy -134118.498485 kJ/mol
# GULP energy per Si atom -5588.270770 kJ/mol
# Density = 1.777572 g / cm^3
# Si number density = 17.816266 Si / 1000 Ang^3
#
#
#
# Elastic Constant Matrix: (Units=GPa)
#
#
# Indices 1 2 3 4 5 6 
#
# 1 78.3312 16.9911 -1.7318 0.0000 2.2110 0.0000
# 2 16.9911 70.7524 20.6374 0.0000 -4.8417 0.0000
# 3 -1.7318 20.6374 61.8978 0.0000 3.1822 0.0000
# 4 0.0000 0.0000 0.0000 24.1862 0.0000 2.1125
# 5 2.2110 -4.8417 3.1822 0.0000 30.3903 0.0000
# 6 0.0000 0.0000 0.0000 2.1125 0.0000 12.0762
#
#
#
# Elastic Compliance Matrix: (Units=1/GPa)
#
#
# Indices 1 2 3 4 5 6 
#
# 1 0.013711 -0.003939 0.001790 0.000000 -0.001813 0.000000
# 2 -0.003939 0.017076 -0.005990 0.000000 0.003634 0.000000
# 3 0.001790 -0.005990 0.018358 0.000000 -0.003007 0.000000
# 4 0.000000 0.000000 0.000000 0.041987 0.000000 -0.007345
# 5 -0.001813 0.003634 -0.003007 0.000000 0.033931 0.000000
# 6 0.000000 0.000000 0.000000 -0.007345 0.000000 0.084093
#
#
# Mechanical properties :
#
#
# Convention : Reuss Voigt Hill
#
# Bulk Modulus (GPa) = 30.42618 31.41943 30.92281
# Shear Modulus (GPa) = 21.15154 25.00285 23.07720
#
# Velocity S-wave (km/s) = 3.44932 3.75022 3.60292
# Velocity P-wave (km/s) = 5.74270 6.03538 5.89086
#
# Compressibility (1/GPa) = 0.03286643
#
# Stress axis : x y z
#
# Youngs Moduli (GPa) = 72.93173 58.56278 54.47348
#
# Poissons Ratio (x) = 0.23068 -0.09751
# Poissons Ratio (y) = 0.28728 0.32631
# Poissons Ratio (z) = -0.13056 0.35081
#
# Static dielectric constant tensor:
#      x y z
#    x 1.608570 0.000000 -0.001380 
#    y 0.000000 1.582840 0.000000 
#    z -0.001380 0.000000 1.615720 
# 
# From -- ./inp_files/122417.got.cif
#   From: 2010.05.17/outbox.cif.g08.bks.cpg/sg12_62_cif.got.tgz:122417.got - 2010.06.03 13:09:07.
