data_PCOD9216958
_publ_section_title
;
Structure prediction by ZEFSAII (Michael W. Deem and Ramdas Pophale) SiO2 
 PCOD9216958
Probable space group: C 2/M
;
_chemical_formula_sum "Si O2"
_cell_formula_units_Z 60
_cell_length_a 22.361177
_cell_length_b 15.304432
_cell_length_c 7.592862
_cell_angle_alpha 90.000000
_cell_angle_beta 83.668284
_cell_angle_gamma 90.000000
_cell_volume 2582.617555
_symmetry_space_group_name_H-M "C 2/M"
_symmetry_group_IT_number 12
_symmetry_cell_setting 'monoclinic'
loop_
_space_group_symop_operation_xyz
x,y,z
-x,y,-z
-x,-y,-z
x,-y,z
1/2+x,1/2+y,z
1/2-x,1/2+y,-z
1/2-x,1/2-y,-z
1/2+x,1/2-y,z
loop_
_atom_site_type_symbol
_atom_site_label
_atom_site_fract_x
_atom_site_fract_y
_atom_site_fract_z
Si Si1 0.166770 0.843077 0.685555
Si Si2 0.318538 0.160816 0.132745
Si Si3 0.440836 0.900179 0.932549
Si Si4 0.211797 0.403503 0.492676
Si Si5 0.579316 0.899064 0.465927
Si Si6 0.500000 0.742984 0.500000
Si Si7 0.195579 0.099248 0.052377
Si Si8 0.592045 0.395274 0.371264
O O1 0.163624 0.747193 0.766929
O O2 0.230961 0.846427 0.566560
O O3 0.118794 0.875126 0.557579
O O4 0.169489 0.898278 0.864164
O O5 0.376572 0.139308 0.000140
O O6 0.305256 0.095633 0.297751
O O7 0.255918 0.157171 0.046651
O O8 0.437766 0.000000 0.999916
O O9 0.500000 0.858496 0.000000
O O10 0.447333 0.902385 0.721099
O O11 0.229214 0.500000 0.425995
O O12 0.149687 0.379464 0.421206
O O13 0.548639 0.813406 0.561114
O O14 0.573643 0.000000 0.540107
O O15 0.462131 0.674847 0.633021
O O16 0.144524 0.123701 0.211482
O O17 0.213339 0.000000 0.086703
O O18 0.577064 0.500000 0.363510
#
# Coordination Sequence:
#
# PCOD9216958 Si02
#       8
#     8   8   8   8   8   4   8   8
#     4  12  25  42  71 106 139 174 225 291 349 410
#     4  12  24  39  66 103 139 174 227 283 346 413
#     4  10  23  41  61  89 136 185 227 276 337 413
#     4  11  22  40  67  98 138 178 220 275 348 422
#     4  10  24  42  66 100 136 181 231 279 346 424
#     4  12  26  44  74  92 138 184 234 294 344 402
#     4  11  24  44  71  99 137 180 225 284 352 416
#     4  11  26  48  71 102 137 185 238 288 347 408
#
# _framework density 23.232244000000001
#
# number of rings (size 3 to 8) (size 9 to 14) (size 15 to 20)
#    0.000    0.933    1.333    5.200    7.467    1.067 
#    0.000    0.667    0.000    2.400    0.000    0.000 
#    0.000    0.000    0.000    0.000    0.000    0.000 
#
# Total GULP energy -167512.209899 kJ/mol
# GULP energy per Si atom -5583.740330 kJ/mol
# Density = 2.317937 g / cm^3
# Si number density = 23.232244 Si / 1000 Ang^3
#
#
#
# Elastic Constant Matrix: (Units=GPa)
#
#
# Indices 1 2 3 4 5 6 
#
# 1 72.0690 44.6848 32.0487 0.0000 -11.7819 0.0000
# 2 44.6848 130.7181 18.1320 0.0000 -34.3048 0.0000
# 3 32.0487 18.1320 83.1602 0.0000 -1.8470 0.0000
# 4 0.0000 0.0000 0.0000 19.9650 0.0000 -5.4573
# 5 -11.7819 -34.3048 -1.8470 0.0000 42.2418 0.0000
# 6 0.0000 0.0000 0.0000 -5.4573 0.0000 30.3491
#
#
#
# Elastic Compliance Matrix: (Units=1/GPa)
#
#
# Indices 1 2 3 4 5 6 
#
# 1 0.020628 -0.005970 -0.006634 0.000000 0.000615 0.000000
# 2 -0.005970 0.011775 -0.000091 0.000000 0.007893 0.000000
# 3 -0.006634 -0.000091 0.014573 0.000000 -0.001287 0.000000
# 4 0.000000 0.000000 0.000000 0.052677 0.000000 0.009472
# 5 0.000615 0.007893 -0.001287 0.000000 0.030199 0.000000
# 6 0.000000 0.000000 0.000000 0.009472 0.000000 0.034653
#
#
# Mechanical properties :
#
#
# Convention : Reuss Voigt Hill
#
# Bulk Modulus (GPa) = 46.32877 52.85316 49.59096
# Shear Modulus (GPa) = 25.36899 31.24995 28.30947
#
# Velocity S-wave (km/s) = 3.30809 3.67155 3.49455
# Velocity P-wave (km/s) = 5.88015 6.38538 6.13796
#
# Compressibility (1/GPa) = 0.02158486
#
# Stress axis : x y z
#
# Youngs Moduli (GPa) = 48.47810 84.92619 68.61945
#
# Poissons Ratio (x) = 0.50699 0.45525
# Poissons Ratio (y) = 0.28940 0.00627
# Poissons Ratio (z) = 0.32162 0.00776
#
# Static dielectric constant tensor:
#      x y z
#    x 1.932700 0.000000 0.025230 
#    y 0.000000 1.963860 0.000000 
#    z 0.025230 0.000000 1.859270 
# 
# From -- ./inp_files/96830.got.cif
#   From: 2010.05.17/outbox.cif.g08.bks.cpg/sg12_49_cif.got.tgz:96830.got - 2010.06.03 13:09:07.
