data_PCOD9216117
_publ_section_title
;
Structure prediction by ZEFSAII (Michael W. Deem and Ramdas Pophale) SiO2 
 PCOD9216117
Probable space group: C 2/M
;
_chemical_formula_sum "Si O2"
_cell_formula_units_Z 44
_cell_length_a 8.001255
_cell_length_b 23.210646
_cell_length_c 12.039564
_cell_angle_alpha 90.000000
_cell_angle_beta 68.143049
_cell_angle_gamma 90.000000
_cell_volume 2075.192881
_symmetry_space_group_name_H-M "C 2/M"
_symmetry_group_IT_number 12
_symmetry_cell_setting 'monoclinic'
loop_
_space_group_symop_operation_xyz
x,y,z
-x,y,-z
-x,-y,-z
x,-y,z
1/2+x,1/2+y,z
1/2-x,1/2+y,-z
1/2-x,1/2-y,-z
1/2+x,1/2-y,z
loop_
_atom_site_type_symbol
_atom_site_label
_atom_site_fract_x
_atom_site_fract_y
_atom_site_fract_z
Si Si1 0.013358 0.671952 0.223527
Si Si2 0.866820 0.129055 0.271828
Si Si3 0.585606 0.712117 0.093958
Si Si4 0.191827 0.316442 0.515112
Si Si5 0.252719 0.500000 0.987646
Si Si6 0.650117 0.500000 0.796920
Si Si7 0.500000 0.100784 0.000000
O O1 0.853956 0.660800 0.350613
O O2 0.003575 0.638660 0.109804
O O3 0.204145 0.657342 0.236610
O O4 0.997223 0.738859 0.192886
O O5 0.832784 0.148824 0.405927
O O6 0.839581 0.060563 0.268602
O O7 0.054476 0.155430 0.177570
O O8 0.500000 0.692587 0.000000
O O9 0.750000 0.750000 0.000000
O O10 0.250000 0.250000 0.500000
O O11 0.000000 0.320032 0.500000
O O12 0.456545 0.500000 0.901908
O O13 0.165795 0.442685 0.961133
O O14 0.218246 0.500000 0.128874
#
# Coordination Sequence:
#
# PCOD9216117 Si02
#       7
#     8   8   8   8   4   4   4
#     4  11  22  39  66 100 129 168 214 279 333 389
#     4  11  24  43  65  97 134 171 227 259 336 390
#     4  12  24  34  60  96 131 160 209 272 329 386
#     4  10  22  43  65  94 129 174 218 268 330 393
#     4  10  24  40  64  91 131 177 217 260 329 395
#     4  11  24  42  67  94 135 174 216 270 318 402
#     4  11  22  42  64  96 130 167 218 276 328 383
#
# _framework density 21.202849000000001
#
# number of rings (size 3 to 8) (size 9 to 14) (size 15 to 20)
#    0.000    1.091    6.364    0.000    5.091    0.000 
#    3.273    5.909    0.000    1.091    0.000    0.000 
#    0.000    0.000    0.000    0.000    0.000    0.000 
#
# Total GULP energy -122669.212834 kJ/mol
# GULP energy per Si atom -5575.873311 kJ/mol
# Density = 2.115459 g / cm^3
# Si number density = 21.202849 Si / 1000 Ang^3
#
#
#
# Elastic Constant Matrix: (Units=GPa)
#
#
# Indices 1 2 3 4 5 6 
#
# 1 21.6428 7.2419 24.3528 0.0000 -3.9625 0.0000
# 2 7.2419 142.0926 44.1570 0.0000 5.5695 0.0000
# 3 24.3528 44.1570 153.7791 0.0000 1.2648 0.0000
# 4 0.0000 0.0000 0.0000 45.7283 0.0000 2.5649
# 5 -3.9625 5.5695 1.2648 0.0000 25.4012 0.0000
# 6 0.0000 0.0000 0.0000 2.5649 0.0000 25.0596
#
#
#
# Elastic Compliance Matrix: (Units=1/GPa)
#
#
# Indices 1 2 3 4 5 6 
#
# 1 0.058499 -0.000503 -0.009199 0.000000 0.009694 0.000000
# 2 -0.000503 0.007796 -0.002145 0.000000 -0.001681 0.000000
# 3 -0.009199 -0.002145 0.008587 0.000000 -0.001392 0.000000
# 4 0.000000 0.000000 0.000000 0.021995 0.000000 -0.002251
# 5 0.009694 -0.001681 -0.001392 0.000000 0.041318 0.000000
# 6 0.000000 0.000000 0.000000 -0.002251 0.000000 0.040135
#
#
# Mechanical properties :
#
#
# Convention : Reuss Voigt Hill
#
# Bulk Modulus (GPa) = 19.53594 52.11310 35.82452
# Shear Modulus (GPa) = 22.82196 35.35534 29.08865
#
# Velocity S-wave (km/s) = 3.28436 4.08791 3.70796
# Velocity P-wave (km/s) = 4.85968 6.84931 5.93841
#
# Compressibility (1/GPa) = 0.05118772
#
# Stress axis : x y z
#
# Youngs Moduli (GPa) = 17.09426 128.27451 116.45379
#
# Poissons Ratio (x) = 0.06447 1.07131
# Poissons Ratio (y) = 0.00859 0.24981
# Poissons Ratio (z) = 0.15726 0.27516
#
# Static dielectric constant tensor:
#      x y z
#    x 1.915430 0.000000 -0.019080 
#    y 0.000000 1.762190 0.000000 
#    z -0.019080 0.000000 1.784510 
# 
# From -- ./inp_files/122401.got.cif
#   From: 2010.05.17/outbox.cif.g08.bks.cpg/sg12_62_cif.got.tgz:122401.got - 2010.06.03 13:09:07.
