data_PCOD9216140
_publ_section_title
;
Structure prediction by ZEFSAII (Michael W. Deem and Ramdas Pophale) SiO2 
 PCOD9216140
Probable space group: C 2/M
;
_chemical_formula_sum "Si O2"
_cell_formula_units_Z 30
_cell_length_a 13.766323
_cell_length_b 10.031530
_cell_length_c 24.181298
_cell_angle_alpha 90.000000
_cell_angle_beta 24.665288
_cell_angle_gamma 90.000000
_cell_volume 1393.575133
_symmetry_space_group_name_H-M "C 2/M"
_symmetry_group_IT_number 12
_symmetry_cell_setting 'monoclinic'
loop_
_space_group_symop_operation_xyz
x,y,z
-x,y,-z
-x,-y,-z
x,-y,z
1/2+x,1/2+y,z
1/2-x,1/2+y,-z
1/2-x,1/2-y,-z
1/2+x,1/2-y,z
loop_
_atom_site_type_symbol
_atom_site_label
_atom_site_fract_x
_atom_site_fract_y
_atom_site_fract_z
Si Si1 0.553507 0.000000 0.406512
Si Si2 0.726172 0.500000 0.134104
Si Si3 0.322086 0.782692 0.899722
Si Si4 0.154361 0.789410 0.364367
Si Si5 0.000000 0.000000 0.000000
Si Si6 0.443670 0.500000 0.392628
O O1 0.500000 0.000000 0.500000
O O2 0.680935 0.137820 0.329429
O O3 0.319369 0.000000 0.492071
O O4 0.663912 0.638065 0.136695
O O5 0.599987 0.500000 0.257736
O O6 0.000000 0.500000 0.000000
O O7 0.584853 0.840918 0.762005
O O8 0.250000 0.750000 0.000000
O O9 0.145175 0.881936 0.960080
O O10 0.000000 0.790832 0.500000
O O11 0.011224 0.873296 0.394202
#
# Coordination Sequence:
#
# PCOD9216140 Si02
#       6
#     4   4   8   8   2   4
#     4  10  22  43  67 100 136 186 233 289 364 430
#     4  12  23  44  70 101 145 190 242 300 370 445
#     4  12  26  50  74 111 150 194 254 308 379 455
#     4  11  24  46  70 106 147 188 242 307 365 444
#     4  12  28  48  80 110 146 202 252 308 388 454
#     4  12  24  42  70 106 142 190 237 299 376 436
#
# _framework density 21.527365
#
# number of rings (size 3 to 8) (size 9 to 14) (size 15 to 20)
#    0.000    0.533    1.333    8.400    0.000    0.000 
#    4.800    0.000    0.000    0.000    0.000    0.000 
#    0.000    0.000    0.000    0.000    0.000    0.000 
#
# Total GULP energy -83650.327318 kJ/mol
# GULP energy per Si atom -5576.688488 kJ/mol
# Density = 2.147837 g / cm^3
# Si number density = 21.527365 Si / 1000 Ang^3
#
#
#
# Elastic Constant Matrix: (Units=GPa)
#
#
# Indices 1 2 3 4 5 6 
#
# 1 184.0391 87.2970 71.7904 0.0003 -26.4649 -0.0010
# 2 87.2970 183.2975 18.4991 -0.0013 1.8852 -0.0004
# 3 71.7904 18.4991 115.8732 -0.0189 -9.5266 0.0003
# 4 0.0003 -0.0013 -0.0189 70.9698 0.0005 30.2544
# 5 -26.4649 1.8852 -9.5266 0.0005 54.4675 0.0028
# 6 -0.0010 -0.0004 0.0003 30.2544 0.0028 75.3110
#
#
#
# Elastic Compliance Matrix: (Units=1/GPa)
#
#
# Indices 1 2 3 4 5 6 
#
# 1 0.010137 -0.004341 -0.005246 -0.000002 0.004158 0.000001
# 2 -0.004341 0.007411 0.001331 0.000001 -0.002133 0.000000
# 3 -0.005246 0.001331 0.011621 0.000004 -0.000562 -0.000002
# 4 -0.000002 0.000001 0.000004 0.017002 0.000000 -0.006830
# 5 0.004158 -0.002133 -0.000562 0.000000 0.020355 -0.000001
# 6 0.000001 0.000000 -0.000002 -0.006830 -0.000001 0.016022
#
#
# Mechanical properties :
#
#
# Convention : Reuss Voigt Hill
#
# Bulk Modulus (GPa) = 79.00223 93.15364 86.07793
# Shear Modulus (GPa) = 48.41242 60.52453 54.46848
#
# Velocity S-wave (km/s) = 4.74738 5.30813 5.03556
# Velocity P-wave (km/s) = 8.17486 8.99635 8.59543
#
# Compressibility (1/GPa) = 0.01265787
#
# Stress axis : x y z
#
# Youngs Moduli (GPa) = 98.64892 134.93943 86.04882
#
# Poissons Ratio (x) = 0.58580 0.45137
# Poissons Ratio (y) = 0.42825 -0.11454
# Poissons Ratio (z) = 0.51747 -0.17962
#
# Static dielectric constant tensor:
#      x y z
#    x 1.778340 0.000000 -0.033470 
#    y 0.000000 1.867270 0.000000 
#    z -0.033470 0.000000 1.813090 
# 
# From -- ./inp_files/165319.got.cif
#   From: 2010.05.17/outbox.cif.g08.bks.cpg/sg12_83_cif.got.tgz:165319.got - 2010.06.03 13:09:07.
