data_PCOD9216888
_publ_section_title
;
Structure prediction by ZEFSAII (Michael W. Deem and Ramdas Pophale) SiO2 
 PCOD9216888
Probable space group: C 2/M
;
_chemical_formula_sum "Si O2"
_cell_formula_units_Z 40
_cell_length_a 12.406943
_cell_length_b 27.269832
_cell_length_c 5.400936
_cell_angle_alpha 90.000000
_cell_angle_beta 95.202268
_cell_angle_gamma 90.000000
_cell_volume 1819.799932
_symmetry_space_group_name_H-M "C 2/M"
_symmetry_group_IT_number 12
_symmetry_cell_setting 'monoclinic'
loop_
_space_group_symop_operation_xyz
x,y,z
-x,y,-z
-x,-y,-z
x,-y,z
1/2+x,1/2+y,z
1/2-x,1/2+y,-z
1/2-x,1/2-y,-z
1/2+x,1/2-y,z
loop_
_atom_site_type_symbol
_atom_site_label
_atom_site_fract_x
_atom_site_fract_y
_atom_site_fract_z
Si Si1 0.500000 0.611146 0.000000
Si Si2 0.500000 0.857487 0.500000
Si Si3 0.836514 0.816004 0.121441
Si Si4 0.186311 0.603817 0.270194
Si Si5 0.308707 0.214587 0.317441
Si Si6 0.215492 0.941464 0.207820
O O1 0.438121 0.648592 0.169458
O O2 0.593612 0.578874 0.142618
O O3 0.440126 0.889350 0.696584
O O4 0.594158 0.822257 0.616402
O O5 0.742157 0.842203 0.260408
O O6 0.859081 0.758831 0.162165
O O7 0.785382 0.816112 0.836610
O O8 0.236927 0.577235 0.521026
O O9 0.217228 0.577749 0.018656
O O10 0.250000 0.250000 0.500000
O O11 0.215164 0.000000 0.206293
#
# Coordination Sequence:
#
# PCOD9216888 Si02
#       6
#     4   4   8   8   8   8
#     4  10  23  40  72  98 138 180 226 280 357 412
#     4  12  24  42  71  94 136 186 231 270 348 388
#     4  10  24  41  60 100 142 182 227 275 335 394
#     4  11  25  45  70 100 139 178 229 283 341 418
#     4  11  24  41  62  97 142 184 232 277 317 402
#     4  11  25  48  72 103 136 173 227 296 356 420
#
# _framework density 21.980439000000001
#
# number of rings (size 3 to 8) (size 9 to 14) (size 15 to 20)
#    0.000    1.200    2.000    3.300    2.800    6.400 
#    0.000    8.000    0.000    0.000    0.000    0.000 
#    0.000    0.000    0.000    0.000    0.000    0.000 
#
# Total GULP energy -111619.637344 kJ/mol
# GULP energy per Si atom -5580.981867 kJ/mol
# Density = 2.193041 g / cm^3
# Si number density = 21.980439 Si / 1000 Ang^3
#
#
#
# Elastic Constant Matrix: (Units=GPa)
#
#
# Indices 1 2 3 4 5 6 
#
# 1 128.6155 26.4836 39.4506 0.0000 -9.3652 0.0000
# 2 26.4836 120.9095 37.6535 0.0000 4.5649 0.0000
# 3 39.4506 37.6535 114.1532 0.0000 -3.0765 0.0000
# 4 0.0000 0.0000 0.0000 35.4647 0.0000 -3.9586
# 5 -9.3652 4.5649 -3.0765 0.0000 21.6090 0.0000
# 6 0.0000 0.0000 0.0000 -3.9586 0.0000 22.7626
#
#
#
# Elastic Compliance Matrix: (Units=1/GPa)
#
#
# Indices 1 2 3 4 5 6 
#
# 1 0.009132 -0.001333 -0.002612 0.000000 0.003868 0.000000
# 2 -0.001333 0.009537 -0.002765 0.000000 -0.002986 0.000000
# 3 -0.002612 -0.002765 0.010601 0.000000 0.000961 0.000000
# 4 0.000000 0.000000 0.000000 0.028755 0.000000 0.005001
# 5 0.003868 -0.002986 0.000961 0.000000 0.048721 0.000000
# 6 0.000000 0.000000 0.000000 0.005001 0.000000 0.044801
#
#
# Mechanical properties :
#
#
# Convention : Reuss Voigt Hill
#
# Bulk Modulus (GPa) = 63.09595 63.42818 63.26206
# Shear Modulus (GPa) = 29.36829 33.30664 31.33746
#
# Velocity S-wave (km/s) = 3.65925 3.89689 3.77994
# Velocity P-wave (km/s) = 6.82798 7.01192 6.92056
#
# Compressibility (1/GPa) = 0.01584888
#
# Stress axis : x y z
#
# Youngs Moduli (GPa) = 109.49976 104.85972 94.33046
#
# Poissons Ratio (x) = 0.13976 0.24641
# Poissons Ratio (y) = 0.14595 0.26087
# Poissons Ratio (z) = 0.28604 0.28999
#
# Static dielectric constant tensor:
#      x y z
#    x 1.863050 0.000000 -0.075550 
#    y 0.000000 1.835590 0.000000 
#    z -0.075550 0.000000 1.955980 
# 
# From -- ./inp_files/8565.got.cif
#   From: 2010.05.17/outbox.cif.g08.bks.cpg/sg12_5_cif.got.tgz:8565.got - 2010.06.03 13:09:07.
