data_PCOD9216421
_publ_section_title
;
Structure prediction by ZEFSAII (Michael W. Deem and Ramdas Pophale) SiO2 
 PCOD9216421
Probable space group: C 2/M
;
_chemical_formula_sum "Si O2"
_cell_formula_units_Z 40
_cell_length_a 9.241623
_cell_length_b 14.198675
_cell_length_c 15.986573
_cell_angle_alpha 90.000000
_cell_angle_beta 63.700571
_cell_angle_gamma 90.000000
_cell_volume 1880.603764
_symmetry_space_group_name_H-M "C 2/M"
_symmetry_group_IT_number 12
_symmetry_cell_setting 'monoclinic'
loop_
_space_group_symop_operation_xyz
x,y,z
-x,y,-z
-x,-y,-z
x,-y,z
1/2+x,1/2+y,z
1/2-x,1/2+y,-z
1/2-x,1/2-y,-z
1/2+x,1/2-y,z
loop_
_atom_site_type_symbol
_atom_site_label
_atom_site_fract_x
_atom_site_fract_y
_atom_site_fract_z
Si Si1 0.232369 0.500000 0.415401
Si Si2 0.135467 0.314869 0.730974
Si Si3 0.813764 0.104720 0.023101
Si Si4 0.687413 0.803287 0.435748
Si Si5 0.058405 0.500000 0.640482
Si Si6 0.313945 0.712941 0.849875
O O1 0.297579 0.395266 0.393036
O O2 0.172952 0.500000 0.528597
O O3 0.111577 0.500000 0.365394
O O4 0.288345 0.266806 0.646503
O O5 0.085190 0.407449 0.691003
O O6 0.194165 0.328031 0.810696
O O7 0.990975 0.238746 0.770402
O O8 0.808983 0.143342 0.929965
O O9 0.740630 0.000000 0.050317
O O10 0.740740 0.184556 0.101475
O O11 0.000000 0.098510 0.000000
O O12 0.500000 0.830746 0.500000
O O13 0.750000 0.750000 0.500000
#
# Coordination Sequence:
#
# PCOD9216421 Si02
#       6
#     4   8   8   8   4   8
#     4  11  20  44  64  90 123 184 224 250 327 392
#     4  12  25  42  65 100 130 168 218 275 321 378
#     4  10  22  45  70  94 130 173 212 262 335 399
#     4  12  22  42  66  91 130 175 217 267 316 378
#     4  11  22  40  66  91 129 167 224 262 312 392
#     4  11  24  44  65 100 131 167 212 275 323 391
#
# _framework density 21.269766000000001
#
# number of rings (size 3 to 8) (size 9 to 14) (size 15 to 20)
#    0.000    0.800    6.000    2.400    2.800    0.000 
#    3.600    5.000    0.000    0.000    0.000    0.000 
#    0.000    0.000    0.000    0.000    0.000    0.000 
#
# Total GULP energy -111523.729404 kJ/mol
# GULP energy per Si atom -5576.186470 kJ/mol
# Density = 2.122135 g / cm^3
# Si number density = 21.269766 Si / 1000 Ang^3
#
#
#
# Elastic Constant Matrix: (Units=GPa)
#
#
# Indices 1 2 3 4 5 6 
#
# 1 66.7657 17.6115 38.5318 0.0000 27.5778 0.0000
# 2 17.6115 131.9354 44.7055 0.0000 20.7389 0.0000
# 3 38.5318 44.7055 95.1094 0.0000 30.2235 0.0000
# 4 0.0000 0.0000 0.0000 32.4467 0.0000 4.3351
# 5 27.5778 20.7389 30.2235 0.0000 48.1874 0.0000
# 6 0.0000 0.0000 0.0000 4.3351 0.0000 30.3387
#
#
#
# Elastic Compliance Matrix: (Units=1/GPa)
#
#
# Indices 1 2 3 4 5 6 
#
# 1 0.022235 0.000627 -0.006461 0.000000 -0.008943 0.000000
# 2 0.000627 0.009124 -0.003972 0.000000 -0.001794 0.000000
# 3 -0.006461 -0.003972 0.016587 0.000000 -0.004996 0.000000
# 4 0.000000 0.000000 0.000000 0.031420 0.000000 -0.004490
# 5 -0.008943 -0.001794 -0.004996 0.000000 0.029776 0.000000
# 6 0.000000 0.000000 0.000000 -0.004490 0.000000 0.033603
#
#
# Mechanical properties :
#
#
# Convention : Reuss Voigt Hill
#
# Bulk Modulus (GPa) = 35.29565 55.05646 45.17605
# Shear Modulus (GPa) = 29.10351 35.05866 32.08109
#
# Velocity S-wave (km/s) = 3.70307 4.06431 3.88789
# Velocity P-wave (km/s) = 5.90880 6.92574 6.43739
#
# Compressibility (1/GPa) = 0.02833210
#
# Stress axis : x y z
#
# Youngs Moduli (GPa) = 44.97438 109.60321 60.28970
#
# Poissons Ratio (x) = -0.06871 0.38953
# Poissons Ratio (y) = -0.02819 0.23950
# Poissons Ratio (z) = 0.29058 0.43540
#
# Static dielectric constant tensor:
#      x y z
#    x 1.773430 0.000000 -0.048870 
#    y 0.000000 1.793870 0.000000 
#    z -0.048870 0.000000 1.829240 
# 
# From -- ./inp_files/194487.got.cif
#   From: 2010.05.17/outbox.cif.g08.bks.cpg/sg12_98_cif.got.tgz:194487.got - 2010.06.03 13:09:07.
