data_PCOD9216228
_publ_section_title
;
Structure prediction by ZEFSAII (Michael W. Deem and Ramdas Pophale) SiO2 
 PCOD9216228
Probable space group: C 2/M
;
_chemical_formula_sum "Si O2"
_cell_formula_units_Z 64
_cell_length_a 31.414613
_cell_length_b 15.117088
_cell_length_c 22.026090
_cell_angle_alpha 90.000000
_cell_angle_beta 16.883393
_cell_angle_gamma 90.000000
_cell_volume 3037.882984
_symmetry_space_group_name_H-M "C 2/M"
_symmetry_group_IT_number 12
_symmetry_cell_setting 'monoclinic'
loop_
_space_group_symop_operation_xyz
x,y,z
-x,y,-z
-x,-y,-z
x,-y,z
1/2+x,1/2+y,z
1/2-x,1/2+y,-z
1/2-x,1/2-y,-z
1/2+x,1/2-y,z
loop_
_atom_site_type_symbol
_atom_site_label
_atom_site_fract_x
_atom_site_fract_y
_atom_site_fract_z
Si Si1 0.308730 0.397757 0.198438
Si Si2 0.676203 0.596650 0.267502
Si Si3 0.087767 0.900200 0.609538
Si Si4 0.329244 0.209670 0.717769
Si Si5 0.726618 0.662717 0.991092
Si Si6 0.810315 0.710569 0.527626
Si Si7 0.617638 0.400493 0.711917
Si Si8 0.592884 0.096332 0.155609
O O1 0.279828 0.500000 0.251070
O O2 0.209418 0.361733 0.279482
O O3 0.272818 0.339511 0.305257
O O4 0.474636 0.389705 0.948622
O O5 0.500000 0.595976 0.500000
O O6 0.714880 0.500000 0.242223
O O7 0.712352 0.691106 0.248335
O O8 0.765662 0.601593 0.081847
O O9 0.189431 0.814997 0.460348
O O10 0.068077 0.897167 0.709570
O O11 0.137653 0.000000 0.525993
O O12 0.933904 0.880267 0.786185
O O13 0.500000 0.210500 0.500000
O O14 0.252489 0.186505 0.886006
O O15 0.848742 0.601242 0.855312
O O16 0.750000 0.750000 0.000000
O O17 0.733209 0.674227 0.572308
O O18 0.977120 0.673656 0.300684
O O19 0.677611 0.500000 0.640418
O O20 0.523923 0.000000 0.238622
#
# Coordination Sequence:
#
# PCOD9216228 Si02
#       8
#     8   8   8   8   8   8   8   8
#     4  11  24  41  64  96 131 170 217 266 330 399
#     4   9  19  36  55  80 119 166 211 254 306 379
#     4  11  24  42  66  96 130 174 219 266 328 393
#     4  11  22  36  59  86 126 166 210 264 327 388
#     4  12  21  39  60  89 128 172 210 261 323 394
#     4  12  23  41  67  98 131 167 217 276 327 384
#     4  10  22  43  69  97 129 171 220 268 328 394
#     4  11  22  35  59  92 124 162 213 271 323 376
#
# _framework density 21.067302999999999
#
# number of rings (size 3 to 8) (size 9 to 14) (size 15 to 20)
#    0.000    1.125    3.750    3.000    0.000    1.750 
#    0.000    1.875    0.000    1.500    0.000    0.000 
#    0.000    0.000    0.000    0.000    0.000    0.000 
#
# Total GULP energy -178671.639404 kJ/mol
# GULP energy per Si atom -5583.488731 kJ/mol
# Density = 2.101935 g / cm^3
# Si number density = 21.067303 Si / 1000 Ang^3
#
#
#
# Elastic Constant Matrix: (Units=GPa)
#
#
# Indices 1 2 3 4 5 6 
#
# 1 70.3921 30.6107 16.8776 -0.0006 -11.6622 0.0006
# 2 30.6107 173.4283 39.2001 -0.0003 -7.3677 -0.0003
# 3 16.8776 39.2001 27.0229 -0.0010 -7.0937 -0.0001
# 4 -0.0006 -0.0003 -0.0010 22.2962 0.0006 -0.4321
# 5 -11.6622 -7.3677 -7.0937 0.0006 29.3722 -0.0003
# 6 0.0006 -0.0003 -0.0001 -0.4321 -0.0003 25.9011
#
#
#
# Elastic Compliance Matrix: (Units=1/GPa)
#
#
# Indices 1 2 3 4 5 6 
#
# 1 0.017379 -0.001031 -0.008131 0.000000 0.004678 0.000000
# 2 -0.001031 0.008663 -0.012236 0.000000 -0.001191 0.000000
# 3 -0.008131 -0.012236 0.062119 0.000002 0.008705 0.000001
# 4 0.000000 0.000000 0.000002 0.044865 -0.000001 0.000748
# 5 0.004678 -0.001191 0.008705 -0.000001 0.037707 0.000000
# 6 0.000000 0.000000 0.000001 0.000748 0.000000 0.038621
#
#
# Mechanical properties :
#
#
# Convention : Reuss Voigt Hill
#
# Bulk Modulus (GPa) = 22.04320 49.35781 35.70051
# Shear Modulus (GPa) = 18.70766 27.79089 23.24927
#
# Velocity S-wave (km/s) = 2.98316 3.63595 3.32561
# Velocity P-wave (km/s) = 4.72775 6.41142 5.63285
#
# Compressibility (1/GPa) = 0.04536546
#
# Stress axis : x y z
#
# Youngs Moduli (GPa) = 57.54081 115.43252 16.09826
#
# Poissons Ratio (x) = 0.11900 0.13089
# Poissons Ratio (y) = 0.05932 0.19697
# Poissons Ratio (z) = 0.46786 1.41240
#
# Static dielectric constant tensor:
#      x y z
#    x 1.757590 0.000000 0.007170 
#    y 0.000000 1.830430 0.000000 
#    z 0.007170 0.000000 1.756820 
# 
# From -- ./inp_files/330377.got.cif
#   From: 2010.05.17/outbox.cif.g08.bks.cpg/sg12_166_cif.got.tgz:330377.got - 2010.06.03 13:09:07.
