data_PCOD9216879
_publ_section_title
;
Structure prediction by ZEFSAII (Michael W. Deem and Ramdas Pophale) SiO2 
 PCOD9216879
Probable space group: C 2/M
;
_chemical_formula_sum "Si O2"
_cell_formula_units_Z 44
_cell_length_a 7.914886
_cell_length_b 17.059998
_cell_length_c 17.124957
_cell_angle_alpha 90.000000
_cell_angle_beta 56.424013
_cell_angle_gamma 90.000000
_cell_volume 1926.539610
_symmetry_space_group_name_H-M "C 2/M"
_symmetry_group_IT_number 12
_symmetry_cell_setting 'monoclinic'
loop_
_space_group_symop_operation_xyz
x,y,z
-x,y,-z
-x,-y,-z
x,-y,z
1/2+x,1/2+y,z
1/2-x,1/2+y,-z
1/2-x,1/2-y,-z
1/2+x,1/2-y,z
loop_
_atom_site_type_symbol
_atom_site_label
_atom_site_fract_x
_atom_site_fract_y
_atom_site_fract_z
Si Si1 0.196348 0.835797 0.262347
Si Si2 0.380130 0.626203 0.100819
Si Si3 0.840655 0.162294 0.471120
Si Si4 0.334522 0.000000 0.427468
Si Si5 0.559795 0.750843 0.155780
Si Si6 0.691619 0.500000 0.744730
Si Si7 0.164835 0.000000 0.298458
O O1 0.350530 0.771540 0.255724
O O2 0.178687 0.809548 0.178864
O O3 0.282242 0.921886 0.247685
O O4 0.980001 0.840846 0.358910
O O5 0.512193 0.702532 0.091391
O O6 0.175287 0.667226 0.122705
O O7 0.346201 0.574025 0.187021
O O8 0.500000 0.586129 0.000000
O O9 0.750000 0.250000 0.500000
O O10 0.000000 0.157929 0.500000
O O11 0.707961 0.082480 0.515658
O O12 0.181146 0.000000 0.390093
O O13 0.571970 0.000000 0.341854
O O14 0.535985 0.500000 0.708867
#
# Coordination Sequence:
#
# PCOD9216879 Si02
#       7
#     8   8   8   4   8   4   4
#     4  11  22  41  66  95 138 181 235 281 347 421
#     4  11  23  44  70 103 138 178 233 298 357 428
#     4  12  26  43  71 102 143 189 245 297 353 418
#     4  12  28  51  71 103 150 199 238 304 364 417
#     4  10  23  40  71 100 135 185 229 286 359 427
#     4  12  27  45  77 102 142 191 237 287 366 434
#     4  12  23  45  70  95 136 188 232 287 353 425
#
# _framework density 22.838875000000002
#
# number of rings (size 3 to 8) (size 9 to 14) (size 15 to 20)
#    0.000    0.727    3.636    3.818    5.091    1.455 
#    0.000    1.364    0.000    2.182    0.000    0.000 
#    0.000    0.000    0.000    0.000    0.000    0.000 
#
# Total GULP energy -122567.179787 kJ/mol
# GULP energy per Si atom -5571.235445 kJ/mol
# Density = 2.278689 g / cm^3
# Si number density = 22.838875 Si / 1000 Ang^3
#
#
#
# Elastic Constant Matrix: (Units=GPa)
#
#
# Indices 1 2 3 4 5 6 
#
# 1 61.8732 20.3585 22.8114 0.0000 7.6673 0.0000
# 2 20.3585 146.5799 33.6524 0.0000 5.3345 0.0000
# 3 22.8114 33.6524 101.1703 0.0000 -0.2084 0.0000
# 4 0.0000 0.0000 0.0000 24.7890 0.0000 -2.7396
# 5 7.6673 5.3345 -0.2084 0.0000 14.9671 0.0000
# 6 0.0000 0.0000 0.0000 -2.7396 0.0000 38.9323
#
#
#
# Elastic Compliance Matrix: (Units=1/GPa)
#
#
# Indices 1 2 3 4 5 6 
#
# 1 0.019228 -0.001439 -0.003876 0.000000 -0.009391 0.000000
# 2 -0.001439 0.007602 -0.002208 0.000000 -0.002003 0.000000
# 3 -0.003876 -0.002208 0.011499 0.000000 0.002933 0.000000
# 4 0.000000 0.000000 0.000000 0.040657 0.000000 0.002861
# 5 -0.009391 -0.002003 0.002933 0.000000 0.072379 0.000000
# 6 0.000000 0.000000 0.000000 0.002861 0.000000 0.025887
#
#
# Mechanical properties :
#
#
# Convention : Reuss Voigt Hill
#
# Bulk Modulus (GPa) = 42.95106 51.47419 47.21263
# Shear Modulus (GPa) = 24.99253 31.25775 28.12514
#
# Velocity S-wave (km/s) = 3.31161 3.70350 3.51302
# Velocity P-wave (km/s) = 5.78526 6.39334 6.09689
#
# Compressibility (1/GPa) = 0.02328231
#
# Stress axis : x y z
#
# Youngs Moduli (GPa) = 52.00629 131.54487 86.96462
#
# Poissons Ratio (x) = 0.18928 0.33710
# Poissons Ratio (y) = 0.07483 0.19205
# Poissons Ratio (z) = 0.20159 0.29050
#
# Static dielectric constant tensor:
#      x y z
#    x 1.969110 0.000000 0.038970 
#    y 0.000000 1.946840 0.000000 
#    z 0.038970 0.000000 2.043640 
# 
# From -- ./inp_files/256912.got.cif
#   From: 2010.05.17/outbox.cif.g08.bks.cpg/sg12_129_cif.got.tgz:256912.got - 2010.06.03 13:09:07.
