data_PCOD9216020
_publ_section_title
;
Structure prediction by ZEFSAII (Michael W. Deem and Ramdas Pophale) SiO2 
 PCOD9216020
Probable space group: C 2/M
;
_chemical_formula_sum "Si O2"
_cell_formula_units_Z 60
_cell_length_a 22.537519
_cell_length_b 20.084464
_cell_length_c 9.147586
_cell_angle_alpha 90.000000
_cell_angle_beta 137.733371
_cell_angle_gamma 90.000000
_cell_volume 2784.952829
_symmetry_space_group_name_H-M "C 2/M"
_symmetry_group_IT_number 12
_symmetry_cell_setting 'monoclinic'
loop_
_space_group_symop_operation_xyz
x,y,z
-x,y,-z
-x,-y,-z
x,-y,z
1/2+x,1/2+y,z
1/2-x,1/2+y,-z
1/2-x,1/2-y,-z
1/2+x,1/2-y,z
loop_
_atom_site_type_symbol
_atom_site_label
_atom_site_fract_x
_atom_site_fract_y
_atom_site_fract_z
Si Si1 0.311161 0.259473 0.320879
Si Si2 0.492274 0.289340 0.811385
Si Si3 0.243796 0.386152 0.699951
Si Si4 0.438134 0.425975 0.028147
Si Si5 0.413160 0.792550 0.245610
Si Si6 0.598336 0.923142 0.202061
Si Si7 0.246811 0.000000 0.029309
Si Si8 0.298862 0.891642 0.903054
O O1 0.395696 0.268782 0.580428
O O2 0.260842 0.190557 0.259682
O O3 0.348110 0.252389 0.223371
O O4 0.252896 0.324710 0.231751
O O5 0.560816 0.239995 0.859814
O O6 0.500000 0.287619 0.000000
O O7 0.518691 0.364275 0.806750
O O8 0.339507 0.403094 0.804528
O O9 0.161065 0.393121 0.440352
O O10 0.239534 0.440532 0.821420
O O11 0.432823 0.500000 0.089783
O O12 0.500000 0.432395 0.000000
O O13 0.500000 0.797197 0.500000
O O14 0.374853 0.865217 0.150066
O O15 0.652936 0.919980 0.151195
O O16 0.584939 0.000000 0.220597
O O17 0.500000 0.893275 0.000000
O O18 0.241026 0.942664 0.888404
#
# Coordination Sequence:
#
# PCOD9216020 Si02
#       8
#     8   8   8   8   8   8   4   8
#     4  11  26  44  70 105 146 186 241 298 367 418
#     4  10  24  43  67 106 142 189 241 294 357 433
#     4  12  25  48  77 104 141 195 239 296 363 432
#     4  10  22  42  70 103 137 181 240 294 355 424
#     4  10  23  42  67  95 142 184 229 295 351 422
#     4  11  27  47  69 106 149 186 234 298 359 425
#     4  12  26  46  74 105 139 188 241 284 363 449
#     4  12  26  45  70 105 138 189 235 301 351 426
#
# _framework density 21.544349
#
# number of rings (size 3 to 8) (size 9 to 14) (size 15 to 20)
#    0.000    1.067    3.333    1.200   11.200    0.533 
#    1.200    1.000    0.000    2.000    0.000    0.000 
#    0.000    0.000    0.000    0.000    0.000    0.000 
#
# Total GULP energy -167057.020364 kJ/mol
# GULP energy per Si atom -5568.567345 kJ/mol
# Density = 2.149531 g / cm^3
# Si number density = 21.544349 Si / 1000 Ang^3
#
#
#
# Elastic Constant Matrix: (Units=GPa)
#
#
# Indices 1 2 3 4 5 6 
#
# 1 73.2099 23.1343 49.0230 0.0000 4.9574 0.0000
# 2 23.1343 145.1915 33.8725 0.0000 13.6293 0.0000
# 3 49.0230 33.8725 78.4864 0.0000 5.3023 0.0000
# 4 0.0000 0.0000 0.0000 31.7222 0.0000 -4.6853
# 5 4.9574 13.6293 5.3023 0.0000 33.0395 0.0000
# 6 0.0000 0.0000 0.0000 -4.6853 0.0000 35.7718
#
#
#
# Elastic Compliance Matrix: (Units=1/GPa)
#
#
# Indices 1 2 3 4 5 6 
#
# 1 0.023534 -0.000261 -0.014513 0.000000 -0.001094 0.000000
# 2 -0.000261 0.007899 -0.003062 0.000000 -0.002728 0.000000
# 3 -0.014513 -0.003062 0.023146 0.000000 -0.000274 0.000000
# 4 0.000000 0.000000 0.000000 0.032146 0.000000 0.004210
# 5 -0.001094 -0.002728 -0.000274 0.000000 0.031600 0.000000
# 6 0.000000 0.000000 0.000000 0.004210 0.000000 0.028506
#
#
# Mechanical properties :
#
#
# Convention : Reuss Voigt Hill
#
# Bulk Modulus (GPa) = 52.88869 56.54972 54.71921
# Shear Modulus (GPa) = 26.48222 32.83055 29.65638
#
# Velocity S-wave (km/s) = 3.50979 3.90790 3.71418
# Velocity P-wave (km/s) = 6.40522 6.83134 6.62171
#
# Compressibility (1/GPa) = 0.01890763
#
# Stress axis : x y z
#
# Youngs Moduli (GPa) = 42.49141 126.59095 43.20456
#
# Poissons Ratio (x) = 0.03308 0.62702
# Poissons Ratio (y) = 0.01110 0.13228
# Poissons Ratio (z) = 0.61667 0.38758
#
# Static dielectric constant tensor:
#      x y z
#    x 1.816190 0.000000 0.028610 
#    y 0.000000 1.807520 0.000000 
#    z 0.028610 0.000000 1.788800 
# 
# From -- ./inp_files/99287.got.cif
#   From: 2010.05.17/outbox.cif.g08.bks.cpg/sg12_50_cif.got.tgz:99287.got - 2010.06.03 13:09:07.
