data_PCOD9216889
_publ_section_title
;
Structure prediction by ZEFSAII (Michael W. Deem and Ramdas Pophale) SiO2 
 PCOD9216889
Probable space group: C 2/M
;
_chemical_formula_sum "Si O2"
_cell_formula_units_Z 26
_cell_length_a 10.606800
_cell_length_b 13.669628
_cell_length_c 18.047389
_cell_angle_alpha 90.000000
_cell_angle_beta 150.035497
_cell_angle_gamma 90.000000
_cell_volume 1306.950370
_symmetry_space_group_name_H-M "C 2/M"
_symmetry_group_IT_number 12
_symmetry_cell_setting 'monoclinic'
loop_
_space_group_symop_operation_xyz
x,y,z
-x,y,-z
-x,-y,-z
x,-y,z
1/2+x,1/2+y,z
1/2-x,1/2+y,-z
1/2-x,1/2-y,-z
1/2+x,1/2-y,z
loop_
_atom_site_type_symbol
_atom_site_label
_atom_site_fract_x
_atom_site_fract_y
_atom_site_fract_z
Si Si1 0.740814 0.710035 0.578322
Si Si2 0.500000 0.000000 0.500000
Si Si3 0.246393 0.783935 0.913539
Si Si4 0.185621 0.000000 0.488831
Si Si5 0.407836 0.500000 0.202614
O O1 0.500000 0.753296 0.500000
O O2 0.750000 0.750000 0.500000
O O3 0.704023 0.595308 0.548190
O O4 0.996713 0.739036 0.748910
O O5 0.409630 0.000000 0.542141
O O6 0.939089 0.000000 0.308896
O O7 0.500000 0.752665 0.000000
O O8 0.250000 0.750000 0.000000
O O9 0.220280 0.901080 0.890606
O O10 0.801274 0.000000 0.675637
#
# Coordination Sequence:
#
# PCOD9216889 Si02
#       5
#     8   2   8   4   4
#     4  12  25  45  73 102 134 180 239 277 332 407
#     4   8  20  36  76  98 120 174 234 282 332 376
#     4  12  28  44  68 101 143 178 218 280 350 407
#     4  10  23  40  74 100 135 170 240 286 329 386
#     4  10  23  44  68  94 143 176 222 272 361 382
#
# _framework density 19.893639
#
# number of rings (size 3 to 8) (size 9 to 14) (size 15 to 20)
#    0.923    0.000    3.077    2.769   12.923    1.231 
#    0.000    1.538    0.000    0.000    0.000    0.000 
#    0.000    0.000    0.000    0.000    0.000    0.000 
#
# Total GULP energy -72381.048793 kJ/mol
# GULP energy per Si atom -5567.772984 kJ/mol
# Density = 1.984836 g / cm^3
# Si number density = 19.893639 Si / 1000 Ang^3
#
#
#
# Elastic Constant Matrix: (Units=GPa)
#
#
# Indices 1 2 3 4 5 6 
#
# 1 193.3594 25.1850 98.2736 0.0011 12.3132 -0.0001
# 2 25.1850 125.8221 59.7739 0.0013 -20.6399 -0.0003
# 3 98.2736 59.7739 182.5943 0.0038 -10.2652 0.0021
# 4 0.0011 0.0013 0.0038 25.4344 0.0023 -6.2922
# 5 12.3132 -20.6399 -10.2652 0.0023 42.2000 0.0004
# 6 -0.0001 -0.0003 0.0021 -6.2922 0.0004 6.4917
#
#
#
# Elastic Compliance Matrix: (Units=1/GPa)
#
#
# Indices 1 2 3 4 5 6 
#
# 1 0.007529 -0.000032 -0.004224 0.000001 -0.003240 0.000003
# 2 -0.000032 0.010093 -0.003051 0.000000 0.004204 0.000001
# 3 -0.004224 -0.003051 0.008855 -0.000003 0.001894 -0.000006
# 4 0.000001 0.000000 -0.000003 0.051718 -0.000004 0.050128
# 5 -0.003240 0.004204 0.001894 -0.000004 0.027159 -0.000006
# 6 0.000003 0.000001 -0.000006 0.050128 -0.000006 0.202629
#
#
# Mechanical properties :
#
#
# Convention : Reuss Voigt Hill
#
# Bulk Modulus (GPa) = 84.28582 96.47121 90.37851
# Shear Modulus (GPa) = 15.31159 36.06144 25.68651
#
# Velocity S-wave (km/s) = 2.77731 4.26221 3.59721
# Velocity P-wave (km/s) = 7.26256 8.53351 7.92356
#
# Compressibility (1/GPa) = 0.01186439
#
# Stress axis : x y z
#
# Youngs Moduli (GPa) = 132.82127 99.07966 112.93014
#
# Poissons Ratio (x) = 0.00316 0.47700
# Poissons Ratio (y) = 0.00423 0.34450
# Poissons Ratio (z) = 0.56101 0.30224
#
# Static dielectric constant tensor:
#      x y z
#    x 1.720850 -0.000020 0.013310 
#    y -0.000020 1.082410 0.000000 
#    z 0.013310 0.000000 1.680440 
# 
# From -- ./inp_files/194351.got.cif
#   From: 2010.05.17/outbox.cif.g08.bks.cpg/sg12_98_cif.got.tgz:194351.got - 2010.06.03 13:09:07.
