data_PCOD9216835
_publ_section_title
;
Structure prediction by ZEFSAII (Michael W. Deem and Ramdas Pophale) SiO2 
 PCOD9216835
Probable space group: C 2/M
;
_chemical_formula_sum "Si O2"
_cell_formula_units_Z 42
_cell_length_a 8.574207
_cell_length_b 27.271512
_cell_length_c 13.234149
_cell_angle_alpha 90.000000
_cell_angle_beta 32.010062
_cell_angle_gamma 90.000000
_cell_volume 1640.328914
_symmetry_space_group_name_H-M "C 2/M"
_symmetry_group_IT_number 12
_symmetry_cell_setting 'monoclinic'
loop_
_space_group_symop_operation_xyz
x,y,z
-x,y,-z
-x,-y,-z
x,-y,z
1/2+x,1/2+y,z
1/2-x,1/2+y,-z
1/2-x,1/2-y,-z
1/2+x,1/2-y,z
loop_
_atom_site_type_symbol
_atom_site_label
_atom_site_fract_x
_atom_site_fract_y
_atom_site_fract_z
Si Si1 0.222286 0.820153 0.287203
Si Si2 0.356866 0.276988 0.296479
Si Si3 0.500000 0.500000 0.500000
Si Si4 0.915653 0.420278 0.943297
Si Si5 0.074863 0.552087 0.630627
Si Si6 0.639138 0.624275 0.813914
O O1 0.434902 0.777137 0.214192
O O2 0.411425 0.867891 0.156878
O O3 0.000000 0.833538 0.500000
O O4 0.033294 0.795899 0.298638
O O5 0.386751 0.319932 0.200017
O O6 0.000000 0.273476 0.500000
O O7 0.584814 0.542260 0.538340
O O8 0.972992 0.446713 0.805147
O O9 0.000000 0.445881 0.000000
O O10 0.570410 0.407696 0.140895
O O11 0.954733 0.500000 0.654064
O O12 0.961511 0.600548 0.640616
O O13 0.500000 0.617582 0.000000
#
# Coordination Sequence:
#
# PCOD9216835 Si02
#       6
#     8   8   2   8   8   8
#     4  11  25  40  65  94 134 182 231 280 327 394
#     4  11  24  41  62  96 132 181 231 276 334 387
#     4   8  20  44  68 106 114 180 214 272 336 400
#     4  11  23  41  63  99 134 175 219 274 335 395
#     4   9  22  42  71  94 129 165 223 263 343 393
#     4  10  23  40  65  95 133 176 219 269 336 393
#
# _framework density 25.604621999999999
#
# number of rings (size 3 to 8) (size 9 to 14) (size 15 to 20)
#    0.571    1.143    1.905    2.286   12.000    5.333 
#    0.000    0.000    0.000    1.714    0.000    0.000 
#    0.000    0.000    0.000    0.000    0.000    0.000 
#
# Total GULP energy -117044.728705 kJ/mol
# GULP energy per Si atom -5573.558510 kJ/mol
# Density = 2.554634 g / cm^3
# Si number density = 25.604622 Si / 1000 Ang^3
#
#
#
# Elastic Constant Matrix: (Units=GPa)
#
#
# Indices 1 2 3 4 5 6 
#
# 1 120.2411 45.5406 25.7187 0.0000 2.8715 0.0000
# 2 45.5406 126.6668 21.4041 0.0000 1.2237 0.0000
# 3 25.7187 21.4041 35.7037 0.0000 -4.6748 0.0000
# 4 0.0000 0.0000 0.0000 105.1122 0.0000 -107.0981
# 5 2.8715 1.2237 -4.6748 0.0000 31.8433 0.0000
# 6 0.0000 0.0000 0.0000 -107.0981 0.0000 90.6445
#
#
#
# Elastic Compliance Matrix: (Units=1/GPa)
#
#
# Indices 1 2 3 4 5 6 
#
# 1 0.010766 -0.002786 -0.006320 0.000000 -0.001792 0.000000
# 2 -0.002786 0.009546 -0.003804 0.000000 -0.000674 0.000000
# 3 -0.006320 -0.003804 0.035620 0.000000 0.005945 0.000000
# 4 0.000000 0.000000 0.000000 -0.046672 0.000000 -0.055144
# 5 -0.001792 -0.000674 0.005945 0.000000 0.032464 0.000000
# 6 0.000000 0.000000 0.000000 -0.055144 0.000000 -0.054121
#
#
# Mechanical properties :
#
#
# Convention : Reuss Voigt Hill
#
# Bulk Modulus (GPa) = 33.20922 51.99315 42.60118
# Shear Modulus (GPa) = 213.13576 58.18322 135.65949
#
# Velocity S-wave (km/s) = 9.13356 4.77211 7.28680
# Velocity P-wave (km/s) = 11.14573 7.12140 9.35258
#
# Compressibility (1/GPa) = 0.03011212
#
# Stress axis : x y z
#
# Youngs Moduli (GPa) = 92.88323 104.76071 28.07428
#
# Poissons Ratio (x) = 0.29181 0.17743
# Poissons Ratio (y) = 0.25873 0.10680
# Poissons Ratio (z) = 0.58702 0.39853
#
# Static dielectric constant tensor:
#      x y z
#    x 2.135690 0.000000 -0.131060 
#    y 0.000000 2.019720 0.000000 
#    z -0.131060 0.000000 2.207500 
# 
# From -- ./inp_files/199588.got.cif
#   From: 2010.05.17/outbox.cif.g08.bks.cpg/sg12_100_cif.got.tgz:199588.got - 2010.06.03 13:09:07.
