data_PCOD9216063
_publ_section_title
;
Structure prediction by ZEFSAII (Michael W. Deem and Ramdas Pophale) SiO2 
 PCOD9216063
Probable space group: C 2/M
;
_chemical_formula_sum "Si O2"
_cell_formula_units_Z 48
_cell_length_a 24.621760
_cell_length_b 13.028700
_cell_length_c 5.675927
_cell_angle_alpha 90.000000
_cell_angle_beta 90.387668
_cell_angle_gamma 90.000000
_cell_volume 1820.736246
_symmetry_space_group_name_H-M "C 2/M"
_symmetry_group_IT_number 12
_symmetry_cell_setting 'monoclinic'
loop_
_space_group_symop_operation_xyz
x,y,z
-x,y,-z
-x,-y,-z
x,-y,z
1/2+x,1/2+y,z
1/2-x,1/2+y,-z
1/2-x,1/2-y,-z
1/2+x,1/2-y,z
loop_
_atom_site_type_symbol
_atom_site_label
_atom_site_fract_x
_atom_site_fract_y
_atom_site_fract_z
Si Si1 0.868402 0.880823 0.175977
Si Si2 0.966748 0.000000 0.741200
Si Si3 0.500000 0.166455 0.000000
Si Si4 0.792833 0.620754 0.121637
Si Si5 0.252922 0.622699 0.383224
Si Si6 0.908171 0.678118 0.304081
Si Si7 0.902958 0.212821 0.749213
O O1 0.817963 0.870516 0.349015
O O2 0.914754 0.802915 0.265722
O O3 0.881805 0.000000 0.154172
O O4 0.855773 0.827082 0.925066
O O5 0.929349 0.899468 0.710516
O O6 0.000000 0.000000 0.500000
O O7 0.000000 0.000000 0.000000
O O8 0.462430 0.122604 0.213866
O O9 0.545495 0.231119 0.131557
O O10 0.779302 0.500000 0.120081
O O11 0.767060 0.663576 0.364702
O O12 0.857436 0.634999 0.158854
O O13 0.772734 0.657151 0.866413
O O14 0.240492 0.500000 0.392054
O O15 0.888429 0.693902 0.571051
#
# Coordination Sequence:
#
# PCOD9216063 Si02
#       7
#     8   4   4   8   8   8   8
#     4  10  23  39  59  93 136 173 212 258 316 380
#     4  12  24  38  60  84 122 174 220 254 300 369
#     4  10  22  43  57  86 132 160 212 266 324 366
#     4  10  23  45  70  95 126 167 216 271 331 389
#     4   9  21  42  66  94 132 170 209 264 324 383
#     4  11  25  39  66  92 125 173 217 272 322 382
#     4  11  23  38  58  89 127 173 214 258 309 372
#
# _framework density 26.362960000000001
#
# number of rings (size 3 to 8) (size 9 to 14) (size 15 to 20)
#    0.000    1.667    1.667    1.500   10.500    1.333 
#    0.000    0.417    0.000    2.000    0.000    0.000 
#    0.000    0.000    0.000    0.000    0.000    0.000 
#
# Total GULP energy -133629.798582 kJ/mol
# GULP energy per Si atom -5567.908274 kJ/mol
# Density = 2.630296 g / cm^3
# Si number density = 26.362960 Si / 1000 Ang^3
#
#
#
# Elastic Constant Matrix: (Units=GPa)
#
#
# Indices 1 2 3 4 5 6 
#
# 1 76.1637 0.4687 50.9678 0.0000 -24.6284 0.0000
# 2 0.4687 77.5724 35.2474 0.0000 4.9879 0.0000
# 3 50.9678 35.2474 144.1139 0.0000 -16.5800 0.0000
# 4 0.0000 0.0000 0.0000 75.1216 0.0000 -26.0141
# 5 -24.6284 4.9879 -16.5800 0.0000 53.6223 0.0000
# 6 0.0000 0.0000 0.0000 -26.0141 0.0000 55.1930
#
#
#
# Elastic Compliance Matrix: (Units=1/GPa)
#
#
# Indices 1 2 3 4 5 6 
#
# 1 0.019920 0.002577 -0.006895 0.000000 0.006777 0.000000
# 2 0.002577 0.015177 -0.004821 0.000000 -0.001719 0.000000
# 3 -0.006895 -0.004821 0.010622 0.000000 0.000566 0.000000
# 4 0.000000 0.000000 0.000000 0.015908 0.000000 0.007498
# 5 0.006777 -0.001719 0.000566 0.000000 0.022096 0.000000
# 6 0.000000 0.000000 0.000000 0.007498 0.000000 0.021652
#
#
# Mechanical properties :
#
#
# Convention : Reuss Voigt Hill
#
# Bulk Modulus (GPa) = 36.44425 52.35753 44.40089
# Shear Modulus (GPa) = 37.65049 50.86512 44.25781
#
# Velocity S-wave (km/s) = 3.78320 4.39728 4.10175
# Velocity P-wave (km/s) = 5.73912 6.75905 6.26986
#
# Compressibility (1/GPa) = 0.02743917
#
# Stress axis : x y z
#
# Youngs Moduli (GPa) = 50.20202 65.89037 94.14581
#
# Poissons Ratio (x) = -0.16980 0.64917
# Poissons Ratio (y) = -0.12937 0.45388
# Poissons Ratio (z) = 0.34616 0.31766
#
# Static dielectric constant tensor:
#      x y z
#    x 2.031820 0.000000 -0.066370 
#    y 0.000000 2.103410 0.000000 
#    z -0.066370 0.000000 2.617410 
# 
# From -- ./inp_files/28193.got.cif
#   From: 2010.05.17/outbox.cif.g08.bks.cpg/sg12_15_cif.got.tgz:28193.got - 2010.06.03 13:09:07.
