data_PCOD9216124
_publ_section_title
;
Structure prediction by ZEFSAII (Michael W. Deem and Ramdas Pophale) SiO2 
 PCOD9216124
Probable space group: C 2/M
;
_chemical_formula_sum "Si O2"
_cell_formula_units_Z 38
_cell_length_a 8.200811
_cell_length_b 19.973298
_cell_length_c 15.479989
_cell_angle_alpha 90.000000
_cell_angle_beta 133.565944
_cell_angle_gamma 90.000000
_cell_volume 1837.234345
_symmetry_space_group_name_H-M "C 2/M"
_symmetry_group_IT_number 12
_symmetry_cell_setting 'monoclinic'
loop_
_space_group_symop_operation_xyz
x,y,z
-x,y,-z
-x,-y,-z
x,-y,z
1/2+x,1/2+y,z
1/2-x,1/2+y,-z
1/2-x,1/2-y,-z
1/2+x,1/2-y,z
loop_
_atom_site_type_symbol
_atom_site_label
_atom_site_fract_x
_atom_site_fract_y
_atom_site_fract_z
Si Si1 0.000000 0.843121 0.000000
Si Si2 0.547402 0.649338 0.305648
Si Si3 0.000000 0.000000 0.500000
Si Si4 0.273817 0.365719 0.446226
Si Si5 0.750155 0.078722 0.063818
Si Si6 0.825365 0.282947 0.255566
O O1 0.820984 0.799381 0.881998
O O2 0.138298 0.885475 0.978602
O O3 0.699310 0.625414 0.440629
O O4 0.414783 0.592555 0.205280
O O5 0.692082 0.689826 0.289066
O O6 0.372306 0.704460 0.275790
O O7 0.189981 0.060541 0.580514
O O8 0.500000 0.326741 0.500000
O O9 0.055597 0.325476 0.340491
O O10 0.735310 0.000000 0.040516
O O11 0.500000 0.102868 0.000000
#
# Coordination Sequence:
#
# PCOD9216124 Si02
#       6
#     4   8   2   8   8   8
#     4  10  25  44  66  98 135 178 222 278 330 401
#     4  11  24  40  67  98 131 170 222 272 332 393
#     4   8  24  40  70  98 122 182 206 268 334 392
#     4  10  22  43  65  98 127 169 217 267 329 391
#     4  10  24  42  66  94 132 180 220 276 332 398
#     4  11  24  42  67  97 133 175 216 277 330 391
#
# _framework density 20.683261000000002
#
# number of rings (size 3 to 8) (size 9 to 14) (size 15 to 20)
#    0.632    1.053    0.000    2.842    8.842    1.684 
#   13.263    1.053    0.000    0.000    0.000    0.000 
#    0.000    0.000    0.000    0.000    0.000    0.000 
#
# Total GULP energy -105789.421653 kJ/mol
# GULP energy per Si atom -5567.864298 kJ/mol
# Density = 2.063618 g / cm^3
# Si number density = 20.683261 Si / 1000 Ang^3
#
#
#
# Elastic Constant Matrix: (Units=GPa)
#
#
# Indices 1 2 3 4 5 6 
#
# 1 74.0804 -11.0092 27.4796 0.0000 -2.6533 0.0000
# 2 -11.0092 32.4119 2.3532 0.0000 -5.0861 0.0000
# 3 27.4796 2.3532 113.1371 0.0000 -2.4269 0.0000
# 4 0.0000 0.0000 0.0000 22.4550 0.0000 6.1012
# 5 -2.6533 -5.0861 -2.4269 0.0000 22.7550 0.0000
# 6 0.0000 0.0000 0.0000 6.1012 0.0000 12.7119
#
#
#
# Elastic Compliance Matrix: (Units=1/GPa)
#
#
# Indices 1 2 3 4 5 6 
#
# 1 0.015980 0.006157 -0.003949 0.000000 0.002818 0.000000
# 2 0.006157 0.034376 -0.002035 0.000000 0.008184 0.000000
# 3 -0.003949 -0.002035 0.009843 0.000000 0.000135 0.000000
# 4 0.000000 0.000000 0.000000 0.051212 0.000000 -0.024580
# 5 0.002818 0.008184 0.000135 0.000000 0.046119 0.000000
# 6 0.000000 0.000000 0.000000 -0.024580 0.000000 0.090464
#
#
# Mechanical properties :
#
#
# Convention : Reuss Voigt Hill
#
# Bulk Modulus (GPa) = 16.51671 28.58630 22.55150
# Shear Modulus (GPa) = 18.66864 24.97142 21.82003
#
# Velocity S-wave (km/s) = 3.00758 3.47843 3.25154
# Velocity P-wave (km/s) = 4.47924 5.47573 5.00236
#
# Compressibility (1/GPa) = 0.06054473
#
# Stress axis : x y z
#
# Youngs Moduli (GPa) = 62.58006 29.08997 101.59335
#
# Poissons Ratio (x) = -0.17910 0.40118
# Poissons Ratio (y) = -0.38528 0.20672
# Poissons Ratio (z) = 0.24712 0.05919
#
# Static dielectric constant tensor:
#      x y z
#    x 1.861000 0.000000 0.006670 
#    y 0.000000 1.655500 0.000000 
#    z 0.006670 0.000000 1.759340 
# 
# From -- ./inp_files/198692.got.cif
#   From: 2010.05.17/outbox.cif.g08.bks.cpg/sg12_100_cif.got.tgz:198692.got - 2010.06.03 13:09:07.
