data_PCOD9216654
_publ_section_title
;
Structure prediction by ZEFSAII (Michael W. Deem and Ramdas Pophale) SiO2 
 PCOD9216654
Probable space group: C 2/M
;
_chemical_formula_sum "Si O2"
_cell_formula_units_Z 64
_cell_length_a 20.428356
_cell_length_b 26.739748
_cell_length_c 10.175579
_cell_angle_alpha 90.000000
_cell_angle_beta 147.610250
_cell_angle_gamma 90.000000
_cell_volume 2977.500449
_symmetry_space_group_name_H-M "C 2/M"
_symmetry_group_IT_number 12
_symmetry_cell_setting 'monoclinic'
loop_
_space_group_symop_operation_xyz
x,y,z
-x,y,-z
-x,-y,-z
x,-y,z
1/2+x,1/2+y,z
1/2-x,1/2+y,-z
1/2-x,1/2-y,-z
1/2+x,1/2-y,z
loop_
_atom_site_type_symbol
_atom_site_label
_atom_site_fract_x
_atom_site_fract_y
_atom_site_fract_z
Si Si1 0.386503 0.296076 0.404377
Si Si2 0.119748 0.060568 0.374303
Si Si3 0.694124 0.185376 0.695433
Si Si4 0.359815 0.085524 0.274573
Si Si5 0.009452 0.325157 0.862069
Si Si6 0.539648 0.708875 0.917404
Si Si7 0.224913 0.391065 0.131098
Si Si8 0.155069 0.940256 0.136474
O O1 0.500000 0.296272 0.500000
O O2 0.326926 0.241699 0.293024
O O3 0.433488 0.302708 0.633658
O O4 0.302232 0.342100 0.225851
O O5 0.206493 0.082989 0.632250
O O6 0.160639 0.077474 0.297245
O O7 0.125917 0.000000 0.391078
O O8 0.976665 0.075984 0.146147
O O9 0.641753 0.145695 0.709351
O O10 0.617489 0.177554 0.431535
O O11 0.837353 0.179734 0.910373
O O12 0.500000 0.068161 0.500000
O O13 0.274847 0.069630 0.252548
O O14 0.291269 0.074010 0.022642
O O15 0.064194 0.268844 0.943569
O O16 0.093184 0.368489 0.944869
O O17 0.000000 0.334790 0.000000
O O18 0.500000 0.700173 0.000000
O O19 0.144065 0.000000 0.127303
#
# Coordination Sequence:
#
# PCOD9216654 Si02
#       8
#     8   8   8   8   8   8   8   8
#     4  11  25  39  60  88 128 174 221 268 312 377
#     4   9  22  46  76 102 127 163 206 268 337 391
#     4  11  23  42  62  83 134 181 223 260 320 382
#     4  12  26  41  63  96 134 181 220 261 324 388
#     4  10  23  39  59  88 127 172 215 274 325 373
#     4  10  23  39  61  88 117 167 228 277 320 364
#     4  12  25  40  62  98 133 165 220 270 321 387
#     4   9  22  48  75 100 129 163 210 264 329 399
#
# _framework density 21.494539
#
# number of rings (size 3 to 8) (size 9 to 14) (size 15 to 20)
#    0.000    1.500    2.500    1.875    8.750    3.250 
#    0.000    1.250    0.000    1.875    0.000    0.000 
#    0.000    0.000    0.000    0.000    0.000    0.000 
#
# Total GULP energy -178923.804773 kJ/mol
# GULP energy per Si atom -5591.368899 kJ/mol
# Density = 2.144562 g / cm^3
# Si number density = 21.494539 Si / 1000 Ang^3
#
#
#
# Elastic Constant Matrix: (Units=GPa)
#
#
# Indices 1 2 3 4 5 6 
#
# 1 82.8951 6.9722 35.9178 0.0000 1.0776 0.0000
# 2 6.9722 42.7113 16.3022 0.0000 3.5297 0.0000
# 3 35.9178 16.3022 95.3114 0.0000 -11.1320 0.0000
# 4 0.0000 0.0000 0.0000 27.1855 0.0000 1.8177
# 5 1.0776 3.5297 -11.1320 0.0000 36.3391 0.0000
# 6 0.0000 0.0000 0.0000 1.8177 0.0000 50.7207
#
#
#
# Elastic Compliance Matrix: (Units=1/GPa)
#
#
# Indices 1 2 3 4 5 6 
#
# 1 0.014584 -0.000004 -0.005752 0.000000 -0.002194 0.000000
# 2 -0.000004 0.025588 -0.004838 0.000000 -0.003968 0.000000
# 3 -0.005752 -0.004838 0.014065 0.000000 0.004949 0.000000
# 4 0.000000 0.000000 0.000000 0.036873 0.000000 -0.001321
# 5 -0.002194 -0.003968 0.004949 0.000000 0.029485 0.000000
# 6 0.000000 0.000000 0.000000 -0.001321 0.000000 0.019763
#
#
# Mechanical properties :
#
#
# Convention : Reuss Voigt Hill
#
# Bulk Modulus (GPa) = 30.25788 37.70025 33.97906
# Shear Modulus (GPa) = 28.97481 33.63079 31.30280
#
# Velocity S-wave (km/s) = 3.67551 3.95982 3.82031
# Velocity P-wave (km/s) = 5.66745 6.20358 5.94157
#
# Compressibility (1/GPa) = 0.03304924
#
# Stress axis : x y z
#
# Youngs Moduli (GPa) = 68.56623 39.08034 71.09831
#
# Poissons Ratio (x) = 0.00016 0.40893
# Poissons Ratio (y) = 0.00028 0.34401
# Poissons Ratio (z) = 0.39437 0.18909
#
# Static dielectric constant tensor:
#      x y z
#    x 1.770200 0.000000 0.004080 
#    y 0.000000 1.819590 0.000000 
#    z 0.004080 0.000000 1.809000 
# 
# From -- ./inp_files/80746.got.cif
#   From: 2010.05.17/outbox.cif.g08.bks.cpg/sg12_41_cif.got.tgz:80746.got - 2010.06.03 13:09:07.
