data_PCOD9216483
_publ_section_title
;
Structure prediction by ZEFSAII (Michael W. Deem and Ramdas Pophale) SiO2 
 PCOD9216483
Probable space group: C 2/M
;
_chemical_formula_sum "Si O2"
_cell_formula_units_Z 36
_cell_length_a 24.268387
_cell_length_b 10.673038
_cell_length_c 13.586689
_cell_angle_alpha 90.000000
_cell_angle_beta 28.895680
_cell_angle_gamma 90.000000
_cell_volume 1700.529787
_symmetry_space_group_name_H-M "C 2/M"
_symmetry_group_IT_number 12
_symmetry_cell_setting 'monoclinic'
loop_
_space_group_symop_operation_xyz
x,y,z
-x,y,-z
-x,-y,-z
x,-y,z
1/2+x,1/2+y,z
1/2-x,1/2+y,-z
1/2-x,1/2-y,-z
1/2+x,1/2-y,z
loop_
_atom_site_type_symbol
_atom_site_label
_atom_site_fract_x
_atom_site_fract_y
_atom_site_fract_z
Si Si1 0.365341 0.500000 0.735430
Si Si2 0.135654 0.235627 0.567749
Si Si3 0.618338 0.236347 0.372672
Si Si4 0.510026 0.500000 0.865705
Si Si5 0.120677 0.641790 0.782511
Si Si6 0.284980 0.500000 0.086097
O O1 0.500000 0.500000 0.500000
O O2 0.325888 0.368363 0.749933
O O3 0.340150 0.500000 0.890692
O O4 0.086223 0.251173 0.537574
O O5 0.125117 0.351625 0.657673
O O6 0.270489 0.212044 0.346214
O O7 0.079778 0.119208 0.713426
O O8 0.500000 0.215712 0.500000
O O9 0.705405 0.122359 0.221971
O O10 0.500000 0.500000 0.000000
O O11 0.385565 0.500000 0.009529
O O12 0.125364 0.500000 0.811431
O O13 0.000000 0.698099 0.000000
#
# Coordination Sequence:
#
# PCOD9216483 Si02
#       6
#     4   8   8   4   8   4
#     4  10  22  47  71  96 134 181 222 279 340 414
#     4  11  24  42  69  97 141 177 222 281 342 406
#     4  11  25  46  71 101 139 178 228 287 348 406
#     4  12  26  43  70 100 139 185 233 274 347 420
#     4  10  23  43  66  98 135 178 224 272 337 405
#     4  12  27  44  74 102 133 179 238 284 341 411
#
# _framework density 21.169875000000001
#
# number of rings (size 3 to 8) (size 9 to 14) (size 15 to 20)
#    0.000    1.111    1.111    5.000   10.889    0.000 
#    0.000    0.000    0.000    0.000    0.000    0.000 
#    0.000    0.000    0.000    0.000    0.000    0.000 
#
# Total GULP energy -100615.239375 kJ/mol
# GULP energy per Si atom -5589.735521 kJ/mol
# Density = 2.112169 g / cm^3
# Si number density = 21.169875 Si / 1000 Ang^3
#
#
#
# Elastic Constant Matrix: (Units=GPa)
#
#
# Indices 1 2 3 4 5 6 
#
# 1 138.3870 3.9750 38.2391 0.0000 -2.8885 0.0000
# 2 3.9750 112.8378 23.3469 0.0000 -19.5159 0.0000
# 3 38.2391 23.3469 96.6971 0.0000 -17.5006 0.0000
# 4 0.0000 0.0000 0.0000 -55.8518 0.0000 -13.7256
# 5 -2.8885 -19.5159 -17.5006 0.0000 40.4605 0.0000
# 6 0.0000 0.0000 0.0000 -13.7256 0.0000 -26.5464
#
#
#
# Elastic Compliance Matrix: (Units=1/GPa)
#
#
# Indices 1 2 3 4 5 6 
#
# 1 0.008150 0.000291 -0.003431 0.000000 -0.000762 0.000000
# 2 0.000291 0.009918 -0.001779 0.000000 0.004035 0.000000
# 3 -0.003431 -0.001779 0.012941 0.000000 0.004494 0.000000
# 4 0.000000 0.000000 0.000000 -0.020511 0.000000 0.010605
# 5 -0.000762 0.004035 0.004494 0.000000 0.028551 0.000000
# 6 0.000000 0.000000 0.000000 0.010605 0.000000 -0.043153
#
#
# Mechanical properties :
#
#
# Convention : Reuss Voigt Hill
#
# Bulk Modulus (GPa) = 47.23564 53.22711 50.23138
# Shear Modulus (GPa) = 390.84469 10.43653 200.64061
#
# Velocity S-wave (km/s) = 13.60235 2.22275 9.74588
# Velocity P-wave (km/s) = 16.40304 5.63781 12.26467
#
# Compressibility (1/GPa) = 0.02117045
#
# Stress axis : x y z
#
# Youngs Moduli (GPa) = 122.70056 100.82584 77.27116
#
# Poissons Ratio (x) = -0.02934 0.26512
# Poissons Ratio (y) = -0.03571 0.13750
# Poissons Ratio (z) = 0.42099 0.17942
#
# Static dielectric constant tensor:
#      x y z
#    x 1.737920 0.000000 0.004890 
#    y 0.000000 1.786920 0.000000 
#    z 0.004890 0.000000 1.758240 
# 
# From -- ./inp_files/175064.got.cif
#   From: 2010.05.17/outbox.cif.g08.bks.cpg/sg12_88_cif.got.tgz:175064.got - 2010.06.03 13:09:07.
