data_PCOD9216216
_publ_section_title
;
Structure prediction by ZEFSAII (Michael W. Deem and Ramdas Pophale) SiO2 
 PCOD9216216
Probable space group: C 2/M
;
_chemical_formula_sum "Si O2"
_cell_formula_units_Z 34
_cell_length_a 11.598895
_cell_length_b 13.352023
_cell_length_c 14.955907
_cell_angle_alpha 90.000000
_cell_angle_beta 143.107910
_cell_angle_gamma 90.000000
_cell_volume 1390.438842
_symmetry_space_group_name_H-M "C 2/M"
_symmetry_group_IT_number 12
_symmetry_cell_setting 'monoclinic'
loop_
_space_group_symop_operation_xyz
x,y,z
-x,y,-z
-x,-y,-z
x,-y,z
1/2+x,1/2+y,z
1/2-x,1/2+y,-z
1/2-x,1/2-y,-z
1/2+x,1/2-y,z
loop_
_atom_site_type_symbol
_atom_site_label
_atom_site_fract_x
_atom_site_fract_y
_atom_site_fract_z
Si Si1 0.684208 0.837618 0.844397
Si Si2 0.251623 0.327591 0.417736
Si Si3 0.213204 0.360773 0.663055
Si Si4 0.500000 0.500000 0.500000
Si Si5 0.623466 0.391309 0.850281
O O1 0.463098 0.869501 0.719354
O O2 0.747431 0.878892 0.788208
O O3 0.683931 0.714613 0.843072
O O4 0.801502 0.876018 0.001578
O O5 0.250000 0.250000 0.500000
O O6 0.280384 0.258132 0.349028
O O7 0.407559 0.413063 0.508622
O O8 0.392871 0.396202 0.716471
O O9 0.000000 0.392491 0.500000
O O10 0.693609 0.500000 0.858705
#
# Coordination Sequence:
#
# PCOD9216216 Si02
#       5
#     8   8   8   2   8
#     4  10  22  43  69  93 142 179 224 307 351 419
#     4  11  22  44  66 105 145 180 237 300 352 440
#     4  11  21  42  65  99 142 177 226 300 357 419
#     4  12  24  40  76 104 132 212 228 284 386 428
#     4  10  24  43  67  97 131 185 236 286 359 435
#
# _framework density 24.452711000000001
#
# number of rings (size 3 to 8) (size 9 to 14) (size 15 to 20)
#    0.000    1.412    3.529    0.706    1.647    2.353 
#   19.059    0.000    0.000    4.941    0.000    0.000 
#    0.000    0.000    0.000    0.000    0.000    0.000 
#
# Total GULP energy -94737.902810 kJ/mol
# GULP energy per Si atom -5572.817812 kJ/mol
# Density = 2.439706 g / cm^3
# Si number density = 24.452711 Si / 1000 Ang^3
#
#
#
# Elastic Constant Matrix: (Units=GPa)
#
#
# Indices 1 2 3 4 5 6 
#
# 1 82.9100 26.5698 30.7901 0.0005 -10.5873 0.0001
# 2 26.5698 170.8415 -9.7086 0.0006 0.2838 0.0003
# 3 30.7901 -9.7086 87.8019 0.0014 -2.8467 0.0007
# 4 0.0005 0.0006 0.0014 -13.2713 0.0009 8.1449
# 5 -10.5873 0.2838 -2.8467 0.0009 39.7949 0.0004
# 6 0.0001 0.0003 0.0007 8.1449 0.0004 20.1818
#
#
#
# Elastic Compliance Matrix: (Units=1/GPa)
#
#
# Indices 1 2 3 4 5 6 
#
# 1 0.015502 -0.002736 -0.005618 0.000000 0.003742 0.000000
# 2 -0.002736 0.006373 0.001643 0.000000 -0.000656 0.000000
# 3 -0.005618 0.001643 0.013523 0.000001 -0.000539 -0.000001
# 4 0.000000 0.000000 0.000001 -0.060393 0.000001 0.024373
# 5 0.003742 -0.000656 -0.000539 0.000001 0.026091 -0.000001
# 6 0.000000 0.000000 -0.000001 0.024373 -0.000001 0.039713
#
#
# Mechanical properties :
#
#
# Convention : Reuss Voigt Hill
#
# Bulk Modulus (GPa) = 45.50148 48.53958 47.02053
# Shear Modulus (GPa) = 81.22464 28.93457 55.07960
#
# Velocity S-wave (km/s) = 5.76967 3.44363 4.75119
# Velocity P-wave (km/s) = 7.93939 5.97536 7.02633
#
# Compressibility (1/GPa) = 0.02197731
#
# Stress axis : x y z
#
# Youngs Moduli (GPa) = 64.50697 156.90178 73.94582
#
# Poissons Ratio (x) = 0.42935 0.41539
# Poissons Ratio (y) = 0.17652 -0.12150
# Poissons Ratio (z) = 0.36237 -0.25780
#
# Static dielectric constant tensor:
#      x y z
#    x 1.929470 0.000000 -0.008520 
#    y 0.000000 1.999120 0.000000 
#    z -0.008520 0.000000 1.975960 
# 
# From -- ./inp_files/205181.got.cif
#   From: 2010.05.17/outbox.cif.g08.bks.cpg/sg12_103_cif.got.tgz:205181.got - 2010.06.03 13:09:07.
