data_PCOD9216448
_publ_section_title
;
Structure prediction by ZEFSAII (Michael W. Deem and Ramdas Pophale) SiO2 
 PCOD9216448
Probable space group: C 2/M
;
_chemical_formula_sum "Si O2"
_cell_formula_units_Z 36
_cell_length_a 20.990138
_cell_length_b 16.802105
_cell_length_c 13.383948
_cell_angle_alpha 90.000000
_cell_angle_beta 17.806223
_cell_angle_gamma 90.000000
_cell_volume 1443.440498
_symmetry_space_group_name_H-M "C 2/M"
_symmetry_group_IT_number 12
_symmetry_cell_setting 'monoclinic'
loop_
_space_group_symop_operation_xyz
x,y,z
-x,y,-z
-x,-y,-z
x,-y,z
1/2+x,1/2+y,z
1/2-x,1/2+y,-z
1/2-x,1/2-y,-z
1/2+x,1/2-y,z
loop_
_atom_site_type_symbol
_atom_site_label
_atom_site_fract_x
_atom_site_fract_y
_atom_site_fract_z
Si Si1 0.072667 0.906639 0.777569
Si Si2 0.850472 0.912312 0.912258
Si Si3 0.456783 0.162056 0.267777
Si Si4 0.041172 0.500000 0.254545
Si Si5 0.102143 0.766948 0.449314
O O1 0.264809 0.847122 0.476904
O O2 0.891190 0.894717 0.967309
O O3 0.125400 0.000000 0.687494
O O4 0.000000 0.896553 0.000000
O O5 0.955715 0.843121 0.692654
O O6 0.954384 0.000000 0.734114
O O7 0.622253 0.931657 0.214433
O O8 0.399362 0.211908 0.451771
O O9 0.491993 0.071016 0.248651
O O10 0.666118 0.200681 0.913927
O O11 0.000000 0.732789 0.500000
#
# Coordination Sequence:
#
# PCOD9216448 Si02
#       5
#     8   8   8   4   8
#     4  10  23  46  71 103 148 187 240 301 351 424
#     4   9  22  43  72 102 143 186 236 294 354 419
#     4  12  27  45  76 105 145 194 240 288 364 424
#     4  10  22  45  77 108 130 201 240 285 362 433
#     4  12  26  45  71 110 152 180 238 306 352 420
#
# _framework density 24.940411000000001
#
# number of rings (size 3 to 8) (size 9 to 14) (size 15 to 20)
#    0.667    0.667    3.333    0.667    4.667    3.111 
#    0.000    3.889    0.000    0.000    0.000    0.000 
#    0.000    0.000    0.000    0.000    0.000    0.000 
#
# Total GULP energy -100203.940560 kJ/mol
# GULP energy per Si atom -5566.885587 kJ/mol
# Density = 2.488365 g / cm^3
# Si number density = 24.940411 Si / 1000 Ang^3
#
#
#
# Elastic Constant Matrix: (Units=GPa)
#
#
# Indices 1 2 3 4 5 6 
#
# 1 62.4287 2.7546 -7.1530 -0.0017 9.7632 0.0003
# 2 2.7546 144.6986 30.7168 0.0018 23.1831 -0.0011
# 3 -7.1530 30.7168 71.3600 -0.0024 9.9466 0.0038
# 4 -0.0017 0.0018 -0.0024 13.0309 0.0050 -9.7193
# 5 9.7632 23.1831 9.9466 0.0050 24.3390 -0.0017
# 6 0.0003 -0.0011 0.0038 -9.7193 -0.0017 35.9303
#
#
#
# Elastic Compliance Matrix: (Units=1/GPa)
#
#
# Indices 1 2 3 4 5 6 
#
# 1 0.017672 0.000462 0.002780 0.000007 -0.008665 0.000001
# 2 0.000462 0.008639 -0.002651 0.000002 -0.007331 0.000001
# 3 0.002780 -0.002651 0.016157 0.000005 -0.005193 -0.000001
# 4 0.000007 0.000002 0.000005 0.096138 -0.000024 0.026006
# 5 -0.008665 -0.007331 -0.005193 -0.000024 0.053667 -0.000004
# 6 0.000001 0.000001 -0.000001 0.026006 -0.000004 0.034866
#
#
# Mechanical properties :
#
#
# Convention : Reuss Voigt Hill
#
# Bulk Modulus (GPa) = 22.90927 36.79155 29.85041
# Shear Modulus (GPa) = 20.78944 31.47129 26.13036
#
# Velocity S-wave (km/s) = 2.89028 3.55612 3.24035
# Velocity P-wave (km/s) = 4.51042 5.62540 5.09848
#
# Compressibility (1/GPa) = 0.04365045
#
# Stress axis : x y z
#
# Youngs Moduli (GPa) = 56.58822 115.74926 61.89260
#
# Poissons Ratio (x) = -0.05343 -0.17209
# Poissons Ratio (y) = -0.02612 0.16406
# Poissons Ratio (z) = -0.15734 0.30682
#
# Static dielectric constant tensor:
#      x y z
#    x 2.032240 0.000000 -0.099610 
#    y 0.000000 1.951800 0.000010 
#    z -0.099610 0.000010 2.051950 
# 
# From -- ./inp_files/241126.got.cif
#   From: 2010.05.17/outbox.cif.g08.bks.cpg/sg12_121_cif.got.tgz:241126.got - 2010.06.03 13:09:07.
