data_PCOD9216693
_publ_section_title
;
Structure prediction by ZEFSAII (Michael W. Deem and Ramdas Pophale) SiO2 
 PCOD9216693
Probable space group: C 2/M
;
_chemical_formula_sum "Si O2"
_cell_formula_units_Z 36
_cell_length_a 20.197552
_cell_length_b 9.161798
_cell_length_c 17.648934
_cell_angle_alpha 90.000000
_cell_angle_beta 33.647048
_cell_angle_gamma 90.000000
_cell_volume 1809.533901
_symmetry_space_group_name_H-M "C 2/M"
_symmetry_group_IT_number 12
_symmetry_cell_setting 'monoclinic'
loop_
_space_group_symop_operation_xyz
x,y,z
-x,y,-z
-x,-y,-z
x,-y,z
1/2+x,1/2+y,z
1/2-x,1/2+y,-z
1/2-x,1/2-y,-z
1/2+x,1/2-y,z
loop_
_atom_site_type_symbol
_atom_site_label
_atom_site_fract_x
_atom_site_fract_y
_atom_site_fract_z
Si Si1 0.009264 0.500000 0.210061
Si Si2 0.365690 0.500000 0.047824
Si Si3 0.921782 0.000000 0.497843
Si Si4 0.000000 0.753956 0.000000
Si Si5 0.886617 0.500000 0.665656
Si Si6 0.207407 0.000000 0.058096
Si Si7 0.455541 0.746213 0.712744
Si Si8 0.854666 0.500000 0.206146
O O1 0.987006 0.354215 0.280382
O O2 0.930384 0.500000 0.211082
O O3 0.151973 0.500000 0.058761
O O4 0.448187 0.640494 0.984607
O O5 0.256412 0.500000 0.213663
O O6 0.314582 0.500000 0.011459
O O7 0.954403 0.140090 0.416276
O O8 0.784723 0.000000 0.649146
O O9 0.000000 0.000000 0.500000
O O10 0.104938 0.645216 0.875806
O O11 0.000000 0.500000 0.500000
O O12 0.901734 0.355365 0.701901
O O13 0.143608 0.142103 0.154615
#
# Coordination Sequence:
#
# PCOD9216693 Si02
#       8
#     4   4   4   4   4   4   8   4
#     4  11  22  39  63  95 126 165 206 268 319 373
#     4  11  23  43  68  96 133 166 214 266 319 380
#     4  11  26  42  64  91 125 176 215 263 315 384
#     4  10  26  42  62  98 126 172 206 266 328 374
#     4  11  24  38  66  97 129 170 214 261 314 379
#     4  11  21  38  70  97 126 163 216 266 314 377
#     4  10  23  39  64  97 126 166 216 261 314 376
#     4  11  26  42  65  88 133 164 216 263 323 383
#
# _framework density 19.894625000000001
#
# number of rings (size 3 to 8) (size 9 to 14) (size 15 to 20)
#    0.000    1.333    2.222    2.667    9.333    2.667 
#    0.000    0.000    0.000    0.000    0.000    0.000 
#    0.000    0.000    0.000    0.000    0.000    0.000 
#
# Total GULP energy -100586.166383 kJ/mol
# GULP energy per Si atom -5588.120355 kJ/mol
# Density = 1.984934 g / cm^3
# Si number density = 19.894625 Si / 1000 Ang^3
#
#
#
# Elastic Constant Matrix: (Units=GPa)
#
#
# Indices 1 2 3 4 5 6 
#
# 1 79.7862 35.6423 41.3281 0.0000 -6.2416 0.0000
# 2 35.6423 166.6373 68.3253 0.0000 3.1506 0.0000
# 3 41.3281 68.3253 155.1659 0.0000 -7.6833 0.0000
# 4 0.0000 0.0000 0.0000 45.8425 0.0000 7.1074
# 5 -6.2416 3.1506 -7.6833 0.0000 28.8892 0.0000
# 6 0.0000 0.0000 0.0000 7.1074 0.0000 6.0043
#
#
#
# Elastic Compliance Matrix: (Units=1/GPa)
#
#
# Indices 1 2 3 4 5 6 
#
# 1 0.015232 -0.002076 -0.003008 0.000000 0.002717 0.000000
# 2 -0.002076 0.007687 -0.002935 0.000000 -0.002067 0.000000
# 3 -0.003008 -0.002935 0.008636 0.000000 0.001967 0.000000
# 4 0.000000 0.000000 0.000000 0.026717 0.000000 -0.031625
# 5 0.002717 -0.002067 0.001967 0.000000 0.035951 0.000000
# 6 0.000000 0.000000 0.000000 -0.031625 0.000000 0.203982
#
#
# Mechanical properties :
#
#
# Convention : Reuss Voigt Hill
#
# Bulk Modulus (GPa) = 64.44436 76.90900 70.67668
# Shear Modulus (GPa) = 15.65367 33.23345 24.44356
#
# Velocity S-wave (km/s) = 2.80809 4.09158 3.50902
# Velocity P-wave (km/s) = 6.55568 7.81431 7.21250
#
# Compressibility (1/GPa) = 0.01551726
#
# Stress axis : x y z
#
# Youngs Moduli (GPa) = 65.65284 130.08359 115.80060
#
# Poissons Ratio (x) = 0.27003 0.34836
# Poissons Ratio (y) = 0.13628 0.33982
# Poissons Ratio (z) = 0.19750 0.38173
#
# Static dielectric constant tensor:
#      x y z
#    x 1.700420 0.000000 0.003990 
#    y 0.000000 1.717300 0.000000 
#    z 0.003990 0.000000 1.729330 
# 
# From -- ./inp_files/152121.got.cif
#   From: 2010.05.17/outbox.cif.g08.bks.cpg/sg12_77_cif.got.tgz:152121.got - 2010.06.03 13:09:07.
