data_PCOD9216592
_publ_section_title
;
Structure prediction by ZEFSAII (Michael W. Deem and Ramdas Pophale) SiO2 
 PCOD9216592
Probable space group: C 2/M
;
_chemical_formula_sum "Si O2"
_cell_formula_units_Z 38
_cell_length_a 5.715484
_cell_length_b 29.084029
_cell_length_c 11.330555
_cell_angle_alpha 90.000000
_cell_angle_beta 82.342860
_cell_angle_gamma 90.000000
_cell_volume 1866.675633
_symmetry_space_group_name_H-M "C 2/M"
_symmetry_group_IT_number 12
_symmetry_cell_setting 'monoclinic'
loop_
_space_group_symop_operation_xyz
x,y,z
-x,y,-z
-x,-y,-z
x,-y,z
1/2+x,1/2+y,z
1/2-x,1/2+y,-z
1/2-x,1/2-y,-z
1/2+x,1/2-y,z
loop_
_atom_site_type_symbol
_atom_site_label
_atom_site_fract_x
_atom_site_fract_y
_atom_site_fract_z
Si Si1 0.500000 0.500000 0.500000
Si Si2 0.840990 0.870850 0.800956
Si Si3 0.000000 0.420851 0.000000
Si Si4 0.319259 0.733662 0.861795
Si Si5 0.867089 0.579652 0.392893
Si Si6 0.280788 0.549653 0.191512
O O1 0.683181 0.540567 0.442098
O O2 0.889322 0.819477 0.839266
O O3 0.755034 0.879790 0.673519
O O4 0.052819 0.906698 0.805274
O O5 0.635039 0.889062 0.899275
O O6 0.182003 0.449666 0.065496
O O7 0.565482 0.759474 0.813400
O O8 0.250000 0.750000 0.000000
O O9 0.000000 0.596773 0.500000
O O10 0.063070 0.556309 0.295022
O O11 0.395629 0.500000 0.211252
#
# Coordination Sequence:
#
# PCOD9216592 Si02
#       6
#     2   8   4   8   8   8
#     4  12  22  44  68 100 124 200 236 290 340 418
#     4  11  25  40  68 101 138 183 236 290 355 426
#     4  10  23  38  60  90 144 184 228 274 347 424
#     4  10  23  41  72 100 136 178 234 298 359 424
#     4  11  25  41  67  95 140 180 244 288 344 412
#     4  11  24  40  61  96 141 189 227 282 345 427
#
# _framework density 20.357043000000001
#
# number of rings (size 3 to 8) (size 9 to 14) (size 15 to 20)
#    0.000    1.263    1.053    3.789   16.211    2.526 
#    0.000    0.000    0.000    1.263    0.000    0.000 
#    0.000    0.000    0.000    0.000    0.000    0.000 
#
# Total GULP energy -105812.758888 kJ/mol
# GULP energy per Si atom -5569.092573 kJ/mol
# Density = 2.031071 g / cm^3
# Si number density = 20.357043 Si / 1000 Ang^3
#
#
#
# Elastic Constant Matrix: (Units=GPa)
#
#
# Indices 1 2 3 4 5 6 
#
# 1 108.2655 45.6300 32.5191 0.0000 -6.8742 0.0000
# 2 45.6300 143.6451 22.9674 0.0000 -1.1860 0.0000
# 3 32.5191 22.9674 80.7495 0.0000 23.5355 0.0000
# 4 0.0000 0.0000 0.0000 31.0589 0.0000 -9.9059
# 5 -6.8742 -1.1860 23.5355 0.0000 39.6546 0.0000
# 6 0.0000 0.0000 0.0000 -9.9059 0.0000 31.2729
#
#
#
# Elastic Compliance Matrix: (Units=1/GPa)
#
#
# Indices 1 2 3 4 5 6 
#
# 1 0.012622 -0.003029 -0.005844 0.000000 0.005566 0.000000
# 2 -0.003029 0.008122 -0.001219 0.000000 0.000441 0.000000
# 3 -0.005844 -0.001219 0.018609 0.000000 -0.012094 0.000000
# 4 0.000000 0.000000 0.000000 0.035815 0.000000 0.011345
# 5 0.005566 0.000441 -0.012094 0.000000 0.033374 0.000000
# 6 0.000000 0.000000 0.000000 0.011345 0.000000 0.035570
#
#
# Mechanical properties :
#
#
# Convention : Reuss Voigt Hill
#
# Bulk Modulus (GPa) = 52.16555 59.43256 55.79905
# Shear Modulus (GPa) = 29.29363 35.83352 32.56358
#
# Velocity S-wave (km/s) = 3.79752 4.20009 4.00387
# Velocity P-wave (km/s) = 6.70143 7.26495 6.98887
#
# Compressibility (1/GPa) = 0.01916974
#
# Stress axis : x y z
#
# Youngs Moduli (GPa) = 79.22780 123.11667 53.73738
#
# Poissons Ratio (x) = 0.37294 0.31402
# Poissons Ratio (y) = 0.23999 0.06550
# Poissons Ratio (z) = 0.46298 0.15008
#
# Static dielectric constant tensor:
#      x y z
#    x 1.832750 0.000000 0.079090 
#    y 0.000000 1.732400 0.000000 
#    z 0.079090 0.000000 1.807720 
# 
# From -- ./inp_files/115467.got.cif
#   From: 2010.05.17/outbox.cif.g08.bks.cpg/sg12_58_cif.got.tgz:115467.got - 2010.06.03 13:09:07.
