data_PCOD9216612
_publ_section_title
;
Structure prediction by ZEFSAII (Michael W. Deem and Ramdas Pophale) SiO2 
 PCOD9216612
Probable space group: C 2/M
;
_chemical_formula_sum "Si O2"
_cell_formula_units_Z 52
_cell_length_a 12.765475
_cell_length_b 21.217234
_cell_length_c 12.059023
_cell_angle_alpha 90.000000
_cell_angle_beta 132.384344
_cell_angle_gamma 90.000000
_cell_volume 2412.517298
_symmetry_space_group_name_H-M "C 2/M"
_symmetry_group_IT_number 12
_symmetry_cell_setting 'monoclinic'
loop_
_space_group_symop_operation_xyz
x,y,z
-x,y,-z
-x,-y,-z
x,-y,z
1/2+x,1/2+y,z
1/2-x,1/2+y,-z
1/2-x,1/2-y,-z
1/2+x,1/2-y,z
loop_
_atom_site_type_symbol
_atom_site_label
_atom_site_fract_x
_atom_site_fract_y
_atom_site_fract_z
Si Si1 0.206132 0.431335 0.196807
Si Si2 0.514278 0.321725 0.137690
Si Si3 0.206536 0.864361 0.460237
Si Si4 0.171737 0.500000 0.760029
Si Si5 0.229730 0.390405 0.965155
Si Si6 0.830637 0.500000 0.507632
Si Si7 0.000000 0.889634 0.500000
Si Si8 0.444502 0.821356 0.770153
O O1 0.149373 0.500000 0.190541
O O2 0.371341 0.426840 0.350302
O O3 0.125185 0.372680 0.195638
O O4 0.198176 0.424716 0.059000
O O5 0.644873 0.352340 0.295654
O O6 0.536197 0.247106 0.164907
O O7 0.500000 0.338651 0.000000
O O8 0.368981 0.348690 0.084331
O O9 0.259411 0.936762 0.504452
O O10 0.081266 0.852835 0.460093
O O11 0.338212 0.821623 0.590164
O O12 0.237354 0.440222 0.870837
O O13 0.192369 0.500000 0.642312
O O14 0.999554 0.500000 0.652173
O O15 0.097230 0.346087 0.844645
#
# Coordination Sequence:
#
# PCOD9216612 Si02
#       8
#     8   8   8   4   8   4   4   8
#     4  11  23  39  69 104 139 175 231 296 356 408
#     4  12  26  47  67  99 146 188 237 285 343 423
#     4  11  24  45  73 101 140 184 231 295 353 418
#     4  11  24  43  67 105 133 184 235 282 355 428
#     4  12  23  43  69 102 137 182 225 297 351 410
#     4  11  24  44  72  99 142 179 234 293 352 422
#     4  10  23  38  66 104 138 172 225 288 360 409
#     4  11  26  43  70 101 136 188 237 285 354 416
#
# _framework density 21.554248999999999
#
# number of rings (size 3 to 8) (size 9 to 14) (size 15 to 20)
#    0.000    0.769    3.846    3.462    6.462    1.231 
#    0.000    1.538    0.000    0.000    0.000    0.000 
#    0.000    0.000    0.000    0.000    0.000    0.000 
#
# Total GULP energy -145401.767354 kJ/mol
# GULP energy per Si atom -5592.375667 kJ/mol
# Density = 2.150519 g / cm^3
# Si number density = 21.554249 Si / 1000 Ang^3
#
#
#
# Elastic Constant Matrix: (Units=GPa)
#
#
# Indices 1 2 3 4 5 6 
#
# 1 38.6845 22.1706 26.9407 0.0000 3.7166 0.0000
# 2 22.1706 101.3529 26.4055 0.0000 10.0162 0.0000
# 3 26.9407 26.4055 158.1919 0.0000 0.1866 0.0000
# 4 0.0000 0.0000 0.0000 -57.4051 0.0000 -26.8972
# 5 3.7166 10.0162 0.1866 0.0000 38.7999 0.0000
# 6 0.0000 0.0000 0.0000 -26.8972 0.0000 -0.0325
#
#
#
# Elastic Compliance Matrix: (Units=1/GPa)
#
#
# Indices 1 2 3 4 5 6 
#
# 1 0.032486 -0.005757 -0.004570 0.000000 -0.001604 0.000000
# 2 -0.005757 0.011616 -0.000956 0.000000 -0.002443 0.000000
# 3 -0.004570 -0.000956 0.007258 0.000000 0.000650 0.000000
# 4 0.000000 0.000000 0.000000 0.000045 0.000000 -0.037275
# 5 -0.001604 -0.002443 0.000650 0.000000 0.026554 0.000000
# 6 0.000000 0.000000 0.000000 -0.037275 0.000000 0.079554
#
#
# Mechanical properties :
#
#
# Convention : Reuss Voigt Hill
#
# Bulk Modulus (GPa) = 34.72723 49.91810 42.32267
# Shear Modulus (GPa) = 26.36055 11.11997 18.74026
#
# Velocity S-wave (km/s) = 3.50092 2.27382 2.95184
# Velocity P-wave (km/s) = 5.69986 5.48664 5.59427
#
# Compressibility (1/GPa) = 0.02879584
#
# Stress axis : x y z
#
# Youngs Moduli (GPa) = 30.78231 86.08627 137.77119
#
# Poissons Ratio (x) = 0.49562 0.62956
# Poissons Ratio (y) = 0.17722 0.13166
# Poissons Ratio (z) = 0.14066 0.08227
#
# Static dielectric constant tensor:
#      x y z
#    x 1.796670 0.000000 -0.020910 
#    y 0.000000 1.766760 0.000000 
#    z -0.020910 0.000000 1.797480 
# 
# From -- ./inp_files/136054.got.cif
#   From: 2010.05.17/outbox.cif.g08.bks.cpg/sg12_69_cif.got.tgz:136054.got - 2010.06.03 13:09:07.
