data_PCOD9216460
_publ_section_title
;
Structure prediction by ZEFSAII (Michael W. Deem and Ramdas Pophale) SiO2 
 PCOD9216460
Probable space group: C 2/M
;
_chemical_formula_sum "Si O2"
_cell_formula_units_Z 42
_cell_length_a 18.254940
_cell_length_b 18.602911
_cell_length_c 16.540165
_cell_angle_alpha 90.000000
_cell_angle_beta 25.034299
_cell_angle_gamma 90.000000
_cell_volume 2376.875931
_symmetry_space_group_name_H-M "C 2/M"
_symmetry_group_IT_number 12
_symmetry_cell_setting 'monoclinic'
loop_
_space_group_symop_operation_xyz
x,y,z
-x,y,-z
-x,-y,-z
x,-y,z
1/2+x,1/2+y,z
1/2-x,1/2+y,-z
1/2-x,1/2-y,-z
1/2+x,1/2-y,z
loop_
_atom_site_type_symbol
_atom_site_label
_atom_site_fract_x
_atom_site_fract_y
_atom_site_fract_z
Si Si1 0.302962 0.166748 0.447552
Si Si2 0.000000 0.000000 0.000000
Si Si3 0.499987 0.420727 0.167085
Si Si4 0.302958 0.166746 0.946550
Si Si5 0.209547 0.916443 0.198315
Si Si6 0.709474 0.583555 0.382688
O O1 0.250000 0.250000 0.500000
O O2 0.500011 0.159173 0.278956
O O3 0.286697 0.134088 0.373813
O O4 0.168211 0.122410 0.636532
O O5 0.000031 0.938679 0.072410
O O6 0.499946 0.500000 0.208535
O O7 0.668172 0.377604 0.027135
O O8 0.250000 0.250000 0.000000
O O9 0.286773 0.134098 0.052748
O O10 0.259072 0.897886 0.240944
O O11 0.000035 0.911779 0.402838
O O12 0.257180 0.000000 0.136808
O O13 0.757101 0.500000 0.348936
#
# Coordination Sequence:
#
# PCOD9216460 Si02
#       6
#     8   2   8   8   8   8
#     4  12  23  39  64  94 128 173 215 268 330 388
#     4   8  24  48  74  92 130 182 214 284 342 384
#     4  10  22  46  67  94 127 166 223 271 328 398
#     4  12  23  39  64  94 128 173 215 268 330 388
#     4   9  18  35  59  89 125 161 200 249 306 375
#     4   9  18  35  59  89 125 161 200 249 306 375
#
# _framework density 17.670254
#
# number of rings (size 3 to 8) (size 9 to 14) (size 15 to 20)
#    0.571    1.143    3.810    2.286    0.000    3.810 
#    3.429    3.810    0.000    0.000    0.000    0.000 
#    0.000    0.000    0.000    0.000    0.000    0.000 
#
# Total GULP energy -116936.445092 kJ/mol
# GULP energy per Si atom -5568.402147 kJ/mol
# Density = 1.763004 g / cm^3
# Si number density = 17.670254 Si / 1000 Ang^3
#
#
#
# Elastic Constant Matrix: (Units=GPa)
#
#
# Indices 1 2 3 4 5 6 
#
# 1 119.1850 72.5301 69.3125 0.0048 13.5638 -0.0009
# 2 72.5301 138.8340 68.4493 -0.0060 2.6980 0.0023
# 3 69.3125 68.4493 121.6916 -0.0019 -15.1727 -0.0007
# 4 0.0048 -0.0060 -0.0019 20.6026 0.0027 -7.0698
# 5 13.5638 2.6980 -15.1727 0.0027 33.4472 -0.0016
# 6 -0.0009 0.0023 -0.0007 -7.0698 -0.0016 9.7840
#
#
#
# Elastic Compliance Matrix: (Units=1/GPa)
#
#
# Indices 1 2 3 4 5 6 
#
# 1 0.017465 -0.004648 -0.008659 -0.000006 -0.010636 -0.000004
# 2 -0.004648 0.011618 -0.003995 0.000004 -0.000864 -0.000001
# 3 -0.008659 -0.003995 0.016826 0.000003 0.011467 0.000005
# 4 -0.000006 0.000004 0.000003 0.064541 0.000001 0.046636
# 5 -0.010636 -0.000864 0.011467 0.000001 0.039482 0.000007
# 6 -0.000004 -0.000001 0.000005 0.046636 0.000007 0.135906
#
#
# Mechanical properties :
#
#
# Convention : Reuss Voigt Hill
#
# Bulk Modulus (GPa) = 88.46212 88.92159 88.69185
# Shear Modulus (GPa) = 15.42199 24.06133 19.74166
#
# Velocity S-wave (km/s) = 2.95747 3.69411 3.34612
# Velocity P-wave (km/s) = 7.86343 8.28416 8.07653
#
# Compressibility (1/GPa) = 0.01130427
#
# Stress axis : x y z
#
# Youngs Moduli (GPa) = 57.25626 86.07613 59.43030
#
# Poissons Ratio (x) = 0.40011 0.51463
# Poissons Ratio (y) = 0.26614 0.23742
# Poissons Ratio (z) = 0.49580 0.34387
#
# Static dielectric constant tensor:
#      x y z
#    x 1.597150 -0.000010 -0.013430 
#    y -0.000010 1.678010 0.000040 
#    z -0.013430 0.000040 1.617700 
# 
# From -- ./inp_files/285111.got.cif
#   From: 2010.05.17/outbox.cif.g08.bks.cpg/sg12_143_cif.got.tgz:285111.got - 2010.06.03 13:09:07.
