data_PCOD9216675
_publ_section_title
;
Structure prediction by ZEFSAII (Michael W. Deem and Ramdas Pophale) SiO2 
 PCOD9216675
Probable space group: C 2/M
;
_chemical_formula_sum "Si O2"
_cell_formula_units_Z 42
_cell_length_a 20.968764
_cell_length_b 7.612731
_cell_length_c 14.830390
_cell_angle_alpha 90.000000
_cell_angle_beta 52.986194
_cell_angle_gamma 90.000000
_cell_volume 1890.321295
_symmetry_space_group_name_H-M "C 2/M"
_symmetry_group_IT_number 12
_symmetry_cell_setting 'monoclinic'
loop_
_space_group_symop_operation_xyz
x,y,z
-x,y,-z
-x,-y,-z
x,-y,z
1/2+x,1/2+y,z
1/2-x,1/2+y,-z
1/2-x,1/2-y,-z
1/2+x,1/2-y,z
loop_
_atom_site_type_symbol
_atom_site_label
_atom_site_fract_x
_atom_site_fract_y
_atom_site_fract_z
Si Si1 0.714917 0.289059 0.293920
Si Si2 0.674577 0.288795 0.126577
Si Si3 0.500000 0.000000 0.000000
Si Si4 0.942604 0.293442 0.469217
Si Si5 0.997289 0.203288 0.776268
Si Si6 0.102233 0.205223 0.853546
O O1 0.717314 0.500000 0.290886
O O2 0.688998 0.225505 0.216296
O O3 0.647783 0.232808 0.421899
O O4 0.803313 0.222299 0.238877
O O5 0.666426 0.500000 0.139201
O O6 0.591037 0.218045 0.158686
O O7 0.750000 0.250000 0.000000
O O8 0.431514 0.157267 0.045773
O O9 0.959279 0.500000 0.445845
O O10 0.000000 0.222709 0.500000
O O11 0.962777 0.212029 0.355934
O O12 0.056576 0.273902 0.802106
O O13 0.987185 0.000000 0.810147
O O14 0.085684 0.000000 0.887441
#
# Coordination Sequence:
#
# PCOD9216675 Si02
#       6
#     8   8   2   8   8   8
#     4  11  23  43  67  96 133 178 226 276 344 405
#     4  10  23  39  62  92 128 169 220 274 336 406
#     4  12  26  48  72  98 140 188 222 278 346 402
#     4  11  23  39  66 100 134 176 224 284 342 406
#     4  10  23  44  66  95 129 175 226 279 342 400
#     4  11  26  45  70 102 138 179 230 279 337 409
#
# _framework density 22.218444000000002
#
# number of rings (size 3 to 8) (size 9 to 14) (size 15 to 20)
#    0.000    1.333    2.857    1.429    4.000    3.810 
#    0.000    0.000    0.000    0.000    0.000    0.000 
#    0.000    0.000    0.000    0.000    0.000    0.000 
#
# Total GULP energy -117188.266505 kJ/mol
# GULP energy per Si atom -5580.393643 kJ/mol
# Density = 2.216787 g / cm^3
# Si number density = 22.218444 Si / 1000 Ang^3
#
#
#
# Elastic Constant Matrix: (Units=GPa)
#
#
# Indices 1 2 3 4 5 6 
#
# 1 163.5244 5.1943 52.5048 0.0000 -15.8171 0.0000
# 2 5.1943 96.0108 -10.9876 0.0005 -2.1915 0.0000
# 3 52.5048 -10.9876 97.7533 -0.0001 -21.0890 0.0000
# 4 0.0000 0.0005 -0.0001 35.3307 -0.0001 -20.7328
# 5 -15.8171 -2.1915 -21.0890 -0.0001 46.6842 0.0000
# 6 0.0000 0.0000 0.0000 -20.7328 0.0000 19.4494
#
#
#
# Elastic Compliance Matrix: (Units=1/GPa)
#
#
# Indices 1 2 3 4 5 6 
#
# 1 0.007482 -0.000842 -0.003961 0.000000 0.000706 0.000000
# 2 -0.000842 0.010701 0.001886 0.000000 0.001069 0.000000
# 3 -0.003961 0.001886 0.013627 0.000000 0.004902 0.000000
# 4 0.000000 0.000000 0.000000 0.075587 0.000000 0.080575
# 5 0.000706 0.001069 0.004902 0.000000 0.023925 0.000000
# 6 0.000000 0.000000 0.000000 0.080575 0.000000 0.137308
#
#
# Mechanical properties :
#
#
# Convention : Reuss Voigt Hill
#
# Bulk Modulus (GPa) = 38.49770 50.07906 44.28838
# Shear Modulus (GPa) = 17.66013 40.99798 29.32905
#
# Velocity S-wave (km/s) = 2.82235 4.30027 3.63717
# Velocity P-wave (km/s) = 5.29012 6.87348 6.13311
#
# Compressibility (1/GPa) = 0.02597558
#
# Stress axis : x y z
#
# Youngs Moduli (GPa) = 133.65092 93.44703 73.38397
#
# Poissons Ratio (x) = 0.07868 0.29068
# Poissons Ratio (y) = 0.11253 -0.13838
# Poissons Ratio (z) = 0.52940 -0.17621
#
# Static dielectric constant tensor:
#      x y z
#    x 1.852210 0.000000 0.035540 
#    y 0.000000 1.852300 0.000000 
#    z 0.035540 0.000000 1.818660 
# 
# From -- ./inp_files/221448.got.cif
#   From: 2010.05.17/outbox.cif.g08.bks.cpg/sg12_111_cif.got.tgz:221448.got - 2010.06.03 13:09:07.
