data_PCOD9216012
_publ_section_title
;
Structure prediction by ZEFSAII (Michael W. Deem and Ramdas Pophale) SiO2 
 PCOD9216012
Probable space group: C 2/M
;
_chemical_formula_sum "Si O2"
_cell_formula_units_Z 56
_cell_length_a 10.122767
_cell_length_b 30.622550
_cell_length_c 21.655168
_cell_angle_alpha 90.000000
_cell_angle_beta 153.298686
_cell_angle_gamma 90.000000
_cell_volume 3016.315288
_symmetry_space_group_name_H-M "C 2/M"
_symmetry_group_IT_number 12
_symmetry_cell_setting 'monoclinic'
loop_
_space_group_symop_operation_xyz
x,y,z
-x,y,-z
-x,-y,-z
x,-y,z
1/2+x,1/2+y,z
1/2-x,1/2+y,-z
1/2-x,1/2-y,-z
1/2+x,1/2-y,z
loop_
_atom_site_type_symbol
_atom_site_label
_atom_site_fract_x
_atom_site_fract_y
_atom_site_fract_z
Si Si1 0.944347 0.247959 0.407463
Si Si2 0.422558 0.711922 0.035729
Si Si3 0.093970 0.890425 0.470308
Si Si4 0.187872 0.333670 0.704829
Si Si5 0.829387 0.051229 0.612092
Si Si6 0.184025 0.121410 0.837802
Si Si7 0.157126 0.670230 0.215527
O O1 0.835510 0.297594 0.359240
O O2 0.745857 0.215749 0.284544
O O3 0.000000 0.232287 0.500000
O O4 0.250000 0.250000 0.500000
O O5 0.702174 0.693865 0.189927
O O6 0.500000 0.728195 0.000000
O O7 0.250000 0.750000 0.000000
O O8 0.193754 0.671872 0.933128
O O9 0.380695 0.858542 0.587287
O O10 0.159524 0.930956 0.453074
O O11 0.000000 0.901849 0.500000
O O12 0.818654 0.865062 0.325186
O O13 0.445983 0.365368 0.789831
O O14 0.500000 0.058940 0.500000
O O15 0.052577 0.080516 0.745360
O O16 0.894427 0.000000 0.643121
O O17 0.228731 0.160318 0.805915
O O18 0.500000 0.112930 0.000000
#
# Coordination Sequence:
#
# PCOD9216012 Si02
#       7
#     8   8   8   8   8   8   8
#     4  12  25  36  55  80 117 160 209 261 303 347
#     4  12  27  39  57  82 122 168 219 268 307 353
#     4  11  23  41  66  91 124 159 203 253 311 375
#     4  12  24  39  61  88 123 165 215 257 310 359
#     4  10  22  42  70 100 125 154 199 254 315 379
#     4  11  23  41  65  95 123 165 204 255 308 379
#     4  11  23  39  58  85 119 159 214 255 302 357
#
# _framework density 18.565697
#
# number of rings (size 3 to 8) (size 9 to 14) (size 15 to 20)
#    0.000    0.714    5.714    2.143    6.000    0.571 
#    0.000    0.000    0.000    0.000    0.000    1.000 
#    0.000    0.000    0.000    0.000    0.000    0.000 
#
# Total GULP energy -156413.176255 kJ/mol
# GULP energy per Si atom -5586.184866 kJ/mol
# Density = 1.852344 g / cm^3
# Si number density = 18.565697 Si / 1000 Ang^3
#
#
#
# Elastic Constant Matrix: (Units=GPa)
#
#
# Indices 1 2 3 4 5 6 
#
# 1 128.9244 43.2236 31.7079 -0.0228 -14.8737 0.0026
# 2 43.2236 80.8236 40.1456 -0.0203 -1.8461 0.0034
# 3 31.7079 40.1456 100.4692 -0.0287 -15.5659 0.0252
# 4 -0.0228 -0.0203 -0.0287 20.5448 0.0046 2.3377
# 5 -14.8737 -1.8461 -15.5659 0.0046 27.0861 -0.0141
# 6 0.0026 0.0034 0.0252 2.3377 -0.0141 19.2078
#
#
#
# Elastic Compliance Matrix: (Units=1/GPa)
#
#
# Indices 1 2 3 4 5 6 
#
# 1 0.010144 -0.005122 -0.000380 0.000004 0.005003 0.000003
# 2 -0.005122 0.018210 -0.006480 0.000004 -0.005296 0.000002
# 3 -0.000380 -0.006480 0.013790 0.000012 0.007274 -0.000013
# 4 0.000004 0.000004 0.000012 0.049358 -0.000002 -0.006007
# 5 0.005003 -0.005296 0.007274 -0.000002 0.043486 0.000023
# 6 0.000003 0.000002 -0.000013 -0.006007 0.000023 0.052793
#
#
# Mechanical properties :
#
#
# Convention : Reuss Voigt Hill
#
# Bulk Modulus (GPa) = 55.00694 60.04127 57.52410
# Shear Modulus (GPa) = 22.95631 26.37707 24.66669
#
# Velocity S-wave (km/s) = 3.52019 3.77336 3.64897
# Velocity P-wave (km/s) = 6.79816 7.16899 6.98604
#
# Compressibility (1/GPa) = 0.01817953
#
# Stress axis : x y z
#
# Youngs Moduli (GPa) = 98.57683 54.91568 72.51893
#
# Poissons Ratio (x) = 0.28129 0.02753
# Poissons Ratio (y) = 0.50494 0.46993
# Poissons Ratio (z) = 0.03742 0.35586
#
# Static dielectric constant tensor:
#      x y z
#    x 1.654640 -0.000010 0.004630 
#    y -0.000010 1.655480 -0.000130 
#    z 0.004630 -0.000130 1.693250 
# 
# From -- ./inp_files/91558.got.cif
#   From: 2010.05.17/outbox.cif.g08.bks.cpg/sg12_46_cif.got.tgz:91558.got - 2010.06.03 13:09:07.
