data_PCOD9216779
_publ_section_title
;
Structure prediction by ZEFSAII (Michael W. Deem and Ramdas Pophale) SiO2 
 PCOD9216779
Probable space group: C 2/M
;
_chemical_formula_sum "Si O2"
_cell_formula_units_Z 52
_cell_length_a 8.164112
_cell_length_b 15.371359
_cell_length_c 29.515457
_cell_angle_alpha 90.000000
_cell_angle_beta 41.404852
_cell_angle_gamma 90.000000
_cell_volume 2449.733036
_symmetry_space_group_name_H-M "C 2/M"
_symmetry_group_IT_number 12
_symmetry_cell_setting 'monoclinic'
loop_
_space_group_symop_operation_xyz
x,y,z
-x,y,-z
-x,-y,-z
x,-y,z
1/2+x,1/2+y,z
1/2-x,1/2+y,-z
1/2-x,1/2-y,-z
1/2+x,1/2-y,z
loop_
_atom_site_type_symbol
_atom_site_label
_atom_site_fract_x
_atom_site_fract_y
_atom_site_fract_z
Si Si1 0.546676 0.500000 0.063099
Si Si2 0.742659 0.906149 0.524576
Si Si3 0.904496 0.324525 0.168463
Si Si4 0.060955 0.684442 0.639486
Si Si5 0.428330 0.798690 0.263140
Si Si6 0.928586 0.500000 0.903813
Si Si7 0.279591 0.312660 0.949565
Si Si8 0.500000 0.789244 0.500000
O O1 0.296984 0.500000 0.085450
O O2 0.564103 0.402892 0.081510
O O3 0.786926 0.500000 0.980590
O O4 0.543188 0.889627 0.605412
O O5 0.678599 0.840646 0.497563
O O6 0.000000 0.904607 0.500000
O O7 0.725633 0.000000 0.506913
O O8 0.647427 0.272729 0.217473
O O9 0.944127 0.349532 0.212775
O O10 0.922007 0.411099 0.134863
O O11 0.110986 0.254046 0.110287
O O12 0.069422 0.652328 0.689328
O O13 0.305820 0.737991 0.572744
O O14 0.829723 0.747723 0.683970
O O15 0.250000 0.250000 0.000000
O O16 0.000000 0.341358 0.000000
#
# Coordination Sequence:
#
# PCOD9216779 Si02
#       8
#     4   8   8   8   8   4   8   4
#     4  11  23  38  64 104 124 162 214 278 334 386
#     4  11  23  38  61  99 134 160 205 281 345 389
#     4  11  23  42  62  90 126 173 214 267 329 394
#     4  11  20  41  66  91 121 168 220 264 320 391
#     4  10  23  40  63  86 122 171 220 257 315 398
#     4  11  22  40  66  92 132 163 216 266 329 397
#     4  12  23  40  67  95 128 165 212 275 332 382
#     4  12  21  40  73  96 124 174 224 272 337 404
#
# _framework density 21.226803
#
# number of rings (size 3 to 8) (size 9 to 14) (size 15 to 20)
#    0.000    0.923    3.846    4.615    0.000    0.000 
#    2.769    0.000    5.077    0.000    0.000    0.000 
#    0.000    0.000    0.000    0.000    0.000    0.000 
#
# Total GULP energy -144935.287926 kJ/mol
# GULP energy per Si atom -5574.434151 kJ/mol
# Density = 2.117849 g / cm^3
# Si number density = 21.226803 Si / 1000 Ang^3
#
#
#
# Elastic Constant Matrix: (Units=GPa)
#
#
# Indices 1 2 3 4 5 6 
#
# 1 51.6439 3.6329 9.1982 -0.0031 4.1114 0.0042
# 2 3.6329 92.2238 13.5203 -0.0008 -1.2616 0.0031
# 3 9.1982 13.5203 95.1780 -0.0010 3.7170 0.0204
# 4 -0.0031 -0.0008 -0.0010 13.9542 0.0013 3.5175
# 5 4.1114 -1.2616 3.7170 0.0013 45.6161 -0.0082
# 6 0.0042 0.0031 0.0204 3.5175 -0.0082 58.7516
#
#
#
# Elastic Compliance Matrix: (Units=1/GPa)
#
#
# Indices 1 2 3 4 5 6 
#
# 1 0.019850 -0.000544 -0.001776 0.000005 -0.001659 -0.000001
# 2 -0.000544 0.011097 -0.001543 0.000000 0.000482 0.000000
# 3 -0.001776 -0.001543 0.010928 0.000001 -0.000773 -0.000004
# 4 0.000005 0.000000 0.000001 0.072761 -0.000003 -0.004356
# 5 -0.001659 0.000482 -0.000773 -0.000003 0.022148 0.000004
# 6 -0.000001 0.000000 -0.000004 -0.004356 0.000004 0.017282
#
#
# Mechanical properties :
#
#
# Convention : Reuss Voigt Hill
#
# Bulk Modulus (GPa) = 29.28353 32.41651 30.85002
# Shear Modulus (GPa) = 28.87256 37.84399 33.35828
#
# Velocity S-wave (km/s) = 3.69208 4.22695 3.96854
# Velocity P-wave (km/s) = 5.65692 6.25519 5.96357
#
# Compressibility (1/GPa) = 0.03414889
#
# Stress axis : x y z
#
# Youngs Moduli (GPa) = 50.37750 90.11144 91.51129
#
# Poissons Ratio (x) = 0.04904 0.16255
# Poissons Ratio (y) = 0.02742 0.14117
# Poissons Ratio (z) = 0.08948 0.13901
#
# Static dielectric constant tensor:
#      x y z
#    x 1.821570 0.000000 0.025370 
#    y 0.000000 1.827420 0.000010 
#    z 0.025370 0.000010 1.774480 
# 
# From -- ./inp_files/372524.got.cif
#   From: 2010.05.17/outbox.cif.g08.bks.cpg/sg12_187_cif.got.tgz:372524.got - 2010.06.03 13:09:07.
