data_PCOD9216833
_publ_section_title
;
Structure prediction by ZEFSAII (Michael W. Deem and Ramdas Pophale) SiO2 
 PCOD9216833
Probable space group: C 2/M
;
_chemical_formula_sum "Si O2"
_cell_formula_units_Z 56
_cell_length_a 27.000091
_cell_length_b 17.676306
_cell_length_c 5.288854
_cell_angle_alpha 90.000000
_cell_angle_beta 111.272009
_cell_angle_gamma 90.000000
_cell_volume 2352.193172
_symmetry_space_group_name_H-M "C 2/M"
_symmetry_group_IT_number 12
_symmetry_cell_setting 'monoclinic'
loop_
_space_group_symop_operation_xyz
x,y,z
-x,y,-z
-x,-y,-z
x,-y,z
1/2+x,1/2+y,z
1/2-x,1/2+y,-z
1/2-x,1/2-y,-z
1/2+x,1/2-y,z
loop_
_atom_site_type_symbol
_atom_site_label
_atom_site_fract_x
_atom_site_fract_y
_atom_site_fract_z
Si Si1 0.468064 0.381500 0.676830
Si Si2 0.689807 0.657995 0.964483
Si Si3 0.849121 0.691304 0.868085
Si Si4 0.051423 0.282141 0.273718
Si Si5 0.093934 0.585221 0.659393
Si Si6 0.648758 0.415149 0.390464
Si Si7 0.291776 0.912446 0.402365
O O1 0.500000 0.414237 0.500000
O O2 0.455273 0.294253 0.580465
O O3 0.411938 0.417208 0.635370
O O4 0.500000 0.382536 0.000000
O O5 0.675488 0.745638 0.992813
O O6 0.654887 0.614266 0.114927
O O7 0.748315 0.627858 0.146330
O O8 0.677708 0.635857 0.654803
O O9 0.891291 0.729969 0.755844
O O10 0.801788 0.644453 0.652398
O O11 0.888412 0.628493 0.057852
O O12 0.055628 0.358898 0.438616
O O13 0.000000 0.286623 0.000000
O O14 0.074764 0.500000 0.660396
O O15 0.150123 0.583275 0.615769
O O16 0.670370 0.500000 0.446427
O O17 0.277866 0.000000 0.435313
#
# Coordination Sequence:
#
# PCOD9216833 Si02
#       7
#     8   8   8   8   8   8   8
#     4  11  24  42  71  98 131 181 227 279 342 405
#     4  12  26  44  71 101 139 183 227 279 335 405
#     4  11  23  42  68  97 132 175 230 282 332 407
#     4  10  23  40  65  95 129 177 221 284 337 408
#     4  10  23  41  65  96 134 176 226 284 343 407
#     4  12  26  45  68 103 141 178 227 285 339 403
#     4  10  23  43  65  97 136 181 225 278 344 401
#
# _framework density 23.807570999999999
#
# number of rings (size 3 to 8) (size 9 to 14) (size 15 to 20)
#    0.000    1.143    1.429    3.857   10.000    2.000 
#    0.000    0.714    0.000    0.000    0.000    0.000 
#    0.000    0.000    0.000    0.000    0.000    0.000 
#
# Total GULP energy -156622.822060 kJ/mol
# GULP energy per Si atom -5593.672216 kJ/mol
# Density = 2.375338 g / cm^3
# Si number density = 23.807571 Si / 1000 Ang^3
#
#
#
# Elastic Constant Matrix: (Units=GPa)
#
#
# Indices 1 2 3 4 5 6 
#
# 1 104.5971 19.9313 13.0298 0.0000 -2.0111 0.0000
# 2 19.9313 130.4896 6.0759 0.0000 5.2380 0.0000
# 3 13.0298 6.0759 40.9359 0.0000 15.7157 0.0000
# 4 0.0000 0.0000 0.0000 36.0085 0.0000 18.4141
# 5 -2.0111 5.2380 15.7157 0.0000 40.8295 0.0000
# 6 0.0000 0.0000 0.0000 18.4141 0.0000 -17.4333
#
#
#
# Elastic Compliance Matrix: (Units=1/GPa)
#
#
# Indices 1 2 3 4 5 6 
#
# 1 0.010377 -0.001491 -0.003932 0.000000 0.002216 0.000000
# 2 -0.001491 0.007945 -0.000335 0.000000 -0.000964 0.000000
# 3 -0.003932 -0.000335 0.030259 0.000000 -0.011798 0.000000
# 4 0.000000 0.000000 0.000000 0.018031 0.000000 0.019046
# 5 0.002216 -0.000964 -0.011798 0.000000 0.029266 0.000000
# 6 0.000000 0.000000 0.000000 0.019046 0.000000 -0.037244
#
#
# Mechanical properties :
#
#
# Convention : Reuss Voigt Hill
#
# Bulk Modulus (GPa) = 26.97925 39.34406 33.16165
# Shear Modulus (GPa) = 60.60149 27.67999 44.14074
#
# Velocity S-wave (km/s) = 5.05074 3.41347 4.31055
# Velocity P-wave (km/s) = 6.73573 5.66546 6.22365
#
# Compressibility (1/GPa) = 0.03706552
#
# Stress axis : x y z
#
# Youngs Moduli (GPa) = 96.36640 125.85838 33.04790
#
# Poissons Ratio (x) = 0.18764 0.12996
# Poissons Ratio (y) = 0.14367 0.01106
# Poissons Ratio (z) = 0.37896 0.04213
#
# Static dielectric constant tensor:
#      x y z
#    x 1.925720 0.000000 -0.017820 
#    y 0.000000 1.908730 0.000000 
#    z -0.017820 0.000000 1.919690 
# 
# From -- ./inp_files/32103.got.cif
#   From: 2010.05.17/outbox.cif.g08.bks.cpg/sg12_17_cif.got.tgz:32103.got - 2010.06.03 13:09:07.
