data_PCOD9216267
_publ_section_title
;
Structure prediction by ZEFSAII (Michael W. Deem and Ramdas Pophale) SiO2 
 PCOD9216267
Probable space group: C 2/M
;
_chemical_formula_sum "Si O2"
_cell_formula_units_Z 48
_cell_length_a 21.803426
_cell_length_b 18.908187
_cell_length_c 5.126683
_cell_angle_alpha 90.000000
_cell_angle_beta 85.673533
_cell_angle_gamma 90.000000
_cell_volume 2107.520257
_symmetry_space_group_name_H-M "C 2/M"
_symmetry_group_IT_number 12
_symmetry_cell_setting 'monoclinic'
loop_
_space_group_symop_operation_xyz
x,y,z
-x,y,-z
-x,-y,-z
x,-y,z
1/2+x,1/2+y,z
1/2-x,1/2+y,-z
1/2-x,1/2-y,-z
1/2+x,1/2-y,z
loop_
_atom_site_type_symbol
_atom_site_label
_atom_site_fract_x
_atom_site_fract_y
_atom_site_fract_z
Si Si1 0.938497 0.579309 0.197278
Si Si2 0.066358 0.732223 0.579614
Si Si3 0.736351 0.313267 0.694547
Si Si4 0.873090 0.797085 0.931632
Si Si5 0.690172 0.922513 0.065999
Si Si6 0.316312 0.419240 0.687808
O O1 0.939701 0.500000 0.317900
O O2 0.935660 0.647597 0.381008
O O3 0.875454 0.583288 0.050944
O O4 0.000000 0.585498 0.000000
O O5 0.110880 0.755706 0.334718
O O6 0.000000 0.755766 0.500000
O O7 0.084120 0.769582 0.847072
O O8 0.750000 0.250000 0.500000
O O9 0.804389 0.216506 0.056925
O O10 0.795708 0.358782 0.747482
O O11 0.693119 0.371192 0.563253
O O12 0.866860 0.879420 0.849933
O O13 0.692916 0.000000 0.195692
O O14 0.749031 0.919114 0.851520
O O15 0.331951 0.500000 0.626275
#
# Coordination Sequence:
#
# PCOD9216267 Si02
#       6
#     8   8   8   8   8   8
#     4  10  23  45  72 104 146 202 257 304 354 420
#     4  12  26  48  75 104 144 190 245 304 364 429
#     4  11  24  39  70 111 147 187 242 299 365 441
#     4  11  25  47  72 108 141 191 237 300 369 438
#     4   9  21  41  66 100 148 193 238 294 357 426
#     4  10  22  43  71 107 148 192 235 296 366 440
#
# _framework density 22.775579
#
# number of rings (size 3 to 8) (size 9 to 14) (size 15 to 20)
#    0.000    1.500    1.667    2.000    4.667    3.667 
#    0.000    3.333    0.000    5.000    0.000    0.000 
#    0.000    0.000    0.000    0.000    0.000    0.000 
#
# Total GULP energy -134303.898797 kJ/mol
# GULP energy per Si atom -5595.995783 kJ/mol
# Density = 2.272374 g / cm^3
# Si number density = 22.775579 Si / 1000 Ang^3
#
#
#
# Elastic Constant Matrix: (Units=GPa)
#
#
# Indices 1 2 3 4 5 6 
#
# 1 94.4400 74.5215 40.4725 0.0000 11.4208 0.0000
# 2 74.5215 182.4878 78.6857 0.0000 0.7604 0.0000
# 3 40.4725 78.6857 102.8982 0.0000 5.6569 0.0000
# 4 0.0000 0.0000 0.0000 37.1343 0.0000 1.6385
# 5 11.4208 0.7604 5.6569 0.0000 49.1021 0.0000
# 6 0.0000 0.0000 0.0000 1.6385 0.0000 33.8266
#
#
#
# Elastic Compliance Matrix: (Units=1/GPa)
#
#
# Indices 1 2 3 4 5 6 
#
# 1 0.016461 -0.005967 -0.001717 0.000000 -0.003538 0.000000
# 2 -0.005967 0.010356 -0.005676 0.000000 0.001881 0.000000
# 3 -0.001717 -0.005676 0.014801 0.000000 -0.001218 0.000000
# 4 0.000000 0.000000 0.000000 0.026987 0.000000 -0.001307
# 5 -0.003538 0.001881 -0.001218 0.000000 0.021300 0.000000
# 6 0.000000 0.000000 0.000000 -0.001307 0.000000 0.029626
#
#
# Mechanical properties :
#
#
# Convention : Reuss Voigt Hill
#
# Bulk Modulus (GPa) = 67.12137 85.24282 76.18210
# Shear Modulus (GPa) = 33.06537 36.42236 34.74386
#
# Velocity S-wave (km/s) = 3.81437 4.00332 3.90999
# Velocity P-wave (km/s) = 6.99528 7.67315 7.34205
#
# Compressibility (1/GPa) = 0.01489838
#
# Stress axis : x y z
#
# Youngs Moduli (GPa) = 60.74976 96.56353 67.56415
#
# Poissons Ratio (x) = 0.57619 0.11601
# Poissons Ratio (y) = 0.36249 0.38346
# Poissons Ratio (z) = 0.10431 0.54805
#
# Static dielectric constant tensor:
#      x y z
#    x 1.861180 0.000000 -0.004200 
#    y 0.000000 1.859250 0.000000 
#    z -0.004200 0.000000 1.919040 
# 
# From -- ./inp_files/25019.got.cif
#   From: 2010.05.17/outbox.cif.g08.bks.cpg/sg12_13_cif.got.tgz:25019.got - 2010.06.03 13:09:07.
