data_PCOD9216955
_publ_section_title
;
Structure prediction by ZEFSAII (Michael W. Deem and Ramdas Pophale) SiO2 
 PCOD9216955
Probable space group: C 2/M
;
_chemical_formula_sum "Si O2"
_cell_formula_units_Z 50
_cell_length_a 16.055662
_cell_length_b 16.833831
_cell_length_c 10.250105
_cell_angle_alpha 90.000000
_cell_angle_beta 67.022945
_cell_angle_gamma 90.000000
_cell_volume 2550.582410
_symmetry_space_group_name_H-M "C 2/M"
_symmetry_group_IT_number 12
_symmetry_cell_setting 'monoclinic'
loop_
_space_group_symop_operation_xyz
x,y,z
-x,y,-z
-x,-y,-z
x,-y,z
1/2+x,1/2+y,z
1/2-x,1/2+y,-z
1/2-x,1/2-y,-z
1/2+x,1/2-y,z
loop_
_atom_site_type_symbol
_atom_site_label
_atom_site_fract_x
_atom_site_fract_y
_atom_site_fract_z
Si Si1 0.388488 0.408449 0.180859
Si Si2 0.593190 0.857235 0.597207
Si Si3 0.352393 0.271367 0.650360
Si Si4 0.187927 0.227409 0.916311
Si Si5 0.705086 0.588529 0.483471
Si Si6 0.479019 0.265595 0.826151
Si Si7 0.500000 0.000000 0.500000
O O1 0.413617 0.500000 0.138964
O O2 0.332703 0.365443 0.099314
O O3 0.325694 0.408886 0.347380
O O4 0.469097 0.346752 0.166381
O O5 0.614180 0.800682 0.459818
O O6 0.689751 0.889469 0.585544
O O7 0.546539 0.802525 0.735379
O O8 0.533325 0.929964 0.582910
O O9 0.248385 0.256488 0.758579
O O10 0.352674 0.348933 0.561772
O O11 0.415151 0.280407 0.738613
O O12 0.250000 0.250000 0.000000
O O13 0.089516 0.260299 0.016348
O O14 0.690418 0.500000 0.442378
#
# Coordination Sequence:
#
# PCOD9216955 Si02
#       7
#     8   8   8   8   8   8   2
#     4  11  23  40  64  96 125 167 212 263 312 380
#     4  12  21  40  63  92 122 164 212 269 314 368
#     4  11  21  41  64  89 126 171 208 256 319 387
#     4  10  23  41  61  89 123 168 210 255 315 378
#     4  11  23  37  63  94 126 162 211 262 320 376
#     4  11  23  38  64  93 127 165 210 263 318 376
#     4  12  24  36  68  96 124 152 224 286 302 358
#
# _framework density 19.603366000000001
#
# number of rings (size 3 to 8) (size 9 to 14) (size 15 to 20)
#    0.000    0.960    5.600    1.920    0.000    1.920 
#    0.000    4.000    1.760    0.960    0.000    0.000 
#    0.000    0.000    0.000    0.000    0.000    0.000 
#
# Total GULP energy -139255.614745 kJ/mol
# GULP energy per Si atom -5570.224590 kJ/mol
# Density = 1.955875 g / cm^3
# Si number density = 19.603366 Si / 1000 Ang^3
#
#
#
# Elastic Constant Matrix: (Units=GPa)
#
#
# Indices 1 2 3 4 5 6 
#
# 1 50.4666 45.1928 16.3761 0.0000 -11.5087 0.0000
# 2 45.1928 164.5730 51.4819 0.0000 4.7135 0.0000
# 3 16.3761 51.4819 113.3003 0.0000 -22.7743 0.0000
# 4 0.0000 0.0000 0.0000 18.7051 0.0000 8.2709
# 5 -11.5087 4.7135 -22.7743 0.0000 34.9463 0.0000
# 6 0.0000 0.0000 0.0000 8.2709 0.0000 26.6996
#
#
#
# Elastic Compliance Matrix: (Units=1/GPa)
#
#
# Indices 1 2 3 4 5 6 
#
# 1 0.030495 -0.009539 0.002536 0.000000 0.012982 0.000000
# 2 -0.009539 0.010463 -0.004937 0.000000 -0.007770 0.000000
# 3 0.002536 -0.004937 0.012664 0.000000 0.009754 0.000000
# 4 0.000000 0.000000 0.000000 0.061947 0.000000 -0.019190
# 5 0.012982 -0.007770 0.009754 0.000000 0.040296 0.000000
# 6 0.000000 0.000000 0.000000 -0.019190 0.000000 0.043398
#
#
# Mechanical properties :
#
#
# Convention : Reuss Voigt Hill
#
# Bulk Modulus (GPa) = 33.62349 61.60462 47.61405
# Shear Modulus (GPa) = 21.45403 30.42281 25.93842
#
# Velocity S-wave (km/s) = 3.31177 3.94371 3.64148
# Velocity P-wave (km/s) = 5.64029 7.22710 6.48243
#
# Compressibility (1/GPa) = 0.02974112
#
# Stress axis : x y z
#
# Youngs Moduli (GPa) = 32.79206 95.57500 78.96661
#
# Poissons Ratio (x) = 0.91174 -0.20030
# Poissons Ratio (y) = 0.31282 0.38988
# Poissons Ratio (z) = -0.08318 0.47189
#
# Static dielectric constant tensor:
#      x y z
#    x 1.721840 0.000000 -0.016500 
#    y 0.000000 1.648320 0.000000 
#    z -0.016500 0.000000 1.733190 
# 
# From -- ./inp_files/155886.got.cif
#   From: 2010.05.17/outbox.cif.g08.bks.cpg/sg12_78_cif.got.tgz:155886.got - 2010.06.03 13:09:07.
