data_PCOD9216772
_publ_section_title
;
Structure prediction by ZEFSAII (Michael W. Deem and Ramdas Pophale) SiO2 
 PCOD9216772
Probable space group: C 2/M
;
_chemical_formula_sum "Si O2"
_cell_formula_units_Z 56
_cell_length_a 9.823826
_cell_length_b 26.277716
_cell_length_c 19.208644
_cell_angle_alpha 90.000000
_cell_angle_beta 36.393131
_cell_angle_gamma 90.000000
_cell_volume 2942.088407
_symmetry_space_group_name_H-M "C 2/M"
_symmetry_group_IT_number 12
_symmetry_cell_setting 'monoclinic'
loop_
_space_group_symop_operation_xyz
x,y,z
-x,y,-z
-x,-y,-z
x,-y,z
1/2+x,1/2+y,z
1/2-x,1/2+y,-z
1/2-x,1/2-y,-z
1/2+x,1/2-y,z
loop_
_atom_site_type_symbol
_atom_site_label
_atom_site_fract_x
_atom_site_fract_y
_atom_site_fract_z
Si Si1 0.265348 0.874593 0.887077
Si Si2 0.510828 0.333690 0.251199
Si Si3 0.663816 0.111204 0.301088
Si Si4 0.679442 0.000000 0.360085
Si Si5 0.579063 0.896884 0.886980
Si Si6 0.255471 0.500000 0.848667
Si Si7 0.246412 0.744705 0.083658
Si Si8 0.145610 0.299069 0.505079
O O1 0.348523 0.891635 0.777069
O O2 0.391383 0.894251 0.904289
O O3 0.281661 0.813384 0.882474
O O4 0.000000 0.889179 0.000000
O O5 0.410063 0.371128 0.233055
O O6 0.747788 0.350450 0.187659
O O7 0.553875 0.279798 0.196996
O O8 0.338495 0.330970 0.385827
O O9 0.502176 0.158881 0.391768
O O10 0.621500 0.054473 0.347796
O O11 0.500000 0.000000 0.500000
O O12 0.968713 0.000000 0.243286
O O13 0.722145 0.948508 0.820375
O O14 0.500000 0.895011 0.000000
O O15 0.000000 0.500000 0.000000
O O16 0.500000 0.762393 0.000000
O O17 0.250000 0.750000 0.000000
O O18 0.250000 0.250000 0.500000
O O19 0.000000 0.278251 0.500000
#
# Coordination Sequence:
#
# PCOD9216772 Si02
#       8
#     8   8   8   4   8   4   8   8
#     4  11  24  39  61  94 137 173 214 281 354 421
#     4  11  20  37  63  85 123 171 226 269 334 412
#     4  11  24  42  64  98 130 174 233 285 350 415
#     4  12  24  47  79  99 134 188 240 296 350 427
#     4  11  22  40  63  92 126 167 215 274 338 408
#     4  10  24  41  71 103 129 168 234 290 343 406
#     4  11  21  34  55  89 126 168 214 267 337 412
#     4  10  23  40  62  93 130 174 228 280 340 418
#
# _framework density 19.034098
#
# number of rings (size 3 to 8) (size 9 to 14) (size 15 to 20)
#    0.000    1.143    1.429    6.857    2.000    5.143 
#    0.000    0.714    0.000    0.857    0.000    0.000 
#    0.000    0.000    0.000    0.000    0.000    0.000 
#
# Total GULP energy -155875.768727 kJ/mol
# GULP energy per Si atom -5566.991740 kJ/mol
# Density = 1.899078 g / cm^3
# Si number density = 19.034098 Si / 1000 Ang^3
#
#
#
# Elastic Constant Matrix: (Units=GPa)
#
#
# Indices 1 2 3 4 5 6 
#
# 1 160.7401 47.3912 61.5118 0.0000 10.8490 0.0000
# 2 47.3912 95.6395 28.6663 0.0000 3.8740 0.0000
# 3 61.5118 28.6663 87.6407 0.0006 11.7648 -0.0003
# 4 0.0000 0.0000 0.0006 22.0084 -0.0001 0.1253
# 5 10.8490 3.8740 11.7648 -0.0001 26.0973 0.0000
# 6 0.0000 0.0000 -0.0003 0.1253 0.0000 34.2170
#
#
#
# Elastic Compliance Matrix: (Units=1/GPa)
#
#
# Indices 1 2 3 4 5 6 
#
# 1 0.009202 -0.002909 -0.005377 0.000000 -0.000970 0.000000
# 2 -0.002909 0.012512 -0.002090 0.000000 0.000294 0.000000
# 3 -0.005377 -0.002090 0.016526 -0.000001 -0.004905 0.000000
# 4 0.000000 0.000000 -0.000001 0.045438 0.000000 -0.000166
# 5 -0.000970 0.000294 -0.004905 0.000000 0.040889 0.000000
# 6 0.000000 0.000000 0.000000 -0.000166 0.000000 0.029226
#
#
# Mechanical properties :
#
#
# Convention : Reuss Voigt Hill
#
# Bulk Modulus (GPa) = 57.18272 68.79542 62.98907
# Shear Modulus (GPa) = 27.72017 30.22794 28.97405
#
# Velocity S-wave (km/s) = 3.82035 3.98941 3.90579
# Velocity P-wave (km/s) = 7.04042 7.57907 7.31470
#
# Compressibility (1/GPa) = 0.01748780
#
# Stress axis : x y z
#
# Youngs Moduli (GPa) = 108.67335 79.92360 60.51003
#
# Poissons Ratio (x) = 0.23248 0.32535
# Poissons Ratio (y) = 0.31611 0.12649
# Poissons Ratio (z) = 0.58432 0.16708
#
# Static dielectric constant tensor:
#      x y z
#    x 1.672800 0.000000 -0.046810 
#    y 0.000000 1.688640 0.000000 
#    z -0.046810 0.000000 1.767370 
# 
# From -- ./inp_files/259843.got.cif
#   From: 2010.05.17/outbox.cif.g08.bks.cpg/sg12_130_cif.got.tgz:259843.got - 2010.06.03 13:09:07.
