data_PCOD9216347
_publ_section_title
;
Structure prediction by ZEFSAII (Michael W. Deem and Ramdas Pophale) SiO2 
 PCOD9216347
Probable space group: C 2/M
;
_chemical_formula_sum "Si O2"
_cell_formula_units_Z 64
_cell_length_a 17.098188
_cell_length_b 26.437972
_cell_length_c 11.589630
_cell_angle_alpha 90.000000
_cell_angle_beta 144.181813
_cell_angle_gamma 90.000000
_cell_volume 3065.937645
_symmetry_space_group_name_H-M "C 2/M"
_symmetry_group_IT_number 12
_symmetry_cell_setting 'monoclinic'
loop_
_space_group_symop_operation_xyz
x,y,z
-x,y,-z
-x,-y,-z
x,-y,z
1/2+x,1/2+y,z
1/2-x,1/2+y,-z
1/2-x,1/2-y,-z
1/2+x,1/2-y,z
loop_
_atom_site_type_symbol
_atom_site_label
_atom_site_fract_x
_atom_site_fract_y
_atom_site_fract_z
Si Si1 0.727388 0.132664 0.858258
Si Si2 0.951850 0.559055 0.234054
Si Si3 0.737222 0.939280 0.466250
Si Si4 0.099829 0.764857 0.353497
Si Si5 0.661237 0.800987 0.004929
Si Si6 0.520156 0.374082 0.160007
Si Si7 0.853520 0.723313 0.347753
Si Si8 0.145292 0.597737 0.118417
O O1 0.616056 0.089888 0.743166
O O2 0.726285 0.170320 0.745934
O O3 0.694589 0.169971 0.926616
O O4 0.876828 0.111586 0.043746
O O5 0.959049 0.500000 0.268885
O O6 0.099667 0.576822 0.368505
O O7 0.859088 0.568187 0.008702
O O8 0.864551 0.914274 0.677213
O O9 0.737229 0.921081 0.332508
O O10 0.738935 0.000000 0.470349
O O11 0.250000 0.750000 0.500000
O O12 0.062218 0.819900 0.263170
O O13 0.112205 0.759212 0.504677
O O14 0.983565 0.726059 0.173767
O O15 0.773014 0.759468 0.165598
O O16 0.663390 0.843780 0.106204
O O17 0.500000 0.369480 0.000000
O O18 0.000000 0.702454 0.500000
O O19 0.000000 0.590352 0.000000
#
# Coordination Sequence:
#
# PCOD9216347 Si02
#       8
#     8   8   8   8   8   8   8   8
#     4  11  23  43  64  93 135 171 221 269 331 398
#     4   9  20  40  70 100 128 167 222 278 335 396
#     4  10  22  44  70 100 132 172 224 280 340 395
#     4  12  27  40  65  96 134 182 226 270 325 401
#     4  11  23  40  61  99 136 176 221 267 327 397
#     4  12  27  45  65  96 135 174 224 278 332 398
#     4  12  23  40  63  86 128 179 218 265 329 382
#     4   9  19  35  65 100 134 165 212 273 328 387
#
# _framework density 20.874528000000002
#
# number of rings (size 3 to 8) (size 9 to 14) (size 15 to 20)
#    0.000    1.250    2.500    3.000    7.000    3.250 
#    0.000    1.875    0.000    5.625    0.000    0.000 
#    0.000    0.000    0.000    0.000    0.000    0.000 
#
# Total GULP energy -178561.031248 kJ/mol
# GULP energy per Si atom -5580.032227 kJ/mol
# Density = 2.082702 g / cm^3
# Si number density = 20.874528 Si / 1000 Ang^3
#
#
#
# Elastic Constant Matrix: (Units=GPa)
#
#
# Indices 1 2 3 4 5 6 
#
# 1 44.5034 22.0990 40.1550 0.0000 9.6303 0.0000
# 2 22.0990 77.3829 49.4543 0.0000 -3.4578 0.0000
# 3 40.1550 49.4543 126.9442 0.0000 12.8909 0.0000
# 4 0.0000 0.0000 0.0000 32.5682 0.0000 3.1771
# 5 9.6303 -3.4578 12.8909 0.0000 36.0154 0.0000
# 6 0.0000 0.0000 0.0000 3.1771 0.0000 32.7150
#
#
#
# Elastic Compliance Matrix: (Units=1/GPa)
#
#
# Indices 1 2 3 4 5 6 
#
# 1 0.033530 -0.004674 -0.008125 0.000000 -0.006506 0.000000
# 2 -0.004674 0.018494 -0.006261 0.000000 0.005266 0.000000
# 3 -0.008125 -0.006261 0.013207 0.000000 -0.003156 0.000000
# 4 0.000000 0.000000 0.000000 0.030999 0.000000 -0.003010
# 5 -0.006506 0.005266 -0.003156 0.000000 0.031141 0.000000
# 6 0.000000 0.000000 0.000000 -0.003010 0.000000 0.030859
#
#
# Mechanical properties :
#
#
# Convention : Reuss Voigt Hill
#
# Bulk Modulus (GPa) = 36.88432 52.47190 44.67811
# Shear Modulus (GPa) = 24.34431 29.40120 26.87275
#
# Velocity S-wave (km/s) = 3.41870 3.75703 3.59185
# Velocity P-wave (km/s) = 5.76986 6.63414 6.21703
#
# Compressibility (1/GPa) = 0.02711179
#
# Stress axis : x y z
#
# Youngs Moduli (GPa) = 29.82424 54.07060 75.71634
#
# Poissons Ratio (x) = 0.25272 0.61517
# Poissons Ratio (y) = 0.13939 0.47408
# Poissons Ratio (z) = 0.24231 0.33855
#
# Static dielectric constant tensor:
#      x y z
#    x 1.737650 0.000000 -0.040400 
#    y 0.000000 1.544910 0.000000 
#    z -0.040400 0.000000 1.748640 
# 
# From -- ./inp_files/161257.got.cif
#   From: 2010.05.17/outbox.cif.g08.bks.cpg/sg12_81_cif.got.tgz:161257.got - 2010.06.03 13:09:07.
