data_PCOD9216848
_publ_section_title
;
Structure prediction by ZEFSAII (Michael W. Deem and Ramdas Pophale) SiO2 
 PCOD9216848
Probable space group: C 2/M
;
_chemical_formula_sum "Si O2"
_cell_formula_units_Z 64
_cell_length_a 29.817140
_cell_length_b 17.701944
_cell_length_c 11.530346
_cell_angle_alpha 90.000000
_cell_angle_beta 31.963695
_cell_angle_gamma 90.000000
_cell_volume 3221.797887
_symmetry_space_group_name_H-M "C 2/M"
_symmetry_group_IT_number 12
_symmetry_cell_setting 'monoclinic'
loop_
_space_group_symop_operation_xyz
x,y,z
-x,y,-z
-x,-y,-z
x,-y,z
1/2+x,1/2+y,z
1/2-x,1/2+y,-z
1/2-x,1/2-y,-z
1/2+x,1/2-y,z
loop_
_atom_site_type_symbol
_atom_site_label
_atom_site_fract_x
_atom_site_fract_y
_atom_site_fract_z
Si Si1 0.620306 0.412302 0.895430
Si Si2 0.593754 0.733194 0.836970
Si Si3 0.398682 0.910141 0.743687
Si Si4 0.702446 0.164672 0.436754
Si Si5 0.242103 0.325251 0.092102
Si Si6 0.574349 0.195680 0.120091
Si Si7 0.069794 0.145658 0.252250
Si Si8 0.033556 0.416370 0.793521
O O1 0.619853 0.500000 0.867857
O O2 0.587425 0.356227 0.868438
O O3 0.714085 0.378114 0.706009
O O4 0.572785 0.398667 0.123172
O O5 0.663024 0.768985 0.600980
O O6 0.500000 0.756979 0.000000
O O7 0.615819 0.766949 0.915626
O O8 0.500000 0.894400 0.500000
O O9 0.332793 0.878061 0.793467
O O10 0.376281 0.864141 0.909749
O O11 0.389877 0.000000 0.773015
O O12 0.718454 0.196542 0.274473
O O13 0.632077 0.099628 0.585467
O O14 0.250000 0.250000 0.000000
O O15 0.336410 0.360455 0.896971
O O16 0.552928 0.266798 0.249626
O O17 0.501666 0.145989 0.217929
O O18 0.000000 0.123339 0.500000
O O19 0.013633 0.500000 0.791399
O O20 0.000000 0.413247 0.000000
#
# Coordination Sequence:
#
# PCOD9216848 Si02
#       8
#     8   8   8   8   8   8   8   8
#     4  10  24  42  63  93 127 165 209 265 325 374
#     4  11  22  40  67  95 120 166 214 255 311 382
#     4  11  24  40  64  96 133 170 203 259 331 388
#     4  11  21  41  64  92 127 164 210 260 313 388
#     4  11  24  39  63  94 128 170 217 260 312 381
#     4  11  19  37  61  94 128 163 210 255 314 380
#     4  10  23  40  66  92 122 172 224 271 311 373
#     4  11  21  34  59  96 133 168 204 252 319 392
#
# _framework density 19.864685999999999
#
# number of rings (size 3 to 8) (size 9 to 14) (size 15 to 20)
#    0.000    1.250    3.750    2.250    1.750    4.000 
#    0.000    0.000    0.000    0.000    0.000    0.000 
#    0.000    0.000    0.000    0.000    0.000    0.000 
#
# Total GULP energy -178496.232099 kJ/mol
# GULP energy per Si atom -5578.007253 kJ/mol
# Density = 1.981947 g / cm^3
# Si number density = 19.864686 Si / 1000 Ang^3
#
#
#
# Elastic Constant Matrix: (Units=GPa)
#
#
# Indices 1 2 3 4 5 6 
#
# 1 82.3176 37.2204 33.3026 0.0000 -1.7988 0.0000
# 2 37.2204 147.7842 33.9075 0.0000 0.5369 0.0000
# 3 33.3026 33.9075 118.2207 0.0000 8.5347 0.0000
# 4 0.0000 0.0000 0.0000 60.5538 0.0000 10.0194
# 5 -1.7988 0.5369 8.5347 0.0000 26.3690 0.0000
# 6 0.0000 0.0000 0.0000 10.0194 0.0000 26.5511
#
#
#
# Elastic Compliance Matrix: (Units=1/GPa)
#
#
# Indices 1 2 3 4 5 6 
#
# 1 0.014965 -0.002968 -0.003525 0.000000 0.002222 0.000000
# 2 -0.002968 0.007840 -0.001419 0.000000 0.000097 0.000000
# 3 -0.003525 -0.001419 0.010110 0.000000 -0.003484 0.000000
# 4 0.000000 0.000000 0.000000 0.017614 0.000000 -0.006647
# 5 0.002222 0.000097 -0.003484 0.000000 0.039201 0.000000
# 6 0.000000 0.000000 0.000000 -0.006647 0.000000 0.040172
#
#
# Mechanical properties :
#
#
# Convention : Reuss Voigt Hill
#
# Bulk Modulus (GPa) = 58.51409 61.90927 60.21168
# Shear Modulus (GPa) = 33.02037 38.95426 35.98731
#
# Velocity S-wave (km/s) = 4.08151 4.43310 4.26093
# Velocity P-wave (km/s) = 7.19249 7.57867 7.38811
#
# Compressibility (1/GPa) = 0.01708990
#
# Stress axis : x y z
#
# Youngs Moduli (GPa) = 66.82397 127.55889 98.90979
#
# Poissons Ratio (x) = 0.37864 0.34862
# Poissons Ratio (y) = 0.19836 0.14039
# Poissons Ratio (z) = 0.23553 0.18105
#
# Static dielectric constant tensor:
#      x y z
#    x 1.744400 0.000000 0.014390 
#    y 0.000000 1.717910 0.000000 
#    z 0.014390 0.000000 1.665130 
# 
# From -- ./inp_files/190041.got.cif
#   From: 2010.05.17/outbox.cif.g08.bks.cpg/sg12_96_cif.got.tgz:190041.got - 2010.06.03 13:09:07.
