data_PCOD9216840
_publ_section_title
;
Structure prediction by ZEFSAII (Michael W. Deem and Ramdas Pophale) SiO2 
 PCOD9216840
Probable space group: C 2/M
;
_chemical_formula_sum "Si O2"
_cell_formula_units_Z 48
_cell_length_a 27.188180
_cell_length_b 9.034089
_cell_length_c 10.689522
_cell_angle_alpha 90.000000
_cell_angle_beta 59.278601
_cell_angle_gamma 90.000000
_cell_volume 2257.097295
_symmetry_space_group_name_H-M "C 2/M"
_symmetry_group_IT_number 12
_symmetry_cell_setting 'monoclinic'
loop_
_space_group_symop_operation_xyz
x,y,z
-x,y,-z
-x,-y,-z
x,-y,z
1/2+x,1/2+y,z
1/2-x,1/2+y,-z
1/2-x,1/2-y,-z
1/2+x,1/2-y,z
loop_
_atom_site_type_symbol
_atom_site_label
_atom_site_fract_x
_atom_site_fract_y
_atom_site_fract_z
Si Si1 0.897723 0.675301 0.329747
Si Si2 0.864461 0.167173 0.134462
Si Si3 0.852937 0.169685 0.627317
Si Si4 0.517935 0.769985 0.113030
Si Si5 0.770703 0.671595 0.097886
Si Si6 0.944114 0.666659 0.658345
O O1 0.912136 0.500000 0.310045
O O2 0.861943 0.722205 0.255442
O O3 0.867467 0.721644 0.495300
O O4 0.955252 0.774491 0.242299
O O5 0.822187 0.235228 0.088107
O O6 0.848749 0.000000 0.189045
O O7 0.929519 0.168930 0.998014
O O8 0.785820 0.174602 0.742767
O O9 0.892568 0.223957 0.690967
O O10 0.868094 0.000000 0.577143
O O11 0.541671 0.838159 0.212228
O O12 0.500000 0.842250 0.000000
O O13 0.787422 0.500000 0.056383
O O14 0.750000 0.750000 0.000000
O O15 0.927833 0.500000 0.641103
O O16 0.000000 0.705256 0.500000
#
# Coordination Sequence:
#
# PCOD9216840 Si02
#       6
#     8   8   8   8   8   8
#     4  11  23  42  68  99 132 173 221 270 332 400
#     4  11  25  43  66  97 133 175 222 273 334 397
#     4  11  25  43  65  96 133 171 217 274 336 395
#     4  10  23  40  65  97 133 173 219 273 328 394
#     4  11  25  45  68  95 128 173 224 276 333 397
#     4  11  22  39  63  95 130 171 220 268 326 396
#
# _framework density 21.266251
#
# number of rings (size 3 to 8) (size 9 to 14) (size 15 to 20)
#    0.000    1.167    1.667    3.500    0.000   18.000 
#    0.000    0.000    0.000    0.000    0.000    0.000 
#    0.000    0.000    0.000    0.000    0.000    0.000 
#
# Total GULP energy -133810.963818 kJ/mol
# GULP energy per Si atom -5575.456826 kJ/mol
# Density = 2.121785 g / cm^3
# Si number density = 21.266251 Si / 1000 Ang^3
#
#
#
# Elastic Constant Matrix: (Units=GPa)
#
#
# Indices 1 2 3 4 5 6 
#
# 1 118.4749 44.3785 21.9911 0.0000 15.8560 0.0000
# 2 44.3785 83.4087 29.1582 0.0000 -2.3781 0.0000
# 3 21.9911 29.1582 87.4890 0.0000 17.6270 0.0000
# 4 0.0000 0.0000 0.0000 9.8821 0.0000 9.5057
# 5 15.8560 -2.3781 17.6270 0.0000 35.3856 0.0000
# 6 0.0000 0.0000 0.0000 9.5057 0.0000 6.3348
#
#
#
# Elastic Compliance Matrix: (Units=1/GPa)
#
#
# Indices 1 2 3 4 5 6 
#
# 1 0.011564 -0.006467 0.000422 0.000000 -0.005827 0.000000
# 2 -0.006467 0.017592 -0.005624 0.000000 0.006882 0.000000
# 3 0.000422 -0.005624 0.014798 0.000000 -0.007939 0.000000
# 4 0.000000 0.000000 0.000000 -0.228220 0.000000 0.342456
# 5 -0.005827 0.006882 -0.007939 0.000000 0.035288 0.000000
# 6 0.000000 0.000000 0.000000 0.342456 0.000000 -0.356015
#
#
# Mechanical properties :
#
#
# Convention : Reuss Voigt Hill
#
# Bulk Modulus (GPa) = 48.50290 53.38090 50.94190
# Shear Modulus (GPa) = -10.53111 23.24350 6.35620
#
# Velocity S-wave (km/s) = -2.22773 3.30961 1.73071
# Velocity P-wave (km/s) = 4.02988 6.30558 5.29152
#
# Compressibility (1/GPa) = 0.02061732
#
# Stress axis : x y z
#
# Youngs Moduli (GPa) = 86.47257 56.84361 67.57836
#
# Poissons Ratio (x) = 0.36759 -0.02855
# Poissons Ratio (y) = 0.55920 0.38007
# Poissons Ratio (z) = -0.03653 0.31969
#
# Static dielectric constant tensor:
#      x y z
#    x 2.226150 0.000000 0.290930 
#    y 0.000000 1.733670 0.000000 
#    z 0.290930 0.000000 1.953440 
# 
# From -- ./inp_files/179722.got.cif
#   From: 2010.05.17/outbox.cif.g08.bks.cpg/sg12_90_cif.got.tgz:179722.got - 2010.06.03 13:09:07.
