data_PCOD9216391
_publ_section_title
;
Structure prediction by ZEFSAII (Michael W. Deem and Ramdas Pophale) SiO2 
 PCOD9216391
Probable space group: C 2/M
;
_chemical_formula_sum "Si O2"
_cell_formula_units_Z 56
_cell_length_a 8.730493
_cell_length_b 14.440392
_cell_length_c 23.255637
_cell_angle_alpha 90.000000
_cell_angle_beta 109.470463
_cell_angle_gamma 90.000000
_cell_volume 2764.214624
_symmetry_space_group_name_H-M "C 2/M"
_symmetry_group_IT_number 12
_symmetry_cell_setting 'monoclinic'
loop_
_space_group_symop_operation_xyz
x,y,z
-x,y,-z
-x,-y,-z
x,-y,z
1/2+x,1/2+y,z
1/2-x,1/2+y,-z
1/2-x,1/2-y,-z
1/2+x,1/2-y,z
loop_
_atom_site_type_symbol
_atom_site_label
_atom_site_fract_x
_atom_site_fract_y
_atom_site_fract_z
Si Si1 0.568933 0.889444 0.073217
Si Si2 0.590606 0.898725 0.684311
Si Si3 0.752208 0.606349 0.697244
Si Si4 0.185140 0.225225 0.218504
Si Si5 0.149420 0.741450 0.870767
Si Si6 0.627576 0.852760 0.561105
Si Si7 0.502338 0.645221 0.435044
O O1 0.735602 0.826788 0.093928
O O2 0.440021 0.829156 0.096162
O O3 0.587203 0.000000 0.092443
O O4 0.500000 0.889757 0.000000
O O5 0.414929 0.863273 0.682677
O O6 0.737180 0.837792 0.724049
O O7 0.603219 0.901606 0.618154
O O8 0.607265 0.000000 0.712053
O O9 0.767043 0.500000 0.717561
O O10 0.755081 0.672990 0.753055
O O11 0.606244 0.609335 0.632167
O O12 0.241089 0.190403 0.162766
O O13 0.994178 0.223076 0.188260
O O14 0.500000 0.891766 0.500000
O O15 0.571618 0.747350 0.565347
O O16 0.810650 0.854686 0.561162
O O17 0.500000 0.603717 0.500000
#
# Coordination Sequence:
#
# PCOD9216391 Si02
#       7
#     8   8   8   8   8   8   8
#     4  10  22  44  74 108 145 183 228 279 330 388
#     4  11  24  40  60  87 122 164 207 265 330 390
#     4  11  24  41  63  88 122 166 214 269 334 399
#     4  11  22  41  62  92 131 173 217 268 316 383
#     4  10  23  40  69 100 139 183 224 271 326 392
#     4  11  22  38  61  86 114 155 206 266 337 403
#     4  11  22  38  62  86 115 155 206 272 339 407
#
# _framework density 20.25892
#
# number of rings (size 3 to 8) (size 9 to 14) (size 15 to 20)
#    0.000    1.286    2.857    3.857    2.000    4.571 
#    0.000    2.143    0.000    7.714    0.000    0.000 
#    0.000    0.000    0.000    0.000    0.000    0.000 
#
# Total GULP energy -155962.951829 kJ/mol
# GULP energy per Si atom -5570.105422 kJ/mol
# Density = 2.021281 g / cm^3
# Si number density = 20.258920 Si / 1000 Ang^3
#
#
#
# Elastic Constant Matrix: (Units=GPa)
#
#
# Indices 1 2 3 4 5 6 
#
# 1 105.9438 32.1766 33.9916 0.0000 -7.8775 0.0000
# 2 32.1766 115.7692 51.9663 0.0000 2.9820 0.0000
# 3 33.9916 51.9663 101.8991 0.0000 11.3011 0.0000
# 4 0.0000 0.0000 0.0000 -56.1662 0.0000 -36.9665
# 5 -7.8775 2.9820 11.3011 0.0000 40.0038 0.0000
# 6 0.0000 0.0000 0.0000 -36.9665 0.0000 8.4742
#
#
#
# Elastic Compliance Matrix: (Units=1/GPa)
#
#
# Indices 1 2 3 4 5 6 
#
# 1 0.011248 -0.001769 -0.003211 0.000000 0.003254 0.000000
# 2 -0.001769 0.011506 -0.005310 0.000000 0.000294 0.000000
# 3 -0.003211 -0.005310 0.014060 0.000000 -0.004208 0.000000
# 4 0.000000 0.000000 0.000000 -0.004599 0.000000 -0.020063
# 5 0.003254 0.000294 -0.004208 0.000000 0.026805 0.000000
# 6 0.000000 0.000000 0.000000 -0.020063 0.000000 0.030484
#
#
# Mechanical properties :
#
#
# Convention : Reuss Voigt Hill
#
# Bulk Modulus (GPa) = 61.60129 62.20902 61.90515
# Shear Modulus (GPa) = 43.29207 12.16087 27.72647
#
# Velocity S-wave (km/s) = 4.62772 2.45270 3.70348
# Velocity P-wave (km/s) = 7.68293 6.22853 6.99364
#
# Compressibility (1/GPa) = 0.01623343
#
# Stress axis : x y z
#
# Youngs Moduli (GPa) = 88.90161 86.91479 71.12587
#
# Poissons Ratio (x) = 0.15373 0.22839
# Poissons Ratio (y) = 0.15725 0.37769
# Poissons Ratio (z) = 0.28547 0.46153
#
# Static dielectric constant tensor:
#      x y z
#    x 1.775360 0.000000 -0.007310 
#    y 0.000000 1.710440 0.000000 
#    z -0.007310 0.000000 1.713980 
# 
# From -- ./inp_files/332687.got.cif
#   From: 2010.05.17/outbox.cif.g08.bks.cpg/sg12_167_cif.got.tgz:332687.got - 2010.06.03 13:09:07.
