data_PCOD9216271
_publ_section_title
;
Structure prediction by ZEFSAII (Michael W. Deem and Ramdas Pophale) SiO2 
 PCOD9216271
Probable space group: C 2/M
;
_chemical_formula_sum "Si O2"
_cell_formula_units_Z 32
_cell_length_a 5.421960
_cell_length_b 14.538577
_cell_length_c 14.779922
_cell_angle_alpha 90.000000
_cell_angle_beta 90.402837
_cell_angle_gamma 90.000000
_cell_volume 1165.036731
_symmetry_space_group_name_H-M "C 2/M"
_symmetry_group_IT_number 12
_symmetry_cell_setting 'monoclinic'
loop_
_space_group_symop_operation_xyz
x,y,z
-x,y,-z
-x,-y,-z
x,-y,z
1/2+x,1/2+y,z
1/2-x,1/2+y,-z
1/2-x,1/2-y,-z
1/2+x,1/2-y,z
loop_
_atom_site_type_symbol
_atom_site_label
_atom_site_fract_x
_atom_site_fract_y
_atom_site_fract_z
Si Si1 0.671815 0.802413 0.810593
Si Si2 0.464814 0.300356 0.609145
Si Si3 0.000000 0.335936 0.000000
Si Si4 0.100737 0.000000 0.604479
Si Si5 0.694711 0.500000 0.918818
Si Si6 0.033837 0.500000 0.251338
O O1 0.940842 0.763740 0.785482
O O2 0.609200 0.906810 0.778594
O O3 0.670880 0.795338 0.921095
O O4 0.500000 0.304404 0.500000
O O5 0.192879 0.266137 0.631541
O O6 0.506311 0.403643 0.640829
O O7 0.166569 0.405962 0.058566
O O8 0.000000 0.000000 0.500000
O O9 0.386129 0.000000 0.642154
O O10 0.711464 0.500000 0.809227
O O11 0.500000 0.500000 0.000000
#
# Coordination Sequence:
#
# PCOD9216271 Si02
#       6
#     8   8   4   4   4   4
#     4  11  25  43  68 102 140 183 232 285 346 415
#     4   9  19  37  64  96 129 167 217 277 338 403
#     4   9  20  36  62  99 132 182 234 275 338 415
#     4  10  22  43  72 100 135 183 235 287 350 414
#     4   9  19  36  66  96 138 184 224 279 350 405
#     4  10  25  45  65 103 142 181 231 292 345 414
#
# _framework density 27.466947000000001
#
# number of rings (size 3 to 8) (size 9 to 14) (size 15 to 20)
#    0.000    2.250    0.000    1.500    7.000    4.000 
#    0.000    7.500    0.000    0.000    0.000    0.000 
#    0.000    0.000    0.000    0.000    0.000    0.000 
#
# Total GULP energy -89422.910678 kJ/mol
# GULP energy per Si atom -5588.931917 kJ/mol
# Density = 2.740443 g / cm^3
# Si number density = 27.466947 Si / 1000 Ang^3
#
#
#
# Elastic Constant Matrix: (Units=GPa)
#
#
# Indices 1 2 3 4 5 6 
#
# 1 140.8510 83.6157 42.8420 0.0000 -41.4100 0.0000
# 2 83.6157 254.5668 21.5860 0.0000 5.9893 0.0000
# 3 42.8420 21.5860 125.9379 0.0000 5.6847 0.0000
# 4 0.0000 0.0000 0.0000 50.7730 0.0000 8.9735
# 5 -41.4100 5.9893 5.6847 0.0000 72.8163 0.0000
# 6 0.0000 0.0000 0.0000 8.9735 0.0000 37.4910
#
#
#
# Elastic Compliance Matrix: (Units=1/GPa)
#
#
# Indices 1 2 3 4 5 6 
#
# 1 0.013280 -0.004202 -0.004168 0.000000 0.008223 0.000000
# 2 -0.004202 0.005321 0.000647 0.000000 -0.002878 0.000000
# 3 -0.004168 0.000647 0.009390 0.000000 -0.003157 0.000000
# 4 0.000000 0.000000 0.000000 0.020565 0.000000 -0.004922
# 5 0.008223 -0.002878 -0.003157 0.000000 0.018893 0.000000
# 6 0.000000 0.000000 0.000000 -0.004922 0.000000 0.027851
#
#
# Mechanical properties :
#
#
# Convention : Reuss Voigt Hill
#
# Bulk Modulus (GPa) = 79.71521 90.82699 85.27110
# Shear Modulus (GPa) = 43.50550 57.10351 50.30451
#
# Velocity S-wave (km/s) = 3.98417 4.56454 4.28419
# Velocity P-wave (km/s) = 7.08873 7.80510 7.45552
#
# Compressibility (1/GPa) = 0.01254466
#
# Stress axis : x y z
#
# Youngs Moduli (GPa) = 75.30362 187.92703 106.49596
#
# Poissons Ratio (x) = 0.78964 0.44392
# Poissons Ratio (y) = 0.31641 -0.06893
# Poissons Ratio (z) = 0.31390 -0.12163
#
# Static dielectric constant tensor:
#      x y z
#    x 2.261560 0.000000 -0.108270 
#    y 0.000000 2.048850 0.000000 
#    z -0.108270 0.000000 2.506470 
# 
# From -- ./inp_files/252396.got.cif
#   From: 2010.05.17/outbox.cif.g08.bks.cpg/sg12_127_cif.got.tgz:252396.got - 2010.06.03 13:09:07.
