data_PCOD9216371
_publ_section_title
;
Structure prediction by ZEFSAII (Michael W. Deem and Ramdas Pophale) SiO2 
 PCOD9216371
Probable space group: C 2/M
;
_chemical_formula_sum "Si O2"
_cell_formula_units_Z 34
_cell_length_a 23.560826
_cell_length_b 7.843717
_cell_length_c 19.145558
_cell_angle_alpha 90.000000
_cell_angle_beta 26.301501
_cell_angle_gamma 90.000000
_cell_volume 1567.750646
_symmetry_space_group_name_H-M "C 2/M"
_symmetry_group_IT_number 12
_symmetry_cell_setting 'monoclinic'
loop_
_space_group_symop_operation_xyz
x,y,z
-x,y,-z
-x,-y,-z
x,-y,z
1/2+x,1/2+y,z
1/2-x,1/2+y,-z
1/2-x,1/2-y,-z
1/2+x,1/2-y,z
loop_
_atom_site_type_symbol
_atom_site_label
_atom_site_fract_x
_atom_site_fract_y
_atom_site_fract_z
Si Si1 0.833800 0.313017 0.715325
Si Si2 0.602514 0.203509 0.673135
Si Si3 0.045024 0.293806 0.027140
Si Si4 0.878563 0.802273 0.816452
Si Si5 0.000000 0.000000 0.500000
O O1 0.857570 0.500000 0.658500
O O2 0.888469 0.300486 0.733792
O O3 0.891795 0.152891 0.610454
O O4 0.682557 0.285261 0.890452
O O5 0.750000 0.250000 0.500000
O O6 0.553923 0.256632 0.803408
O O7 0.502930 0.280332 0.727259
O O8 0.589269 0.000000 0.682341
O O9 0.057090 0.500000 0.015780
O O10 0.000000 0.243789 0.000000
O O11 0.866923 0.000000 0.807522
O O12 0.750000 0.750000 0.000000
#
# Coordination Sequence:
#
# PCOD9216371 Si02
#       5
#     8   8   8   8   2
#     4  12  25  45  73 105 138 188 240 291 356 427
#     4  11  24  42  67 103 142 184 238 299 358 420
#     4  10  22  44  71  98 139 191 235 289 362 428
#     4  12  23  42  72 103 139 183 237 297 355 422
#     4  12  26  48  66 102 152 176 236 296 346 424
#
# _framework density 21.687123
#
# number of rings (size 3 to 8) (size 9 to 14) (size 15 to 20)
#    0.000    0.706    4.706    3.176    0.000    3.294 
#    4.235    2.353    0.000    0.000    0.000    0.000 
#    0.000    0.000    0.000    0.000    0.000    0.000 
#
# Total GULP energy -94868.965035 kJ/mol
# GULP energy per Si atom -5580.527355 kJ/mol
# Density = 2.163776 g / cm^3
# Si number density = 21.687123 Si / 1000 Ang^3
#
#
#
# Elastic Constant Matrix: (Units=GPa)
#
#
# Indices 1 2 3 4 5 6 
#
# 1 121.4022 6.8902 36.6606 0.0000 -13.1453 -0.0001
# 2 6.8902 140.8490 27.2653 -0.0023 -0.5808 0.0009
# 3 36.6606 27.2653 150.5149 -0.0038 -28.9731 0.0012
# 4 0.0000 -0.0023 -0.0038 -6.9748 0.0012 3.8253
# 5 -13.1453 -0.5808 -28.9731 0.0012 22.9915 -0.0001
# 6 -0.0001 0.0009 0.0012 3.8253 -0.0001 12.8395
#
#
#
# Elastic Compliance Matrix: (Units=1/GPa)
#
#
# Indices 1 2 3 4 5 6 
#
# 1 0.009065 -0.000127 -0.001568 0.000001 0.003203 0.000000
# 2 -0.000127 0.007428 -0.001706 -0.000002 -0.002035 0.000000
# 3 -0.001568 -0.001706 0.009445 -0.000003 0.010963 0.000000
# 4 0.000001 -0.000002 -0.000003 -0.123236 0.000004 0.036716
# 5 0.003203 -0.002035 0.010963 0.000004 0.059089 -0.000001
# 6 0.000000 0.000000 0.000000 0.036716 -0.000001 0.066946
#
#
# Mechanical properties :
#
#
# Convention : Reuss Voigt Hill
#
# Bulk Modulus (GPa) = 52.26033 61.59982 56.93007
# Shear Modulus (GPa) = 119.28182 28.56791 73.92487
#
# Velocity S-wave (km/s) = 7.42433 3.63337 5.84474
# Velocity P-wave (km/s) = 9.88149 6.78729 8.47677
#
# Compressibility (1/GPa) = 0.01913497
#
# Stress axis : x y z
#
# Youngs Moduli (GPa) = 110.31794 134.62686 105.87357
#
# Poissons Ratio (x) = 0.01705 0.16605
# Poissons Ratio (y) = 0.01397 0.18067
# Poissons Ratio (z) = 0.17302 0.22974
#
# Static dielectric constant tensor:
#      x y z
#    x 1.154390 0.000010 -0.139680 
#    y 0.000010 1.812420 0.000000 
#    z -0.139680 0.000000 1.785490 
# 
# From -- ./inp_files/281971.got.cif
#   From: 2010.05.17/outbox.cif.g08.bks.cpg/sg12_141_cif.got.tgz:281971.got - 2010.06.03 13:09:07.
