data_PCOD9216243
_publ_section_title
;
Structure prediction by ZEFSAII (Michael W. Deem and Ramdas Pophale) SiO2 
 PCOD9216243
Probable space group: C 2/M
;
_chemical_formula_sum "Si O2"
_cell_formula_units_Z 56
_cell_length_a 18.576632
_cell_length_b 25.280952
_cell_length_c 11.464428
_cell_angle_alpha 90.000000
_cell_angle_beta 145.747820
_cell_angle_gamma 90.000000
_cell_volume 3030.365076
_symmetry_space_group_name_H-M "C 2/M"
_symmetry_group_IT_number 12
_symmetry_cell_setting 'monoclinic'
loop_
_space_group_symop_operation_xyz
x,y,z
-x,y,-z
-x,-y,-z
x,-y,z
1/2+x,1/2+y,z
1/2-x,1/2+y,-z
1/2-x,1/2-y,-z
1/2+x,1/2-y,z
loop_
_atom_site_type_symbol
_atom_site_label
_atom_site_fract_x
_atom_site_fract_y
_atom_site_fract_z
Si Si1 0.558408 0.704863 0.204523
Si Si2 0.633729 0.807445 0.614764
Si Si3 0.499790 0.439627 0.358524
Si Si4 0.435164 0.822514 0.742736
Si Si5 0.162210 0.840208 0.941842
Si Si6 0.218143 0.875886 0.559026
Si Si7 0.736932 0.196470 0.170210
O O1 0.612721 0.764233 0.280179
O O2 0.653890 0.658706 0.370047
O O3 0.500000 0.694826 0.000000
O O4 0.444996 0.698376 0.147000
O O5 0.500000 0.796679 0.500000
O O6 0.598438 0.826562 0.438601
O O7 0.722589 0.845747 0.811486
O O8 0.717133 0.753767 0.725472
O O9 0.500000 0.433291 0.500000
O O10 0.461207 0.500000 0.283219
O O11 0.637141 0.427925 0.479951
O O12 0.404940 0.395478 0.179307
O O13 0.366406 0.869677 0.721416
O O14 0.586293 0.816496 0.966945
O O15 0.213565 0.813463 0.893448
O O16 0.200232 0.843502 0.654559
#
# Coordination Sequence:
#
# PCOD9216243 Si02
#       7
#     8   8   8   8   8   8   8
#     4  11  21  35  54  82 122 170 205 238 288 353
#     4  12  23  35  55  86 130 172 206 236 283 363
#     4  10  22  43  70  91 111 147 204 269 316 351
#     4  12  23  36  52  82 129 169 198 237 286 361
#     4  11  22  37  59  88 122 158 201 256 298 356
#     4  11  23  35  60  85 121 155 198 251 305 359
#     4  12  22  36  53  89 127 166 203 236 294 356
#
# _framework density 18.479621999999999
#
# number of rings (size 3 to 8) (size 9 to 14) (size 15 to 20)
#    0.000    0.714    5.714    3.857    2.000    0.000 
#    0.000    0.000    0.000   18.429    0.000    0.000 
#    0.000    0.000    0.000    0.000    0.000    0.000 
#
# Total GULP energy -156328.164447 kJ/mol
# GULP energy per Si atom -5583.148730 kJ/mol
# Density = 1.843756 g / cm^3
# Si number density = 18.479622 Si / 1000 Ang^3
#
#
#
# Elastic Constant Matrix: (Units=GPa)
#
#
# Indices 1 2 3 4 5 6 
#
# 1 91.0803 -2.6406 12.6154 0.0000 3.9593 0.0000
# 2 -2.6406 55.8591 13.3489 0.0000 -2.0616 0.0000
# 3 12.6154 13.3489 89.9385 0.0000 -9.6011 0.0000
# 4 0.0000 0.0000 0.0000 17.4867 0.0000 -0.9168
# 5 3.9593 -2.0616 -9.6011 0.0000 44.0026 0.0000
# 6 0.0000 0.0000 0.0000 -0.9168 0.0000 14.6575
#
#
#
# Elastic Compliance Matrix: (Units=1/GPa)
#
#
# Indices 1 2 3 4 5 6 
#
# 1 0.011326 0.000932 -0.001875 0.000000 -0.001385 0.000000
# 2 0.000932 0.018641 -0.002880 0.000000 0.000161 0.000000
# 3 -0.001875 -0.002880 0.012094 0.000000 0.002673 0.000000
# 4 0.000000 0.000000 0.000000 0.057375 0.000000 0.003589
# 5 -0.001385 0.000161 0.002673 0.000000 0.023441 0.000000
# 6 0.000000 0.000000 0.000000 0.003589 0.000000 0.068449
#
#
# Mechanical properties :
#
#
# Convention : Reuss Voigt Hill
#
# Bulk Modulus (GPa) = 29.05648 31.50279 30.27964
# Shear Modulus (GPa) = 23.75938 29.46632 26.61285
#
# Velocity S-wave (km/s) = 3.58957 3.99749 3.79901
# Velocity P-wave (km/s) = 5.73913 6.19604 5.97196
#
# Compressibility (1/GPa) = 0.03441573
#
# Stress axis : x y z
#
# Youngs Moduli (GPa) = 88.29072 53.64655 82.68226
#
# Poissons Ratio (x) = -0.05002 0.15502
# Poissons Ratio (y) = -0.08232 0.23815
# Poissons Ratio (z) = 0.16553 0.15452
#
# Static dielectric constant tensor:
#      x y z
#    x 1.698740 0.000000 0.046190 
#    y 0.000000 1.596550 0.000000 
#    z 0.046190 0.000000 1.694740 
# 
# From -- ./inp_files/170484.got.cif
#   From: 2010.05.17/outbox.cif.g08.bks.cpg/sg12_86_cif.got.tgz:170484.got - 2010.06.03 13:09:07.
