data_PCOD9216914
_publ_section_title
;
Structure prediction by ZEFSAII (Michael W. Deem and Ramdas Pophale) SiO2 
 PCOD9216914
Probable space group: C 2/M
;
_chemical_formula_sum "Si O2"
_cell_formula_units_Z 40
_cell_length_a 11.107119
_cell_length_b 19.323734
_cell_length_c 7.280784
_cell_angle_alpha 90.000000
_cell_angle_beta 102.373159
_cell_angle_gamma 90.000000
_cell_volume 1526.385266
_symmetry_space_group_name_H-M "C 2/M"
_symmetry_group_IT_number 12
_symmetry_cell_setting 'monoclinic'
loop_
_space_group_symop_operation_xyz
x,y,z
-x,y,-z
-x,-y,-z
x,-y,z
1/2+x,1/2+y,z
1/2-x,1/2+y,-z
1/2-x,1/2-y,-z
1/2+x,1/2-y,z
loop_
_atom_site_type_symbol
_atom_site_label
_atom_site_fract_x
_atom_site_fract_y
_atom_site_fract_z
Si Si1 0.044507 0.583978 0.215627
Si Si2 0.709124 0.720572 0.291939
Si Si3 0.715129 0.077514 0.750804
Si Si4 0.806149 0.921109 0.203950
Si Si5 0.549343 0.716610 0.724754
O O1 0.048559 0.500000 0.213935
O O2 0.187042 0.603851 0.284428
O O3 0.928745 0.599350 0.307637
O O4 0.000000 0.606630 0.000000
O O5 0.750000 0.750000 0.500000
O O6 0.704684 0.637828 0.305922
O O7 0.569769 0.740777 0.199808
O O8 0.823253 0.742558 0.201649
O O9 0.729051 0.000000 0.680477
O O10 0.753943 0.075022 0.978240
O O11 0.911306 0.863563 0.241519
O O12 0.842208 0.000000 0.265804
O O13 0.500000 0.726206 0.500000
#
# Coordination Sequence:
#
# PCOD9216914 Si02
#       5
#     8   8   8   8   8
#     4   7  12  26  51  87 124 153 185 236 301 361
#     4  10  23  42  60  83 120 163 208 254 301 361
#     4   9  18  35  63  94 123 157 201 255 306 359
#     4   9  18  34  60  95 128 156 198 252 307 364
#     4  10  23  41  59  82 118 169 208 251 303 360
#
# _framework density 26.205704000000001
#
# number of rings (size 3 to 8) (size 9 to 14) (size 15 to 20)
#    0.000    3.000    0.000    2.400    2.800    2.800 
#    0.000    5.000    0.000    5.400    0.000    0.000 
#    0.000    0.000    0.000    0.000    0.000    0.000 
#
# Total GULP energy -111833.076144 kJ/mol
# GULP energy per Si atom -5591.653807 kJ/mol
# Density = 2.614606 g / cm^3
# Si number density = 26.205704 Si / 1000 Ang^3
#
#
#
# Elastic Constant Matrix: (Units=GPa)
#
#
# Indices 1 2 3 4 5 6 
#
# 1 213.9697 63.7009 22.0106 0.0000 37.1730 0.0000
# 2 63.7009 124.9000 10.3169 0.0000 6.0024 0.0000
# 3 22.0106 10.3169 79.5210 0.0000 22.6804 0.0000
# 4 0.0000 0.0000 0.0000 33.7583 0.0000 6.2603
# 5 37.1730 6.0024 22.6804 0.0000 22.0688 0.0000
# 6 0.0000 0.0000 0.0000 6.2603 0.0000 44.7946
#
#
#
# Elastic Compliance Matrix: (Units=1/GPa)
#
#
# Indices 1 2 3 4 5 6 
#
# 1 0.008178 -0.003644 0.002625 0.000000 -0.015481 0.000000
# 2 -0.003644 0.009756 -0.001770 0.000000 0.005303 0.000000
# 3 0.002625 -0.001770 0.018676 0.000000 -0.023134 0.000000
# 4 0.000000 0.000000 0.000000 0.030410 0.000000 -0.004250
# 5 -0.015481 0.005303 -0.023134 0.000000 0.093723 0.000000
# 6 0.000000 0.000000 0.000000 -0.004250 0.000000 0.022918
#
#
# Mechanical properties :
#
#
# Convention : Reuss Voigt Hill
#
# Bulk Modulus (GPa) = 32.22345 67.82750 50.02547
# Shear Modulus (GPa) = 25.05220 41.61517 33.33368
#
# Velocity S-wave (km/s) = 3.09525 3.98932 3.57038
# Velocity P-wave (km/s) = 5.00971 6.86720 6.01064
#
# Compressibility (1/GPa) = 0.03103330
#
# Stress axis : x y z
#
# Youngs Moduli (GPa) = 122.28076 102.50034 53.54337
#
# Poissons Ratio (x) = 0.37348 -0.14053
# Poissons Ratio (y) = 0.44555 0.09475
# Poissons Ratio (z) = -0.32094 0.18138
#
# Static dielectric constant tensor:
#      x y z
#    x 2.134920 0.000000 -0.068570 
#    y 0.000000 2.025190 0.000000 
#    z -0.068570 0.000000 2.025670 
# 
# From -- ./inp_files/48900.got.cif
#   From: 2010.05.17/outbox.cif.g08.bks.cpg/sg12_25_cif.got.tgz:48900.got - 2010.06.03 13:09:07.
