data_PCOD9216286
_publ_section_title
;
Structure prediction by ZEFSAII (Michael W. Deem and Ramdas Pophale) SiO2 
 PCOD9216286
Probable space group: C 2/M
;
_chemical_formula_sum "Si O2"
_cell_formula_units_Z 40
_cell_length_a 16.033959
_cell_length_b 10.408702
_cell_length_c 23.687273
_cell_angle_alpha 90.000000
_cell_angle_beta 24.011297
_cell_angle_gamma 90.000000
_cell_volume 1608.636748
_symmetry_space_group_name_H-M "C 2/M"
_symmetry_group_IT_number 12
_symmetry_cell_setting 'monoclinic'
loop_
_space_group_symop_operation_xyz
x,y,z
-x,y,-z
-x,-y,-z
x,-y,z
1/2+x,1/2+y,z
1/2-x,1/2+y,-z
1/2-x,1/2-y,-z
1/2+x,1/2-y,z
loop_
_atom_site_type_symbol
_atom_site_label
_atom_site_fract_x
_atom_site_fract_y
_atom_site_fract_z
Si Si1 0.275769 0.000000 0.583458
Si Si2 0.491489 0.272658 0.569225
Si Si3 0.236774 0.301865 0.081998
Si Si4 0.336370 0.000000 0.776888
Si Si5 0.174074 0.000000 0.529442
Si Si6 0.058654 0.000000 0.838319
Si Si7 0.952004 0.350750 0.158791
O O1 0.405722 0.131911 0.496335
O O2 0.112988 0.000000 0.633047
O O3 0.826644 0.000000 0.291860
O O4 0.500000 0.323962 0.500000
O O5 0.600339 0.372001 0.543581
O O6 0.251039 0.272922 0.732284
O O7 0.219807 0.374107 0.151384
O O8 0.028279 0.315153 0.175393
O O9 0.400471 0.383581 0.943969
O O10 0.356952 0.168917 0.002464
O O11 0.579723 0.000000 0.621102
O O12 0.210989 0.000000 0.797143
O O13 0.894482 0.500000 0.195290
#
# Coordination Sequence:
#
# PCOD9216286 Si02
#       7
#     4   8   8   4   4   4   8
#     4  12  30  51  76 115 159 202 260 323 374 463
#     4  12  26  48  81 114 157 206 256 314 388 461
#     4  10  22  43  74 112 146 193 254 317 374 453
#     4  11  24  43  77 109 146 198 261 309 372 461
#     4  12  28  49  79 118 155 203 257 315 394 462
#     4  11  24  48  78 104 149 203 253 310 381 449
#     4  11  22  42  76 110 152 197 250 306 397 459
#
# _framework density 24.865776
#
# number of rings (size 3 to 8) (size 9 to 14) (size 15 to 20)
#    0.000    0.800    3.000    4.800    5.600    2.400 
#    1.800    0.000    0.000    3.600    0.000    0.000 
#    0.000    0.000    0.000    0.000    0.000    0.000 
#
# Total GULP energy -112032.892564 kJ/mol
# GULP energy per Si atom -5601.644628 kJ/mol
# Density = 2.480918 g / cm^3
# Si number density = 24.865776 Si / 1000 Ang^3
#
#
#
# Elastic Constant Matrix: (Units=GPa)
#
#
# Indices 1 2 3 4 5 6 
#
# 1 194.1661 62.5976 48.9779 0.0052 -4.4323 0.0025
# 2 62.5976 113.2620 41.7297 -0.0026 -7.8244 0.0033
# 3 48.9779 41.7297 113.5230 -0.0090 -15.3456 0.0110
# 4 0.0052 -0.0026 -0.0090 -7.2816 0.0117 -2.8507
# 5 -4.4323 -7.8244 -15.3456 0.0117 35.8485 0.0005
# 6 0.0025 0.0033 0.0110 -2.8507 0.0005 40.1936
#
#
#
# Elastic Compliance Matrix: (Units=1/GPa)
#
#
# Indices 1 2 3 4 5 6 
#
# 1 0.006561 -0.003001 -0.001811 0.000007 -0.000619 0.000001
# 2 -0.003001 0.011600 -0.002841 -0.000001 0.000944 0.000000
# 3 -0.001811 -0.002841 0.011167 -0.000007 0.003936 -0.000003
# 4 0.000007 -0.000001 -0.000007 -0.133622 0.000042 -0.009477
# 5 -0.000619 0.000944 0.003936 0.000042 0.029710 0.000001
# 6 0.000001 0.000000 -0.000003 -0.009477 0.000001 0.024207
#
#
# Mechanical properties :
#
#
# Convention : Reuss Voigt Hill
#
# Bulk Modulus (GPa) = 71.32826 80.84015 76.08421
# Shear Modulus (GPa) = -164.48700 31.59517 -66.44592
#
# Velocity S-wave (km/s) = -8.14209 3.56845 -5.17492
# Velocity P-wave (km/s) = 7.72294 7.03986 2.24546
#
# Compressibility (1/GPa) = 0.01401969
#
# Stress axis : x y z
#
# Youngs Moduli (GPa) = 152.42696 86.20639 89.55293
#
# Poissons Ratio (x) = 0.25875 0.16217
# Poissons Ratio (y) = 0.45750 0.25446
# Poissons Ratio (z) = 0.27602 0.24495
#
# Static dielectric constant tensor:
#      x y z
#    x 1.960170 0.000000 0.023050 
#    y 0.000000 2.477150 0.000010 
#    z 0.023050 0.000010 2.003120 
# 
# From -- ./inp_files/378853.got.cif
#   From: 2010.05.17/outbox.cif.g08.bks.cpg/sg12_190_cif.got.tgz:378853.got - 2010.06.03 13:09:07.
