data_PCOD9216018
_publ_section_title
;
Structure prediction by ZEFSAII (Michael W. Deem and Ramdas Pophale) SiO2 
 PCOD9216018
Probable space group: C 2/M
;
_chemical_formula_sum "Si O2"
_cell_formula_units_Z 40
_cell_length_a 16.221073
_cell_length_b 14.250772
_cell_length_c 19.288135
_cell_angle_alpha 90.000000
_cell_angle_beta 157.725817
_cell_angle_gamma 90.000000
_cell_volume 1690.022038
_symmetry_space_group_name_H-M "C 2/M"
_symmetry_group_IT_number 12
_symmetry_cell_setting 'monoclinic'
loop_
_space_group_symop_operation_xyz
x,y,z
-x,y,-z
-x,-y,-z
x,-y,z
1/2+x,1/2+y,z
1/2-x,1/2+y,-z
1/2-x,1/2-y,-z
1/2+x,1/2-y,z
loop_
_atom_site_type_symbol
_atom_site_label
_atom_site_fract_x
_atom_site_fract_y
_atom_site_fract_z
Si Si1 0.976504 0.606860 0.292230
Si Si2 0.149448 0.898843 0.530770
Si Si3 0.626170 0.388037 0.902246
Si Si4 0.185788 0.608678 0.096142
Si Si5 0.153212 0.303482 0.560047
O O1 0.955466 0.500000 0.304273
O O2 0.187190 0.606655 0.406882
O O3 0.017723 0.681558 0.384003
O O4 0.774984 0.626246 0.085292
O O5 0.191830 0.805829 0.606851
O O6 0.907549 0.895397 0.312528
O O7 0.188465 0.000000 0.595560
O O8 0.601535 0.500000 0.872791
O O9 0.749875 0.351588 0.929502
O O10 0.387350 0.347827 0.728450
O O11 0.116780 0.500000 0.029032
O O12 0.000000 0.653395 0.000000
O O13 0.000000 0.345833 0.500000
#
# Coordination Sequence:
#
# PCOD9216018 Si02
#       5
#     8   8   8   8   8
#     4  10  22  43  72 101 133 178 229 279 341 410
#     4  10  22  44  68  94 135 180 227 285 342 403
#     4  10  22  42  70 102 138 182 225 278 344 405
#     4   9  18  37  67 100 134 175 221 275 342 406
#     4  12  26  43  66 101 140 182 230 283 340 400
#
# _framework density 23.668330999999998
#
# number of rings (size 3 to 8) (size 9 to 14) (size 15 to 20)
#    0.000    1.800    2.000    1.200    0.000    5.200 
#    3.600    6.000    0.000    0.000    0.000    0.000 
#    0.000    0.000    0.000    0.000    0.000    0.000 
#
# Total GULP energy -111937.150788 kJ/mol
# GULP energy per Si atom -5596.857539 kJ/mol
# Density = 2.361446 g / cm^3
# Si number density = 23.668331 Si / 1000 Ang^3
#
#
#
# Elastic Constant Matrix: (Units=GPa)
#
#
# Indices 1 2 3 4 5 6 
#
# 1 152.5101 37.0569 59.3356 -0.0015 23.8057 -0.0015
# 2 37.0569 104.8386 29.7554 0.0033 4.6988 0.0038
# 3 59.3356 29.7554 130.5840 -0.0380 9.9019 -0.0124
# 4 -0.0015 0.0033 -0.0380 42.8335 -0.0088 11.3549
# 5 23.8057 4.6988 9.9019 -0.0088 23.1929 -0.0100
# 6 -0.0015 0.0038 -0.0124 11.3549 -0.0100 14.6309
#
#
#
# Elastic Compliance Matrix: (Units=1/GPa)
#
#
# Indices 1 2 3 4 5 6 
#
# 1 0.009593 -0.002103 -0.003271 -0.000003 -0.008024 -0.000005
# 2 -0.002103 0.010687 -0.001529 -0.000001 0.000646 -0.000003
# 3 -0.003271 -0.001529 0.009523 0.000008 -0.000398 0.000002
# 4 -0.000003 -0.000001 0.000008 0.029394 0.000001 -0.022812
# 5 -0.008024 0.000646 -0.000398 0.000001 0.051392 0.000033
# 6 -0.000005 -0.000003 0.000002 -0.022812 0.000033 0.086053
#
#
# Mechanical properties :
#
#
# Convention : Reuss Voigt Hill
#
# Bulk Modulus (GPa) = 62.51125 71.13651 66.82388
# Shear Modulus (GPa) = 23.17189 33.58377 28.37783
#
# Velocity S-wave (km/s) = 3.13233 3.77096 3.46638
# Velocity P-wave (km/s) = 6.28893 7.00578 6.65701
#
# Compressibility (1/GPa) = 0.01599712
#
# Stress axis : x y z
#
# Youngs Moduli (GPa) = 104.24151 93.57498 105.01005
#
# Poissons Ratio (x) = 0.19676 0.34353
# Poissons Ratio (y) = 0.21919 0.16052
# Poissons Ratio (z) = 0.34102 0.14304
#
# Static dielectric constant tensor:
#      x y z
#    x 1.887530 0.000000 -0.006950 
#    y 0.000000 1.944420 -0.000010 
#    z -0.006950 -0.000010 1.842150 
# 
# From -- ./inp_files/225549.got.cif
#   From: 2010.05.17/outbox.cif.g08.bks.cpg/sg12_113_cif.got.tgz:225549.got - 2010.06.03 13:09:07.
