data_PCOD9216877
_publ_section_title
;
Structure prediction by ZEFSAII (Michael W. Deem and Ramdas Pophale) SiO2 
 PCOD9216877
Probable space group: C 2/M
;
_chemical_formula_sum "Si O2"
_cell_formula_units_Z 44
_cell_length_a 18.344148
_cell_length_b 20.335182
_cell_length_c 5.873986
_cell_angle_alpha 90.000000
_cell_angle_beta 119.369534
_cell_angle_gamma 90.000000
_cell_volume 1909.559998
_symmetry_space_group_name_H-M "C 2/M"
_symmetry_group_IT_number 12
_symmetry_cell_setting 'monoclinic'
loop_
_space_group_symop_operation_xyz
x,y,z
-x,y,-z
-x,-y,-z
x,-y,z
1/2+x,1/2+y,z
1/2-x,1/2+y,-z
1/2-x,1/2-y,-z
1/2+x,1/2-y,z
loop_
_atom_site_type_symbol
_atom_site_label
_atom_site_fract_x
_atom_site_fract_y
_atom_site_fract_z
Si Si1 0.451285 0.073302 0.171143
Si Si2 0.500000 0.369535 0.000000
Si Si3 0.769014 0.325309 0.460872
Si Si4 0.867466 0.171638 0.123479
Si Si5 0.849109 0.923934 0.481941
Si Si6 0.097990 0.690082 0.655590
O O1 0.500000 0.072663 0.500000
O O2 0.392168 0.135853 0.130565
O O3 0.413087 0.000000 0.100090
O O4 0.500000 0.080513 0.000000
O O5 0.549753 0.323587 0.902455
O O6 0.426466 0.411753 0.772773
O O7 0.750000 0.250000 0.500000
O O8 0.729275 0.378246 0.569092
O O9 0.863835 0.334799 0.524238
O O10 0.714072 0.337869 0.151302
O O11 0.879998 0.107921 0.295703
O O12 0.858462 0.240284 0.237233
O O13 0.828138 0.000000 0.437681
O O14 0.000000 0.704525 0.500000
#
# Coordination Sequence:
#
# PCOD9216877 Si02
#       6
#     8   4   8   8   8   8
#     4   9  20  39  61  93 133 173 224 290 349 402
#     4  10  23  40  70 106 141 176 236 290 345 438
#     4  11  25  45  68  97 143 183 233 297 357 429
#     4  11  24  41  67 103 139 181 229 286 362 430
#     4  11  24  44  70 101 141 186 232 291 364 432
#     4  11  23  40  70 100 132 179 237 288 354 428
#
# _framework density 23.041958000000001
#
# number of rings (size 3 to 8) (size 9 to 14) (size 15 to 20)
#    0.000    1.455    1.818    2.455    3.818    6.545 
#    0.000    0.000    0.000    0.000    0.000    0.000 
#    0.000    0.000    0.000    0.000    0.000    0.000 
#
# Total GULP energy -122758.320524 kJ/mol
# GULP energy per Si atom -5579.923660 kJ/mol
# Density = 2.298951 g / cm^3
# Si number density = 23.041958 Si / 1000 Ang^3
#
#
#
# Elastic Constant Matrix: (Units=GPa)
#
#
# Indices 1 2 3 4 5 6 
#
# 1 139.2027 12.8672 27.6869 0.0000 -20.4093 0.0000
# 2 12.8672 145.1549 28.5908 0.0000 -8.6782 0.0000
# 3 27.6869 28.5908 80.0689 0.0000 -5.0544 0.0000
# 4 0.0000 0.0000 0.0000 7.2894 0.0000 -10.5377
# 5 -20.4093 -8.6782 -5.0544 0.0000 34.3746 0.0000
# 6 0.0000 0.0000 0.0000 -10.5377 0.0000 28.1132
#
#
#
# Elastic Compliance Matrix: (Units=1/GPa)
#
#
# Indices 1 2 3 4 5 6 
#
# 1 0.008375 0.000049 -0.002623 0.000000 0.004599 0.000000
# 2 0.000049 0.007488 -0.002594 0.000000 0.001538 0.000000
# 3 -0.002623 -0.002594 0.014316 0.000000 -0.000107 0.000000
# 4 0.000000 0.000000 0.000000 0.299439 0.000000 0.112239
# 5 0.004599 0.001538 -0.000107 0.000000 0.032195 0.000000
# 6 0.000000 0.000000 0.000000 0.112239 0.000000 0.077641
#
#
# Mechanical properties :
#
#
# Convention : Reuss Voigt Hill
#
# Bulk Modulus (GPa) = 50.39479 55.85736 53.12608
# Shear Modulus (GPa) = 10.95523 33.64089 22.29806
#
# Velocity S-wave (km/s) = 2.18284 3.82512 3.11419
# Velocity P-wave (km/s) = 5.31709 6.61838 6.00310
#
# Compressibility (1/GPa) = 0.01984332
#
# Stress axis : x y z
#
# Youngs Moduli (GPa) = 119.39822 133.55332 69.85330
#
# Poissons Ratio (x) = -0.00658 0.18325
# Poissons Ratio (y) = -0.00588 0.18117
# Poissons Ratio (z) = 0.31322 0.34639
#
# Static dielectric constant tensor:
#      x y z
#    x 1.982730 0.000000 -0.000620 
#    y 0.000000 1.847610 0.000000 
#    z -0.000620 0.000000 1.963490 
# 
# From -- ./inp_files/16200.got.cif
#   From: 2010.05.17/outbox.cif.g08.bks.cpg/sg12_9_cif.got.tgz:16200.got - 2010.06.03 13:09:07.
