data_PCOD9216711
_publ_section_title
;
Structure prediction by ZEFSAII (Michael W. Deem and Ramdas Pophale) SiO2 
 PCOD9216711
Probable space group: C 2/M
;
_chemical_formula_sum "Si O2"
_cell_formula_units_Z 48
_cell_length_a 8.470407
_cell_length_b 31.417101
_cell_length_c 8.428329
_cell_angle_alpha 90.000000
_cell_angle_beta 84.954126
_cell_angle_gamma 90.000000
_cell_volume 2234.217921
_symmetry_space_group_name_H-M "C 2/M"
_symmetry_group_IT_number 12
_symmetry_cell_setting 'monoclinic'
loop_
_space_group_symop_operation_xyz
x,y,z
-x,y,-z
-x,-y,-z
x,-y,z
1/2+x,1/2+y,z
1/2-x,1/2+y,-z
1/2-x,1/2-y,-z
1/2+x,1/2-y,z
loop_
_atom_site_type_symbol
_atom_site_label
_atom_site_fract_x
_atom_site_fract_y
_atom_site_fract_z
Si Si1 0.599445 0.921451 0.350332
Si Si2 0.282467 0.335018 0.364315
Si Si3 0.624741 0.227217 0.123657
Si Si4 0.639204 0.878642 0.868891
Si Si5 0.309630 0.547373 0.042632
Si Si6 0.128153 0.812522 0.300601
O O1 0.500000 0.944100 0.500000
O O2 0.697244 0.879864 0.400424
O O3 0.455555 0.901668 0.262027
O O4 0.724910 0.945541 0.223439
O O5 0.193418 0.309484 0.231889
O O6 0.467716 0.340396 0.306009
O O7 0.297541 0.309934 0.529720
O O8 0.575879 0.266209 0.243889
O O9 0.500000 0.215966 0.000000
O O10 0.750000 0.250000 0.000000
O O11 0.742326 0.838201 0.810703
O O12 0.500000 0.867579 0.000000
O O13 0.745358 0.914058 0.944124
O O14 0.257918 0.500000 0.994506
O O15 0.500000 0.548388 0.000000
#
# Coordination Sequence:
#
# PCOD9216711 Si02
#       6
#     8   8   8   8   8   8
#     4  11  23  41  68 103 133 174 225 279 343 399
#     4  11  25  44  66  92 132 179 223 282 343 407
#     4  12  27  41  63  94 132 174 231 287 343 401
#     4  10  23  39  69  96 130 170 221 275 332 399
#     4  10  23  44  70 100 139 180 220 270 336 412
#     4  11  24  45  66  92 129 178 230 278 342 407
#
# _framework density 21.484027999999999
#
# number of rings (size 3 to 8) (size 9 to 14) (size 15 to 20)
#    0.000    1.167    3.333    1.500    7.000    4.000 
#    3.000    0.000    0.000    2.000    0.000    0.000 
#    0.000    0.000    0.000    0.000    0.000    0.000 
#
# Total GULP energy -133859.351351 kJ/mol
# GULP energy per Si atom -5577.472973 kJ/mol
# Density = 2.143513 g / cm^3
# Si number density = 21.484028 Si / 1000 Ang^3
#
#
#
# Elastic Constant Matrix: (Units=GPa)
#
#
# Indices 1 2 3 4 5 6 
#
# 1 119.5085 38.3771 56.5867 0.0000 -8.3259 0.0000
# 2 38.3771 79.6115 30.4503 0.0000 3.2292 0.0000
# 3 56.5867 30.4503 109.7871 0.0000 2.4313 0.0000
# 4 0.0000 0.0000 0.000013869.6715 0.000025050.3387
# 5 -8.3259 3.2292 2.4313 0.0000 46.9856 0.0000
# 6 0.0000 0.0000 0.000025050.3387 0.000045326.5616
#
#
#
# Elastic Compliance Matrix: (Units=1/GPa)
#
#
# Indices 1 2 3 4 5 6 
#
# 1 0.012375 -0.004043 -0.005318 0.000000 0.002746 0.000000
# 2 -0.004043 0.015400 -0.002151 0.000000 -0.001663 0.000000
# 3 -0.005318 -0.002151 0.012478 0.000000 -0.001440 0.000000
# 4 0.000000 0.000000 0.000000 0.039585 0.000000 -0.021877
# 5 0.002746 -0.001663 -0.001440 0.000000 0.021959 0.000000
# 6 0.000000 0.000000 0.000000 -0.021877 0.000000 0.012113
#
#
# Mechanical properties :
#
#
# Convention : Reuss Voigt Hill
#
# Bulk Modulus (GPa) = 58.03793 62.19282 60.11538
# Shear Modulus (GPa) = 35.04459 11860.87661 5947.96060
#
# Velocity S-wave (km/s) = 4.04318 74.38261 52.67410
# Velocity P-wave (km/s) = 6.99068 86.05837 61.05289
#
# Compressibility (1/GPa) = 0.01723011
#
# Stress axis : x y z
#
# Youngs Moduli (GPa) = 80.80684 64.93525 80.14153
#
# Poissons Ratio (x) = 0.26252 0.42619
# Poissons Ratio (y) = 0.32669 0.17236
# Poissons Ratio (z) = 0.42973 0.13966
#
# Static dielectric constant tensor:
#      x y z
#    x 1.800440 0.000000 0.092210 
#    y 0.000000 1.869950 0.000000 
#    z 0.092210 0.000000 1.994380 
# 
# From -- ./inp_files/42204.got.cif
#   From: 2010.05.17/outbox.cif.g08.bks.cpg/sg12_22_cif.got.tgz:42204.got - 2010.06.03 13:09:07.
