data_PCOD9216389
_publ_section_title
;
Structure prediction by ZEFSAII (Michael W. Deem and Ramdas Pophale) SiO2 
 PCOD9216389
Probable space group: C 2/M
;
_chemical_formula_sum "Si O2"
_cell_formula_units_Z 38
_cell_length_a 14.703014
_cell_length_b 10.308658
_cell_length_c 12.429481
_cell_angle_alpha 90.000000
_cell_angle_beta 80.770378
_cell_angle_gamma 90.000000
_cell_volume 1859.525673
_symmetry_space_group_name_H-M "C 2/M"
_symmetry_group_IT_number 12
_symmetry_cell_setting 'monoclinic'
loop_
_space_group_symop_operation_xyz
x,y,z
-x,y,-z
-x,-y,-z
x,-y,z
1/2+x,1/2+y,z
1/2-x,1/2+y,-z
1/2-x,1/2-y,-z
1/2+x,1/2-y,z
loop_
_atom_site_type_symbol
_atom_site_label
_atom_site_fract_x
_atom_site_fract_y
_atom_site_fract_z
Si Si1 0.395708 0.500000 0.053359
Si Si2 0.213989 0.000000 0.146891
Si Si3 0.752160 0.347870 0.598907
Si Si4 0.918311 0.777636 0.218253
Si Si5 0.000000 0.000000 0.500000
Si Si6 0.895564 0.811330 0.684350
Si Si7 0.924663 0.500000 0.109320
O O1 0.387243 0.370994 0.126642
O O2 0.500000 0.500000 0.000000
O O3 0.339415 0.500000 0.954906
O O4 0.183858 0.118181 0.230105
O O5 0.319288 0.000000 0.091547
O O6 0.747614 0.500000 0.571221
O O7 0.750000 0.250000 0.500000
O O8 0.660433 0.308429 0.680775
O O9 0.844567 0.316666 0.650089
O O10 0.930037 0.630588 0.177894
O O11 0.016981 0.810402 0.252162
O O12 0.063717 0.888857 0.425661
O O13 0.000000 0.500000 0.000000
#
# Coordination Sequence:
#
# PCOD9216389 Si02
#       7
#     4   4   8   8   2   8   4
#     4  12  22  44  75 109 137 192 257 296 354 452
#     4  11  24  44  78 103 145 196 246 303 363 445
#     4  12  29  48  76 112 150 193 248 312 382 448
#     4  12  26  47  74 105 148 191 247 302 370 445
#     4  10  22  44  74 106 138 194 244 286 376 450
#     4  11  24  45  75 105 146 191 248 301 369 443
#     4  12  29  47  67 106 151 193 235 315 371 420
#
# _framework density 20.435317999999999
#
# number of rings (size 3 to 8) (size 9 to 14) (size 15 to 20)
#    0.000    0.421    5.263    2.526    8.842    2.526 
#    0.000    1.579    0.000    0.000    0.000    0.000 
#    0.000    0.000    0.000    0.000    0.000    0.000 
#
# Total GULP energy -105803.600494 kJ/mol
# GULP energy per Si atom -5568.610552 kJ/mol
# Density = 2.038881 g / cm^3
# Si number density = 20.435318 Si / 1000 Ang^3
#
#
#
# Elastic Constant Matrix: (Units=GPa)
#
#
# Indices 1 2 3 4 5 6 
#
# 1 114.3428 16.6652 33.8947 0.0000 -16.7497 0.0000
# 2 16.6652 166.0695 60.8738 0.0000 -10.6857 0.0000
# 3 33.8947 60.8738 114.1446 0.0000 -24.4866 0.0000
# 4 0.0000 0.0000 0.0000 30.5089 0.0000 1.3431
# 5 -16.7497 -10.6857 -24.4866 0.0000 40.2491 0.0000
# 6 0.0000 0.0000 0.0000 1.3431 0.0000 25.1165
#
#
#
# Elastic Compliance Matrix: (Units=1/GPa)
#
#
# Indices 1 2 3 4 5 6 
#
# 1 0.009832 0.000057 -0.002379 0.000000 0.002659 0.000000
# 2 0.000057 0.007494 -0.004119 0.000000 -0.000493 0.000000
# 3 -0.002379 -0.004119 0.012901 0.000000 0.005765 0.000000
# 4 0.000000 0.000000 0.000000 0.032855 0.000000 -0.001757
# 5 0.002659 -0.000493 0.005765 0.000000 0.029328 0.000000
# 6 0.000000 0.000000 0.000000 -0.001757 0.000000 0.039908
#
#
# Mechanical properties :
#
#
# Convention : Reuss Voigt Hill
#
# Bulk Modulus (GPa) = 57.65931 68.60270 63.13101
# Shear Modulus (GPa) = 33.11625 38.04979 35.58302
#
# Velocity S-wave (km/s) = 4.02996 4.31973 4.17736
# Velocity P-wave (km/s) = 7.06618 7.65007 7.36391
#
# Compressibility (1/GPa) = 0.01734325
#
# Stress axis : x y z
#
# Youngs Moduli (GPa) = 101.70629 133.43853 77.51456
#
# Poissons Ratio (x) = -0.00755 0.18444
# Poissons Ratio (y) = -0.00576 0.31930
# Poissons Ratio (z) = 0.24200 0.54966
#
# Static dielectric constant tensor:
#      x y z
#    x 1.728650 0.000000 -0.006720 
#    y 0.000000 1.725530 0.000000 
#    z -0.006720 0.000000 1.524590 
# 
# From -- ./inp_files/140359.got.cif
#   From: 2010.05.17/outbox.cif.g08.bks.cpg/sg12_71_cif.got.tgz:140359.got - 2010.06.03 13:09:07.
