data_PCOD9216952
_publ_section_title
;
Structure prediction by ZEFSAII (Michael W. Deem and Ramdas Pophale) SiO2 
 PCOD9216952
Probable space group: C 2/M
;
_chemical_formula_sum "Si O2"
_cell_formula_units_Z 64
_cell_length_a 30.960076
_cell_length_b 8.801857
_cell_length_c 14.807530
_cell_angle_alpha 90.000000
_cell_angle_beta 52.211867
_cell_angle_gamma 90.000000
_cell_volume 3188.900766
_symmetry_space_group_name_H-M "C 2/M"
_symmetry_group_IT_number 12
_symmetry_cell_setting 'monoclinic'
loop_
_space_group_symop_operation_xyz
x,y,z
-x,y,-z
-x,-y,-z
x,-y,z
1/2+x,1/2+y,z
1/2-x,1/2+y,-z
1/2-x,1/2-y,-z
1/2+x,1/2-y,z
loop_
_atom_site_type_symbol
_atom_site_label
_atom_site_fract_x
_atom_site_fract_y
_atom_site_fract_z
Si Si1 0.640146 0.682223 0.210588
Si Si2 0.717240 0.681508 0.269676
Si Si3 0.888363 0.182223 0.223223
Si Si4 0.736777 0.681318 0.613959
Si Si5 0.979661 0.316882 0.625642
Si Si6 0.567688 0.682619 0.024154
Si Si7 0.034672 0.681287 0.737659
Si Si8 0.174072 0.318159 0.984905
O O1 0.642714 0.500000 0.198967
O O2 0.665560 0.726037 0.274809
O O3 0.578338 0.739565 0.280880
O O4 0.674949 0.756574 0.085609
O O5 0.715686 0.500000 0.285098
O O6 0.724179 0.759856 0.356933
O O7 0.771024 0.716416 0.140728
O O8 0.825924 0.226297 0.283528
O O9 0.911377 0.252838 0.285214
O O10 0.890505 0.000000 0.227966
O O11 0.925368 0.225921 0.089850
O O12 0.739472 0.500000 0.606327
O O13 0.750000 0.750000 0.500000
O O14 0.972416 0.500000 0.638091
O O15 0.000000 0.275024 0.500000
O O16 0.022165 0.274853 0.650216
O O17 0.563523 0.500000 0.035011
O O18 0.516036 0.756451 0.138708
O O19 0.622459 0.738495 0.003654
O O20 0.035990 0.500000 0.741059
O O21 0.166245 0.500000 0.995376
#
# Coordination Sequence:
#
# PCOD9216952 Si02
#       8
#     8   8   8   8   8   8   8   8
#     4  11  23  39  62  92 124 160 201 248 305 364
#     4  10  23  41  62  92 126 160 202 250 300 364
#     4  10  23  41  61  88 122 159 199 245 301 364
#     4  11  24  43  65  90 121 162 208 255 306 359
#     4  10  23  43  62  84 118 158 204 254 301 356
#     4  11  21  37  61  89 123 159 197 243 302 363
#     4  11  23  38  61  92 122 157 201 248 302 360
#     4  11  21  36  61  91 125 161 198 245 302 362
#
# _framework density 20.069613
#
# number of rings (size 3 to 8) (size 9 to 14) (size 15 to 20)
#    0.000    1.375    2.500    2.625    0.000    6.750 
#    0.000    2.500    0.000    0.000    0.000    0.000 
#    0.000    0.000    0.000    0.000    0.000    0.000 
#
# Total GULP energy -178933.318158 kJ/mol
# GULP energy per Si atom -5591.666192 kJ/mol
# Density = 2.002393 g / cm^3
# Si number density = 20.069613 Si / 1000 Ang^3
#
#
#
# Elastic Constant Matrix: (Units=GPa)
#
#
# Indices 1 2 3 4 5 6 
#
# 1 113.5386 15.6064 3.7667 0.0000 36.8395 0.0000
# 2 15.6064 5.5801 10.5197 0.0000 13.8960 0.0000
# 3 3.7667 10.5197 55.3255 0.0000 35.1417 0.0000
# 4 0.0000 0.0000 0.0000 24.8950 0.0000 5.4007
# 5 36.8395 13.8960 35.1417 0.0000 35.3991 0.0000
# 6 0.0000 0.0000 0.0000 5.4007 0.0000 34.5491
#
#
#
# Elastic Compliance Matrix: (Units=1/GPa)
#
#
# Indices 1 2 3 4 5 6 
#
# 1 0.015420 -0.158641 -0.000672 0.000000 0.046894 0.000000
# 2 -0.158641 -0.869951 -0.394024 0.000000 0.897756 -0.000001
# 3 -0.000672 -0.394024 -0.015293 0.000000 0.170556 0.000000
# 4 0.000000 0.000000 0.000000 0.041579 0.000000 -0.006500
# 5 0.046894 0.897756 0.170556 0.000000 -0.542284 0.000001
# 6 0.000000 -0.000001 0.000000 -0.006500 0.000001 0.029960
#
#
# Mechanical properties :
#
#
# Convention : Reuss Voigt Hill
#
# Bulk Modulus (GPa) = -0.50595 26.02552 12.75979
# Shear Modulus (GPa) = -5.60081 28.60540 11.50229
#
# Velocity S-wave (km/s) = -1.67235 3.77942 2.39659
# Velocity P-wave (km/s) = 1.99541 5.66049 3.74563
#
# Compressibility (1/GPa) = -1.97649809
#
# Stress axis : x y z
#
# Youngs Moduli (GPa) = 64.84985 -1.14949 -65.38797
#
# Poissons Ratio (x) = -0.18236 -0.04394
# Poissons Ratio (y) = 10.28786 -25.76442
# Poissons Ratio (z) = 0.04358 -0.45293
#
# Static dielectric constant tensor:
#      x y z
#    x 1.710980 0.000000 0.009320 
#    y 0.000000 1.669610 0.000000 
#    z 0.009320 0.000000 1.697220 
# 
# From -- ./inp_files/249666.got.cif
#   From: 2010.05.17/outbox.cif.g08.bks.cpg/sg12_125_cif.got.tgz:249666.got - 2010.06.03 13:09:07.
