data_PCOD9216146
_publ_section_title
;
Structure prediction by ZEFSAII (Michael W. Deem and Ramdas Pophale) SiO2 
 PCOD9216146
Probable space group: C 2/M
;
_chemical_formula_sum "Si O2"
_cell_formula_units_Z 40
_cell_length_a 9.974991
_cell_length_b 14.138577
_cell_length_c 33.821279
_cell_angle_alpha 90.000000
_cell_angle_beta 153.458047
_cell_angle_gamma 90.000000
_cell_volume 2131.438960
_symmetry_space_group_name_H-M "C 2/M"
_symmetry_group_IT_number 12
_symmetry_cell_setting 'monoclinic'
loop_
_space_group_symop_operation_xyz
x,y,z
-x,y,-z
-x,-y,-z
x,-y,z
1/2+x,1/2+y,z
1/2-x,1/2+y,-z
1/2-x,1/2-y,-z
1/2+x,1/2-y,z
loop_
_atom_site_type_symbol
_atom_site_label
_atom_site_fract_x
_atom_site_fract_y
_atom_site_fract_z
Si Si1 0.815671 0.721659 0.854599
Si Si2 0.338362 0.613011 0.579515
Si Si3 0.338355 0.612523 0.415717
Si Si4 0.784286 0.389606 0.981282
Si Si5 0.304501 0.740314 0.266731
O O1 0.722502 0.703134 0.785009
O O2 0.520562 0.730081 0.803355
O O3 0.000068 0.820372 0.903073
O O4 0.031509 0.644313 0.931583
O O5 0.352682 0.500000 0.587648
O O6 0.438076 0.636195 0.561311
O O7 0.562586 0.662032 0.668938
O O8 0.000000 0.643191 0.500000
O O9 0.500000 0.631760 0.500000
O O10 0.273656 0.500000 0.397059
O O11 0.037588 0.672653 0.330576
O O12 0.704123 0.500000 0.962037
O O13 0.000000 0.375471 0.000000
#
# Coordination Sequence:
#
# PCOD9216146 Si02
#       5
#     8   8   8   8   8
#     4  11  24  40  62  96 121 152 203 252 296 361
#     4  10  23  41  60  87 125 164 202 249 301 349
#     4  10  23  41  61  87 122 166 207 243 295 360
#     4  10  22  43  67  88 121 162 195 241 307 368
#     4  12  23  39  63  91 125 158 200 253 299 350
#
# _framework density 18.766665
#
# number of rings (size 3 to 8) (size 9 to 14) (size 15 to 20)
#    0.000    1.400    4.000    0.600    2.800    4.800 
#    0.000    1.000    0.000    0.000    0.000    0.000 
#    0.000    0.000    0.000    0.000    0.000    0.000 
#
# Total GULP energy -111775.423372 kJ/mol
# GULP energy per Si atom -5588.771169 kJ/mol
# Density = 1.872395 g / cm^3
# Si number density = 18.766665 Si / 1000 Ang^3
#
#
#
# Elastic Constant Matrix: (Units=GPa)
#
#
# Indices 1 2 3 4 5 6 
#
# 1 117.9081 40.5390 39.7184 -0.0099 -8.6785 -0.0054
# 2 40.5390 78.1446 28.5110 0.0013 0.1349 0.0001
# 3 39.7184 28.5110 85.0949 -0.0349 -12.5269 -0.0213
# 4 -0.0099 0.0013 -0.0349 -586.3471 -0.0034 -318.3756
# 5 -8.6785 0.1349 -12.5269 -0.0034 52.0946 -0.0023
# 6 -0.0054 0.0001 -0.0213 -318.3756 -0.0023 -146.4975
#
#
#
# Elastic Compliance Matrix: (Units=1/GPa)
#
#
# Indices 1 2 3 4 5 6 
#
# 1 0.011345 -0.004569 -0.003612 0.000000 0.001033 0.000000
# 2 -0.004569 0.016499 -0.003643 0.000000 -0.001680 0.000000
# 3 -0.003612 -0.003643 0.015106 -0.000002 0.003040 0.000001
# 4 0.000000 0.000000 -0.000002 0.009473 -0.000001 -0.020587
# 5 0.001033 -0.001680 0.003040 -0.000001 0.020103 0.000001
# 6 0.000000 0.000000 0.000001 -0.020587 0.000001 0.037915
#
#
# Mechanical properties :
#
#
# Convention : Reuss Voigt Hill
#
# Bulk Modulus (GPa) = 51.80970 55.40938 53.60954
# Shear Modulus (GPa) = 35.58118 -124.65804 -44.53843
#
# Velocity S-wave (km/s) = 4.35901 -8.15901 -4.87691
# Velocity P-wave (km/s) = 7.28023 7.69219 1.75612
#
# Compressibility (1/GPa) = 0.01930141
#
# Stress axis : x y z
#
# Youngs Moduli (GPa) = 88.14387 60.60948 66.20056
#
# Poissons Ratio (x) = 0.27694 0.23914
# Poissons Ratio (y) = 0.40276 0.24114
# Poissons Ratio (z) = 0.31841 0.22077
#
# Static dielectric constant tensor:
#      x y z
#    x 1.638380 0.000000 0.003680 
#    y 0.000000 1.637220 0.000000 
#    z 0.003680 0.000000 1.632230 
# 
# From -- ./inp_files/194413.got.cif
#   From: 2010.05.17/outbox.cif.g08.bks.cpg/sg12_98_cif.got.tgz:194413.got - 2010.06.03 13:09:07.
