data_PCOD9216679
_publ_section_title
;
Structure prediction by ZEFSAII (Michael W. Deem and Ramdas Pophale) SiO2 
 PCOD9216679
Probable space group: C 2/M
;
_chemical_formula_sum "Si O2"
_cell_formula_units_Z 58
_cell_length_a 21.960705
_cell_length_b 9.583045
_cell_length_c 25.553785
_cell_angle_alpha 90.000000
_cell_angle_beta 148.214440
_cell_angle_gamma 90.000000
_cell_volume 2832.713469
_symmetry_space_group_name_H-M "C 2/M"
_symmetry_group_IT_number 12
_symmetry_cell_setting 'monoclinic'
loop_
_space_group_symop_operation_xyz
x,y,z
-x,y,-z
-x,-y,-z
x,-y,z
1/2+x,1/2+y,z
1/2-x,1/2+y,-z
1/2-x,1/2-y,-z
1/2+x,1/2-y,z
loop_
_atom_site_type_symbol
_atom_site_label
_atom_site_fract_x
_atom_site_fract_y
_atom_site_fract_z
Si Si1 0.186257 0.146565 0.210029
Si Si2 0.893469 0.338434 0.756231
Si Si3 0.188314 0.271254 0.105506
Si Si4 0.037474 0.340565 0.585330
Si Si5 0.841410 0.666987 0.032540
Si Si6 0.654228 0.829049 0.394760
Si Si7 0.462084 0.335127 0.313505
Si Si8 0.500000 0.000000 0.000000
O O1 0.137200 0.263086 0.212293
O O2 0.169420 0.155045 0.135585
O O3 0.324270 0.153176 0.315856
O O4 0.140696 0.000000 0.197207
O O5 0.865803 0.500000 0.744188
O O6 0.832549 0.295141 0.657524
O O7 0.031373 0.326353 0.849817
O O8 0.323580 0.315993 0.206293
O O9 0.098565 0.383540 0.060509
O O10 0.157718 0.255810 0.022714
O O11 0.995631 0.500000 0.566405
O O12 0.004467 0.230321 0.605642
O O13 0.000000 0.300442 0.500000
O O14 0.814743 0.500000 0.005637
O O15 0.750000 0.750000 0.000000
O O16 0.750000 0.750000 0.500000
O O17 0.532893 0.760815 0.324672
O O18 0.655800 0.000000 0.401721
O O19 0.489918 0.500000 0.329589
#
# Coordination Sequence:
#
# PCOD9216679 Si02
#       8
#     8   8   8   8   8   8   8   2
#     4  10  23  39  62  95 134 169 217 275 343 400
#     4  10  24  42  64  93 128 170 219 274 337 402
#     4  11  23  39  68  99 134 182 226 276 339 415
#     4   9  20  38  59  87 123 167 208 264 334 402
#     4  11  23  41  64  95 129 174 222 271 337 398
#     4  11  25  45  68  97 132 181 230 287 347 414
#     4  11  22  39  62  97 130 168 224 274 340 407
#     4  12  20  40  70  96 130 184 242 274 340 404
#
# _framework density 20.475066999999999
#
# number of rings (size 3 to 8) (size 9 to 14) (size 15 to 20)
#    0.000    1.517    1.379    2.483    4.828    3.586 
#    0.000    2.414    0.000    0.000    0.000    0.000 
#    0.000    0.000    0.000    0.000    0.000    0.000 
#
# Total GULP energy -161471.721002 kJ/mol
# GULP energy per Si atom -5567.990379 kJ/mol
# Density = 2.042846 g / cm^3
# Si number density = 20.475067 Si / 1000 Ang^3
#
#
#
# Elastic Constant Matrix: (Units=GPa)
#
#
# Indices 1 2 3 4 5 6 
#
# 1 89.6714 52.3769 34.6964 0.0001 -10.8882 0.0000
# 2 52.3769 77.0739 25.4507 0.0001 -8.9123 0.0000
# 3 34.6964 25.4507 75.3138 0.0003 -21.7368 0.0001
# 4 0.0001 0.0001 0.0003 25.1579 0.0001 -4.0841
# 5 -10.8882 -8.9123 -21.7368 0.0001 36.8475 0.0000
# 6 0.0000 0.0000 0.0001 -4.0841 0.0000 90.4573
#
#
#
# Elastic Compliance Matrix: (Units=1/GPa)
#
#
# Indices 1 2 3 4 5 6 
#
# 1 0.020181 -0.011982 -0.005259 0.000000 -0.000037 0.000000
# 2 -0.011982 0.021735 -0.001602 0.000000 0.000771 0.000000
# 3 -0.005259 -0.001602 0.018899 0.000000 0.009207 0.000000
# 4 0.000000 0.000000 0.000000 0.040042 0.000000 0.001808
# 5 -0.000037 0.000771 0.009207 0.000000 0.032746 0.000000
# 6 0.000000 0.000000 0.000000 0.001808 0.000000 0.011137
#
#
# Mechanical properties :
#
#
# Convention : Reuss Voigt Hill
#
# Bulk Modulus (GPa) = 43.23520 51.90077 47.56799
# Shear Modulus (GPa) = 26.29689 39.12822 32.71256
#
# Velocity S-wave (km/s) = 3.58765 4.37626 4.00143
# Velocity P-wave (km/s) = 6.19060 7.13715 6.68066
#
# Compressibility (1/GPa) = 0.02312930
#
# Stress axis : x y z
#
# Youngs Moduli (GPa) = 49.55223 46.00780 52.91189
#
# Poissons Ratio (x) = 0.55126 0.27825
# Poissons Ratio (y) = 0.59373 0.08479
# Poissons Ratio (z) = 0.26058 0.07373
#
# Static dielectric constant tensor:
#      x y z
#    x 1.618450 0.000000 0.003260 
#    y 0.000000 1.733290 0.000000 
#    z 0.003260 0.000000 1.749880 
# 
# From -- ./inp_files/367600.got.cif
#   From: 2010.05.17/outbox.cif.g08.bks.cpg/sg12_184_cif.got.tgz:367600.got - 2010.06.03 13:09:07.
