data_PCOD9216330
_publ_section_title
;
Structure prediction by ZEFSAII (Michael W. Deem and Ramdas Pophale) SiO2 
 PCOD9216330
Probable space group: C 2/M
;
_chemical_formula_sum "Si O2"
_cell_formula_units_Z 58
_cell_length_a 23.581743
_cell_length_b 14.548599
_cell_length_c 19.010535
_cell_angle_alpha 90.000000
_cell_angle_beta 22.317338
_cell_angle_gamma 90.000000
_cell_volume 2476.699509
_symmetry_space_group_name_H-M "C 2/M"
_symmetry_group_IT_number 12
_symmetry_cell_setting 'monoclinic'
loop_
_space_group_symop_operation_xyz
x,y,z
-x,y,-z
-x,-y,-z
x,-y,z
1/2+x,1/2+y,z
1/2-x,1/2+y,-z
1/2-x,1/2-y,-z
1/2+x,1/2-y,z
loop_
_atom_site_type_symbol
_atom_site_label
_atom_site_fract_x
_atom_site_fract_y
_atom_site_fract_z
Si Si1 0.734990 0.104948 0.118605
Si Si2 0.174817 0.338610 0.815886
Si Si3 0.627418 0.705789 0.296059
Si Si4 0.497839 0.101832 0.275002
Si Si5 0.579939 0.603711 0.570094
Si Si6 0.000000 0.000000 0.000000
Si Si7 0.952148 0.205763 0.256972
Si Si8 0.281386 0.654708 0.313611
O O1 0.652968 0.186001 0.255226
O O2 0.655424 0.102884 0.134259
O O3 0.732896 0.000000 0.149955
O O4 0.900690 0.144042 0.921880
O O5 0.226065 0.342601 0.838517
O O6 0.283164 0.397871 0.642029
O O7 0.224718 0.235911 0.735653
O O8 0.000000 0.351956 0.000000
O O9 0.500000 0.690681 0.500000
O O10 0.558510 0.659244 0.305618
O O11 0.485821 0.189424 0.238588
O O12 0.375459 0.116941 0.477733
O O13 0.472333 0.000000 0.273172
O O14 0.535078 0.500000 0.638407
O O15 0.627644 0.657857 0.585083
O O16 0.113477 0.921491 0.839233
O O17 0.860628 0.196176 0.291399
#
# Coordination Sequence:
#
# PCOD9216330 Si02
#       8
#     8   8   8   8   8   2   8   8
#     4  11  24  41  67 102 137 182 234 294 361 432
#     4  11  23  43  67  99 139 178 234 296 361 419
#     4  10  22  44  68  96 138 183 235 295 360 434
#     4  11  23  43  70 104 141 182 235 296 360 423
#     4  11  25  44  71  97 133 191 237 296 358 430
#     4  12  28  44  76 106 146 196 244 282 376 456
#     4  12  25  46  69 100 149 186 237 296 359 438
#     4  12  25  45  70 104 143 190 234 296 362 440
#
# _framework density 23.418261999999999
#
# number of rings (size 3 to 8) (size 9 to 14) (size 15 to 20)
#    0.000    0.828    4.138    2.897    1.931    3.034 
#    0.000    0.000    0.000    3.310    0.000    0.000 
#    0.000    0.000    0.000    0.000    0.000    0.000 
#
# Total GULP energy -162062.394119 kJ/mol
# GULP energy per Si atom -5588.358418 kJ/mol
# Density = 2.336496 g / cm^3
# Si number density = 23.418262 Si / 1000 Ang^3
#
#
#
# Elastic Constant Matrix: (Units=GPa)
#
#
# Indices 1 2 3 4 5 6 
#
# 1 50.4981 18.1381 14.1082 -0.0001 -16.4763 0.0003
# 2 18.1381 138.4266 11.8358 -0.0011 -6.0528 0.0004
# 3 14.1082 11.8358 66.3032 -0.0008 -18.1710 0.0003
# 4 -0.0001 -0.0011 -0.0008 34.3854 0.0007 13.3176
# 5 -16.4763 -6.0528 -18.1710 0.0007 32.7039 -0.0002
# 6 0.0003 0.0004 0.0003 13.3176 -0.0002 -26.1605
#
#
#
# Elastic Compliance Matrix: (Units=1/GPa)
#
#
# Indices 1 2 3 4 5 6 
#
# 1 0.024846 -0.002620 -0.001795 0.000000 0.011035 0.000000
# 2 -0.002620 0.007628 -0.000919 0.000000 -0.000419 0.000000
# 3 -0.001795 -0.000919 0.018088 0.000000 0.008976 0.000000
# 4 0.000000 0.000000 0.000000 0.024292 -0.000001 0.012367
# 5 0.011035 -0.000419 0.008976 -0.000001 0.041047 0.000000
# 6 0.000000 0.000000 0.000000 0.012367 0.000000 -0.031930
#
#
# Mechanical properties :
#
#
# Convention : Reuss Voigt Hill
#
# Bulk Modulus (GPa) = 25.06598 38.15466 31.61032
# Shear Modulus (GPa) = 46.32418 22.26216 34.29317
#
# Velocity S-wave (km/s) = 4.45243 3.08658 3.83087
# Velocity P-wave (km/s) = 6.09582 5.38801 5.75281
#
# Compressibility (1/GPa) = 0.03989470
#
# Stress axis : x y z
#
# Youngs Moduli (GPa) = 40.24864 131.10374 55.28499
#
# Poissons Ratio (x) = 0.34343 0.09923
# Poissons Ratio (y) = 0.10543 0.05080
# Poissons Ratio (z) = 0.07224 0.12047
#
# Static dielectric constant tensor:
#      x y z
#    x 1.877940 0.000000 -0.007140 
#    y 0.000000 1.852070 0.000000 
#    z -0.007140 0.000000 1.929740 
# 
# From -- ./inp_files/328376.got.cif
#   From: 2010.05.17/outbox.cif.g08.bks.cpg/sg12_165_cif.got.tgz:328376.got - 2010.06.03 13:09:07.
