data_PCOD9216588
_publ_section_title
;
Structure prediction by ZEFSAII (Michael W. Deem and Ramdas Pophale) SiO2 
 PCOD9216588
Probable space group: C 2/M
;
_chemical_formula_sum "Si O2"
_cell_formula_units_Z 58
_cell_length_a 16.687522
_cell_length_b 15.062003
_cell_length_c 20.708230
_cell_angle_alpha 90.000000
_cell_angle_beta 153.978607
_cell_angle_gamma 90.000000
_cell_volume 2283.451724
_symmetry_space_group_name_H-M "C 2/M"
_symmetry_group_IT_number 12
_symmetry_cell_setting 'monoclinic'
loop_
_space_group_symop_operation_xyz
x,y,z
-x,y,-z
-x,-y,-z
x,-y,z
1/2+x,1/2+y,z
1/2-x,1/2+y,-z
1/2-x,1/2-y,-z
1/2+x,1/2-y,z
loop_
_atom_site_type_symbol
_atom_site_label
_atom_site_fract_x
_atom_site_fract_y
_atom_site_fract_z
Si Si1 0.058984 0.164096 0.644865
Si Si2 0.059951 0.599481 0.118453
Si Si3 0.159207 0.396388 0.859476
Si Si4 0.239314 0.402908 0.487595
Si Si5 0.022609 0.899461 0.153804
Si Si6 0.000000 0.500000 0.500000
Si Si7 0.800526 0.190290 0.106126
Si Si8 0.652558 0.829447 0.550028
O O1 0.226402 0.123050 0.726630
O O2 0.132430 0.178721 0.771223
O O3 0.871184 0.111379 0.522232
O O4 0.989789 0.252116 0.560661
O O5 0.036208 0.500000 0.127081
O O6 0.000000 0.597954 0.000000
O O7 0.914333 0.664118 0.046056
O O8 0.160467 0.500000 0.887611
O O9 0.154683 0.292117 0.879703
O O10 0.972434 0.398940 0.684585
O O11 0.371340 0.392577 0.988243
O O12 0.289072 0.500000 0.549396
O O13 0.260967 0.332556 0.560556
O O14 0.899579 0.878459 0.128636
O O15 0.191538 0.833527 0.282204
O O16 0.100122 0.000000 0.210027
O O17 0.955382 0.421081 0.520378
#
# Coordination Sequence:
#
# PCOD9216588 Si02
#       8
#     8   8   8   8   8   2   8   8
#     4  11  22  37  66  99 132 169 229 283 341 404
#     4   9  20  37  58  94 135 168 214 275 346 405
#     4  10  23  38  59  95 135 171 227 282 342 401
#     4  11  20  39  69  99 132 175 222 286 343 399
#     4  11  22  39  64  97 131 173 227 277 335 405
#     4  12  28  44  64  98 138 182 236 270 344 408
#     4  11  20  37  65  95 129 178 224 281 338 411
#     4  12  23  42  65  93 131 177 224 283 331 406
#
# _framework density 25.400144000000001
#
# number of rings (size 3 to 8) (size 9 to 14) (size 15 to 20)
#    0.000    1.241    4.138    2.483    0.000    2.207 
#    0.000    0.000    0.000    2.069    0.000    5.793 
#    0.000    0.000    0.000    0.000    0.000    0.000 
#
# Total GULP energy -161444.906605 kJ/mol
# GULP energy per Si atom -5567.065745 kJ/mol
# Density = 2.534233 g / cm^3
# Si number density = 25.400144 Si / 1000 Ang^3
#
#
#
# Elastic Constant Matrix: (Units=GPa)
#
#
# Indices 1 2 3 4 5 6 
#
# 1 78.4536 14.7844 11.6268 -0.0045 26.9596 -0.0002
# 2 14.7844 102.8215 17.3279 -0.0434 -2.4443 0.0028
# 3 11.6268 17.3279 147.8247 -0.0345 17.2824 0.0027
# 4 -0.0045 -0.0434 -0.0345 29.8532 -0.0006 9.0295
# 5 26.9596 -2.4443 17.2824 -0.0006 17.9683 0.0010
# 6 -0.0002 0.0028 0.0027 9.0295 0.0010 14.7844
#
#
#
# Elastic Compliance Matrix: (Units=1/GPa)
#
#
# Indices 1 2 3 4 5 6 
#
# 1 0.031073 -0.006430 0.004352 -0.000003 -0.051683 0.000006
# 2 -0.006430 0.011377 -0.002407 0.000017 0.013511 -0.000013
# 3 0.004352 -0.002407 0.008457 0.000008 -0.014992 -0.000005
# 4 -0.000003 0.000017 0.000008 0.041087 0.000001 -0.025094
# 5 -0.051683 0.013511 -0.014992 0.000001 0.149457 -0.000011
# 6 0.000006 -0.000013 -0.000005 -0.025094 -0.000011 0.082965
#
#
# Mechanical properties :
#
#
# Convention : Reuss Voigt Hill
#
# Bulk Modulus (GPa) = 23.84520 46.28643 35.06581
# Shear Modulus (GPa) = 14.39399 31.54522 22.96961
#
# Velocity S-wave (km/s) = 2.38311 3.52793 3.01044
# Velocity P-wave (km/s) = 4.12074 5.90402 5.09107
#
# Compressibility (1/GPa) = 0.04193717
#
# Stress axis : x y z
#
# Youngs Moduli (GPa) = 32.18181 87.89624 118.23965
#
# Poissons Ratio (x) = 0.56517 -0.51459
# Poissons Ratio (y) = 0.20693 0.28465
# Poissons Ratio (z) = -0.14006 0.21160
#
# Static dielectric constant tensor:
#      x y z
#    x 2.090350 0.000000 -0.063860 
#    y 0.000000 1.999060 -0.000010 
#    z -0.063860 -0.000010 2.184440 
# 
# From -- ./inp_files/366561.got.cif
#   From: 2010.05.17/outbox.cif.g08.bks.cpg/sg12_184_cif.got.tgz:366561.got - 2010.06.03 13:09:07.
