data_PCOD9216212
_publ_section_title
;
Structure prediction by ZEFSAII (Michael W. Deem and Ramdas Pophale) SiO2 
 PCOD9216212
Probable space group: C 2/M
;
_chemical_formula_sum "Si O2"
_cell_formula_units_Z 36
_cell_length_a 14.894313
_cell_length_b 16.319496
_cell_length_c 9.607024
_cell_angle_alpha 90.000000
_cell_angle_beta 127.759045
_cell_angle_gamma 90.000000
_cell_volume 1846.158621
_symmetry_space_group_name_H-M "C 2/M"
_symmetry_group_IT_number 12
_symmetry_cell_setting 'monoclinic'
loop_
_space_group_symop_operation_xyz
x,y,z
-x,y,-z
-x,-y,-z
x,-y,z
1/2+x,1/2+y,z
1/2-x,1/2+y,-z
1/2-x,1/2-y,-z
1/2+x,1/2-y,z
loop_
_atom_site_type_symbol
_atom_site_label
_atom_site_fract_x
_atom_site_fract_y
_atom_site_fract_z
Si Si1 0.812843 0.322782 0.482788
Si Si2 0.000000 0.780232 0.500000
Si Si3 0.630061 0.402666 0.105020
Si Si4 0.620213 0.097942 0.168661
Si Si5 0.337739 0.401902 0.188250
O O1 0.750000 0.250000 0.500000
O O2 0.720719 0.365258 0.296422
O O3 0.858351 0.379284 0.650929
O O4 0.911945 0.279835 0.490741
O O5 0.936596 0.842333 0.335131
O O6 0.625972 0.500000 0.127707
O O7 0.500000 0.371629 0.000000
O O8 0.671481 0.390506 0.985973
O O9 0.725215 0.122203 0.168573
O O10 0.615603 0.000000 0.154098
O O11 0.500000 0.132008 0.000000
O O12 0.360339 0.500000 0.233933
#
# Coordination Sequence:
#
# PCOD9216212 Si02
#       5
#     8   4   8   8   8
#     4  12  25  42  62  96 134 167 206 258 324 379
#     4  12  25  40  63  98 132 168 208 256 327 382
#     4  10  23  43  67  94 125 167 217 265 312 370
#     4  10  23  44  68  92 123 169 217 261 310 373
#     4  10  22  43  69  92 122 167 222 265 306 370
#
# _framework density 19.499950999999999
#
# number of rings (size 3 to 8) (size 9 to 14) (size 15 to 20)
#    0.000    1.333    2.222    2.333    3.111    3.556 
#    0.000    1.111    0.000    0.000    0.000    0.000 
#    0.000    0.000    0.000    0.000    0.000    0.000 
#
# Total GULP energy -100542.817098 kJ/mol
# GULP energy per Si atom -5585.712061 kJ/mol
# Density = 1.945557 g / cm^3
# Si number density = 19.499951 Si / 1000 Ang^3
#
#
#
# Elastic Constant Matrix: (Units=GPa)
#
#
# Indices 1 2 3 4 5 6 
#
# 1 133.8800 46.6831 85.3580 0.0000 1.5033 0.0000
# 2 46.6831 32.6246 61.2315 0.0000 1.7000 0.0000
# 3 85.3580 61.2315 192.9972 0.0000 9.5340 0.0000
# 4 0.0000 0.0000 0.0000 1287.1493 0.0000 -244.9846
# 5 1.5033 1.7000 9.5340 0.0000 27.9477 0.0000
# 6 0.0000 0.0000 0.0000 -244.9846 0.0000 81.9828
#
#
#
# Elastic Compliance Matrix: (Units=1/GPa)
#
#
# Indices 1 2 3 4 5 6 
#
# 1 0.014927 -0.022128 0.000399 0.000000 0.000407 0.000000
# 2 -0.022128 0.108942 -0.024928 0.000000 0.003067 0.000000
# 3 0.000399 -0.024928 0.013060 0.000000 -0.002960 0.000000
# 4 0.000000 0.000000 0.000000 0.001802 0.000000 0.005383
# 5 0.000407 0.003067 -0.002960 0.000000 0.036583 0.000000
# 6 0.000000 0.000000 0.000000 0.005383 0.000000 0.028285
#
#
# Mechanical properties :
#
#
# Convention : Reuss Voigt Hill
#
# Bulk Modulus (GPa) = 22.92877 82.89410 52.91143
# Shear Modulus (GPa) = 16.05385 290.49790 153.27587
#
# Velocity S-wave (km/s) = 2.87239 12.21872 8.87546
# Velocity P-wave (km/s) = 4.77334 15.54558 11.49891
#
# Compressibility (1/GPa) = 0.04361332
#
# Stress axis : x y z
#
# Youngs Moduli (GPa) = 66.99489 9.17916 76.56823
#
# Poissons Ratio (x) = 0.20312 -0.03054
# Poissons Ratio (y) = 1.48248 1.90873
# Poissons Ratio (z) = -0.02672 0.22882
#
# Static dielectric constant tensor:
#      x y z
#    x 1.659740 0.000000 0.016690 
#    y 0.000000 1.797990 0.000000 
#    z 0.016690 0.000000 1.725490 
# 
# From -- ./inp_files/60734.got.cif
#   From: 2010.05.17/outbox.cif.g08.bks.cpg/sg12_31_cif.got.tgz:60734.got - 2010.06.03 13:09:07.
