data_PCOD9216036
_publ_section_title
;
Structure prediction by ZEFSAII (Michael W. Deem and Ramdas Pophale) SiO2 
 PCOD9216036
Probable space group: C 2/M
;
_chemical_formula_sum "Si O2"
_cell_formula_units_Z 34
_cell_length_a 13.478696
_cell_length_b 21.979377
_cell_length_c 5.052528
_cell_angle_alpha 90.000000
_cell_angle_beta 111.310530
_cell_angle_gamma 90.000000
_cell_volume 1394.481845
_symmetry_space_group_name_H-M "C 2/M"
_symmetry_group_IT_number 12
_symmetry_cell_setting 'monoclinic'
loop_
_space_group_symop_operation_xyz
x,y,z
-x,y,-z
-x,-y,-z
x,-y,z
1/2+x,1/2+y,z
1/2-x,1/2+y,-z
1/2-x,1/2-y,-z
1/2+x,1/2-y,z
loop_
_atom_site_type_symbol
_atom_site_label
_atom_site_fract_x
_atom_site_fract_y
_atom_site_fract_z
Si Si1 0.325829 0.103195 0.736614
Si Si2 0.624554 0.182079 0.700494
Si Si3 0.500000 0.000000 0.000000
Si Si4 0.429247 0.305287 0.173519
Si Si5 0.890089 0.064981 0.229589
O O1 0.318015 0.150943 0.490473
O O2 0.212137 0.072057 0.680028
O O3 0.355522 0.140901 0.026805
O O4 0.418968 0.053196 0.798930
O O5 0.500000 0.181010 0.500000
O O6 0.646913 0.251977 0.798370
O O7 0.500000 0.316391 0.500000
O O8 0.388603 0.372515 0.060509
O O9 0.500000 0.281225 0.000000
O O10 0.000000 0.062270 0.500000
O O11 0.879917 0.000000 0.073536
#
# Coordination Sequence:
#
# PCOD9216036 Si02
#       5
#     8   8   2   8   8
#     4  12  25  42  73 102 141 183 226 285 348 416
#     4  11  22  42  68 104 139 180 226 286 349 411
#     4  12  24  46  66 114 140 178 226 288 344 434
#     4  10  22  42  71 100 139 182 233 290 341 410
#     4  10  24  47  70 101 140 188 238 286 344 415
#
# _framework density 24.381817000000002
#
# number of rings (size 3 to 8) (size 9 to 14) (size 15 to 20)
#    0.000    1.176    3.529    2.824    0.000    8.000 
#    0.000    4.706    0.000    0.000    0.000    0.000 
#    0.000    0.000    0.000    0.000    0.000    0.000 
#
# Total GULP energy -94754.060222 kJ/mol
# GULP energy per Si atom -5573.768248 kJ/mol
# Density = 2.432632 g / cm^3
# Si number density = 24.381817 Si / 1000 Ang^3
#
#
#
# Elastic Constant Matrix: (Units=GPa)
#
#
# Indices 1 2 3 4 5 6 
#
# 1 97.1382 57.9215 27.9676 0.0000 21.8225 0.0000
# 2 57.9215 201.6865 48.7695 0.0000 4.0958 0.0000
# 3 27.9676 48.7695 118.7967 0.0000 -7.0062 0.0000
# 4 0.0000 0.0000 0.0000 -22.8387 0.0000 -9.8803
# 5 21.8225 4.0958 -7.0062 0.0000 35.6994 0.0000
# 6 0.0000 0.0000 0.0000 -9.8803 0.0000 11.0793
#
#
#
# Elastic Compliance Matrix: (Units=1/GPa)
#
#
# Indices 1 2 3 4 5 6 
#
# 1 0.015326 -0.003554 -0.002709 0.000000 -0.009493 0.000000
# 2 -0.003554 0.006371 -0.001714 0.000000 0.001105 0.000000
# 3 -0.002709 -0.001714 0.009984 0.000000 0.003812 0.000000
# 4 0.000000 0.000000 0.000000 -0.031596 0.000000 -0.028177
# 5 -0.009493 0.001105 0.003812 0.000000 0.034436 0.000000
# 6 0.000000 0.000000 0.000000 -0.028177 0.000000 0.065131
#
#
# Mechanical properties :
#
#
# Convention : Reuss Voigt Hill
#
# Bulk Modulus (GPa) = 63.58078 76.32652 69.95365
# Shear Modulus (GPa) = 41.37463 23.65217 32.51340
#
# Velocity S-wave (km/s) = 4.12387 3.11798 3.65569
# Velocity P-wave (km/s) = 6.98633 6.65846 6.82436
#
# Compressibility (1/GPa) = 0.01572802
#
# Stress axis : x y z
#
# Youngs Moduli (GPa) = 65.24827 156.97017 100.16206
#
# Poissons Ratio (x) = 0.55780 0.27135
# Poissons Ratio (y) = 0.23186 0.17163
# Poissons Ratio (z) = 0.17677 0.26898
#
# Static dielectric constant tensor:
#      x y z
#    x 1.979450 0.000000 0.005090 
#    y 0.000000 1.968350 0.000000 
#    z 0.005090 0.000000 1.847940 
# 
# From -- ./inp_files/10840.got.cif
#   From: 2010.05.17/outbox.cif.g08.bks.cpg/sg12_6_cif.got.tgz:10840.got - 2010.06.03 13:09:07.
