data_PCOD9216452
_publ_section_title
;
Structure prediction by ZEFSAII (Michael W. Deem and Ramdas Pophale) SiO2 
 PCOD9216452
Probable space group: C 2/M
;
_chemical_formula_sum "Si O2"
_cell_formula_units_Z 44
_cell_length_a 12.813808
_cell_length_b 23.190634
_cell_length_c 11.676405
_cell_angle_alpha 90.000000
_cell_angle_beta 33.763829
_cell_angle_gamma 90.000000
_cell_volume 1928.394078
_symmetry_space_group_name_H-M "C 2/M"
_symmetry_group_IT_number 12
_symmetry_cell_setting 'monoclinic'
loop_
_space_group_symop_operation_xyz
x,y,z
-x,y,-z
-x,-y,-z
x,-y,z
1/2+x,1/2+y,z
1/2-x,1/2+y,-z
1/2-x,1/2-y,-z
1/2+x,1/2-y,z
loop_
_atom_site_type_symbol
_atom_site_label
_atom_site_fract_x
_atom_site_fract_y
_atom_site_fract_z
Si Si1 0.259868 0.406614 0.139637
Si Si2 0.500000 0.695015 0.000000
Si Si3 0.000000 0.000000 0.000000
Si Si4 0.985947 0.934329 0.700997
Si Si5 0.428132 0.087426 0.280575
Si Si6 0.500000 0.000000 0.000000
Si Si7 0.660452 0.216594 0.687326
Si Si8 0.000000 0.842443 0.500000
O O1 0.337354 0.450660 0.160813
O O2 0.387927 0.421805 0.910426
O O3 0.320439 0.344743 0.133028
O O4 0.055489 0.420027 0.277007
O O5 0.532271 0.736900 0.864975
O O6 0.210797 0.928518 0.500795
O O7 0.926223 0.886235 0.664783
O O8 0.936592 0.000000 0.709154
O O9 0.439835 0.156205 0.248121
O O10 0.489658 0.050350 0.113113
O O11 0.750000 0.250000 0.500000
O O12 0.832027 0.196658 0.610544
#
# Coordination Sequence:
#
# PCOD9216452 Si02
#       8
#     8   4   2   8   8   2   8   4
#     4  11  25  44  71  97 142 181 235 286 348 432
#     4  11  25  45  70  99 135 191 238 294 352 421
#     4  10  22  46  64 102 130 180 226 274 344 428
#     4  11  23  42  67 104 141 179 225 287 360 431
#     4  11  26  43  69 103 143 182 230 298 361 431
#     4  12  24  42  68 116 142 176 244 294 382 444
#     4  11  26  48  69 104 142 189 249 294 358 434
#     4  10  25  40  68 102 136 179 230 298 348 414
#
# _framework density 22.816913
#
# number of rings (size 3 to 8) (size 9 to 14) (size 15 to 20)
#    0.000    1.091    1.818    3.545   10.182    0.727 
#    0.000    3.636    0.000    0.000    0.000    0.000 
#    0.000    0.000    0.000    0.000    0.000    0.000 
#
# Total GULP energy -122500.380365 kJ/mol
# GULP energy per Si atom -5568.199108 kJ/mol
# Density = 2.276498 g / cm^3
# Si number density = 22.816913 Si / 1000 Ang^3
#
#
#
# Elastic Constant Matrix: (Units=GPa)
#
#
# Indices 1 2 3 4 5 6 
#
# 1 70.6896 10.9970 -11.5072 -0.0001 -19.9999 -0.0002
# 2 10.9970 169.3890 13.9019 0.0000 3.9899 -0.0001
# 3 -11.5072 13.9019 42.5060 -0.0003 5.9318 -0.0008
# 4 -0.0001 0.0000 -0.0003 15.0412 0.0002 4.6052
# 5 -19.9999 3.9899 5.9318 0.0002 33.7604 0.0003
# 6 -0.0002 -0.0001 -0.0008 4.6052 0.0003 31.1452
#
#
#
# Elastic Compliance Matrix: (Units=1/GPa)
#
#
# Indices 1 2 3 4 5 6 
#
# 1 0.017932 -0.001732 0.004008 0.000000 0.010124 0.000000
# 2 -0.001732 0.006238 -0.002320 0.000000 -0.001355 0.000000
# 3 0.004008 -0.002320 0.025629 0.000000 -0.001854 0.000001
# 4 0.000000 0.000000 0.000000 0.069636 0.000000 -0.010297
# 5 0.010124 -0.001355 -0.001854 0.000000 0.036104 0.000000
# 6 0.000000 0.000000 0.000001 -0.010297 0.000000 0.033630
#
#
# Mechanical properties :
#
#
# Convention : Reuss Voigt Hill
#
# Bulk Modulus (GPa) = 20.11553 34.37424 27.24488
# Shear Modulus (GPa) = 24.29216 33.93555 29.11386
#
# Velocity S-wave (km/s) = 3.26645 3.86073 3.57596
# Velocity P-wave (km/s) = 4.80223 5.91368 5.38670
#
# Compressibility (1/GPa) = 0.04971283
#
# Stress axis : x y z
#
# Youngs Moduli (GPa) = 55.76472 160.29974 39.01876
#
# Poissons Ratio (x) = 0.27758 -0.15640
# Poissons Ratio (y) = 0.09656 0.09052
# Poissons Ratio (z) = -0.22352 0.37188
#
# Static dielectric constant tensor:
#      x y z
#    x 1.854420 0.000000 -0.144000 
#    y 0.000000 1.833450 0.000000 
#    z -0.144000 0.000000 1.685350 
# 
# From -- ./inp_files/135829.got.cif
#   From: 2010.05.17/outbox.cif.g08.bks.cpg/sg12_68_cif.got.tgz:135829.got - 2010.06.03 13:09:07.
