data_PCOD9216088
_publ_section_title
;
Structure prediction by ZEFSAII (Michael W. Deem and Ramdas Pophale) SiO2 
 PCOD9216088
Probable space group: C 2/M
;
_chemical_formula_sum "Si O2"
_cell_formula_units_Z 40
_cell_length_a 13.736483
_cell_length_b 11.000348
_cell_length_c 11.867725
_cell_angle_alpha 90.000000
_cell_angle_beta 71.724866
_cell_angle_gamma 90.000000
_cell_volume 1702.835212
_symmetry_space_group_name_H-M "C 2/M"
_symmetry_group_IT_number 12
_symmetry_cell_setting 'monoclinic'
loop_
_space_group_symop_operation_xyz
x,y,z
-x,y,-z
-x,-y,-z
x,-y,z
1/2+x,1/2+y,z
1/2-x,1/2+y,-z
1/2-x,1/2-y,-z
1/2+x,1/2-y,z
loop_
_atom_site_type_symbol
_atom_site_label
_atom_site_fract_x
_atom_site_fract_y
_atom_site_fract_z
Si Si1 0.671023 0.864901 0.396996
Si Si2 0.837963 0.366536 0.188230
Si Si3 0.879421 0.135969 0.017874
Si Si4 0.381153 0.314144 0.753124
Si Si5 0.603073 0.285138 0.633461
O O1 0.632682 0.822705 0.288470
O O2 0.624257 0.771905 0.504492
O O3 0.794655 0.856285 0.365275
O O4 0.637814 0.000000 0.435453
O O5 0.868684 0.500000 0.134602
O O6 0.718602 0.373324 0.267879
O O7 0.902862 0.323005 0.271685
O O8 0.842353 0.254300 0.099292
O O9 0.868205 0.161037 0.889596
O O10 0.836414 0.000000 0.060459
O O11 0.000000 0.129843 0.000000
O O12 0.495327 0.353585 0.678341
#
# Coordination Sequence:
#
# PCOD9216088 Si02
#       5
#     8   8   8   8   8
#     4  10  23  41  66  96 133 177 223 275 331 395
#     4  11  24  42  67 102 137 169 220 281 330 388
#     4  11  24  45  70  95 132 179 224 272 335 406
#     4  11  23  41  64  97 127 174 220 272 325 398
#     4  10  22  43  64  95 136 175 221 267 333 397
#
# _framework density 23.490234999999998
#
# number of rings (size 3 to 8) (size 9 to 14) (size 15 to 20)
#    0.000    1.400    2.000    2.400    0.000    8.400 
#    0.000    1.000    0.000   10.800    0.000    0.000 
#    0.000    0.000    0.000    0.000    0.000    0.000 
#
# Total GULP energy -111677.881027 kJ/mol
# GULP energy per Si atom -5583.894051 kJ/mol
# Density = 2.343677 g / cm^3
# Si number density = 23.490235 Si / 1000 Ang^3
#
#
#
# Elastic Constant Matrix: (Units=GPa)
#
#
# Indices 1 2 3 4 5 6 
#
# 1 112.1535 25.2498 3.9654 0.0000 -4.8118 0.0000
# 2 25.2498 162.1910 64.2052 0.0000 -2.2731 0.0000
# 3 3.9654 64.2052 59.6881 0.0000 1.2183 0.0000
# 4 0.0000 0.0000 0.0000 16.6602 0.0000 6.7139
# 5 -4.8118 -2.2731 1.2183 0.0000 39.4581 0.0000
# 6 0.0000 0.0000 0.0000 6.7139 0.0000 -45.3932
#
#
#
# Elastic Compliance Matrix: (Units=1/GPa)
#
#
# Indices 1 2 3 4 5 6 
#
# 1 0.009369 -0.002074 0.001588 0.000000 0.000974 0.000000
# 2 -0.002074 0.011235 -0.011963 0.000000 0.000764 0.000000
# 3 0.001588 -0.011963 0.029545 0.000000 -0.001408 0.000000
# 4 0.000000 0.000000 0.000000 0.056647 0.000000 0.008378
# 5 0.000974 0.000764 -0.001408 0.000000 0.025550 0.000000
# 6 0.000000 0.000000 0.000000 0.008378 0.000000 -0.020790
#
#
# Mechanical properties :
#
#
# Convention : Reuss Voigt Hill
#
# Bulk Modulus (GPa) = 39.60029 57.87481 48.73755
# Shear Modulus (GPa) = 34.51418 18.18584 26.35001
#
# Velocity S-wave (km/s) = 3.83730 2.78544 3.35288
# Velocity P-wave (km/s) = 6.04384 5.91914 5.98181
#
# Compressibility (1/GPa) = 0.02525234
#
# Stress axis : x y z
#
# Youngs Moduli (GPa) = 106.73696 89.01022 33.84668
#
# Poissons Ratio (x) = 0.18457 -0.05376
# Poissons Ratio (y) = 0.22133 0.40490
# Poissons Ratio (z) = -0.16952 1.06480
#
# Static dielectric constant tensor:
#      x y z
#    x 1.892500 0.000000 -0.027570 
#    y 0.000000 1.964900 0.000000 
#    z -0.027570 0.000000 1.895400 
# 
# From -- ./inp_files/140793.got.cif
#   From: 2010.05.17/outbox.cif.g08.bks.cpg/sg12_71_cif.got.tgz:140793.got - 2010.06.03 13:09:07.
