data_PCOD9216788
_publ_section_title
;
Structure prediction by ZEFSAII (Michael W. Deem and Ramdas Pophale) SiO2 
 PCOD9216788
Probable space group: C 2/M
;
_chemical_formula_sum "Si O2"
_cell_formula_units_Z 48
_cell_length_a 28.689160
_cell_length_b 16.341001
_cell_length_c 10.256195
_cell_angle_alpha 90.000000
_cell_angle_beta 152.188539
_cell_angle_gamma 90.000000
_cell_volume 2243.332196
_symmetry_space_group_name_H-M "C 2/M"
_symmetry_group_IT_number 12
_symmetry_cell_setting 'monoclinic'
loop_
_space_group_symop_operation_xyz
x,y,z
-x,y,-z
-x,-y,-z
x,-y,z
1/2+x,1/2+y,z
1/2-x,1/2+y,-z
1/2-x,1/2-y,-z
1/2+x,1/2-y,z
loop_
_atom_site_type_symbol
_atom_site_label
_atom_site_fract_x
_atom_site_fract_y
_atom_site_fract_z
Si Si1 0.834350 0.593692 0.794068
Si Si2 0.151023 0.912154 0.841328
Si Si3 0.352597 0.406540 0.863215
Si Si4 0.129521 0.254273 0.691465
Si Si5 0.979849 0.747007 0.102317
Si Si6 0.835915 0.411527 0.097696
O O1 0.874246 0.500000 0.875363
O O2 0.742535 0.602959 0.467232
O O3 0.912206 0.667012 0.964103
O O4 0.799581 0.599171 0.859166
O O5 0.092548 0.832037 0.654296
O O6 0.100341 0.000000 0.697317
O O7 0.178455 0.903248 0.061204
O O8 0.246157 0.914671 0.980271
O O9 0.392635 0.500000 0.940526
O O10 0.425765 0.330786 0.014813
O O11 0.101902 0.333001 0.707150
O O12 0.083881 0.263274 0.436382
O O13 0.250000 0.250000 0.000000
O O14 0.000000 0.752669 0.000000
O O15 0.886627 0.500000 0.230694
#
# Coordination Sequence:
#
# PCOD9216788 Si02
#       6
#     8   8   8   8   8   8
#     4  10  23  43  69 100 135 173 217 272 332 395
#     4   9  19  37  66  95 125 169 217 264 325 391
#     4  10  23  43  69 100 135 173 217 272 332 395
#     4  10  23  40  63  92 128 175 220 268 321 387
#     4  12  28  42  65 101 136 177 223 272 325 393
#     4   9  19  37  66  95 125 169 217 264 325 391
#
# _framework density 21.396743000000001
#
# number of rings (size 3 to 8) (size 9 to 14) (size 15 to 20)
#    0.000    2.000    0.000    1.500    9.333    4.667 
#    0.000    3.333    0.000    0.000    0.000    0.000 
#    0.000    0.000    0.000    0.000    0.000    0.000 
#
# Total GULP energy -133888.682579 kJ/mol
# GULP energy per Si atom -5578.695107 kJ/mol
# Density = 2.134804 g / cm^3
# Si number density = 21.396743 Si / 1000 Ang^3
#
#
#
# Elastic Constant Matrix: (Units=GPa)
#
#
# Indices 1 2 3 4 5 6 
#
# 1 109.9062 21.9650 40.1873 0.0000 -9.8510 0.0000
# 2 21.9650 174.4701 44.1627 0.0000 -9.0217 0.0000
# 3 40.1873 44.1627 122.0104 0.0000 -18.3418 0.0000
# 4 0.0000 0.0000 0.0000 6.4990 0.0000 -28.7526
# 5 -9.8510 -9.0217 -18.3418 0.0000 44.3823 0.0000
# 6 0.0000 0.0000 0.0000 -28.7526 0.0000 2.3402
#
#
#
# Elastic Compliance Matrix: (Units=1/GPa)
#
#
# Indices 1 2 3 4 5 6 
#
# 1 0.010417 -0.000474 -0.003121 0.000000 0.000926 0.000000
# 2 -0.000474 0.006337 -0.002090 0.000000 0.000319 0.000000
# 3 -0.003121 -0.002090 0.010462 0.000000 0.003206 0.000000
# 4 0.000000 0.000000 0.000000 -0.002884 0.000000 -0.035431
# 5 0.000926 0.000319 0.003206 0.000000 0.024127 0.000000
# 6 0.000000 0.000000 0.000000 -0.035431 0.000000 -0.008009
#
#
# Mechanical properties :
#
#
# Convention : Reuss Voigt Hill
#
# Bulk Modulus (GPa) = 63.09681 68.77961 65.93821
# Shear Modulus (GPa) = 87.56325 30.64908 59.10616
#
# Velocity S-wave (km/s) = 6.40410 3.78884 5.26155
# Velocity P-wave (km/s) = 9.17803 7.16624 8.23381
#
# Compressibility (1/GPa) = 0.01584866
#
# Stress axis : x y z
#
# Youngs Moduli (GPa) = 95.99331 157.81038 95.58219
#
# Poissons Ratio (x) = 0.07476 0.29827
# Poissons Ratio (y) = 0.04547 0.19973
# Poissons Ratio (z) = 0.29955 0.32976
#
# Static dielectric constant tensor:
#      x y z
#    x 1.732030 0.000000 -0.009200 
#    y 0.000000 1.875970 0.000000 
#    z -0.009200 0.000000 1.719460 
# 
# From -- ./inp_files/112944.got.cif
#   From: 2010.05.17/outbox.cif.g08.bks.cpg/sg12_57_cif.got.tgz:112944.got - 2010.06.03 13:09:07.
