data_PCOD9216931
_publ_section_title
;
Structure prediction by ZEFSAII (Michael W. Deem and Ramdas Pophale) SiO2 
 PCOD9216931
Probable space group: C 2/M
;
_chemical_formula_sum "Si O2"
_cell_formula_units_Z 40
_cell_length_a 10.378699
_cell_length_b 9.492060
_cell_length_c 18.925206
_cell_angle_alpha 90.000000
_cell_angle_beta 93.183087
_cell_angle_gamma 90.000000
_cell_volume 1861.544659
_symmetry_space_group_name_H-M "C 2/M"
_symmetry_group_IT_number 12
_symmetry_cell_setting 'monoclinic'
loop_
_space_group_symop_operation_xyz
x,y,z
-x,y,-z
-x,-y,-z
x,-y,z
1/2+x,1/2+y,z
1/2-x,1/2+y,-z
1/2-x,1/2-y,-z
1/2+x,1/2-y,z
loop_
_atom_site_type_symbol
_atom_site_label
_atom_site_fract_x
_atom_site_fract_y
_atom_site_fract_z
Si Si1 0.149244 0.332331 0.688647
Si Si2 0.391755 0.343645 0.040473
Si Si3 0.933906 0.834719 0.765764
Si Si4 0.263640 0.651920 0.888123
Si Si5 0.859620 0.832063 0.459054
O O1 0.127586 0.500000 0.677550
O O2 0.296700 0.315196 0.720501
O O3 0.134497 0.243601 0.616510
O O4 0.043568 0.266951 0.738981
O O5 0.440552 0.500000 0.060371
O O6 0.337281 0.276120 0.109103
O O7 0.500000 0.259254 0.000000
O O8 0.292544 0.363843 0.972381
O O9 0.886500 0.810431 0.845016
O O10 0.971289 0.000000 0.759012
O O11 0.216495 0.500000 0.859808
O O12 0.750000 0.750000 0.500000
O O13 0.000000 0.819281 0.500000
O O14 0.830643 0.000000 0.452660
#
# Coordination Sequence:
#
# PCOD9216931 Si02
#       5
#     8   8   8   8   8
#     4  11  24  41  62  92 124 158 203 246 291 356
#     4   9  18  32  52  78 105 137 189 243 289 350
#     4  10  23  41  60  86 123 161 201 248 300 357
#     4   9  19  35  52  75 108 147 187 239 298 347
#     4  11  24  42  66  95 126 160 199 244 294 349
#
# _framework density 21.487531000000001
#
# number of rings (size 3 to 8) (size 9 to 14) (size 15 to 20)
#    0.000    2.000    0.000    2.400    2.800    9.200 
#    0.000    0.000    0.000    0.000    0.000    0.000 
#    0.000    0.000    0.000    0.000    0.000    0.000 
#
# Total GULP energy -111484.784293 kJ/mol
# GULP energy per Si atom -5574.239215 kJ/mol
# Density = 2.143862 g / cm^3
# Si number density = 21.487531 Si / 1000 Ang^3
#
#
#
# Elastic Constant Matrix: (Units=GPa)
#
#
# Indices 1 2 3 4 5 6 
#
# 1 80.2061 63.1088 37.8897 0.0000 -14.9578 0.0000
# 2 63.1088 129.8958 68.4485 0.0000 -24.5887 0.0000
# 3 37.8897 68.4485 130.7985 0.0000 -18.7357 0.0000
# 4 0.0000 0.0000 0.0000 -25.4814 0.0000 -5.7359
# 5 -14.9578 -24.5887 -18.7357 0.0000 43.1178 0.0000
# 6 0.0000 0.0000 0.0000 -5.7359 0.0000 32.6460
#
#
#
# Elastic Compliance Matrix: (Units=1/GPa)
#
#
# Indices 1 2 3 4 5 6 
#
# 1 0.020357 -0.009136 -0.000907 0.000000 0.001458 0.000000
# 2 -0.009136 0.015378 -0.004904 0.000000 0.003469 0.000000
# 3 -0.000907 -0.004904 0.010694 0.000000 0.001536 0.000000
# 4 0.000000 0.000000 0.000000 -0.037751 0.000000 -0.006633
# 5 0.001458 0.003469 0.001536 0.000000 0.026344 0.000000
# 6 0.000000 0.000000 0.000000 -0.006633 0.000000 0.029466
#
#
# Mechanical properties :
#
#
# Convention : Reuss Voigt Hill
#
# Bulk Modulus (GPa) = 60.47875 75.53271 68.00573
# Shear Modulus (GPa) = 50.05255 21.48670 35.76963
#
# Velocity S-wave (km/s) = 4.83160 3.16565 4.08446
# Velocity P-wave (km/s) = 7.70278 6.97065 7.34584
#
# Compressibility (1/GPa) = 0.01653473
#
# Stress axis : x y z
#
# Youngs Moduli (GPa) = 49.12304 65.02694 93.50677
#
# Poissons Ratio (x) = 0.59411 0.08481
# Poissons Ratio (y) = 0.44881 0.45856
# Poissons Ratio (z) = 0.04456 0.31889
#
# Static dielectric constant tensor:
#      x y z
#    x 1.846090 0.000000 0.066790 
#    y 0.000000 1.881350 0.000000 
#    z 0.066790 0.000000 1.834590 
# 
# From -- ./inp_files/260972.got.cif
#   From: 2010.05.17/outbox.cif.g08.bks.cpg/sg12_131_cif.got.tgz:260972.got - 2010.06.03 13:09:07.
