data_PCOD9216229
_publ_section_title
;
Structure prediction by ZEFSAII (Michael W. Deem and Ramdas Pophale) SiO2 
 PCOD9216229
Probable space group: C 2/M
;
_chemical_formula_sum "Si O2"
_cell_formula_units_Z 36
_cell_length_a 9.619782
_cell_length_b 14.473995
_cell_length_c 21.114198
_cell_angle_alpha 90.000000
_cell_angle_beta 142.263640
_cell_angle_gamma 90.000000
_cell_volume 1799.286245
_symmetry_space_group_name_H-M "C 2/M"
_symmetry_group_IT_number 12
_symmetry_cell_setting 'monoclinic'
loop_
_space_group_symop_operation_xyz
x,y,z
-x,y,-z
-x,-y,-z
x,-y,z
1/2+x,1/2+y,z
1/2-x,1/2+y,-z
1/2-x,1/2-y,-z
1/2+x,1/2-y,z
loop_
_atom_site_type_symbol
_atom_site_label
_atom_site_fract_x
_atom_site_fract_y
_atom_site_fract_z
Si Si1 0.772107 0.500000 0.607400
Si Si2 0.340489 0.308494 0.224969
Si Si3 0.644702 0.500000 0.987865
Si Si4 0.241070 0.297675 0.429085
Si Si5 0.328470 0.000000 0.779092
Si Si6 0.411061 0.309788 0.103295
O O1 0.500000 0.500000 0.500000
O O2 0.852728 0.403035 0.606588
O O3 0.825840 0.500000 0.701733
O O4 0.584967 0.266220 0.328994
O O5 0.295085 0.408368 0.239399
O O6 0.318077 0.312461 0.141119
O O7 0.154497 0.239489 0.187455
O O8 0.584830 0.410707 0.925280
O O9 0.500000 0.500000 0.000000
O O10 0.911973 0.500000 0.102282
O O11 0.500000 0.301893 0.500000
O O12 0.250000 0.250000 0.500000
O O13 0.250000 0.250000 0.000000
#
# Coordination Sequence:
#
# PCOD9216229 Si02
#       6
#     4   8   4   8   4   8
#     4  10  22  43  69  97 133 176 220 277 343 406
#     4  12  25  44  69 100 138 185 230 281 350 406
#     4  12  27  43  66 102 136 179 240 284 342 404
#     4  11  24  45  71 103 134 176 227 283 342 412
#     4  12  25  44  71  99 138 187 227 280 353 412
#     4  12  25  42  66  97 139 181 227 282 337 409
#
# _framework density 20.007933000000001
#
# number of rings (size 3 to 8) (size 9 to 14) (size 15 to 20)
#    0.000    0.444    2.222    8.000    3.111    0.889 
#    0.000    4.444    0.000    0.000    0.000    0.000 
#    0.000    0.000    0.000    0.000    0.000    0.000 
#
# Total GULP energy -100714.068755 kJ/mol
# GULP energy per Si atom -5595.226042 kJ/mol
# Density = 1.996239 g / cm^3
# Si number density = 20.007933 Si / 1000 Ang^3
#
#
#
# Elastic Constant Matrix: (Units=GPa)
#
#
# Indices 1 2 3 4 5 6 
#
# 1 94.3097 61.5938 12.2296 0.0000 -24.9469 0.0000
# 2 61.5938 216.9733 52.3126 0.0000 -13.7645 0.0000
# 3 12.2296 52.3126 82.8574 0.0004 -5.3435 0.0001
# 4 0.0000 0.0000 0.0004 25.1566 0.0001 -2.5243
# 5 -24.9469 -13.7645 -5.3435 0.0001 52.0955 0.0000
# 6 0.0000 0.0000 0.0001 -2.5243 0.0000 38.4289
#
#
#
# Elastic Compliance Matrix: (Units=1/GPa)
#
#
# Indices 1 2 3 4 5 6 
#
# 1 0.014703 -0.003963 0.000723 0.000000 0.006068 0.000000
# 2 -0.003963 0.006567 -0.003596 0.000000 -0.000532 0.000000
# 3 0.000723 -0.003596 0.014288 0.000000 0.000862 0.000000
# 4 0.000000 0.000000 0.000000 0.040015 0.000000 0.002628
# 5 0.006068 -0.000532 0.000862 0.000000 0.022049 0.000000
# 6 0.000000 0.000000 0.000000 0.002628 0.000000 0.026195
#
#
# Mechanical properties :
#
#
# Convention : Reuss Voigt Hill
#
# Bulk Modulus (GPa) = 45.68874 71.82357 58.75616
# Shear Modulus (GPa) = 34.53438 41.00316 37.76877
#
# Velocity S-wave (km/s) = 4.15906 4.53188 4.34947
# Velocity P-wave (km/s) = 6.77854 7.95986 7.39284
#
# Compressibility (1/GPa) = 0.02188723
#
# Stress axis : x y z
#
# Youngs Moduli (GPa) = 68.01281 152.27355 69.98986
#
# Poissons Ratio (x) = 0.60352 -0.05064
# Poissons Ratio (y) = 0.26956 0.25165
# Poissons Ratio (z) = -0.04921 0.54750
#
# Static dielectric constant tensor:
#      x y z
#    x 1.683130 0.000000 0.002430 
#    y 0.000000 1.670480 0.000000 
#    z 0.002430 0.000000 1.733130 
# 
# From -- ./inp_files/194087.got.cif
#   From: 2010.05.17/outbox.cif.g08.bks.cpg/sg12_98_cif.got.tgz:194087.got - 2010.06.03 13:09:07.
