data_PCOD9216055
_publ_section_title
;
Structure prediction by ZEFSAII (Michael W. Deem and Ramdas Pophale) SiO2 
 PCOD9216055
Probable space group: C 2/M
;
_chemical_formula_sum "Si O2"
_cell_formula_units_Z 38
_cell_length_a 11.202238
_cell_length_b 9.757750
_cell_length_c 16.314868
_cell_angle_alpha 90.000000
_cell_angle_beta 86.223504
_cell_angle_gamma 90.000000
_cell_volume 1779.483567
_symmetry_space_group_name_H-M "C 2/M"
_symmetry_group_IT_number 12
_symmetry_cell_setting 'monoclinic'
loop_
_space_group_symop_operation_xyz
x,y,z
-x,y,-z
-x,-y,-z
x,-y,z
1/2+x,1/2+y,z
1/2-x,1/2+y,-z
1/2-x,1/2-y,-z
1/2+x,1/2-y,z
loop_
_atom_site_type_symbol
_atom_site_label
_atom_site_fract_x
_atom_site_fract_y
_atom_site_fract_z
Si Si1 0.500000 0.000000 0.500000
Si Si2 0.837007 0.500000 0.134490
Si Si3 0.423415 0.500000 0.334075
Si Si4 0.834034 0.719352 0.418338
Si Si5 0.535245 0.220708 0.092966
Si Si6 0.040173 0.000000 0.848773
Si Si7 0.708521 0.500000 0.311097
Si Si8 0.768662 0.500000 0.948393
O O1 0.560602 0.879556 0.555478
O O2 0.927484 0.629078 0.133109
O O3 0.753204 0.500000 0.216125
O O4 0.776899 0.500000 0.046855
O O5 0.377236 0.363688 0.380398
O O6 0.388838 0.500000 0.239814
O O7 0.566649 0.500000 0.326137
O O8 0.750000 0.750000 0.500000
O O9 0.760525 0.633497 0.354506
O O10 0.537059 0.363050 0.139299
O O11 0.656477 0.132341 0.085974
O O12 0.500000 0.244007 0.000000
O O13 0.137371 0.000000 0.917556
#
# Coordination Sequence:
#
# PCOD9216055 Si02
#       8
#     2   4   4   8   8   4   4   4
#     4  10  22  42  72  98 118 160 210 246 304 390
#     4   9  19  41  65  90 127 179 225 269 332 380
#     4  12  27  42  64 103 138 166 213 270 323 387
#     4  11  24  45  70  97 129 168 211 260 326 398
#     4   9  20  39  61  87 123 170 226 277 321 378
#     4  12  24  37  62  98 130 172 222 264 329 389
#     4  11  24  42  66  94 135 173 211 275 332 386
#     4   9  22  43  63  86 131 180 226 278 317 373
#
# _framework density 21.354509
#
# number of rings (size 3 to 8) (size 9 to 14) (size 15 to 20)
#    0.000    1.684    0.000    5.368    0.000    9.684 
#    0.000    9.474    0.000    0.000    0.000    0.000 
#    0.000    0.000    0.000    0.000    0.000    0.000 
#
# Total GULP energy -106102.702835 kJ/mol
# GULP energy per Si atom -5584.352781 kJ/mol
# Density = 2.130591 g / cm^3
# Si number density = 21.354509 Si / 1000 Ang^3
#
#
#
# Elastic Constant Matrix: (Units=GPa)
#
#
# Indices 1 2 3 4 5 6 
#
# 1 87.3165 50.4520 53.0324 0.0000 -4.6323 0.0000
# 2 50.4520 211.3006 87.9456 0.0000 -21.7016 0.0000
# 3 53.0324 87.9456 115.2923 0.0000 -29.6477 0.0000
# 4 0.0000 0.0000 0.0000 50.0735 0.0000 -10.6197
# 5 -4.6323 -21.7016 -29.6477 0.0000 38.0996 0.0000
# 6 0.0000 0.0000 0.0000 -10.6197 0.0000 15.7243
#
#
#
# Elastic Compliance Matrix: (Units=1/GPa)
#
#
# Indices 1 2 3 4 5 6 
#
# 1 0.016777 -0.001132 -0.008120 0.000000 -0.004923 0.000000
# 2 -0.001132 0.007012 -0.004796 0.000000 0.000124 0.000000
# 3 -0.008120 -0.004796 0.018891 0.000000 0.010981 0.000000
# 4 0.000000 0.000000 0.000000 0.023309 0.000000 0.015742
# 5 -0.004923 0.000124 0.010981 0.000000 0.034264 0.000000
# 6 0.000000 0.000000 0.000000 0.015742 0.000000 0.074228
#
#
# Mechanical properties :
#
#
# Convention : Reuss Voigt Hill
#
# Bulk Modulus (GPa) = 68.56751 88.52993 78.54872
# Shear Modulus (GPa) = 24.10363 35.61144 29.85754
#
# Velocity S-wave (km/s) = 3.36331 4.08809 3.74329
# Velocity P-wave (km/s) = 6.87469 7.98941 7.45292
#
# Compressibility (1/GPa) = 0.01458417
#
# Stress axis : x y z
#
# Youngs Moduli (GPa) = 59.60532 142.61726 52.93604
#
# Poissons Ratio (x) = 0.16144 0.42983
# Poissons Ratio (y) = 0.06747 0.25388
# Poissons Ratio (z) = 0.48398 0.68399
#
# Static dielectric constant tensor:
#      x y z
#    x 1.769430 0.000000 0.006560 
#    y 0.000000 1.771470 0.000000 
#    z 0.006560 0.000000 1.752880 
# 
# From -- ./inp_files/261018.got.cif
#   From: 2010.05.17/outbox.cif.g08.bks.cpg/sg12_131_cif.got.tgz:261018.got - 2010.06.03 13:09:07.
