data_PCOD9216665
_publ_section_title
;
Structure prediction by ZEFSAII (Michael W. Deem and Ramdas Pophale) SiO2 
 PCOD9216665
Probable space group: C 2/M
;
_chemical_formula_sum "Si O2"
_cell_formula_units_Z 50
_cell_length_a 13.165781
_cell_length_b 24.737923
_cell_length_c 8.534506
_cell_angle_alpha 90.000000
_cell_angle_beta 63.896802
_cell_angle_gamma 90.000000
_cell_volume 2496.123361
_symmetry_space_group_name_H-M "C 2/M"
_symmetry_group_IT_number 12
_symmetry_cell_setting 'monoclinic'
loop_
_space_group_symop_operation_xyz
x,y,z
-x,y,-z
-x,-y,-z
x,-y,z
1/2+x,1/2+y,z
1/2-x,1/2+y,-z
1/2-x,1/2-y,-z
1/2+x,1/2-y,z
loop_
_atom_site_type_symbol
_atom_site_label
_atom_site_fract_x
_atom_site_fract_y
_atom_site_fract_z
Si Si1 0.888042 0.837397 0.474812
Si Si2 0.500000 0.000000 0.000000
Si Si3 0.615521 0.709721 0.849516
Si Si4 0.703374 0.126137 0.161621
Si Si5 0.960474 0.594707 0.278596
Si Si6 0.731393 0.561945 0.609734
Si Si7 0.680633 0.172345 0.840916
O O1 0.899447 0.793888 0.327387
O O2 0.848973 0.893935 0.419823
O O3 0.790540 0.819837 0.659864
O O4 0.000000 0.844320 0.500000
O O5 0.500209 0.953085 0.137441
O O6 0.728473 0.676174 0.811404
O O7 0.632466 0.768769 0.911439
O O8 0.500000 0.685430 0.000000
O O9 0.570441 0.119764 0.286180
O O10 0.761425 0.075569 0.210016
O O11 0.710315 0.135901 0.971187
O O12 0.857022 0.572747 0.453888
O O13 0.908221 0.641089 0.205490
O O14 0.699604 0.500000 0.602241
#
# Coordination Sequence:
#
# PCOD9216665 Si02
#       7
#     8   2   8   8   8   8   8
#     4  10  23  42  63  90 122 165 208 257 308 372
#     4  12  20  36  62  88 132 164 210 260 316 366
#     4  11  23  41  63  89 125 163 204 256 311 367
#     4  11  22  36  58  90 120 161 203 253 311 369
#     4  11  22  37  59  93 126 164 211 254 315 373
#     4  10  23  39  61  89 128 164 210 263 311 364
#     4  11  22  40  62  91 124 160 208 254 306 377
#
# _framework density 20.03106
#
# number of rings (size 3 to 8) (size 9 to 14) (size 15 to 20)
#    0.000    1.280    2.400    3.360    1.120    2.240 
#    0.000    1.600    0.000   16.320    0.000    0.000 
#    0.000    0.000    0.000    0.000    0.000    0.000 
#
# Total GULP energy -139247.938864 kJ/mol
# GULP energy per Si atom -5569.917555 kJ/mol
# Density = 1.998547 g / cm^3
# Si number density = 20.031060 Si / 1000 Ang^3
#
#
#
# Elastic Constant Matrix: (Units=GPa)
#
#
# Indices 1 2 3 4 5 6 
#
# 1 120.2427 11.5607 14.3146 0.0000 0.4780 0.0000
# 2 11.5607 66.1868 -6.1543 0.0000 -6.8817 0.0000
# 3 14.3146 -6.1543 63.5621 0.0000 7.4530 0.0000
# 4 0.0000 0.0000 0.0000 19.8126 0.0000 3.5601
# 5 0.4780 -6.8817 7.4530 0.0000 28.8927 0.0000
# 6 0.0000 0.0000 0.0000 3.5601 0.0000 4.3132
#
#
#
# Elastic Compliance Matrix: (Units=1/GPa)
#
#
# Indices 1 2 3 4 5 6 
#
# 1 0.008736 -0.001725 -0.002134 0.000000 -0.000005 0.000000
# 2 -0.001725 0.015908 0.001527 0.000000 0.003424 0.000000
# 3 -0.002134 0.001527 0.016823 0.000000 -0.003941 0.000000
# 4 0.000000 0.000000 0.000000 0.059263 0.000000 -0.048916
# 5 -0.000005 0.003424 -0.003941 0.000000 0.036443 0.000000
# 6 0.000000 0.000000 0.000000 -0.048916 0.000000 0.272223
#
#
# Mechanical properties :
#
#
# Convention : Reuss Voigt Hill
#
# Bulk Modulus (GPa) = 27.17060 32.15929 29.66494
# Shear Modulus (GPa) = 11.72809 25.95508 18.84159
#
# Velocity S-wave (km/s) = 2.42233 3.60355 3.07028
# Velocity P-wave (km/s) = 4.62788 5.77959 5.23550
#
# Compressibility (1/GPa) = 0.03680449
#
# Stress axis : x y z
#
# Youngs Moduli (GPa) = 114.46340 62.86136 59.44191
#
# Poissons Ratio (x) = 0.10843 0.12685
# Poissons Ratio (y) = 0.19744 -0.09079
# Poissons Ratio (z) = 0.24426 -0.09601
#
# Static dielectric constant tensor:
#      x y z
#    x 1.716400 0.000000 -0.006050 
#    y 0.000000 1.684370 0.000000 
#    z -0.006050 0.000000 1.738910 
# 
# From -- ./inp_files/53079.got.cif
#   From: 2010.05.17/outbox.cif.g08.bks.cpg/sg12_27_cif.got.tgz:53079.got - 2010.06.03 13:09:07.
