data_PCOD9216314
_publ_section_title
;
Structure prediction by ZEFSAII (Michael W. Deem and Ramdas Pophale) SiO2 
 PCOD9216314
Probable space group: C 2/M
;
_chemical_formula_sum "Si O2"
_cell_formula_units_Z 42
_cell_length_a 9.693295
_cell_length_b 16.089929
_cell_length_c 15.819205
_cell_angle_alpha 90.000000
_cell_angle_beta 56.963231
_cell_angle_gamma 90.000000
_cell_volume 2068.333158
_symmetry_space_group_name_H-M "C 2/M"
_symmetry_group_IT_number 12
_symmetry_cell_setting 'monoclinic'
loop_
_space_group_symop_operation_xyz
x,y,z
-x,y,-z
-x,-y,-z
x,-y,z
1/2+x,1/2+y,z
1/2-x,1/2+y,-z
1/2-x,1/2-y,-z
1/2+x,1/2-y,z
loop_
_atom_site_type_symbol
_atom_site_label
_atom_site_fract_x
_atom_site_fract_y
_atom_site_fract_z
Si Si1 0.020362 0.593461 0.094094
Si Si2 0.251582 0.715276 0.753503
Si Si3 0.665986 0.836329 0.417950
Si Si4 0.803171 0.189074 0.058007
Si Si5 0.533774 0.402306 0.588334
Si Si6 0.500000 0.000000 0.500000
O O1 0.962959 0.500000 0.128847
O O2 0.205592 0.606177 0.064873
O O3 0.908660 0.659084 0.180311
O O4 0.000000 0.609138 0.000000
O O5 0.242555 0.781185 0.680786
O O6 0.265521 0.769190 0.833819
O O7 0.399514 0.651544 0.683630
O O8 0.500000 0.788221 0.500000
O O9 0.590867 0.925182 0.414697
O O10 0.789059 0.861747 0.451367
O O11 0.750000 0.250000 0.000000
O O12 0.000000 0.180542 0.000000
O O13 0.500000 0.402262 0.500000
O O14 0.537156 0.500000 0.614013
#
# Coordination Sequence:
#
# PCOD9216314 Si02
#       6
#     8   8   8   8   8   2
#     4  11  24  45  67  95 138 180 226 285 341 395
#     4  12  23  39  72  98 129 180 225 278 334 409
#     4  10  22  44  67  93 134 176 223 273 338 398
#     4  12  23  45  69  99 136 174 227 284 331 410
#     4  11  24  42  65  97 133 172 225 277 331 404
#     4   8  20  48  62  92 140 180 206 292 334 398
#
# _framework density 20.306207000000001
#
# number of rings (size 3 to 8) (size 9 to 14) (size 15 to 20)
#    0.571    0.381    4.762    2.286    0.000    4.952 
#    1.714    0.000    0.000    0.000    0.000    0.000 
#    0.000    0.000    0.000    0.000    0.000    0.000 
#
# Total GULP energy -116911.010713 kJ/mol
# GULP energy per Si atom -5567.190986 kJ/mol
# Density = 2.025999 g / cm^3
# Si number density = 20.306207 Si / 1000 Ang^3
#
#
#
# Elastic Constant Matrix: (Units=GPa)
#
#
# Indices 1 2 3 4 5 6 
#
# 1 142.4411 41.0934 52.7857 0.0000 -5.1508 0.0000
# 2 41.0934 127.6027 48.8436 0.0000 1.4438 0.0000
# 3 52.7857 48.8436 98.2128 0.0000 3.0838 0.0000
# 4 0.0000 0.0000 0.0000 27.0896 0.0000 -5.2763
# 5 -5.1508 1.4438 3.0838 0.0000 28.1004 0.0000
# 6 0.0000 0.0000 0.0000 -5.2763 0.0000 16.6464
#
#
#
# Elastic Compliance Matrix: (Units=1/GPa)
#
#
# Indices 1 2 3 4 5 6 
#
# 1 0.009067 -0.001301 -0.004295 0.000000 0.002200 0.000000
# 2 -0.001301 0.009866 -0.004199 0.000000 -0.000285 0.000000
# 3 -0.004295 -0.004199 0.014647 0.000000 -0.002179 0.000000
# 4 0.000000 0.000000 0.000000 0.039343 0.000000 0.012471
# 5 0.002200 -0.000285 -0.002179 0.000000 0.036244 0.000000
# 6 0.000000 0.000000 0.000000 0.012471 0.000000 0.064026
#
#
# Mechanical properties :
#
#
# Convention : Reuss Voigt Hill
#
# Bulk Modulus (GPa) = 71.47579 72.63355 72.05467
# Shear Modulus (GPa) = 25.32332 29.40286 27.36309
#
# Velocity S-wave (km/s) = 3.53522 3.80935 3.67485
# Velocity P-wave (km/s) = 7.20688 7.42934 7.31895
#
# Compressibility (1/GPa) = 0.01399075
#
# Stress axis : x y z
#
# Youngs Moduli (GPa) = 110.28964 101.35755 68.27290
#
# Poissons Ratio (x) = 0.13183 0.29326
# Poissons Ratio (y) = 0.14345 0.28665
# Poissons Ratio (z) = 0.47374 0.42556
#
# Static dielectric constant tensor:
#      x y z
#    x 1.769440 0.000000 -0.042550 
#    y 0.000000 1.723640 0.000000 
#    z -0.042550 0.000000 1.677080 
# 
# From -- ./inp_files/195874.got.cif
#   From: 2010.05.17/outbox.cif.g08.bks.cpg/sg12_98_cif.got.tgz:195874.got - 2010.06.03 13:09:07.
