data_PCOD9216608
_publ_section_title
;
Structure prediction by ZEFSAII (Michael W. Deem and Ramdas Pophale) SiO2 
 PCOD9216608
Probable space group: C 2/M
;
_chemical_formula_sum "Si O2"
_cell_formula_units_Z 60
_cell_length_a 18.463362
_cell_length_b 15.492785
_cell_length_c 30.552947
_cell_angle_alpha 90.000000
_cell_angle_beta 156.281080
_cell_angle_gamma 90.000000
_cell_volume 3515.519970
_symmetry_space_group_name_H-M "C 2/M"
_symmetry_group_IT_number 12
_symmetry_cell_setting 'monoclinic'
loop_
_space_group_symop_operation_xyz
x,y,z
-x,y,-z
-x,-y,-z
x,-y,z
1/2+x,1/2+y,z
1/2-x,1/2+y,-z
1/2-x,1/2-y,-z
1/2+x,1/2-y,z
loop_
_atom_site_type_symbol
_atom_site_label
_atom_site_fract_x
_atom_site_fract_y
_atom_site_fract_z
Si Si1 0.532946 0.402712 0.070448
Si Si2 0.389250 0.898336 0.735227
Si Si3 0.213020 0.399690 0.422754
Si Si4 0.266976 0.776765 0.059281
Si Si5 0.214395 0.670829 0.111647
Si Si6 0.628872 0.360188 0.671669
Si Si7 0.619487 0.800188 0.726403
Si Si8 0.277361 0.500000 0.200824
O O1 0.491033 0.500000 0.061160
O O2 0.737070 0.377467 0.194288
O O3 0.500000 0.397877 0.000000
O O4 0.403626 0.334081 0.021274
O O5 0.318689 0.886808 0.646665
O O6 0.558800 0.836112 0.836272
O O7 0.239599 0.875067 0.688567
O O8 0.437297 0.000000 0.766772
O O9 0.171569 0.500000 0.409606
O O10 0.419835 0.382629 0.548774
O O11 0.077871 0.338070 0.374421
O O12 0.263271 0.693676 0.088915
O O13 0.250000 0.750000 0.000000
O O14 0.320287 0.740942 0.199309
O O15 0.261333 0.576218 0.154452
O O16 0.000000 0.682618 0.000000
O O17 0.638214 0.262613 0.695183
O O18 0.705392 0.424184 0.751278
#
# Coordination Sequence:
#
# PCOD9216608 Si02
#       8
#     8   8   8   8   8   8   8   4
#     4  11  20  37  58  81 112 147 184 231 287 339
#     4  11  22  37  56  83 119 149 185 237 296 342
#     4  11  21  37  58  87 115 147 190 241 297 336
#     4  12  23  37  57  84 117 151 193 232 280 354
#     4  11  21  40  58  83 117 153 195 233 294 340
#     4  11  22  38  59  84 113 151 196 237 285 338
#     4  11  20  36  59  83 113 147 191 238 281 347
#     4  10  23  38  63  82 114 153 197 242 286 341
#
# _framework density 17.067177000000001
#
# number of rings (size 3 to 8) (size 9 to 14) (size 15 to 20)
#    0.000    0.933    5.333    2.600    1.867    3.200 
#    2.400    0.000    0.000    0.000    0.000    0.000 
#    0.000    8.800    0.000    0.000    0.000    0.000 
#
# Total GULP energy -167019.216639 kJ/mol
# GULP energy per Si atom -5567.307221 kJ/mol
# Density = 1.702833 g / cm^3
# Si number density = 17.067177 Si / 1000 Ang^3
#
#
#
# Elastic Constant Matrix: (Units=GPa)
#
#
# Indices 1 2 3 4 5 6 
#
# 1 51.3014 29.3255 0.1518 0.0002 5.8173 0.0005
# 2 29.3255 75.1149 11.3806 0.0033 -2.0400 -0.0005
# 3 0.1518 11.3806 23.4171 0.0077 14.7592 -0.0007
# 4 0.0002 0.0033 0.0077 11.6112 -0.0007 -4.5839
# 5 5.8173 -2.0400 14.7592 -0.0007 27.1995 -0.0002
# 6 0.0005 -0.0005 -0.0007 -4.5839 -0.0002 23.0454
#
#
#
# Elastic Compliance Matrix: (Units=1/GPa)
#
#
# Indices 1 2 3 4 5 6 
#
# 1 0.029865 -0.014830 0.017842 -0.000010 -0.017181 -0.000003
# 2 -0.014830 0.022786 -0.021358 0.000010 0.016470 0.000002
# 3 0.017842 -0.021358 0.085689 -0.000058 -0.051915 -0.000010
# 4 -0.000010 0.000010 -0.000058 0.093463 0.000037 0.018591
# 5 -0.017181 0.016470 -0.051915 0.000037 0.069846 0.000007
# 6 -0.000003 0.000002 -0.000010 0.018591 0.000007 0.047090
#
#
# Mechanical properties :
#
#
# Convention : Reuss Voigt Hill
#
# Bulk Modulus (GPa) = 9.83780 25.72767 17.78274
# Shear Modulus (GPa) = 11.92427 19.63624 15.78025
#
# Velocity S-wave (km/s) = 2.64610 3.39562 3.04402
# Velocity P-wave (km/s) = 3.88747 5.52094 4.77458
#
# Compressibility (1/GPa) = 0.10164871
#
# Stress axis : x y z
#
# Youngs Moduli (GPa) = 33.48383 43.88702 11.67016
#
# Poissons Ratio (x) = 0.65082 -0.20822
# Poissons Ratio (y) = 0.49655 0.24926
# Poissons Ratio (z) = -0.59743 0.93735
#
# Static dielectric constant tensor:
#      x y z
#    x 1.559390 0.000000 -0.001980 
#    y 0.000000 1.570830 0.000000 
#    z -0.001980 0.000000 1.579360 
# 
# From -- ./inp_files/225684.got.cif
#   From: 2010.05.17/outbox.cif.g08.bks.cpg/sg12_113_cif.got.tgz:225684.got - 2010.06.03 13:09:07.
