data_PCOD9216050
_publ_section_title
;
Structure prediction by ZEFSAII (Michael W. Deem and Ramdas Pophale) SiO2 
 PCOD9216050
Probable space group: C 2/M
;
_chemical_formula_sum "Si O2"
_cell_formula_units_Z 32
_cell_length_a 10.258258
_cell_length_b 28.692159
_cell_length_c 5.366121
_cell_angle_alpha 90.000000
_cell_angle_beta 100.069444
_cell_angle_gamma 90.000000
_cell_volume 1555.090339
_symmetry_space_group_name_H-M "C 2/M"
_symmetry_group_IT_number 12
_symmetry_cell_setting 'monoclinic'
loop_
_space_group_symop_operation_xyz
x,y,z
-x,y,-z
-x,-y,-z
x,-y,z
1/2+x,1/2+y,z
1/2-x,1/2+y,-z
1/2-x,1/2-y,-z
1/2+x,1/2-y,z
loop_
_atom_site_type_symbol
_atom_site_label
_atom_site_fract_x
_atom_site_fract_y
_atom_site_fract_z
Si Si1 0.164354 0.253378 0.227010
Si Si2 0.078347 0.641657 0.270764
Si Si3 0.087244 0.000000 0.780808
Si Si4 0.500000 0.672661 0.000000
Si Si5 0.638154 0.602973 0.705944
O O1 0.250000 0.250000 0.500000
O O2 0.095901 0.303352 0.223093
O O3 0.066782 0.209215 0.208232
O O4 0.250000 0.250000 0.000000
O O5 0.224906 0.620564 0.362001
O O6 0.000000 0.634979 0.500000
O O7 0.000000 0.622558 0.000000
O O8 0.159460 0.049705 0.798641
O O9 0.000000 0.000000 0.500000
O O10 0.000000 0.000000 0.000000
O O11 0.391727 0.638787 0.081116
O O12 0.500000 0.604524 0.500000
#
# Coordination Sequence:
#
# PCOD9216050 Si02
#       5
#     8   8   4   4   8
#     4  12  25  41  61  94 135 180 227 273 329 400
#     4  12  27  45  66  99 144 184 226 279 344 412
#     4  10  22  42  72 106 134 168 229 299 346 400
#     4  12  24  39  70 100 132 181 236 282 332 406
#     4  11  25  45  73 102 136 179 235 288 348 406
#
# _framework density 20.577583000000001
#
# number of rings (size 3 to 8) (size 9 to 14) (size 15 to 20)
#    0.000    0.500    5.000    3.000    3.500    0.000 
#    0.000    1.250    0.000    0.000    0.000    0.000 
#    0.000    0.000    0.000    0.000    0.000    0.000 
#
# Total GULP energy -89379.707812 kJ/mol
# GULP energy per Si atom -5586.231738 kJ/mol
# Density = 2.053075 g / cm^3
# Si number density = 20.577583 Si / 1000 Ang^3
#
#
#
# Elastic Constant Matrix: (Units=GPa)
#
#
# Indices 1 2 3 4 5 6 
#
# 1 144.7522 59.5867 63.9875 0.0000 -19.6788 0.0000
# 2 59.5867 167.1702 21.9501 0.0000 -7.8727 0.0000
# 3 63.9875 21.9501 136.3969 0.0000 -5.0442 0.0000
# 4 0.0000 0.0000 0.0000 0.1068 0.0000 3.6371
# 5 -19.6788 -7.8727 -5.0442 0.0000 55.4151 0.0000
# 6 0.0000 0.0000 0.0000 3.6371 0.0000 15.0455
#
#
#
# Elastic Compliance Matrix: (Units=1/GPa)
#
#
# Indices 1 2 3 4 5 6 
#
# 1 0.010451 -0.003023 -0.004309 0.000000 0.002889 0.000000
# 2 -0.003023 0.007019 0.000287 0.000000 -0.000050 0.000000
# 3 -0.004309 0.000287 0.009283 0.000000 -0.000645 0.000000
# 4 0.000000 0.000000 0.000000 -1.294610 0.000000 0.312956
# 5 0.002889 -0.000050 -0.000645 0.000000 0.019006 0.000000
# 6 0.000000 0.000000 0.000000 0.312956 0.000000 -0.009188
#
#
# Mechanical properties :
#
#
# Convention : Reuss Voigt Hill
#
# Bulk Modulus (GPa) = 78.97726 82.15198 80.56462
# Shear Modulus (GPa) = -4.03315 34.29982 15.13334
#
# Velocity S-wave (km/s) = -1.40151 4.08714 2.71482
# Velocity P-wave (km/s) = 5.98704 7.89194 7.00454
#
# Compressibility (1/GPa) = 0.01266187
#
# Stress axis : x y z
#
# Youngs Moduli (GPa) = 95.68891 142.46065 107.72197
#
# Poissons Ratio (x) = 0.43068 0.46420
# Poissons Ratio (y) = 0.28928 -0.03089
# Poissons Ratio (z) = 0.41235 -0.04085
#
# Static dielectric constant tensor:
#      x y z
#    x 1.760310 0.000000 0.039000 
#    y 0.000000 1.727560 0.000000 
#    z 0.039000 0.000000 1.777870 
# 
# From -- ./inp_files/3571.got.cif
#   From: 2010.05.17/outbox.cif.g08.bks.cpg/sg12_2_cif.got.tgz:3571.got - 2010.06.03 13:09:07.
