data_PCOD9216876
_publ_section_title
;
Structure prediction by ZEFSAII (Michael W. Deem and Ramdas Pophale) SiO2 
 PCOD9216876
Probable space group: C 2/M
;
_chemical_formula_sum "Si O2"
_cell_formula_units_Z 40
_cell_length_a 8.397839
_cell_length_b 30.038901
_cell_length_c 11.688591
_cell_angle_alpha 90.000000
_cell_angle_beta 38.028231
_cell_angle_gamma 90.000000
_cell_volume 1816.475217
_symmetry_space_group_name_H-M "C 2/M"
_symmetry_group_IT_number 12
_symmetry_cell_setting 'monoclinic'
loop_
_space_group_symop_operation_xyz
x,y,z
-x,y,-z
-x,-y,-z
x,-y,z
1/2+x,1/2+y,z
1/2-x,1/2+y,-z
1/2-x,1/2-y,-z
1/2+x,1/2-y,z
loop_
_atom_site_type_symbol
_atom_site_label
_atom_site_fract_x
_atom_site_fract_y
_atom_site_fract_z
Si Si1 0.262701 0.704246 0.924169
Si Si2 0.634636 0.338987 0.546594
Si Si3 0.845300 0.634991 0.825736
Si Si4 0.798280 0.917471 0.315769
Si Si5 0.144047 0.548308 0.039579
O O1 0.496886 0.697579 0.703040
O O2 0.250000 0.750000 0.000000
O O3 0.285464 0.665837 0.006022
O O4 0.000000 0.697726 0.000000
O O5 0.500000 0.341977 0.500000
O O6 0.630091 0.385613 0.618341
O O7 0.935006 0.333080 0.350845
O O8 0.712852 0.612700 0.791819
O O9 0.942660 0.591157 0.839071
O O10 0.500000 0.934406 0.500000
O O11 0.045955 0.948526 0.156014
O O12 0.086270 0.500000 0.126396
O O13 0.000000 0.550351 0.000000
#
# Coordination Sequence:
#
# PCOD9216876 Si02
#       5
#     8   8   8   8   8
#     4  12  27  44  70 103 139 190 235 296 355 431
#     4  11  22  43  68  97 137 184 233 284 355 424
#     4  11  23  44  70  98 140 184 235 295 358 419
#     4  10  23  40  70 104 138 192 237 301 354 427
#     4  11  23  41  70 104 144 192 241 294 359 432
#
# _framework density 22.020668000000001
#
# number of rings (size 3 to 8) (size 9 to 14) (size 15 to 20)
#    0.000    1.000    4.000    2.400    2.800    2.800 
#    0.000    3.000    0.000   10.800    0.000    0.000 
#    0.000    0.000    0.000    0.000    0.000    0.000 
#
# Total GULP energy -111672.377312 kJ/mol
# GULP energy per Si atom -5583.618866 kJ/mol
# Density = 2.197055 g / cm^3
# Si number density = 22.020668 Si / 1000 Ang^3
#
#
#
# Elastic Constant Matrix: (Units=GPa)
#
#
# Indices 1 2 3 4 5 6 
#
# 1 110.8599 40.6768 42.3554 0.0000 7.2285 0.0000
# 2 40.6768 96.0515 39.4078 0.0000 8.5314 0.0000
# 3 42.3554 39.4078 132.2394 0.0000 0.9537 0.0000
# 4 0.0000 0.0000 0.0000 27.2360 0.0000 -2.4591
# 5 7.2285 8.5314 0.9537 0.0000 47.0428 0.0000
# 6 0.0000 0.0000 0.0000 -2.4591 0.0000 11.7295
#
#
#
# Elastic Compliance Matrix: (Units=1/GPa)
#
#
# Indices 1 2 3 4 5 6 
#
# 1 0.011418 -0.003699 -0.002548 0.000000 -0.001032 0.000000
# 2 -0.003699 0.013266 -0.002756 0.000000 -0.001782 0.000000
# 3 -0.002548 -0.002756 0.009194 0.000000 0.000705 0.000000
# 4 0.000000 0.000000 0.000000 0.037424 0.000000 0.007846
# 5 -0.001032 -0.001782 0.000705 0.000000 0.021725 0.000000
# 6 0.000000 0.000000 0.000000 0.007846 0.000000 0.086900
#
#
# Mechanical properties :
#
#
# Convention : Reuss Voigt Hill
#
# Bulk Modulus (GPa) = 62.99382 64.89231 63.94307
# Shear Modulus (GPa) = 24.60347 31.64905 28.12626
#
# Velocity S-wave (km/s) = 3.34621 3.79521 3.57776
# Velocity P-wave (km/s) = 6.60290 6.98123 6.79470
#
# Compressibility (1/GPa) = 0.01587457
#
# Stress axis : x y z
#
# Youngs Moduli (GPa) = 87.58039 75.37877 108.76442
#
# Poissons Ratio (x) = 0.27879 0.27708
# Poissons Ratio (y) = 0.32392 0.29975
# Poissons Ratio (z) = 0.22311 0.20774
#
# Static dielectric constant tensor:
#      x y z
#    x 1.811480 0.000000 -0.064170 
#    y 0.000000 1.774270 0.000000 
#    z -0.064170 0.000000 1.881080 
# 
# From -- ./inp_files/125019.got.cif
#   From: 2010.05.17/outbox.cif.g08.bks.cpg/sg12_63_cif.got.tgz:125019.got - 2010.06.03 13:09:07.
