data_PCOD9216923
_publ_section_title
;
Structure prediction by ZEFSAII (Michael W. Deem and Ramdas Pophale) SiO2 
 PCOD9216923
Probable space group: C 2/M
;
_chemical_formula_sum "Si O2"
_cell_formula_units_Z 40
_cell_length_a 22.663506
_cell_length_b 9.910352
_cell_length_c 10.369025
_cell_angle_alpha 90.000000
_cell_angle_beta 110.835438
_cell_angle_gamma 90.000000
_cell_volume 2176.619908
_symmetry_space_group_name_H-M "C 2/M"
_symmetry_group_IT_number 12
_symmetry_cell_setting 'monoclinic'
loop_
_space_group_symop_operation_xyz
x,y,z
-x,y,-z
-x,-y,-z
x,-y,z
1/2+x,1/2+y,z
1/2-x,1/2+y,-z
1/2-x,1/2-y,-z
1/2+x,1/2-y,z
loop_
_atom_site_type_symbol
_atom_site_label
_atom_site_fract_x
_atom_site_fract_y
_atom_site_fract_z
Si Si1 0.919068 0.000000 0.694445
Si Si2 0.380811 0.500000 0.102739
Si Si3 0.699101 0.500000 0.199528
Si Si4 0.107430 0.500000 0.532416
Si Si5 0.516845 0.277864 0.864114
Si Si6 0.156068 0.000000 0.631592
Si Si7 0.025038 0.500000 0.720390
Si Si8 0.214502 0.720640 0.606408
O O1 0.891275 0.000000 0.528258
O O2 0.962289 0.131498 0.754191
O O3 0.862470 0.000000 0.755077
O O4 0.421071 0.369281 0.095755
O O5 0.373999 0.500000 0.250788
O O6 0.319804 0.500000 0.964453
O O7 0.740018 0.630323 0.269882
O O8 0.080808 0.500000 0.657684
O O9 0.151374 0.630143 0.539706
O O10 0.043834 0.500000 0.400031
O O11 0.527716 0.135909 0.804892
O O12 0.500000 0.259217 0.000000
O O13 0.196557 0.135653 0.650437
O O14 0.250000 0.750000 0.500000
#
# Coordination Sequence:
#
# PCOD9216923 Si02
#       8
#     4   4   4   4   8   4   4   8
#     4  11  20  40  66  86 121 162 209 250 312 371
#     4  11  24  41  63  87 128 164 205 254 319 373
#     4  11  22  42  63  84 125 172 195 258 321 362
#     4  10  23  41  59  92 134 168 195 259 331 363
#     4  11  22  39  62  91 120 165 208 252 307 383
#     4  12  23  38  63  97 115 152 216 265 298 375
#     4  11  23  38  62  93 132 161 203 262 321 369
#     4  11  22  40  66  91 122 164 219 258 303 373
#
# _framework density 18.377116000000001
#
# number of rings (size 3 to 8) (size 9 to 14) (size 15 to 20)
#    0.000    1.000    4.000    3.900    0.000    4.000 
#    0.000    1.000    0.000    0.000    0.000    0.000 
#    0.000    0.000    0.000    0.000    0.000    0.000 
#
# Total GULP energy -111755.847340 kJ/mol
# GULP energy per Si atom -5587.792367 kJ/mol
# Density = 1.833529 g / cm^3
# Si number density = 18.377116 Si / 1000 Ang^3
#
#
#
# Elastic Constant Matrix: (Units=GPa)
#
#
# Indices 1 2 3 4 5 6 
#
# 1 98.5630 52.1134 34.8962 0.0000 -17.5620 0.0000
# 2 52.1134 176.3212 47.0047 0.0000 -5.6944 0.0000
# 3 34.8962 47.0047 118.3594 0.0000 -12.6441 0.0000
# 4 0.0000 0.0000 0.0000 56.2167 0.0000 -71.0266
# 5 -17.5620 -5.6944 -12.6441 0.0000 41.8612 0.0000
# 6 0.0000 0.0000 0.0000 -71.0266 0.0000 31.6896
#
#
#
# Elastic Compliance Matrix: (Units=1/GPa)
#
#
# Indices 1 2 3 4 5 6 
#
# 1 0.013445 -0.003243 -0.002191 0.000000 0.004537 0.000000
# 2 -0.003243 0.007126 -0.001979 0.000000 -0.000989 0.000000
# 3 -0.002191 -0.001979 0.010079 0.000000 0.001856 0.000000
# 4 0.000000 0.000000 0.000000 -0.009711 0.000000 -0.021765
# 5 0.004537 -0.000989 0.001856 0.000000 0.026218 0.000000
# 6 0.000000 0.000000 0.000000 -0.021765 0.000000 -0.017227
#
#
# Mechanical properties :
#
#
# Convention : Reuss Voigt Hill
#
# Bulk Modulus (GPa) = 63.20187 73.47467 68.33827
# Shear Modulus (GPa) = 99.93701 43.23545 71.58623
#
# Velocity S-wave (km/s) = 7.38236 4.85570 6.24809
# Velocity P-wave (km/s) = 10.35046 8.45610 9.45086
#
# Compressibility (1/GPa) = 0.01582232
#
# Stress axis : x y z
#
# Youngs Moduli (GPa) = 74.37815 140.33697 99.21368
#
# Poissons Ratio (x) = 0.45512 0.21741
# Poissons Ratio (y) = 0.24121 0.19638
# Poissons Ratio (z) = 0.16299 0.27778
#
# Static dielectric constant tensor:
#      x y z
#    x 1.650230 0.000000 -0.026880 
#    y 0.000000 1.607500 0.000000 
#    z -0.026880 0.000000 1.678460 
# 
# From -- ./inp_files/172634.got.cif
#   From: 2010.05.17/outbox.cif.g08.bks.cpg/sg12_87_cif.got.tgz:172634.got - 2010.06.03 13:09:07.
