data_PCOD9216207
_publ_section_title
;
Structure prediction by ZEFSAII (Michael W. Deem and Ramdas Pophale) SiO2 
 PCOD9216207
Probable space group: C 2/M
;
_chemical_formula_sum "Si O2"
_cell_formula_units_Z 64
_cell_length_a 23.115119
_cell_length_b 15.448883
_cell_length_c 25.230263
_cell_angle_alpha 90.000000
_cell_angle_beta 162.139396
_cell_angle_gamma 90.000000
_cell_volume 2763.324840
_symmetry_space_group_name_H-M "C 2/M"
_symmetry_group_IT_number 12
_symmetry_cell_setting 'monoclinic'
loop_
_space_group_symop_operation_xyz
x,y,z
-x,y,-z
-x,-y,-z
x,-y,z
1/2+x,1/2+y,z
1/2-x,1/2+y,-z
1/2-x,1/2-y,-z
1/2+x,1/2-y,z
loop_
_atom_site_type_symbol
_atom_site_label
_atom_site_fract_x
_atom_site_fract_y
_atom_site_fract_z
Si Si1 0.688510 0.106046 0.895739
Si Si2 0.103697 0.099375 0.286281
Si Si3 0.560552 0.902875 0.229791
Si Si4 0.098544 0.654855 0.534788
Si Si5 0.564797 0.254789 0.108027
Si Si6 0.419954 0.600119 0.617440
Si Si7 0.224080 0.102086 0.691343
Si Si8 0.358930 0.759158 0.235245
O O1 0.614038 0.135374 0.889276
O O2 0.601483 0.164166 0.773128
O O3 0.657202 0.000000 0.862666
O O4 0.912139 0.123911 0.089669
O O5 0.287502 0.105012 0.410885
O O6 0.111427 0.139299 0.351234
O O7 0.076316 0.000000 0.275562
O O8 0.676344 0.875585 0.278562
O O9 0.719573 0.903939 0.413741
O O10 0.497122 0.000000 0.160789
O O11 0.270620 0.705673 0.712945
O O12 0.000000 0.611526 0.500000
O O13 0.946544 0.709395 0.368013
O O14 0.662014 0.166258 0.172023
O O15 0.500000 0.309538 0.000000
O O16 0.365160 0.242990 0.962041
O O17 0.493404 0.500000 0.679468
O O18 0.546527 0.668504 0.697083
O O19 0.000000 0.119178 0.500000
O O20 0.248054 0.000000 0.722153
#
# Coordination Sequence:
#
# PCOD9216207 Si02
#       8
#     8   8   8   8   8   8   8   8
#     4  10  22  43  69 103 141 177 226 286 346 418
#     4  10  23  44  70 102 139 177 226 291 350 415
#     4   9  19  38  64  94 136 179 222 282 342 398
#     4  12  25  46  71  98 139 177 231 287 344 421
#     4  12  26  44  65  96 136 179 229 286 345 405
#     4  10  23  42  65 100 141 180 232 285 339 413
#     4  10  23  42  66  96 133 184 238 286 339 404
#     4  12  26  43  74 103 135 188 232 281 357 415
#
# _framework density 23.160506000000002
#
# number of rings (size 3 to 8) (size 9 to 14) (size 15 to 20)
#    0.000    1.375    2.500    1.875    3.500    6.000 
#    0.000    0.000    0.000    2.625    0.000    0.000 
#    0.000    0.000    0.000    0.000    0.000    0.000 
#
# Total GULP energy -178362.869069 kJ/mol
# GULP energy per Si atom -5573.839658 kJ/mol
# Density = 2.310779 g / cm^3
# Si number density = 23.160506 Si / 1000 Ang^3
#
#
#
# Elastic Constant Matrix: (Units=GPa)
#
#
# Indices 1 2 3 4 5 6 
#
# 1 91.3044 15.0649 12.6863 -0.0061 11.5538 0.0059
# 2 15.0649 47.3750 23.8631 0.0150 -1.7172 0.0099
# 3 12.6863 23.8631 106.2774 0.0422 13.0601 -0.0106
# 4 -0.0061 0.0150 0.0422 24.2458 0.0074 6.5471
# 5 11.5538 -1.7172 13.0601 0.0074 45.6766 0.0082
# 6 0.0059 0.0099 -0.0106 6.5471 0.0082 36.7056
#
#
#
# Elastic Compliance Matrix: (Units=1/GPa)
#
#
# Indices 1 2 3 4 5 6 
#
# 1 0.012007 -0.003837 -0.000187 0.000007 -0.003128 -0.000002
# 2 -0.003837 0.025307 -0.005659 -0.000006 0.003540 -0.000008
# 3 -0.000187 -0.005659 0.011113 -0.000017 -0.003343 0.000009
# 4 0.000007 -0.000006 -0.000017 0.043331 -0.000003 -0.007729
# 5 -0.003128 0.003540 -0.003343 -0.000003 0.023773 -0.000006
# 6 -0.000002 -0.000008 0.000009 -0.007729 -0.000006 0.028622
#
#
# Mechanical properties :
#
#
# Convention : Reuss Voigt Hill
#
# Bulk Modulus (GPa) = 34.41159 38.68728 36.54944
# Shear Modulus (GPa) = 28.86676 34.21511 31.54094
#
# Velocity S-wave (km/s) = 3.53424 3.84774 3.69432
# Velocity P-wave (km/s) = 5.61646 6.03990 5.83202
#
# Compressibility (1/GPa) = 0.02905997
#
# Stress axis : x y z
#
# Youngs Moduli (GPa) = 83.28226 39.51410 89.98271
#
# Poissons Ratio (x) = 0.15163 0.01686
# Poissons Ratio (y) = 0.31958 0.50925
# Poissons Ratio (z) = 0.01560 0.22363
#
# Static dielectric constant tensor:
#      x y z
#    x 2.033100 -0.000010 -0.016420 
#    y -0.000010 1.894740 -0.000020 
#    z -0.016420 -0.000020 1.906780 
# 
# From -- ./inp_files/347942.got.cif
#   From: 2010.05.17/outbox.cif.g08.bks.cpg/sg12_174_cif.got.tgz:347942.got - 2010.06.03 13:09:07.
