data_PCOD9216402
_publ_section_title
;
Structure prediction by ZEFSAII (Michael W. Deem and Ramdas Pophale) SiO2 
 PCOD9216402
Probable space group: C 2/M
;
_chemical_formula_sum "Si O2"
_cell_formula_units_Z 58
_cell_length_a 26.037332
_cell_length_b 21.145794
_cell_length_c 8.506599
_cell_angle_alpha 90.000000
_cell_angle_beta 139.147343
_cell_angle_gamma 90.000000
_cell_volume 3063.594169
_symmetry_space_group_name_H-M "C 2/M"
_symmetry_group_IT_number 12
_symmetry_cell_setting 'monoclinic'
loop_
_space_group_symop_operation_xyz
x,y,z
-x,y,-z
-x,-y,-z
x,-y,z
1/2+x,1/2+y,z
1/2-x,1/2+y,-z
1/2-x,1/2-y,-z
1/2+x,1/2-y,z
loop_
_atom_site_type_symbol
_atom_site_label
_atom_site_fract_x
_atom_site_fract_y
_atom_site_fract_z
Si Si1 0.227156 0.572744 0.092515
Si Si2 0.453825 0.071515 0.226781
Si Si3 0.274513 0.682631 0.987259
Si Si4 0.553610 0.683179 0.478668
Si Si5 0.819813 0.784591 0.750513
Si Si6 0.024655 0.704550 0.875374
Si Si7 0.500000 0.500000 0.000000
Si Si8 0.881473 0.110490 0.654252
O O1 0.238901 0.500000 0.066715
O O2 0.228311 0.623946 0.954718
O O3 0.299943 0.589692 0.377874
O O4 0.140486 0.576154 0.967246
O O5 0.500000 0.077112 0.500000
O O6 0.478109 0.131167 0.177736
O O7 0.470597 0.000000 0.205593
O O8 0.361516 0.677409 0.252965
O O9 0.250000 0.750000 0.000000
O O10 0.281287 0.685536 0.816358
O O11 0.500000 0.663302 0.500000
O O12 0.530513 0.752871 0.364715
O O13 0.559166 0.639982 0.338011
O O14 0.750000 0.750000 0.500000
O O15 0.858217 0.836956 0.727448
O O16 0.888636 0.734504 0.950052
O O17 0.000000 0.712981 0.000000
O O18 0.569666 0.554147 0.159312
#
# Coordination Sequence:
#
# PCOD9216402 Si02
#       8
#     8   8   8   8   8   8   2   8
#     4  10  22  45  63  90 130 168 215 267 318 387
#     4  10  23  41  65  90 121 168 215 263 323 386
#     4  11  24  39  65  93 124 170 214 271 320 380
#     4  11  22  40  63  91 126 162 218 266 312 380
#     4  12  24  41  64  97 131 168 215 269 324 386
#     4  12  23  38  62  93 128 163 205 269 319 374
#     4  12  24  40  70  92 138 180 210 264 328 400
#     4  11  23  43  62  97 131 174 217 257 329 389
#
# _framework density 18.932010999999999
#
# number of rings (size 3 to 8) (size 9 to 14) (size 15 to 20)
#    0.000    0.966    3.448    4.552    1.931    0.276 
#    1.241    0.345    0.000    3.310    0.000    0.000 
#    0.000    0.000    0.000    0.000    0.000    0.000 
#
# Total GULP energy -161597.478294 kJ/mol
# GULP energy per Si atom -5572.326838 kJ/mol
# Density = 1.888892 g / cm^3
# Si number density = 18.932011 Si / 1000 Ang^3
#
#
#
# Elastic Constant Matrix: (Units=GPa)
#
#
# Indices 1 2 3 4 5 6 
#
# 1 74.2720 32.5334 -0.7938 0.0000 -12.5756 0.0000
# 2 32.5334 126.1301 19.5413 0.0000 -9.0522 0.0000
# 3 -0.7938 19.5413 36.1496 0.0000 -7.4788 0.0000
# 4 0.0000 0.0000 0.0000 2.1304 0.0000 53.5536
# 5 -12.5756 -9.0522 -7.4788 0.0000 26.6729 0.0000
# 6 0.0000 0.0000 0.0000 53.5536 0.0000 -31.1232
#
#
#
# Elastic Compliance Matrix: (Units=1/GPa)
#
#
# Indices 1 2 3 4 5 6 
#
# 1 0.016746 -0.004447 0.004345 0.000000 0.007604 0.000000
# 2 -0.004447 0.009909 -0.005512 0.000000 -0.000279 0.000000
# 3 0.004345 -0.005512 0.032670 0.000000 0.009338 0.000000
# 4 0.000000 0.000000 0.000000 0.010607 0.000000 0.018251
# 5 0.007604 -0.000279 0.009338 0.000000 0.043600 0.000000
# 6 0.000000 0.000000 0.000000 0.018251 0.000000 -0.000726
#
#
# Mechanical properties :
#
#
# Convention : Reuss Voigt Hill
#
# Bulk Modulus (GPa) = 20.79143 37.67927 29.23535
# Shear Modulus (GPa) = 35.69754 11.88741 23.79247
#
# Velocity S-wave (km/s) = 4.34702 2.50851 3.54889
# Velocity P-wave (km/s) = 6.01676 5.32314 5.68055
#
# Compressibility (1/GPa) = 0.04809675
#
# Stress axis : x y z
#
# Youngs Moduli (GPa) = 59.71648 100.91597 30.60935
#
# Poissons Ratio (x) = 0.44874 -0.13299
# Poissons Ratio (y) = 0.26554 0.16872
# Poissons Ratio (z) = -0.25945 0.55625
#
# Static dielectric constant tensor:
#      x y z
#    x 1.713450 0.000000 -0.017600 
#    y 0.000000 1.719380 0.000000 
#    z -0.017600 0.000000 1.664970 
# 
# From -- ./inp_files/99289.got.cif
#   From: 2010.05.17/outbox.cif.g08.bks.cpg/sg12_50_cif.got.tgz:99289.got - 2010.06.03 13:09:07.
