data_PCOD9216377
_publ_section_title
;
Structure prediction by ZEFSAII (Michael W. Deem and Ramdas Pophale) SiO2 
 PCOD9216377
Probable space group: C 2/M
;
_chemical_formula_sum "Si O2"
_cell_formula_units_Z 48
_cell_length_a 8.794703
_cell_length_b 13.334255
_cell_length_c 31.698693
_cell_angle_alpha 90.000000
_cell_angle_beta 142.024357
_cell_angle_gamma 90.000000
_cell_volume 2287.372304
_symmetry_space_group_name_H-M "C 2/M"
_symmetry_group_IT_number 12
_symmetry_cell_setting 'monoclinic'
loop_
_space_group_symop_operation_xyz
x,y,z
-x,y,-z
-x,-y,-z
x,-y,z
1/2+x,1/2+y,z
1/2-x,1/2+y,-z
1/2-x,1/2-y,-z
1/2+x,1/2-y,z
loop_
_atom_site_type_symbol
_atom_site_label
_atom_site_fract_x
_atom_site_fract_y
_atom_site_fract_z
Si Si1 0.537887 0.619479 0.114154
Si Si2 0.805574 0.751029 0.343417
Si Si3 0.769746 0.382568 0.417691
Si Si4 0.243517 0.122018 0.025108
Si Si5 0.531414 0.118049 0.166251
Si Si6 0.713950 0.800239 0.751783
O O1 0.509607 0.500000 0.110483
O O2 0.587177 0.655340 0.172348
O O3 0.788051 0.638534 0.141708
O O4 0.311172 0.656258 0.034743
O O5 0.835041 0.678409 0.389576
O O6 0.565683 0.822048 0.296728
O O7 0.755286 0.684189 0.290721
O O8 0.041000 0.821046 0.387313
O O9 0.711150 0.500000 0.397077
O O10 0.000000 0.378956 0.500000
O O11 0.472440 0.150876 0.104986
O O12 0.257387 0.000000 0.026203
O O13 0.000000 0.143452 0.000000
O O14 0.751451 0.180976 0.233580
O O15 0.573397 0.000000 0.176015
#
# Coordination Sequence:
#
# PCOD9216377 Si02
#       6
#     8   8   8   8   8   8
#     4   9  17  30  49  72 105 146 192 245 298 348
#     4  10  23  38  59  93 129 152 194 246 282 351
#     4  10  22  44  72  95 121 161 197 233 289 345
#     4   7  12  25  45  70  95 134 195 252 293 337
#     4   9  17  31  52  72 101 148 200 247 293 348
#     4  11  20  34  53  83 118 154 189 232 294 354
#
# _framework density 20.984777999999999
#
# number of rings (size 3 to 8) (size 9 to 14) (size 15 to 20)
#    0.000    2.667    1.667    2.500    0.000    4.667 
#    0.000    2.500    0.000    9.000    0.000    3.500 
#    0.000    0.000    0.000    0.000    0.000    0.000 
#
# Total GULP energy -133870.568815 kJ/mol
# GULP energy per Si atom -5577.940367 kJ/mol
# Density = 2.093702 g / cm^3
# Si number density = 20.984778 Si / 1000 Ang^3
#
#
#
# Elastic Constant Matrix: (Units=GPa)
#
#
# Indices 1 2 3 4 5 6 
#
# 1 71.1736 31.7868 38.6688 0.0000 -19.1120 0.0000
# 2 31.7868 73.6052 40.8444 0.0000 -8.3331 0.0000
# 3 38.6688 40.8444 111.2511 0.0000 -29.1337 0.0000
# 4 0.0000 0.0000 0.0000 29.0220 0.0000 -3.2006
# 5 -19.1120 -8.3331 -29.1337 0.0000 31.0672 0.0000
# 6 0.0000 0.0000 0.0000 -3.2006 0.0000 15.5738
#
#
#
# Elastic Compliance Matrix: (Units=1/GPa)
#
#
# Indices 1 2 3 4 5 6 
#
# 1 0.020650 -0.006543 -0.002529 0.000000 0.008576 0.000000
# 2 -0.006543 0.019205 -0.005941 0.000000 -0.004445 0.000000
# 3 -0.002529 -0.005941 0.014878 0.000000 0.010802 0.000000
# 4 0.000000 0.000000 0.000000 0.035256 0.000000 0.007245
# 5 0.008576 -0.004445 0.010802 0.000000 0.046402 0.000000
# 6 0.000000 0.000000 0.000000 0.007245 0.000000 0.065699
#
#
# Mechanical properties :
#
#
# Convention : Reuss Voigt Hill
#
# Bulk Modulus (GPa) = 40.47551 53.18109 46.82830
# Shear Modulus (GPa) = 20.80295 24.78125 22.79210
#
# Velocity S-wave (km/s) = 3.15196 3.44017 3.29922
# Velocity P-wave (km/s) = 5.70757 6.41697 6.07264
#
# Compressibility (1/GPa) = 0.02470630
#
# Stress axis : x y z
#
# Youngs Moduli (GPa) = 48.42729 52.06991 67.21497
#
# Poissons Ratio (x) = 0.34070 0.17000
# Poissons Ratio (y) = 0.31687 0.39929
# Poissons Ratio (z) = 0.12248 0.30932
#
# Static dielectric constant tensor:
#      x y z
#    x 1.763160 0.000000 -0.027610 
#    y 0.000000 1.786420 0.000000 
#    z -0.027610 0.000000 1.766530 
# 
# From -- ./inp_files/372418.got.cif
#   From: 2010.05.17/outbox.cif.g08.bks.cpg/sg12_187_cif.got.tgz:372418.got - 2010.06.03 13:09:07.
