data_PCOD9216531
_publ_section_title
;
Structure prediction by ZEFSAII (Michael W. Deem and Ramdas Pophale) SiO2 
 PCOD9216531
Probable space group: C 2/M
;
_chemical_formula_sum "Si O2"
_cell_formula_units_Z 52
_cell_length_a 9.039347
_cell_length_b 26.225994
_cell_length_c 23.398863
_cell_angle_alpha 90.000000
_cell_angle_beta 31.413138
_cell_angle_gamma 90.000000
_cell_volume 2891.163323
_symmetry_space_group_name_H-M "C 2/M"
_symmetry_group_IT_number 12
_symmetry_cell_setting 'monoclinic'
loop_
_space_group_symop_operation_xyz
x,y,z
-x,y,-z
-x,-y,-z
x,-y,z
1/2+x,1/2+y,z
1/2-x,1/2+y,-z
1/2-x,1/2-y,-z
1/2+x,1/2-y,z
loop_
_atom_site_type_symbol
_atom_site_label
_atom_site_fract_x
_atom_site_fract_y
_atom_site_fract_z
Si Si1 0.569934 0.180495 0.590347
Si Si2 0.652932 0.560018 0.010686
Si Si3 0.500000 0.244332 0.500000
Si Si4 0.933491 0.500000 0.322606
Si Si5 0.325124 0.404866 0.220929
Si Si6 0.861569 0.000000 0.459659
Si Si7 0.830680 0.940207 0.781202
Si Si8 0.708658 0.392856 0.565752
O O1 0.453777 0.212592 0.574063
O O2 0.726099 0.220452 0.579428
O O3 0.348655 0.143386 0.696095
O O4 0.812838 0.144515 0.480870
O O5 0.598643 0.500000 0.045050
O O6 0.532259 0.598848 0.097945
O O7 0.500000 0.567526 0.000000
O O8 0.992352 0.564765 0.895227
O O9 0.704919 0.500000 0.347100
O O10 0.753737 0.500000 0.439036
O O11 0.109564 0.448122 0.268737
O O12 0.511570 0.427368 0.211541
O O13 0.741649 0.050565 0.472542
O O14 0.956027 0.900650 0.693457
O O15 0.897797 0.000000 0.745894
O O16 0.000000 0.377990 0.500000
#
# Coordination Sequence:
#
# PCOD9216531 Si02
#       8
#     8   8   4   4   8   4   8   8
#     4  11  23  39  64  86 115 154 193 251 311 357
#     4  10  23  37  53  80 125 169 204 235 272 330
#     4  10  24  44  56  88 120 142 196 258 320 362
#     4  11  22  32  49  85 128 158 197 235 277 342
#     4  12  21  37  59  83 116 162 203 235 284 356
#     4  11  23  30  47  86 134 159 192 230 286 339
#     4  11  21  33  54  83 126 171 196 232 275 333
#     4  12  21  34  57  89 124 162 198 228 288 361
#
# _framework density 17.985838999999999
#
# number of rings (size 3 to 8) (size 9 to 14) (size 15 to 20)
#    0.000    0.923    6.154    0.692    4.308    1.231 
#    0.000    0.000    0.000    0.000    0.000   26.923 
#    0.000    0.000    0.000    0.000    0.000    0.000 
#
# Total GULP energy -144927.793085 kJ/mol
# GULP energy per Si atom -5574.145888 kJ/mol
# Density = 1.794490 g / cm^3
# Si number density = 17.985839 Si / 1000 Ang^3
#
#
#
# Elastic Constant Matrix: (Units=GPa)
#
#
# Indices 1 2 3 4 5 6 
#
# 1 65.7637 42.5789 32.0548 0.0007 1.1066 -0.0006
# 2 42.5789 94.4264 42.4494 0.0000 0.2486 0.0000
# 3 32.0548 42.4494 107.1635 -0.0073 9.0567 0.0064
# 4 0.0007 0.0000 -0.0073 19.3693 0.0000 7.8291
# 5 1.1066 0.2486 9.0567 0.0000 29.1652 0.0002
# 6 -0.0006 0.0000 0.0064 7.8291 0.0002 2.8398
#
#
#
# Elastic Compliance Matrix: (Units=1/GPa)
#
#
# Indices 1 2 3 4 5 6 
#
# 1 0.022388 -0.008609 -0.003308 0.000062 0.000251 -0.000159
# 2 -0.008609 0.016261 -0.003987 0.000035 0.001426 -0.000088
# 3 -0.003308 -0.003987 0.012207 -0.000140 -0.003631 0.000359
# 4 0.000062 0.000035 -0.000140 -0.451525 0.000032 1.244804
# 5 0.000251 0.001426 -0.003631 0.000032 0.035393 -0.000083
# 6 -0.000159 -0.000088 0.000359 1.244804 -0.000083 -3.079651
#
#
# Mechanical properties :
#
#
# Convention : Reuss Voigt Hill
#
# Bulk Modulus (GPa) = 52.49590 55.72441 54.11016
# Shear Modulus (GPa) = -1.46767 20.29290 9.41262
#
# Velocity S-wave (km/s) = -0.90431 3.36262 2.29013
# Velocity P-wave (km/s) = 5.30663 6.79161 6.09452
#
# Compressibility (1/GPa) = 0.01904911
#
# Stress axis : x y z
#
# Youngs Moduli (GPa) = 44.66713 61.49851 81.92061
#
# Poissons Ratio (x) = 0.52943 0.27097
# Poissons Ratio (y) = 0.38453 0.32658
# Poissons Ratio (z) = 0.14775 0.24517
#
# Static dielectric constant tensor:
#      x y z
#    x 1.672290 0.000000 0.008090 
#    y 0.000000 1.627690 0.000000 
#    z 0.008090 0.000000 1.668420 
# 
# From -- ./inp_files/334204.got.cif
#   From: 2010.05.17/outbox.cif.g08.bks.cpg/sg12_168_cif.got.tgz:334204.got - 2010.06.03 13:09:07.
