data_PCOD9216302
_publ_section_title
;
Structure prediction by ZEFSAII (Michael W. Deem and Ramdas Pophale) SiO2 
 PCOD9216302
Probable space group: C 2/M
;
_chemical_formula_sum "Si O2"
_cell_formula_units_Z 48
_cell_length_a 11.627958
_cell_length_b 19.966588
_cell_length_c 15.194285
_cell_angle_alpha 90.000000
_cell_angle_beta 139.964930
_cell_angle_gamma 90.000000
_cell_volume 2269.194270
_symmetry_space_group_name_H-M "C 2/M"
_symmetry_group_IT_number 12
_symmetry_cell_setting 'monoclinic'
loop_
_space_group_symop_operation_xyz
x,y,z
-x,y,-z
-x,-y,-z
x,-y,z
1/2+x,1/2+y,z
1/2-x,1/2+y,-z
1/2-x,1/2-y,-z
1/2+x,1/2-y,z
loop_
_atom_site_type_symbol
_atom_site_label
_atom_site_fract_x
_atom_site_fract_y
_atom_site_fract_z
Si Si1 0.259434 0.689604 0.186087
Si Si2 0.871777 0.078306 0.003628
Si Si3 0.943934 0.718922 0.640092
Si Si4 0.427048 0.817884 0.102691
Si Si5 0.008642 0.071605 0.274042
Si Si6 0.575775 0.073711 0.445889
O O1 0.383530 0.745881 0.303163
O O2 0.105230 0.658658 0.156203
O O3 0.397339 0.631321 0.247006
O O4 0.176101 0.713691 0.042745
O O5 0.705675 0.126311 0.933228
O O6 0.819451 0.000000 0.956344
O O7 0.000000 0.102396 0.000000
O O8 0.997921 0.077302 0.163003
O O9 0.750000 0.750000 0.500000
O O10 0.987905 0.726784 0.769734
O O11 0.961039 0.640300 0.630066
O O12 0.210783 0.072436 0.422491
O O13 0.925744 0.000000 0.249765
O O14 0.500000 0.081150 0.500000
O O15 0.514990 0.000000 0.377354
#
# Coordination Sequence:
#
# PCOD9216302 Si02
#       6
#     8   8   8   8   8   8
#     4  10  22  44  65  92 132 171 220 265 334 393
#     4   9  19  37  64  95 127 166 219 275 325 386
#     4  12  25  41  66  95 129 172 220 272 326 397
#     4  10  24  42  63  95 130 168 216 273 327 396
#     4   9  18  37  62  89 127 171 215 264 326 389
#     4  10  23  41  63  93 130 172 217 272 332 389
#
# _framework density 21.152882999999999
#
# number of rings (size 3 to 8) (size 9 to 14) (size 15 to 20)
#    0.000    2.000    1.667    0.500    4.667    1.333 
#    6.000    3.333    0.000    2.000    0.000    0.000 
#    0.000    0.000    0.000    0.000    0.000    0.000 
#
# Total GULP energy -133736.675752 kJ/mol
# GULP energy per Si atom -5572.361490 kJ/mol
# Density = 2.110474 g / cm^3
# Si number density = 21.152883 Si / 1000 Ang^3
#
#
#
# Elastic Constant Matrix: (Units=GPa)
#
#
# Indices 1 2 3 4 5 6 
#
# 1 109.6847 35.0380 32.4824 -0.0001 16.1414 -0.0004
# 2 35.0380 101.6168 45.2582 -0.0002 8.5974 -0.0001
# 3 32.4824 45.2582 68.0309 -0.0011 11.6188 -0.0006
# 4 -0.0001 -0.0002 -0.0011 42.9824 -0.0003 -39.5405
# 5 16.1414 8.5974 11.6188 -0.0003 14.1822 -0.0005
# 6 -0.0004 -0.0001 -0.0006 -39.5405 -0.0005 64.1014
#
#
#
# Elastic Compliance Matrix: (Units=1/GPa)
#
#
# Indices 1 2 3 4 5 6 
#
# 1 0.012088 -0.002144 -0.002578 0.000000 -0.010346 0.000000
# 2 -0.002144 0.014377 -0.008684 -0.000001 0.000840 0.000000
# 3 -0.002578 -0.008684 0.023610 0.000001 -0.011144 0.000001
# 4 0.000000 -0.000001 0.000001 0.053786 0.000002 0.033178
# 5 -0.010346 0.000840 -0.011144 0.000002 0.090907 0.000002
# 6 0.000000 0.000000 0.000001 0.033178 0.000002 0.036066
#
#
# Mechanical properties :
#
#
# Convention : Reuss Voigt Hill
#
# Bulk Modulus (GPa) = 42.98730 56.09885 49.54307
# Shear Modulus (GPa) = 18.83942 35.35679 27.09811
#
# Velocity S-wave (km/s) = 2.98758 4.09282 3.58307
# Velocity P-wave (km/s) = 5.68042 6.99379 6.37104
#
# Compressibility (1/GPa) = 0.02326268
#
# Stress axis : x y z
#
# Youngs Moduli (GPa) = 82.72617 69.55598 42.35409
#
# Poissons Ratio (x) = 0.14916 0.10919
# Poissons Ratio (y) = 0.17740 0.36780
# Poissons Ratio (z) = 0.21327 0.60401
#
# Static dielectric constant tensor:
#      x y z
#    x 1.772930 0.000000 -0.008010 
#    y 0.000000 1.849660 0.000000 
#    z -0.008010 0.000000 1.790170 
# 
# From -- ./inp_files/207999.got.cif
#   From: 2010.05.17/outbox.cif.g08.bks.cpg/sg12_104_cif.got.tgz:207999.got - 2010.06.03 13:09:07.
