data_PCOD9216733
_publ_section_title
;
Structure prediction by ZEFSAII (Michael W. Deem and Ramdas Pophale) SiO2 
 PCOD9216733
Probable space group: C 2/M
;
_chemical_formula_sum "Si O2"
_cell_formula_units_Z 48
_cell_length_a 7.770965
_cell_length_b 30.403284
_cell_length_c 15.885596
_cell_angle_alpha 90.000000
_cell_angle_beta 144.074773
_cell_angle_gamma 90.000000
_cell_volume 2202.097201
_symmetry_space_group_name_H-M "C 2/M"
_symmetry_group_IT_number 12
_symmetry_cell_setting 'monoclinic'
loop_
_space_group_symop_operation_xyz
x,y,z
-x,y,-z
-x,-y,-z
x,-y,z
1/2+x,1/2+y,z
1/2-x,1/2+y,-z
1/2-x,1/2-y,-z
1/2+x,1/2-y,z
loop_
_atom_site_type_symbol
_atom_site_label
_atom_site_fract_x
_atom_site_fract_y
_atom_site_fract_z
Si Si1 0.704534 0.315415 0.938853
Si Si2 0.462758 0.500000 0.115846
Si Si3 0.706662 0.094522 0.331664
Si Si4 0.524851 0.000000 0.210090
Si Si5 0.140887 0.309579 0.246943
Si Si6 0.566544 0.408774 0.128481
Si Si7 0.833628 0.771042 0.653746
O O1 0.593055 0.364727 0.908613
O O2 0.451968 0.288877 0.790752
O O3 0.000000 0.315000 0.000000
O O4 0.832161 0.299290 0.078487
O O5 0.758901 0.500000 0.173854
O O6 0.478444 0.449932 0.152777
O O7 0.152742 0.500000 0.946023
O O8 0.697696 0.045682 0.287833
O O9 0.672862 0.137876 0.261516
O O10 0.414076 0.096719 0.271948
O O11 0.000000 0.099227 0.500000
O O12 0.139744 0.282045 0.332492
O O13 0.429305 0.291055 0.315443
O O14 0.500000 0.417035 0.000000
O O15 0.500000 0.783044 0.500000
#
# Coordination Sequence:
#
# PCOD9216733 Si02
#       7
#     8   4   8   4   8   8   8
#     4  10  23  40  58  84 113 152 195 236 283 345
#     4   9  14  30  55  88 110 146 195 240 276 340
#     4  11  22  33  58  91 121 148 192 238 292 340
#     4   9  15  32  52  86 121 148 183 240 286 332
#     4  11  23  41  58  86 117 152 196 235 281 350
#     4  11  18  35  62  83 115 152 193 239 287 336
#     4  11  25  40  60  82 118 152 193 238 290 336
#
# _framework density 21.797404
#
# number of rings (size 3 to 8) (size 9 to 14) (size 15 to 20)
#    0.000    1.500    5.000    1.750    4.667    0.000 
#    0.000    0.417    0.000    3.000    0.000    1.167 
#    0.000    0.000    0.000    0.000    0.000    0.000 
#
# Total GULP energy -133832.059219 kJ/mol
# GULP energy per Si atom -5576.335801 kJ/mol
# Density = 2.174779 g / cm^3
# Si number density = 21.797404 Si / 1000 Ang^3
#
#
#
# Elastic Constant Matrix: (Units=GPa)
#
#
# Indices 1 2 3 4 5 6 
#
# 1 22.0222 23.2919 26.5487 0.0000 13.2037 0.0000
# 2 23.2919 160.3365 39.8403 0.0000 2.4393 0.0000
# 3 26.5487 39.8403 172.8299 0.0000 24.7920 0.0000
# 4 0.0000 0.0000 0.0000 24.9936 0.0000 11.2644
# 5 13.2037 2.4393 24.7920 0.0000 21.2163 0.0000
# 6 0.0000 0.0000 0.0000 11.2644 0.0000 22.1356
#
#
#
# Elastic Compliance Matrix: (Units=1/GPa)
#
#
# Indices 1 2 3 4 5 6 
#
# 1 0.094616 -0.011888 -0.004257 0.000000 -0.052542 0.000000
# 2 -0.011888 0.008136 -0.001173 0.000000 0.007834 0.000000
# 3 -0.004257 -0.001173 0.007582 0.000000 -0.006076 0.000000
# 4 0.000000 0.000000 0.000000 0.051918 0.000000 -0.026420
# 5 -0.052542 0.007834 -0.006076 0.000000 0.086032 0.000000
# 6 0.000000 0.000000 0.000000 -0.026420 0.000000 0.058621
#
#
# Mechanical properties :
#
#
# Convention : Reuss Voigt Hill
#
# Bulk Modulus (GPa) = 13.21024 59.39449 36.30236
# Shear Modulus (GPa) = 13.63244 31.36959 22.50102
#
# Velocity S-wave (km/s) = 2.50354 3.79772 3.21640
# Velocity P-wave (km/s) = 3.79876 6.82186 5.52125
#
# Compressibility (1/GPa) = 0.07569887
#
# Stress axis : x y z
#
# Youngs Moduli (GPa) = 10.56904 122.90881 131.89304
#
# Poissons Ratio (x) = 1.46110 0.56144
# Poissons Ratio (y) = 0.12564 0.15473
# Poissons Ratio (z) = 0.04499 0.14419
#
# Static dielectric constant tensor:
#      x y z
#    x 1.862630 0.000000 -0.064790 
#    y 0.000000 1.891410 0.000000 
#    z -0.064790 0.000000 1.800460 
# 
# From -- ./inp_files/260454.got.cif
#   From: 2010.05.17/outbox.cif.g08.bks.cpg/sg12_131_cif.got.tgz:260454.got - 2010.06.03 13:09:07.
