data_PCOD9216368
_publ_section_title
;
Structure prediction by ZEFSAII (Michael W. Deem and Ramdas Pophale) SiO2 
 PCOD9216368
Probable space group: C 2/M
;
_chemical_formula_sum "Si O2"
_cell_formula_units_Z 48
_cell_length_a 15.554480
_cell_length_b 11.734099
_cell_length_c 30.979539
_cell_angle_alpha 90.000000
_cell_angle_beta 26.898579
_cell_angle_gamma 90.000000
_cell_volume 2558.084460
_symmetry_space_group_name_H-M "C 2/M"
_symmetry_group_IT_number 12
_symmetry_cell_setting 'monoclinic'
loop_
_space_group_symop_operation_xyz
x,y,z
-x,y,-z
-x,-y,-z
x,-y,z
1/2+x,1/2+y,z
1/2-x,1/2+y,-z
1/2-x,1/2-y,-z
1/2+x,1/2-y,z
loop_
_atom_site_type_symbol
_atom_site_label
_atom_site_fract_x
_atom_site_fract_y
_atom_site_fract_z
Si Si1 0.780823 0.864602 0.602259
Si Si2 0.929808 0.771577 0.229593
Si Si3 0.888002 0.769982 0.398412
Si Si4 0.799716 0.500000 0.654531
Si Si5 0.200834 0.364600 0.888452
Si Si6 0.705429 0.137337 0.783423
Si Si7 0.214418 0.500000 0.443166
O O1 0.689782 0.808378 0.684799
O O2 0.656501 0.826809 0.616726
O O3 0.000000 0.823252 0.500000
O O4 0.784228 0.000000 0.604513
O O5 0.810184 0.889054 0.279416
O O6 0.950617 0.701774 0.175726
O O7 0.126680 0.800848 0.165377
O O8 0.750000 0.750000 0.500000
O O9 0.828392 0.887106 0.402401
O O10 0.102238 0.795825 0.316149
O O11 0.801900 0.500000 0.601208
O O12 0.027875 0.500000 0.557582
O O13 0.234565 0.500000 0.879412
O O14 0.190090 0.345489 0.841779
O O15 0.000000 0.335514 0.000000
O O16 0.713322 0.000000 0.771857
#
# Coordination Sequence:
#
# PCOD9216368 Si02
#       7
#     8   8   8   4   8   8   4
#     4  11  23  38  56  86 131 174 211 259 317 374
#     4  12  22  40  65  94 127 166 212 265 321 385
#     4  12  23  36  56  87 125 172 219 258 307 379
#     4  11  20  34  57  90 120 166 214 268 310 367
#     4  10  22  44  71  97 125 163 214 272 328 387
#     4  11  23  42  65  93 128 170 215 260 320 385
#     4  11  20  34  56  78 126 171 223 257 308 362
#
# _framework density 18.764039
#
# number of rings (size 3 to 8) (size 9 to 14) (size 15 to 20)
#    0.000    0.833    5.000    3.500    1.167    2.000 
#    1.500    0.000    0.000    2.000    0.000    0.000 
#    0.000    0.000    0.000    0.000    0.000    0.000 
#
# Total GULP energy -134039.394051 kJ/mol
# GULP energy per Si atom -5584.974752 kJ/mol
# Density = 1.872133 g / cm^3
# Si number density = 18.764039 Si / 1000 Ang^3
#
#
#
# Elastic Constant Matrix: (Units=GPa)
#
#
# Indices 1 2 3 4 5 6 
#
# 1 104.9002 47.1404 40.0319 -0.0003 -2.6485 -0.0002
# 2 47.1404 92.1061 35.7468 0.0001 -4.0990 -0.0001
# 3 40.0319 35.7468 83.9651 0.0020 -1.6560 -0.0001
# 4 -0.0003 0.0001 0.0020 20.1703 0.0001 -6.1864
# 5 -2.6485 -4.0990 -1.6560 0.0001 19.9474 0.0001
# 6 -0.0002 -0.0001 -0.0001 -6.1864 0.0001 8.3224
#
#
#
# Elastic Compliance Matrix: (Units=1/GPa)
#
#
# Indices 1 2 3 4 5 6 
#
# 1 0.013510 -0.005273 -0.004189 0.000001 0.000363 0.000001
# 2 -0.005273 0.015162 -0.003900 0.000000 0.002092 0.000000
# 3 -0.004189 -0.003900 0.015566 -0.000002 -0.000065 -0.000002
# 4 0.000001 0.000000 -0.000002 0.064219 -0.000001 0.047736
# 5 0.000363 0.002092 -0.000065 -0.000001 0.050604 -0.000001
# 6 0.000001 0.000000 -0.000002 0.047736 -0.000001 0.155641
#
#
# Mechanical properties :
#
#
# Convention : Reuss Voigt Hill
#
# Bulk Modulus (GPa) = 57.09497 58.53440 57.81469
# Shear Modulus (GPa) = 14.39821 20.22484 17.31152
#
# Velocity S-wave (km/s) = 2.77308 3.28663 3.04071
# Velocity P-wave (km/s) = 6.38335 6.75761 6.57314
#
# Compressibility (1/GPa) = 0.01751468
#
# Stress axis : x y z
#
# Youngs Moduli (GPa) = 74.01842 65.95308 64.24191
#
# Poissons Ratio (x) = 0.34774 0.26913
# Poissons Ratio (y) = 0.39026 0.25055
# Poissons Ratio (z) = 0.31009 0.25722
#
# Static dielectric constant tensor:
#      x y z
#    x 1.720050 0.000000 -0.025910 
#    y 0.000000 1.628700 0.000000 
#    z -0.025910 0.000000 1.676230 
# 
# From -- ./inp_files/212573.got.cif
#   From: 2010.05.17/outbox.cif.g08.bks.cpg/sg12_107_cif.got.tgz:212573.got - 2010.06.03 13:09:07.
