data_PCOD9216783
_publ_section_title
;
Structure prediction by ZEFSAII (Michael W. Deem and Ramdas Pophale) SiO2 
 PCOD9216783
Probable space group: C 2/M
;
_chemical_formula_sum "Si O2"
_cell_formula_units_Z 52
_cell_length_a 7.925830
_cell_length_b 19.271821
_cell_length_c 18.646795
_cell_angle_alpha 90.000000
_cell_angle_beta 125.177494
_cell_angle_gamma 90.000000
_cell_volume 2328.043365
_symmetry_space_group_name_H-M "C 2/M"
_symmetry_group_IT_number 12
_symmetry_cell_setting 'monoclinic'
loop_
_space_group_symop_operation_xyz
x,y,z
-x,y,-z
-x,-y,-z
x,-y,z
1/2+x,1/2+y,z
1/2-x,1/2+y,-z
1/2-x,1/2-y,-z
1/2+x,1/2-y,z
loop_
_atom_site_type_symbol
_atom_site_label
_atom_site_fract_x
_atom_site_fract_y
_atom_site_fract_z
Si Si1 0.000000 0.164835 0.000000
Si Si2 0.820914 0.800088 0.813892
Si Si3 0.122482 0.344811 0.239387
Si Si4 0.336034 0.421795 0.720084
Si Si5 0.918597 0.416978 0.059722
Si Si6 0.404785 0.916616 0.550175
Si Si7 0.479698 0.420082 0.396574
O O1 0.050240 0.210204 0.082102
O O2 0.200278 0.118746 0.027703
O O3 0.792461 0.728983 0.765579
O O4 0.601801 0.828632 0.785018
O O5 0.921593 0.860448 0.790000
O O6 0.272871 0.377380 0.334854
O O7 0.083368 0.393942 0.160967
O O8 0.369205 0.500000 0.756926
O O9 0.425213 0.420244 0.661405
O O10 0.089440 0.408927 0.651397
O O11 0.893854 0.500000 0.055784
O O12 0.000000 0.397900 0.000000
O O13 0.500000 0.886889 0.500000
O O14 0.167035 0.893526 0.492597
O O15 0.384359 0.000000 0.536078
O O16 0.427715 0.500000 0.401744
#
# Coordination Sequence:
#
# PCOD9216783 Si02
#       7
#     4   8   8   8   8   8   8
#     4  10  25  42  62  84 119 158 196 252 295 356
#     4  11  25  40  59  82 112 157 195 242 293 345
#     4  11  24  39  57  82 116 149 199 239 287 349
#     4   9  18  34  59  88 116 149 190 235 288 349
#     4  10  23  40  63  90 117 150 194 247 298 353
#     4   7  12  27  53  85 115 146 186 229 281 343
#     4   9  17  33  60  88 117 151 187 235 286 343
#
# _framework density 22.336352999999999
#
# number of rings (size 3 to 8) (size 9 to 14) (size 15 to 20)
#    0.000    2.462    0.000    3.462    5.385    4.923 
#    0.000    1.538    0.000    2.769    0.000    0.000 
#    0.000    0.000    0.000    0.000    0.000    0.000 
#
# Total GULP energy -145220.525664 kJ/mol
# GULP energy per Si atom -5585.404833 kJ/mol
# Density = 2.228551 g / cm^3
# Si number density = 22.336353 Si / 1000 Ang^3
#
#
#
# Elastic Constant Matrix: (Units=GPa)
#
#
# Indices 1 2 3 4 5 6 
#
# 1 85.8824 6.5389 8.5373 0.0000 1.7674 0.0000
# 2 6.5389 45.9132 22.5403 0.0000 -8.2834 0.0000
# 3 8.5373 22.5403 95.7264 0.0000 1.8131 0.0000
# 4 0.0000 0.0000 0.0000 19.9050 0.0000 10.4234
# 5 1.7674 -8.2834 1.8131 0.0000 32.7389 0.0000
# 6 0.0000 0.0000 0.0000 10.4234 0.0000 11.5010
#
#
#
# Elastic Compliance Matrix: (Units=1/GPa)
#
#
# Indices 1 2 3 4 5 6 
#
# 1 0.011848 -0.001534 -0.000677 0.000000 -0.000990 0.000000
# 2 -0.001534 0.026318 -0.006194 0.000000 0.007085 0.000000
# 3 -0.000677 -0.006194 0.012007 0.000000 -0.002196 0.000000
# 4 0.000000 0.000000 0.000000 0.095619 0.000000 -0.086660
# 5 -0.000990 0.007085 -0.002196 0.000000 0.032512 0.000000
# 6 0.000000 0.000000 0.000000 -0.086660 0.000000 0.165489
#
#
# Mechanical properties :
#
#
# Convention : Reuss Voigt Hill
#
# Bulk Modulus (GPa) = 29.97316 33.63944 31.80630
# Shear Modulus (GPa) = 13.45085 25.48934 19.47010
#
# Velocity S-wave (km/s) = 2.45663 3.38177 2.95562
# Velocity P-wave (km/s) = 4.63625 5.50832 5.09099
#
# Compressibility (1/GPa) = 0.03336318
#
# Stress axis : x y z
#
# Youngs Moduli (GPa) = 84.40061 37.99703 83.28510
#
# Poissons Ratio (x) = 0.05828 0.05636
# Poissons Ratio (y) = 0.12945 0.51590
# Poissons Ratio (z) = 0.05712 0.23537
#
# Static dielectric constant tensor:
#      x y z
#    x 1.898310 0.000000 -0.022040 
#    y 0.000000 1.797490 0.000000 
#    z -0.022040 0.000000 1.867670 
# 
# From -- ./inp_files/301195.got.cif
#   From: 2010.05.17/outbox.cif.g08.bks.cpg/sg12_151_cif.got.tgz:301195.got - 2010.06.03 13:09:07.
