data_PCOD9216547
_publ_section_title
;
Structure prediction by ZEFSAII (Michael W. Deem and Ramdas Pophale) SiO2 
 PCOD9216547
Probable space group: C 2/M
;
_chemical_formula_sum "Si O2"
_cell_formula_units_Z 40
_cell_length_a 6.988664
_cell_length_b 14.156474
_cell_length_c 16.306473
_cell_angle_alpha 90.000000
_cell_angle_beta 73.694915
_cell_angle_gamma 90.000000
_cell_volume 1548.392859
_symmetry_space_group_name_H-M "C 2/M"
_symmetry_group_IT_number 12
_symmetry_cell_setting 'monoclinic'
loop_
_space_group_symop_operation_xyz
x,y,z
-x,y,-z
-x,-y,-z
x,-y,z
1/2+x,1/2+y,z
1/2-x,1/2+y,-z
1/2-x,1/2-y,-z
1/2+x,1/2-y,z
loop_
_atom_site_type_symbol
_atom_site_label
_atom_site_fract_x
_atom_site_fract_y
_atom_site_fract_z
Si Si1 0.288687 0.139653 0.484807
Si Si2 0.497353 0.891556 0.294576
Si Si3 0.476506 0.389326 0.100045
Si Si4 0.577342 0.394520 0.667871
Si Si5 0.750911 0.205752 0.808272
O O1 0.500000 0.111792 0.500000
O O2 0.250000 0.250000 0.500000
O O3 0.326871 0.118234 0.385466
O O4 0.119870 0.101542 0.565865
O O5 0.707963 0.872725 0.315518
O O6 0.432659 0.836866 0.221116
O O7 0.505734 0.000000 0.270034
O O8 0.425398 0.500000 0.123698
O O9 0.325433 0.306806 0.148485
O O10 0.676821 0.359038 0.124646
O O11 0.500000 0.381312 0.000000
O O12 0.511710 0.500000 0.700713
O O13 0.427776 0.315855 0.719692
#
# Coordination Sequence:
#
# PCOD9216547 Si02
#       5
#     8   8   8   8   8
#     4  10  23  37  60  95 148 214 271 324 384 440
#     4  10  23  44  72 110 158 212 270 327 386 454
#     4  11  28  56  87 119 157 200 251 318 398 483
#     4  10  23  44  71 109 159 210 270 329 383 456
#     4  12  27  47  84 119 152 201 255 319 394 473
#
# _framework density 25.833238000000001
#
# number of rings (size 3 to 8) (size 9 to 14) (size 15 to 20)
#    0.000    1.400    0.000    3.000    8.400    2.400 
#    0.000    4.000    0.000    7.200    0.000    0.000 
#    0.000    0.000    0.000    0.000    0.000    0.000 
#
# Total GULP energy -111862.101642 kJ/mol
# GULP energy per Si atom -5593.105082 kJ/mol
# Density = 2.577444 g / cm^3
# Si number density = 25.833238 Si / 1000 Ang^3
#
#
#
# Elastic Constant Matrix: (Units=GPa)
#
#
# Indices 1 2 3 4 5 6 
#
# 1 151.6449 71.8599 58.3738 0.0000 5.9696 0.0000
# 2 71.8599 243.5742 81.1136 0.0000 -2.5594 0.0000
# 3 58.3738 81.1136 181.0883 0.0000 30.6638 0.0000
# 4 0.0000 0.0000 0.0000 42.3911 0.0000 9.8429
# 5 5.9696 -2.5594 30.6638 0.0000 48.6986 0.0000
# 6 0.0000 0.0000 0.0000 9.8429 0.0000 19.1846
#
#
#
# Elastic Compliance Matrix: (Units=1/GPa)
#
#
# Indices 1 2 3 4 5 6 
#
# 1 0.008147 -0.001792 -0.001834 0.000000 0.000062 0.000000
# 2 -0.001792 0.005366 -0.002139 0.000000 0.001848 0.000000
# 3 -0.001834 -0.002139 0.007894 0.000000 -0.004858 0.000000
# 4 0.000000 0.000000 0.000000 0.026780 0.000000 -0.013740
# 5 0.000062 0.001848 -0.004858 0.000000 0.023683 0.000000
# 6 0.000000 0.000000 0.000000 -0.013740 0.000000 0.059175
#
#
# Mechanical properties :
#
#
# Convention : Reuss Voigt Hill
#
# Bulk Modulus (GPa) = 101.24354 111.00020 106.12187
# Shear Modulus (GPa) = 34.27769 46.38551 40.33160
#
# Velocity S-wave (km/s) = 3.64659 4.24202 3.95553
# Velocity P-wave (km/s) = 7.55026 8.18866 7.87593
#
# Compressibility (1/GPa) = 0.00987717
#
# Stress axis : x y z
#
# Youngs Moduli (GPa) = 122.74243 186.36049 126.67860
#
# Poissons Ratio (x) = 0.33400 0.23232
# Poissons Ratio (y) = 0.21998 0.27094
# Poissons Ratio (z) = 0.22510 0.39859
#
# Static dielectric constant tensor:
#      x y z
#    x 0.229680 0.000000 0.456840 
#    y 0.000000 2.172270 0.000000 
#    z 0.456840 0.000000 1.914640 
# 
# From -- ./inp_files/255217.got.cif
#   From: 2010.05.17/outbox.cif.g08.bks.cpg/sg12_128_cif.got.tgz:255217.got - 2010.06.03 13:09:07.
