data_PCOD9216752
_publ_section_title
;
Structure prediction by ZEFSAII (Michael W. Deem and Ramdas Pophale) SiO2 
 PCOD9216752
Probable space group: C 2/M
;
_chemical_formula_sum "Si O2"
_cell_formula_units_Z 24
_cell_length_a 10.560315
_cell_length_b 8.084413
_cell_length_c 16.244695
_cell_angle_alpha 90.000000
_cell_angle_beta 133.617096
_cell_angle_gamma 90.000000
_cell_volume 1004.049520
_symmetry_space_group_name_H-M "C 2/M"
_symmetry_group_IT_number 12
_symmetry_cell_setting 'monoclinic'
loop_
_space_group_symop_operation_xyz
x,y,z
-x,y,-z
-x,-y,-z
x,-y,z
1/2+x,1/2+y,z
1/2-x,1/2+y,-z
1/2-x,1/2-y,-z
1/2+x,1/2-y,z
loop_
_atom_site_type_symbol
_atom_site_label
_atom_site_fract_x
_atom_site_fract_y
_atom_site_fract_z
Si Si1 0.844296 0.000000 0.548217
Si Si2 0.250265 0.500000 0.321299
Si Si3 0.691251 0.801532 0.064873
Si Si4 0.433832 0.313437 0.736421
O O1 0.742022 0.000000 0.417602
O O2 0.825561 0.151466 0.604119
O O3 0.049748 0.000000 0.615906
O O4 0.152610 0.666860 0.251174
O O5 0.867765 0.759642 0.194366
O O6 0.677160 0.000000 0.063314
O O7 0.500000 0.731309 0.000000
O O8 0.750000 0.750000 0.000000
O O9 0.439108 0.500000 0.776851
#
# Coordination Sequence:
#
# PCOD9216752 Si02
#       4
#     4   4   8   8
#     4   9  22  40  57  92 118 152 206 243 300 367
#     4  11  20  40  65  81 122 161 190 253 306 353
#     4  10  23  40  61  88 123 158 200 256 299 358
#     4   9  22  39  58  89 119 151 201 248 296 363
#
# _framework density 23.903203000000001
#
# number of rings (size 3 to 8) (size 9 to 14) (size 15 to 20)
#    1.000    1.333    0.000    1.000    7.000    0.667 
#    3.000    1.667    0.000    0.000    0.000    0.000 
#    0.000    0.000    0.000    0.000    0.000    0.000 
#
# Total GULP energy -66873.653364 kJ/mol
# GULP energy per Si atom -5572.804447 kJ/mol
# Density = 2.384880 g / cm^3
# Si number density = 23.903203 Si / 1000 Ang^3
#
#
#
# Elastic Constant Matrix: (Units=GPa)
#
#
# Indices 1 2 3 4 5 6 
#
# 1 67.3078 21.2274 -15.4854 0.0000 16.8279 0.0000
# 2 21.2274 112.8417 -5.1929 0.0000 29.2899 0.0000
# 3 -15.4854 -5.1929 51.0335 0.0000 -0.1540 0.0000
# 4 0.0000 0.0000 0.0000 14.4119 0.0000 -7.9492
# 5 16.8279 29.2899 -0.1540 0.0000 38.1690 0.0000
# 6 0.0000 0.0000 0.0000 -7.9492 0.0000 14.2529
#
#
#
# Elastic Compliance Matrix: (Units=1/GPa)
#
#
# Indices 1 2 3 4 5 6 
#
# 1 0.018275 -0.001379 0.005384 0.000000 -0.006977 0.000000
# 2 -0.001379 0.011232 0.000700 0.000000 -0.008009 0.000000
# 3 0.005384 0.000700 0.021291 0.000000 -0.002825 0.000000
# 4 0.000000 0.000000 0.000000 0.100216 0.000000 0.055893
# 5 -0.006977 -0.008009 -0.002825 0.000000 0.035410 0.000000
# 6 0.000000 0.000000 0.000000 0.055893 0.000000 0.101334
#
#
# Mechanical properties :
#
#
# Convention : Reuss Voigt Hill
#
# Bulk Modulus (GPa) = 16.60874 25.80903 21.20888
# Shear Modulus (GPa) = 16.75505 28.74236 22.74871
#
# Velocity S-wave (km/s) = 2.65043 3.47140 3.08831
# Velocity P-wave (km/s) = 4.04101 5.18538 4.64855
#
# Compressibility (1/GPa) = 0.06020926
#
# Stress axis : x y z
#
# Youngs Moduli (GPa) = 54.71931 89.02821 46.96739
#
# Poissons Ratio (x) = 0.12277 -0.25287
# Poissons Ratio (y) = 0.07546 -0.03289
# Poissons Ratio (z) = -0.29460 -0.06235
#
# Static dielectric constant tensor:
#      x y z
#    x 1.951020 0.000000 -0.052250 
#    y 0.000000 1.959240 0.000000 
#    z -0.052250 0.000000 1.957530 
# 
# From -- ./inp_files/126383.got.cif
#   From: 2010.05.17/outbox.cif.g08.bks.cpg/sg12_64_cif.got.tgz:126383.got - 2010.06.03 13:09:07.
