data_PCOD9216869
_publ_section_title
;
Structure prediction by ZEFSAII (Michael W. Deem and Ramdas Pophale) SiO2 
 PCOD9216869
Probable space group: C 2/M
;
_chemical_formula_sum "Si O2"
_cell_formula_units_Z 44
_cell_length_a 10.235237
_cell_length_b 16.854883
_cell_length_c 10.927459
_cell_angle_alpha 90.000000
_cell_angle_beta 107.223350
_cell_angle_gamma 90.000000
_cell_volume 1800.602898
_symmetry_space_group_name_H-M "C 2/M"
_symmetry_group_IT_number 12
_symmetry_cell_setting 'monoclinic'
loop_
_space_group_symop_operation_xyz
x,y,z
-x,y,-z
-x,-y,-z
x,-y,z
1/2+x,1/2+y,z
1/2-x,1/2+y,-z
1/2-x,1/2-y,-z
1/2+x,1/2-y,z
loop_
_atom_site_type_symbol
_atom_site_label
_atom_site_fract_x
_atom_site_fract_y
_atom_site_fract_z
Si Si1 0.083735 0.286005 0.338492
Si Si2 0.815710 0.163947 0.051737
Si Si3 0.861507 0.850389 0.798599
Si Si4 0.000000 0.156754 0.500000
Si Si5 0.411627 0.090159 0.853209
Si Si6 0.757481 0.586146 0.474390
O O1 0.180637 0.234892 0.272991
O O2 0.004783 0.216189 0.386037
O O3 0.024823 0.351796 0.230933
O O4 0.149286 0.339194 0.463980
O O5 0.733587 0.120839 0.136155
O O6 0.976024 0.163423 0.131754
O O7 0.750000 0.250000 0.000000
O O8 0.805957 0.123841 0.914850
O O9 0.809784 0.907891 0.678160
O O10 0.131645 0.101339 0.531682
O O11 0.403304 0.000000 0.807136
O O12 0.500000 0.093621 0.000000
O O13 0.821595 0.500000 0.507385
#
# Coordination Sequence:
#
# PCOD9216869 Si02
#       6
#     8   8   8   4   8   8
#     4  11  23  42  66  96 133 175 227 276 330 401
#     4  11  22  41  69  98 134 174 225 282 334 400
#     4  10  23  40  68 103 129 176 230 276 333 407
#     4  10  23  42  67  92 126 174 232 274 315 398
#     4  11  25  42  64  97 137 179 223 278 348 408
#     4  11  25  43  65  99 139 175 220 281 342 396
#
# _framework density 24.436260999999998
#
# number of rings (size 3 to 8) (size 9 to 14) (size 15 to 20)
#    0.000    1.273    1.818    4.091    5.091    7.273 
#    0.000    5.455    0.000    0.000    0.000    0.000 
#    0.000    0.000    0.000    0.000    0.000    0.000 
#
# Total GULP energy -122782.745453 kJ/mol
# GULP energy per Si atom -5581.033884 kJ/mol
# Density = 2.438064 g / cm^3
# Si number density = 24.436261 Si / 1000 Ang^3
#
#
#
# Elastic Constant Matrix: (Units=GPa)
#
#
# Indices 1 2 3 4 5 6 
#
# 1 29.5308 -19.8702 10.1382 0.0000 5.1475 0.0000
# 2 -19.8702 103.6275 30.5634 0.0000 -4.3779 0.0000
# 3 10.1382 30.5634 163.0897 0.0000 -15.2290 0.0000
# 4 0.0000 0.0000 0.0000 35.0163 0.0000 5.7272
# 5 5.1475 -4.3779 -15.2290 0.0000 36.7706 0.0000
# 6 0.0000 0.0000 0.0000 5.7272 0.0000 16.9427
#
#
#
# Elastic Compliance Matrix: (Units=1/GPa)
#
#
# Indices 1 2 3 4 5 6 
#
# 1 0.043249 0.009508 -0.005128 0.000000 -0.007046 0.000000
# 2 0.009508 0.012311 -0.003002 0.000000 -0.001108 0.000000
# 3 -0.005128 -0.003002 0.007330 0.000000 0.003396 0.000000
# 4 0.000000 0.000000 0.000000 0.030229 0.000000 -0.010219
# 5 -0.007046 -0.001108 0.003396 0.000000 0.029457 0.000000
# 6 0.000000 0.000000 0.000000 -0.010219 0.000000 0.062477
#
#
# Mechanical properties :
#
#
# Convention : Reuss Voigt Hill
#
# Bulk Modulus (GPa) = 15.23320 37.54564 26.38942
# Shear Modulus (GPa) = 24.48815 36.10701 30.29758
#
# Velocity S-wave (km/s) = 3.16907 3.84813 3.52499
# Velocity P-wave (km/s) = 4.43148 5.92808 5.23356
#
# Compressibility (1/GPa) = 0.06564611
#
# Stress axis : x y z
#
# Youngs Moduli (GPa) = 23.12186 81.22489 136.42462
#
# Poissons Ratio (x) = -0.77226 0.69962
# Poissons Ratio (y) = -0.21984 0.40951
# Poissons Ratio (z) = 0.11857 0.24381
#
# Static dielectric constant tensor:
#      x y z
#    x 2.111170 0.000000 0.015580 
#    y 0.000000 1.922370 0.000000 
#    z 0.015580 0.000000 2.024910 
# 
# From -- ./inp_files/131855.got.cif
#   From: 2010.05.17/outbox.cif.g08.bks.cpg/sg12_66_cif.got.tgz:131855.got - 2010.06.03 13:09:07.
