data_PCOD9216480
_publ_section_title
;
Structure prediction by ZEFSAII (Michael W. Deem and Ramdas Pophale) SiO2 
 PCOD9216480
Probable space group: C 2/M
;
_chemical_formula_sum "Si O2"
_cell_formula_units_Z 56
_cell_length_a 8.660725
_cell_length_b 31.201565
_cell_length_c 11.378840
_cell_angle_alpha 90.000000
_cell_angle_beta 58.647266
_cell_angle_gamma 90.000000
_cell_volume 2625.889678
_symmetry_space_group_name_H-M "C 2/M"
_symmetry_group_IT_number 12
_symmetry_cell_setting 'monoclinic'
loop_
_space_group_symop_operation_xyz
x,y,z
-x,y,-z
-x,-y,-z
x,-y,z
1/2+x,1/2+y,z
1/2-x,1/2+y,-z
1/2-x,1/2-y,-z
1/2+x,1/2-y,z
loop_
_atom_site_type_symbol
_atom_site_label
_atom_site_fract_x
_atom_site_fract_y
_atom_site_fract_z
Si Si1 0.304541 0.449701 0.632876
Si Si2 0.027665 0.615403 0.624622
Si Si3 0.131064 0.714832 0.110647
Si Si4 0.715904 0.950989 0.934013
Si Si5 0.711480 0.627866 0.929891
Si Si6 0.786385 0.237161 0.294063
Si Si7 0.165142 0.813689 0.502141
O O1 0.500000 0.440617 0.500000
O O2 0.263198 0.500000 0.628453
O O3 0.147155 0.420448 0.642154
O O4 0.308100 0.443502 0.771577
O O5 0.153716 0.658085 0.577370
O O6 0.000000 0.604319 0.500000
O O7 0.834545 0.620541 0.765280
O O8 0.185844 0.667637 0.048667
O O9 0.171659 0.717285 0.234768
O O10 0.930839 0.731983 0.175068
O O11 0.250000 0.750000 0.000000
O O12 0.751975 0.000000 0.957888
O O13 0.500000 0.947089 0.000000
O O14 0.779097 0.915443 0.999654
O O15 0.500000 0.639939 0.000000
O O16 0.865219 0.200727 0.350409
O O17 0.686313 0.270044 0.419194
O O18 0.000000 0.836671 0.500000
#
# Coordination Sequence:
#
# PCOD9216480 Si02
#       7
#     8   8   8   8   8   8   8
#     4  10  23  46  74 106 139 176 226 284 347 415
#     4  12  26  43  68 102 140 179 232 290 347 409
#     4  12  25  44  63  93 138 181 230 286 348 408
#     4  10  22  46  77 102 135 183 231 279 338 422
#     4  12  27  45  66 102 143 184 230 288 347 414
#     4  11  23  42  65  94 126 174 228 282 343 401
#     4  11  23  42  70  93 125 173 228 289 336 405
#
# _framework density 21.326104999999998
#
# number of rings (size 3 to 8) (size 9 to 14) (size 15 to 20)
#    0.000    0.857    4.286    2.571    2.000    2.857 
#    2.571    0.000    0.000    0.000    0.000    0.000 
#    0.000    0.000    0.000    0.000    0.000    0.000 
#
# Total GULP energy -156513.219392 kJ/mol
# GULP energy per Si atom -5589.757835 kJ/mol
# Density = 2.127757 g / cm^3
# Si number density = 21.326105 Si / 1000 Ang^3
#
#
#
# Elastic Constant Matrix: (Units=GPa)
#
#
# Indices 1 2 3 4 5 6 
#
# 1 58.9125 22.1456 15.2940 0.0000 -8.5020 0.0000
# 2 22.1456 105.4230 36.0475 0.0000 7.3252 0.0000
# 3 15.2940 36.0475 108.2210 0.0000 -18.1406 0.0000
# 4 0.0000 0.0000 0.0000 20.7557 0.0000 -4.8914
# 5 -8.5020 7.3252 -18.1406 0.0000 41.9071 0.0000
# 6 0.0000 0.0000 0.0000 -4.8914 0.0000 30.5642
#
#
#
# Elastic Compliance Matrix: (Units=1/GPa)
#
#
# Indices 1 2 3 4 5 6 
#
# 1 0.019328 -0.004155 -0.000613 0.000000 0.004382 0.000000
# 2 -0.004155 0.012152 -0.004268 0.000000 -0.004814 0.000000
# 3 -0.000613 -0.004268 0.011702 0.000000 0.005687 0.000000
# 4 0.000000 0.000000 0.000000 0.050068 0.000000 0.008013
# 5 0.004382 -0.004814 0.005687 0.000000 0.028055 0.000000
# 6 0.000000 0.000000 0.000000 0.008013 0.000000 0.034000
#
#
# Mechanical properties :
#
#
# Convention : Reuss Voigt Hill
#
# Bulk Modulus (GPa) = 39.82368 46.61451 43.21909
# Shear Modulus (GPa) = 27.51094 31.91668 29.71381
#
# Velocity S-wave (km/s) = 3.59557 3.87279 3.73675
# Velocity P-wave (km/s) = 5.99598 6.47329 6.23920
#
# Compressibility (1/GPa) = 0.02511069
#
# Stress axis : x y z
#
# Youngs Moduli (GPa) = 51.73914 82.28981 85.45712
#
# Poissons Ratio (x) = 0.34191 0.05238
# Poissons Ratio (y) = 0.21497 0.36470
# Poissons Ratio (z) = 0.03171 0.35118
#
# Static dielectric constant tensor:
#      x y z
#    x 2.616950 0.000000 -0.817650 
#    y 0.000000 1.776660 0.000000 
#    z -0.817650 0.000000 2.570910 
# 
# From -- ./inp_files/125615.got.cif
#   From: 2010.05.17/outbox.cif.g08.bks.cpg/sg12_63_cif.got.tgz:125615.got - 2010.06.03 13:09:07.
