data_PCOD9216370
_publ_section_title
;
Structure prediction by ZEFSAII (Michael W. Deem and Ramdas Pophale) SiO2 
 PCOD9216370
Probable space group: C 2/M
;
_chemical_formula_sum "Si O2"
_cell_formula_units_Z 28
_cell_length_a 5.132441
_cell_length_b 16.978144
_cell_length_c 16.631970
_cell_angle_alpha 90.000000
_cell_angle_beta 118.511780
_cell_angle_gamma 90.000000
_cell_volume 1273.526199
_symmetry_space_group_name_H-M "C 2/M"
_symmetry_group_IT_number 12
_symmetry_cell_setting 'monoclinic'
loop_
_space_group_symop_operation_xyz
x,y,z
-x,y,-z
-x,-y,-z
x,-y,z
1/2+x,1/2+y,z
1/2-x,1/2+y,-z
1/2-x,1/2-y,-z
1/2+x,1/2-y,z
loop_
_atom_site_type_symbol
_atom_site_label
_atom_site_fract_x
_atom_site_fract_y
_atom_site_fract_z
Si Si1 0.181488 0.303745 0.243295
Si Si2 0.658283 0.907669 0.937430
Si Si3 0.500000 0.807119 0.500000
Si Si4 0.798173 0.409886 0.598561
O O1 0.969127 0.235042 0.245989
O O2 0.002829 0.353967 0.151298
O O3 0.250245 0.359977 0.328671
O O4 0.649139 0.000000 0.911453
O O5 0.500000 0.900734 0.000000
O O6 0.000000 0.884805 0.000000
O O7 0.750000 0.750000 0.500000
O O8 0.547158 0.866343 0.581465
O O9 0.500000 0.410011 0.500000
O O10 0.877984 0.500000 0.627358
#
# Coordination Sequence:
#
# PCOD9216370 Si02
#       4
#     8   8   4   8
#     4  12  27  43  67 102 136 178 222 278 342 401
#     4  10  22  44  71  98 132 175 220 274 335 402
#     4  12  23  42  67  94 130 170 218 276 337 394
#     4  11  26  47  70  99 136 184 234 282 337 405
#
# _framework density 21.986198000000002
#
# number of rings (size 3 to 8) (size 9 to 14) (size 15 to 20)
#    0.000    0.857    1.429    4.714    4.000    3.429 
#    0.000    2.857    0.000    0.000    0.000    0.000 
#    0.000    0.000    0.000    0.000    0.000    0.000 
#
# Total GULP energy -78397.581057 kJ/mol
# GULP energy per Si atom -5599.827218 kJ/mol
# Density = 2.193616 g / cm^3
# Si number density = 21.986198 Si / 1000 Ang^3
#
#
#
# Elastic Constant Matrix: (Units=GPa)
#
#
# Indices 1 2 3 4 5 6 
#
# 1 104.4644 9.0556 9.2976 0.0000 6.2272 0.0000
# 2 9.0556 108.3086 51.8580 0.0000 6.9141 0.0000
# 3 9.2976 51.8580 117.6358 0.0000 3.5948 0.0000
# 4 0.0000 0.0000 0.0000 71.1567 0.0000 -12.3750
# 5 6.2272 6.9141 3.5948 0.0000 25.0311 0.0000
# 6 0.0000 0.0000 0.0000 -12.3750 0.0000 13.5168
#
#
#
# Elastic Compliance Matrix: (Units=1/GPa)
#
#
# Indices 1 2 3 4 5 6 
#
# 1 0.009789 -0.000428 -0.000517 0.000000 -0.002243 0.000000
# 2 -0.000428 0.011880 -0.005129 0.000000 -0.002438 0.000000
# 3 -0.000517 -0.005129 0.010803 0.000000 -0.000006 0.000000
# 4 0.000000 0.000000 0.000000 0.016715 0.000000 0.015303
# 5 -0.002243 -0.002438 -0.000006 0.000000 0.041183 0.000000
# 6 0.000000 0.000000 0.000000 0.015303 0.000000 0.087993
#
#
# Mechanical properties :
#
#
# Convention : Reuss Voigt Hill
#
# Bulk Modulus (GPa) = 49.19899 52.31458 50.75678
# Shear Modulus (GPa) = 25.34416 39.28741 32.31579
#
# Velocity S-wave (km/s) = 3.39887 4.23177 3.83798
# Velocity P-wave (km/s) = 6.15052 6.90819 6.54034
#
# Compressibility (1/GPa) = 0.02032562
#
# Stress axis : x y z
#
# Youngs Moduli (GPa) = 102.15105 84.17538 92.56888
#
# Poissons Ratio (x) = 0.03603 0.04781
# Poissons Ratio (y) = 0.04372 0.47476
# Poissons Ratio (z) = 0.05276 0.43172
#
# Static dielectric constant tensor:
#      x y z
#    x 1.817260 0.000000 0.046630 
#    y 0.000000 1.811630 0.000000 
#    z 0.046630 0.000000 1.784400 
# 
# From -- ./inp_files/190977.got.cif
#   From: 2010.05.17/outbox.cif.g08.bks.cpg/sg12_96_cif.got.tgz:190977.got - 2010.06.03 13:09:07.
