data_PCOD9216660
_publ_section_title
;
Structure prediction by ZEFSAII (Michael W. Deem and Ramdas Pophale) SiO2 
 PCOD9216660
Probable space group: C 2/M
;
_chemical_formula_sum "Si O2"
_cell_formula_units_Z 48
_cell_length_a 28.882337
_cell_length_b 11.688033
_cell_length_c 24.149611
_cell_angle_alpha 90.000000
_cell_angle_beta 163.489171
_cell_angle_gamma 90.000000
_cell_volume 2316.875589
_symmetry_space_group_name_H-M "C 2/M"
_symmetry_group_IT_number 12
_symmetry_cell_setting 'monoclinic'
loop_
_space_group_symop_operation_xyz
x,y,z
-x,y,-z
-x,-y,-z
x,-y,z
1/2+x,1/2+y,z
1/2-x,1/2+y,-z
1/2-x,1/2-y,-z
1/2+x,1/2-y,z
loop_
_atom_site_type_symbol
_atom_site_label
_atom_site_fract_x
_atom_site_fract_y
_atom_site_fract_z
Si Si1 0.118241 0.733825 0.799274
Si Si2 0.911712 0.197411 0.954101
Si Si3 0.832406 0.500000 0.207870
Si Si4 0.022144 0.000000 0.220005
Si Si5 0.177757 0.364994 0.047633
Si Si6 0.161561 0.000000 0.275036
Si Si7 0.661113 0.000000 0.632310
Si Si8 0.072327 0.245377 0.320868
O O1 0.143441 0.612761 0.800016
O O2 0.949133 0.733127 0.638564
O O3 0.250000 0.750000 0.000000
O O4 0.158625 0.825276 0.797680
O O5 0.856099 0.288943 0.936360
O O6 0.052500 0.112310 0.137813
O O7 0.759037 0.113370 0.764516
O O8 0.000000 0.246945 0.000000
O O9 0.964571 0.500000 0.407835
O O10 0.642361 0.500000 0.005633
O O11 0.015769 0.885409 0.247383
O O12 0.181533 0.000000 0.363824
O O13 0.177206 0.500000 0.057690
O O14 0.037599 0.328604 0.842954
O O15 0.305610 0.000000 0.396607
O O16 0.250000 0.250000 0.500000
#
# Coordination Sequence:
#
# PCOD9216660 Si02
#       8
#     8   8   4   4   8   4   4   8
#     4  10  23  39  60  87 130 165 207 248 314 379
#     4   9  18  38  62  93 126 161 209 268 328 356
#     4  12  21  39  65  96 119 170 205 264 310 364
#     4  12  21  39  63  87 136 160 198 249 326 350
#     4  11  23  40  63  87 127 173 211 250 322 390
#     4   9  16  36  58  88 123 162 190 270 315 356
#     4   9  22  34  70  97 120 154 220 271 306 372
#     4  11  26  38  62  95 124 166 211 262 304 381
#
# _framework density 20.717555000000001
#
# number of rings (size 3 to 8) (size 9 to 14) (size 15 to 20)
#    0.000    1.667    5.000    1.000    9.333    1.000 
#    0.000    6.667    0.000    2.000    0.000    0.000 
#    0.000    0.000    0.000    0.000    0.000    0.000 
#
# Total GULP energy -133923.933681 kJ/mol
# GULP energy per Si atom -5580.163903 kJ/mol
# Density = 2.067040 g / cm^3
# Si number density = 20.717555 Si / 1000 Ang^3
#
#
#
# Elastic Constant Matrix: (Units=GPa)
#
#
# Indices 1 2 3 4 5 6 
#
# 1 131.6688 60.2287 20.9684 0.0006 29.1005 0.0003
# 2 60.2287 148.7012 21.2426 -0.0005 7.0688 0.0002
# 3 20.9684 21.2426 80.0938 -0.0006 18.2632 0.0004
# 4 0.0006 -0.0005 -0.0006 6.8185 0.0002 -16.1677
# 5 29.1005 7.0688 18.2632 0.0002 35.8701 0.0003
# 6 0.0003 0.0002 0.0004 -16.1677 0.0003 -15.1780
#
#
#
# Elastic Compliance Matrix: (Units=1/GPa)
#
#
# Indices 1 2 3 4 5 6 
#
# 1 0.011377 -0.004216 0.000062 0.000000 -0.008430 0.000000
# 2 -0.004216 0.008560 -0.001767 0.000000 0.002633 0.000000
# 3 0.000062 -0.001767 0.014560 0.000001 -0.007116 0.000000
# 4 0.000000 0.000000 0.000001 0.041597 0.000000 -0.044309
# 5 -0.008430 0.002633 -0.007116 0.000000 0.037822 0.000000
# 6 0.000000 0.000000 0.000000 -0.044309 0.000000 -0.018687
#
#
# Mechanical properties :
#
#
# Convention : Reuss Voigt Hill
#
# Bulk Modulus (GPa) = 44.14032 62.81590 53.47811
# Shear Modulus (GPa) = 43.62177 22.70373 33.16275
#
# Velocity S-wave (km/s) = 4.59360 3.31398 4.00522
# Velocity P-wave (km/s) = 7.03469 6.71038 6.87445
#
# Compressibility (1/GPa) = 0.02265502
#
# Stress axis : x y z
#
# Youngs Moduli (GPa) = 87.89924 116.82582 68.68034
#
# Poissons Ratio (x) = 0.49254 -0.00427
# Poissons Ratio (y) = 0.37059 0.12135
# Poissons Ratio (z) = -0.00546 0.20642
#
# Static dielectric constant tensor:
#      x y z
#    x 1.814590 0.000000 0.042660 
#    y 0.000000 1.749100 0.000000 
#    z 0.042660 0.000000 1.828640 
# 
# From -- ./inp_files/369319.got.cif
#   From: 2010.05.17/outbox.cif.g08.bks.cpg/sg12_185_cif.got.tgz:369319.got - 2010.06.03 13:09:07.
