data_PCOD9216811
_publ_section_title
;
Structure prediction by ZEFSAII (Michael W. Deem and Ramdas Pophale) SiO2 
 PCOD9216811
Probable space group: C 2/M
;
_chemical_formula_sum "Si O2"
_cell_formula_units_Z 58
_cell_length_a 19.743620
_cell_length_b 7.787480
_cell_length_c 20.062351
_cell_angle_alpha 90.000000
_cell_angle_beta 126.248141
_cell_angle_gamma 90.000000
_cell_volume 2487.656571
_symmetry_space_group_name_H-M "C 2/M"
_symmetry_group_IT_number 12
_symmetry_cell_setting 'monoclinic'
loop_
_space_group_symop_operation_xyz
x,y,z
-x,y,-z
-x,-y,-z
x,-y,z
1/2+x,1/2+y,z
1/2-x,1/2+y,-z
1/2-x,1/2-y,-z
1/2+x,1/2-y,z
loop_
_atom_site_type_symbol
_atom_site_label
_atom_site_fract_x
_atom_site_fract_y
_atom_site_fract_z
Si Si1 0.764743 0.293665 0.584666
Si Si2 0.303712 0.805444 0.966404
Si Si3 0.996509 0.306194 0.396287
Si Si4 0.000000 0.000000 0.500000
Si Si5 0.674736 0.301589 0.166898
Si Si6 0.509558 0.697125 0.898454
Si Si7 0.049030 0.293788 0.276926
Si Si8 0.825133 0.802090 0.343034
O O1 0.764375 0.500000 0.590631
O O2 0.750000 0.250000 0.500000
O O3 0.855193 0.233883 0.661927
O O4 0.697397 0.229201 0.598058
O O5 0.403541 0.793159 0.038113
O O6 0.279294 0.000000 0.937904
O O7 0.250000 0.750000 0.000000
O O8 0.293711 0.706357 0.890877
O O9 0.029081 0.500000 0.428336
O O10 0.896472 0.303530 0.348891
O O11 0.027454 0.154970 0.462093
O O12 0.011988 0.263796 0.328226
O O13 0.674485 0.500000 0.189104
O O14 0.577787 0.239601 0.118683
O O15 0.739677 0.199478 0.250934
O O16 0.522169 0.500000 0.927913
O O17 0.494475 0.705975 0.810578
O O18 0.047007 0.500000 0.263687
O O19 0.859870 0.000000 0.370214
#
# Coordination Sequence:
#
# PCOD9216811 Si02
#       8
#     8   8   8   2   8   8   8   8
#     4  10  23  40  64  94 132 172 225 279 336 401
#     4  12  27  46  71 102 138 181 225 279 340 406
#     4  11  26  44  69  98 135 181 234 292 353 417
#     4  12  26  48  68  98 136 184 234 290 352 438
#     4  11  24  44  70 102 139 179 228 282 339 412
#     4  11  24  43  71 102 138 179 226 280 340 414
#     4  10  23  44  66  96 131 178 229 283 341 405
#     4  11  23  43  67  98 134 181 230 282 344 411
#
# _framework density 23.315114999999999
#
# number of rings (size 3 to 8) (size 9 to 14) (size 15 to 20)
#    0.000    1.103    2.069    3.103    4.828    4.966 
#    0.000    0.000    0.000    0.000    0.000    0.000 
#    0.000    0.000    0.000    0.000    0.000    0.000 
#
# Total GULP energy -162064.212561 kJ/mol
# GULP energy per Si atom -5588.421123 kJ/mol
# Density = 2.326205 g / cm^3
# Si number density = 23.315115 Si / 1000 Ang^3
#
#
#
# Elastic Constant Matrix: (Units=GPa)
#
#
# Indices 1 2 3 4 5 6 
#
# 1 157.0497 19.4259 30.7782 0.0000 -20.2162 0.0000
# 2 19.4259 80.7061 8.8874 0.0000 -13.6934 0.0000
# 3 30.7782 8.8874 82.6654 0.0000 -16.8837 0.0000
# 4 0.0000 0.0000 0.0000 32.8984 0.0000 -2.7358
# 5 -20.2162 -13.6934 -16.8837 0.0000 40.6923 0.0000
# 6 0.0000 0.0000 0.0000 -2.7358 0.0000 23.6444
#
#
#
# Elastic Compliance Matrix: (Units=1/GPa)
#
#
# Indices 1 2 3 4 5 6 
#
# 1 0.007216 -0.001109 -0.002088 0.000000 0.002345 0.000000
# 2 -0.001109 0.013335 -0.000237 0.000000 0.003838 0.000000
# 3 -0.002088 -0.000237 0.013845 0.000000 0.004627 0.000000
# 4 0.000000 0.000000 0.000000 0.030692 0.000000 0.003551
# 5 0.002345 0.003838 0.004627 0.000000 0.028951 0.000000
# 6 0.000000 0.000000 0.000000 0.003551 0.000000 0.042704
#
#
# Mechanical properties :
#
#
# Convention : Reuss Voigt Hill
#
# Bulk Modulus (GPa) = 36.32759 48.73379 42.53069
# Shear Modulus (GPa) = 32.72527 36.86899 34.79713
#
# Velocity S-wave (km/s) = 3.75054 3.98091 3.86744
# Velocity P-wave (km/s) = 5.86262 6.48674 6.18256
#
# Compressibility (1/GPa) = 0.02752729
#
# Stress axis : x y z
#
# Youngs Moduli (GPa) = 138.58601 74.99145 72.22797
#
# Poissons Ratio (x) = 0.08316 0.15084
# Poissons Ratio (y) = 0.15368 0.01711
# Poissons Ratio (z) = 0.28942 0.01776
#
# Static dielectric constant tensor:
#      x y z
#    x 1.831960 0.000000 -0.074130 
#    y 0.000000 1.855580 0.000000 
#    z -0.074130 0.000000 1.739200 
# 
# From -- ./inp_files/314879.got.cif
#   From: 2010.05.17/outbox.cif.g08.bks.cpg/sg12_158_cif.got.tgz:314879.got - 2010.06.03 13:09:07.
