data_PCOD9216343
_publ_section_title
;
Structure prediction by ZEFSAII (Michael W. Deem and Ramdas Pophale) SiO2 
 PCOD9216343
Probable space group: C 2/M
;
_chemical_formula_sum "Si O2"
_cell_formula_units_Z 40
_cell_length_a 12.442597
_cell_length_b 15.890943
_cell_length_c 20.621342
_cell_angle_alpha 90.000000
_cell_angle_beta 28.691562
_cell_angle_gamma 90.000000
_cell_volume 1957.510916
_symmetry_space_group_name_H-M "C 2/M"
_symmetry_group_IT_number 12
_symmetry_cell_setting 'monoclinic'
loop_
_space_group_symop_operation_xyz
x,y,z
-x,y,-z
-x,-y,-z
x,-y,z
1/2+x,1/2+y,z
1/2-x,1/2+y,-z
1/2-x,1/2-y,-z
1/2+x,1/2-y,z
loop_
_atom_site_type_symbol
_atom_site_label
_atom_site_fract_x
_atom_site_fract_y
_atom_site_fract_z
Si Si1 0.961368 0.597197 0.118010
Si Si2 0.749383 0.899807 0.636985
Si Si3 0.149720 0.847023 0.173799
Si Si4 0.966146 0.700161 0.357131
Si Si5 0.301172 0.904455 0.657626
O O1 0.040271 0.500000 0.081921
O O2 0.878321 0.630205 0.231149
O O3 0.754360 0.598324 0.177232
O O4 0.156105 0.652453 0.982939
O O5 0.627641 0.876625 0.635538
O O6 0.000000 0.863871 0.500000
O O7 0.765077 0.000000 0.636444
O O8 0.091375 0.760289 0.240060
O O9 0.927090 0.882536 0.258747
O O10 0.750000 0.750000 0.500000
O O11 0.129241 0.663647 0.325440
O O12 0.500000 0.903115 0.500000
O O13 0.285910 0.000000 0.692198
#
# Coordination Sequence:
#
# PCOD9216343 Si02
#       5
#     8   8   8   8   8
#     4  10  22  44  69  97 129 169 221 270 321 397
#     4  10  23  42  68  92 125 171 218 267 328 394
#     4  11  23  40  69  94 131 171 215 270 326 379
#     4  12  25  40  62  96 137 167 215 276 328 382
#     4  11  24  42  65  94 132 179 221 266 328 397
#
# _framework density 20.434114999999998
#
# number of rings (size 3 to 8) (size 9 to 14) (size 15 to 20)
#    0.000    1.200    2.000    4.200    5.600    0.800 
#    3.600    0.000    0.000    3.600    0.000    0.000 
#    0.000    0.000    0.000    0.000    0.000    0.000 
#
# Total GULP energy -111757.744348 kJ/mol
# GULP energy per Si atom -5587.887217 kJ/mol
# Density = 2.038761 g / cm^3
# Si number density = 20.434115 Si / 1000 Ang^3
#
#
#
# Elastic Constant Matrix: (Units=GPa)
#
#
# Indices 1 2 3 4 5 6 
#
# 1 109.6583 22.6856 63.3843 0.0007 -10.9657 0.0007
# 2 22.6856 62.5947 35.5736 0.0073 -0.7373 -0.0183
# 3 63.3843 35.5736 122.5470 0.0240 0.9769 -0.0373
# 4 0.0007 0.0073 0.0240 19.2216 0.0058 3.3956
# 5 -10.9657 -0.7373 0.9769 0.0058 40.1046 -0.0016
# 6 0.0007 -0.0183 -0.0373 3.3956 -0.0016 54.4470
#
#
#
# Elastic Compliance Matrix: (Units=1/GPa)
#
#
# Indices 1 2 3 4 5 6 
#
# 1 0.013645 -0.001043 -0.006786 0.000008 0.003877 -0.000006
# 2 -0.001043 0.019221 -0.005042 -0.000002 0.000191 0.000003
# 3 -0.006786 -0.005042 0.013151 -0.000015 -0.002268 0.000008
# 4 0.000008 -0.000002 -0.000015 0.052604 -0.000005 -0.003281
# 5 0.003877 0.000191 -0.002268 -0.000005 0.026054 0.000000
# 6 -0.000006 0.000003 0.000008 -0.003281 0.000000 0.018571
#
#
# Mechanical properties :
#
#
# Convention : Reuss Voigt Hill
#
# Bulk Modulus (GPa) = 49.31724 59.78746 54.55235
# Shear Modulus (GPa) = 28.45006 34.29840 31.37423
#
# Velocity S-wave (km/s) = 3.73538 4.10138 3.92265
# Velocity P-wave (km/s) = 6.54150 7.19379 6.87538
#
# Compressibility (1/GPa) = 0.02027689
#
# Stress axis : x y z
#
# Youngs Moduli (GPa) = 73.28733 52.02544 76.03754
#
# Poissons Ratio (x) = 0.05427 0.51596
# Poissons Ratio (y) = 0.07645 0.38335
# Poissons Ratio (z) = 0.49730 0.26229
#
# Static dielectric constant tensor:
#      x y z
#    x 1.695050 0.000000 -0.002740 
#    y 0.000000 1.737270 0.000000 
#    z -0.002740 0.000000 1.725750 
# 
# From -- ./inp_files/130853.got.cif
#   From: 2010.05.17/outbox.cif.g08.bks.cpg/sg12_66_cif.got.tgz:130853.got - 2010.06.03 13:09:07.
