data_PCOD9216885
_publ_section_title
;
Structure prediction by ZEFSAII (Michael W. Deem and Ramdas Pophale) SiO2 
 PCOD9216885
Probable space group: C 2/M
;
_chemical_formula_sum "Si O2"
_cell_formula_units_Z 40
_cell_length_a 11.663445
_cell_length_b 26.122090
_cell_length_c 6.615284
_cell_angle_alpha 90.000000
_cell_angle_beta 117.914650
_cell_angle_gamma 90.000000
_cell_volume 1780.990303
_symmetry_space_group_name_H-M "C 2/M"
_symmetry_group_IT_number 12
_symmetry_cell_setting 'monoclinic'
loop_
_space_group_symop_operation_xyz
x,y,z
-x,y,-z
-x,-y,-z
x,-y,z
1/2+x,1/2+y,z
1/2-x,1/2+y,-z
1/2-x,1/2-y,-z
1/2+x,1/2-y,z
loop_
_atom_site_type_symbol
_atom_site_label
_atom_site_fract_x
_atom_site_fract_y
_atom_site_fract_z
Si Si1 0.118007 0.667124 0.449668
Si Si2 0.902854 0.000000 0.612612
Si Si3 0.844087 0.388818 0.876953
Si Si4 0.000000 0.737934 0.000000
Si Si5 0.690497 0.676666 0.049967
Si Si6 0.159802 0.500000 0.134899
Si Si7 0.000000 0.914366 0.000000
O O1 0.184772 0.620559 0.382609
O O2 0.224944 0.689792 0.684366
O O3 0.000000 0.650777 0.500000
O O4 0.067861 0.705463 0.234951
O O5 0.939986 0.950873 0.778748
O O6 0.000000 0.000000 0.500000
O O7 0.752765 0.000000 0.411466
O O8 0.804677 0.444558 0.927532
O O9 0.786075 0.341627 0.952461
O O10 0.000000 0.388546 0.000000
O O11 0.904155 0.775477 0.046675
O O12 0.607447 0.625247 0.010188
O O13 0.000000 0.500000 0.000000
#
# Coordination Sequence:
#
# PCOD9216885 Si02
#       7
#     8   4   8   4   8   4   4
#     4  12  23  43  68  95 136 177 224 286 344 398
#     4  11  21  42  68 100 141 183 227 295 342 411
#     4  11  22  44  65  99 136 177 225 279 336 408
#     4  11  26  43  64 102 128 179 224 285 344 410
#     4  11  24  43  68  96 137 175 228 281 340 415
#     4  10  23  40  72 104 139 182 227 275 345 411
#     4  10  24  41  68 102 134 181 234 276 352 410
#
# _framework density 22.459413999999999
#
# number of rings (size 3 to 8) (size 9 to 14) (size 15 to 20)
#    0.000    1.000    3.000    3.000    0.000    5.600 
#    0.000    5.500    0.000    0.000    0.000    0.000 
#    0.000    0.000    0.000    0.000    0.000    0.000 
#
# Total GULP energy -111543.061921 kJ/mol
# GULP energy per Si atom -5577.153096 kJ/mol
# Density = 2.240830 g / cm^3
# Si number density = 22.459414 Si / 1000 Ang^3
#
#
#
# Elastic Constant Matrix: (Units=GPa)
#
#
# Indices 1 2 3 4 5 6 
#
# 1 91.7174 44.1172 48.5173 0.0000 -3.7899 0.0000
# 2 44.1172 150.7114 45.3166 0.0000 -5.8669 0.0000
# 3 48.5173 45.3166 107.5161 0.0000 11.6511 0.0000
# 4 0.0000 0.0000 0.0000 22.5387 0.0000 -0.7793
# 5 -3.7899 -5.8669 11.6511 0.0000 39.7703 0.0000
# 6 0.0000 0.0000 0.0000 -0.7793 0.0000 0.6660
#
#
#
# Elastic Compliance Matrix: (Units=1/GPa)
#
#
# Indices 1 2 3 4 5 6 
#
# 1 0.015570 -0.002559 -0.006266 0.000000 0.002942 0.000000
# 2 -0.002559 0.008197 -0.002484 0.000000 0.001693 0.000000
# 3 -0.006266 -0.002484 0.013715 0.000000 -0.004982 0.000000
# 4 0.000000 0.000000 0.000000 0.046239 0.000000 0.054110
# 5 0.002942 0.001693 -0.004982 0.000000 0.027134 0.000000
# 6 0.000000 0.000000 0.000000 0.054110 0.000000 1.564905
#
#
# Mechanical properties :
#
#
# Convention : Reuss Voigt Hill
#
# Bulk Modulus (GPa) = 67.27431 69.53855 68.40643
# Shear Modulus (GPa) = 2.93542 26.72792 14.83167
#
# Velocity S-wave (km/s) = 1.14448 3.45346 2.57257
# Velocity P-wave (km/s) = 5.63606 6.85061 6.27280
#
# Compressibility (1/GPa) = 0.01486452
#
# Stress axis : x y z
#
# Youngs Moduli (GPa) = 64.22415 121.99593 72.91121
#
# Poissons Ratio (x) = 0.31220 0.45689
# Poissons Ratio (y) = 0.16436 0.18108
# Poissons Ratio (z) = 0.40246 0.30298
#
# Static dielectric constant tensor:
#      x y z
#    x 1.934320 0.000000 0.081450 
#    y 0.000000 1.847270 0.000000 
#    z 0.081450 0.000000 2.133250 
# 
# From -- ./inp_files/8577.got.cif
#   From: 2010.05.17/outbox.cif.g08.bks.cpg/sg12_5_cif.got.tgz:8577.got - 2010.06.03 13:09:07.
