data_PCOD9216810
_publ_section_title
;
Structure prediction by ZEFSAII (Michael W. Deem and Ramdas Pophale) SiO2 
 PCOD9216810
Probable space group: C 2/M
;
_chemical_formula_sum "Si O2"
_cell_formula_units_Z 64
_cell_length_a 13.879019
_cell_length_b 29.797458
_cell_length_c 8.983289
_cell_angle_alpha 90.000000
_cell_angle_beta 49.336855
_cell_angle_gamma 90.000000
_cell_volume 2818.121105
_symmetry_space_group_name_H-M "C 2/M"
_symmetry_group_IT_number 12
_symmetry_cell_setting 'monoclinic'
loop_
_space_group_symop_operation_xyz
x,y,z
-x,y,-z
-x,-y,-z
x,-y,z
1/2+x,1/2+y,z
1/2-x,1/2+y,-z
1/2-x,1/2-y,-z
1/2+x,1/2-y,z
loop_
_atom_site_type_symbol
_atom_site_label
_atom_site_fract_x
_atom_site_fract_y
_atom_site_fract_z
Si Si1 0.478203 0.316441 0.184533
Si Si2 0.558642 0.110761 0.774723
Si Si3 0.305116 0.249473 0.279744
Si Si4 0.323252 0.898062 0.845511
Si Si5 0.371413 0.829642 0.554908
Si Si6 0.155392 0.109571 0.503145
Si Si7 0.947443 0.947323 0.883991
Si Si8 0.705104 0.330949 0.179536
O O1 0.445061 0.265099 0.183163
O O2 0.368170 0.346503 0.369230
O O3 0.592008 0.316113 0.185935
O O4 0.500000 0.337653 0.000000
O O5 0.455636 0.083659 0.778875
O O6 0.590950 0.157345 0.652788
O O7 0.701240 0.090352 0.635830
O O8 0.500000 0.115943 0.000000
O O9 0.250000 0.250000 0.500000
O O10 0.236460 0.294555 0.288126
O O11 0.267649 0.208132 0.215333
O O12 0.341311 0.877263 0.664390
O O13 0.194035 0.926283 0.983670
O O14 0.303847 0.855346 0.973565
O O15 0.500000 0.811700 0.500000
O O16 0.148995 0.131158 0.346104
O O17 0.046733 0.076399 0.671435
O O18 0.940672 0.000000 0.858251
O O19 0.000000 0.941967 0.000000
#
# Coordination Sequence:
#
# PCOD9216810 Si02
#       8
#     8   8   8   8   8   8   8   8
#     4  12  26  44  71  99 140 203 254 326 379 444
#     4  11  22  42  71 104 142 194 245 290 365 444
#     4  12  26  41  59 101 143 190 254 318 366 424
#     4  11  24  45  75 108 143 194 242 300 380 454
#     4  10  23  40  64  93 136 192 241 300 347 438
#     4  12  23  45  74 104 146 197 247 299 378 454
#     4  11  26  48  83 120 148 182 245 315 380 466
#     4  12  26  44  71 102 145 203 256 316 372 443
#
# _framework density 22.710166999999998
#
# number of rings (size 3 to 8) (size 9 to 14) (size 15 to 20)
#    0.000    0.625    5.000    2.250    1.750    2.000 
#    4.500    1.875    0.000    5.625    0.000    0.000 
#    0.000    0.000    0.000    0.000    0.000    0.000 
#
# Total GULP energy -178571.795112 kJ/mol
# GULP energy per Si atom -5580.368597 kJ/mol
# Density = 2.265848 g / cm^3
# Si number density = 22.710167 Si / 1000 Ang^3
#
#
#
# Elastic Constant Matrix: (Units=GPa)
#
#
# Indices 1 2 3 4 5 6 
#
# 1 168.7515 50.8796 44.3235 0.0000 -13.6001 0.0000
# 2 50.8796 98.9682 30.2270 0.0000 -1.7688 0.0000
# 3 44.3235 30.2270 137.5019 0.0000 8.7610 0.0000
# 4 0.0000 0.0000 0.0000 20.9784 0.0000 2.3470
# 5 -13.6001 -1.7688 8.7610 0.0000 41.5375 0.0000
# 6 0.0000 0.0000 0.0000 2.3470 0.0000 18.9593
#
#
#
# Elastic Compliance Matrix: (Units=1/GPa)
#
#
# Indices 1 2 3 4 5 6 
#
# 1 0.007646 -0.003296 -0.001916 0.000000 0.002767 0.000000
# 2 -0.003296 0.012292 -0.001626 0.000000 -0.000213 0.000000
# 3 -0.001916 -0.001626 0.008405 0.000000 -0.002470 0.000000
# 4 0.000000 0.000000 0.000000 0.048338 0.000000 -0.005984
# 5 0.002767 -0.000213 -0.002470 0.000000 0.025493 0.000000
# 6 0.000000 0.000000 0.000000 -0.005984 0.000000 0.053485
#
#
# Mechanical properties :
#
#
# Convention : Reuss Voigt Hill
#
# Bulk Modulus (GPa) = 68.18593 72.89798 70.54196
# Shear Modulus (GPa) = 28.69873 34.94779 31.82326
#
# Velocity S-wave (km/s) = 3.55871 3.92709 3.74743
# Velocity P-wave (km/s) = 6.85386 7.26166 7.06070
#
# Compressibility (1/GPa) = 0.01466578
#
# Stress axis : x y z
#
# Youngs Moduli (GPa) = 130.78653 81.35647 118.97421
#
# Poissons Ratio (x) = 0.26816 0.22801
# Poissons Ratio (y) = 0.43108 0.19345
# Poissons Ratio (z) = 0.25064 0.13229
#
# Static dielectric constant tensor:
#      x y z
#    x 2.026910 0.000000 0.002120 
#    y 0.000000 1.855630 0.000000 
#    z 0.002120 0.000000 1.898340 
# 
# From -- ./inp_files/68587.got.cif
#   From: 2010.05.17/outbox.cif.g08.bks.cpg/sg12_35_cif.got.tgz:68587.got - 2010.06.03 13:09:07.
