data_PCOD9216304
_publ_section_title
;
Structure prediction by ZEFSAII (Michael W. Deem and Ramdas Pophale) SiO2 
 PCOD9216304
Probable space group: C 2/M
;
_chemical_formula_sum "Si O2"
_cell_formula_units_Z 42
_cell_length_a 20.984964
_cell_length_b 9.894074
_cell_length_c 10.295873
_cell_angle_alpha 90.000000
_cell_angle_beta 101.507369
_cell_angle_gamma 90.000000
_cell_volume 2094.729257
_symmetry_space_group_name_H-M "C 2/M"
_symmetry_group_IT_number 12
_symmetry_cell_setting 'monoclinic'
loop_
_space_group_symop_operation_xyz
x,y,z
-x,y,-z
-x,-y,-z
x,-y,z
1/2+x,1/2+y,z
1/2-x,1/2+y,-z
1/2-x,1/2-y,-z
1/2+x,1/2-y,z
loop_
_atom_site_type_symbol
_atom_site_label
_atom_site_fract_x
_atom_site_fract_y
_atom_site_fract_z
Si Si1 0.399719 0.716848 0.009795
Si Si2 0.476850 0.654134 0.782443
Si Si3 0.158182 0.500000 0.089098
Si Si4 0.601913 0.780217 0.481942
Si Si5 0.000000 0.500000 0.500000
Si Si6 0.305263 0.500000 0.075970
Si Si7 0.304399 0.000000 0.590744
Si Si8 0.656736 0.500000 0.606958
O O1 0.452428 0.706338 0.146265
O O2 0.336829 0.629962 0.020579
O O3 0.434324 0.655688 0.896759
O O4 0.380965 0.868237 0.968144
O O5 0.482821 0.500000 0.737525
O O6 0.439529 0.744561 0.663812
O O7 0.227897 0.500000 0.046826
O O8 0.171271 0.500000 0.249303
O O9 0.556017 0.881411 0.542085
O O10 0.620010 0.638175 0.554577
O O11 0.664959 0.867458 0.464842
O O12 0.328404 0.500000 0.234491
O O13 0.226536 0.000000 0.561797
#
# Coordination Sequence:
#
# PCOD9216304 Si02
#       8
#     8   8   4   8   2   4   4   4
#     4  11  22  40  63  92 125 159 210 258 311 365
#     4  11  21  39  70  92 118 165 211 265 303 375
#     4  11  23  39  63  94 126 171 201 253 326 362
#     4  11  23  44  67  91 130 164 211 265 319 373
#     4  10  28  38  60  96 130 158 196 270 330 360
#     4  11  24  42  60  90 137 162 209 258 297 384
#     4  10  22  44  65  97 128 159 220 268 302 376
#     4  11  25  41  70  93 121 181 213 250 318 376
#
# _framework density 20.050324
#
# number of rings (size 3 to 8) (size 9 to 14) (size 15 to 20)
#    0.000    1.143    4.762    1.714    2.667    3.429 
#    0.000    0.000    0.000    0.000    0.000    0.000 
#    0.000    0.000    0.000    0.000    0.000    0.000 
#
# Total GULP energy -117115.138402 kJ/mol
# GULP energy per Si atom -5576.911352 kJ/mol
# Density = 2.000469 g / cm^3
# Si number density = 20.050324 Si / 1000 Ang^3
#
#
#
# Elastic Constant Matrix: (Units=GPa)
#
#
# Indices 1 2 3 4 5 6 
#
# 1 84.6862 43.9523 -9.7854 0.0000 2.1871 0.0000
# 2 43.9523 172.6522 14.8565 0.0000 8.8817 0.0000
# 3 -9.7854 14.8565 26.4969 0.0000 7.0021 0.0000
# 4 0.0000 0.0000 0.0000 143.8051 0.0000 -97.5454
# 5 2.1871 8.8817 7.0021 0.0000 22.2003 0.0000
# 6 0.0000 0.0000 0.0000 -97.5454 0.0000 121.3938
#
#
#
# Elastic Compliance Matrix: (Units=1/GPa)
#
#
# Indices 1 2 3 4 5 6 
#
# 1 0.015229 -0.004507 0.008805 0.000000 -0.002474 0.000000
# 2 -0.004507 0.007465 -0.005649 0.000000 -0.000761 0.000000
# 3 0.008805 -0.005649 0.047773 0.000000 -0.013675 0.000000
# 4 0.000000 0.000000 0.000000 0.015285 0.000000 0.012282
# 5 -0.002474 -0.000761 -0.013675 0.000000 0.049906 0.000000
# 6 0.000000 0.000000 0.000000 0.012282 0.000000 0.018107
#
#
# Mechanical properties :
#
#
# Convention : Reuss Voigt Hill
#
# Bulk Modulus (GPa) = 14.75696 42.43135 28.59416
# Shear Modulus (GPa) = 27.92440 73.13396 50.52918
#
# Velocity S-wave (km/s) = 3.73596 6.04602 5.02552
# Velocity P-wave (km/s) = 5.09763 8.36347 6.92580
#
# Compressibility (1/GPa) = 0.06776463
#
# Stress axis : x y z
#
# Youngs Moduli (GPa) = 65.66478 133.96550 20.93226
#
# Poissons Ratio (x) = 0.60381 -0.18431
# Poissons Ratio (y) = 0.29597 0.11824
# Poissons Ratio (z) = -0.57818 0.75675
#
# Static dielectric constant tensor:
#      x y z
#    x 1.710520 0.000000 -0.028270 
#    y 0.000000 1.684490 0.000000 
#    z -0.028270 0.000000 1.687020 
# 
# From -- ./inp_files/163347.got.cif
#   From: 2010.05.17/outbox.cif.g08.bks.cpg/sg12_82_cif.got.tgz:163347.got - 2010.06.03 13:09:07.
