data_PCOD9216107
_publ_section_title
;
Structure prediction by ZEFSAII (Michael W. Deem and Ramdas Pophale) SiO2 
 PCOD9216107
Probable space group: C 2/M
;
_chemical_formula_sum "Si O2"
_cell_formula_units_Z 36
_cell_length_a 8.222217
_cell_length_b 18.577540
_cell_length_c 11.835927
_cell_angle_alpha 90.000000
_cell_angle_beta 71.818643
_cell_angle_gamma 90.000000
_cell_volume 1717.657940
_symmetry_space_group_name_H-M "C 2/M"
_symmetry_group_IT_number 12
_symmetry_cell_setting 'monoclinic'
loop_
_space_group_symop_operation_xyz
x,y,z
-x,y,-z
-x,-y,-z
x,-y,z
1/2+x,1/2+y,z
1/2-x,1/2+y,-z
1/2-x,1/2-y,-z
1/2+x,1/2-y,z
loop_
_atom_site_type_symbol
_atom_site_label
_atom_site_fract_x
_atom_site_fract_y
_atom_site_fract_z
Si Si1 0.190869 0.000000 0.408581
Si Si2 0.350725 0.622169 0.126739
Si Si3 0.456108 0.500000 0.801326
Si Si4 0.324508 0.217834 0.666966
Si Si5 0.162476 0.500000 0.047302
Si Si6 0.796556 0.657225 0.429659
O O1 0.160631 0.000000 0.281927
O O2 0.285027 0.927726 0.423887
O O3 0.000000 0.000000 0.500000
O O4 0.429523 0.570722 0.207061
O O5 0.283656 0.693970 0.201318
O O6 0.193219 0.573378 0.112022
O O7 0.500000 0.634129 0.000000
O O8 0.332108 0.500000 0.934863
O O9 0.322411 0.302024 0.635622
O O10 0.254160 0.181738 0.566274
O O11 0.514199 0.186574 0.637485
O O12 0.000000 0.500000 0.000000
#
# Coordination Sequence:
#
# PCOD9216107 Si02
#       6
#     4   8   4   8   4   8
#     4  12  25  37  65 102 123 164 220 265 310 388
#     4   9  19  38  62  92 125 175 211 263 318 378
#     4   9  20  34  59  88 130 163 209 256 323 370
#     4  10  22  43  65  91 133 169 211 261 329 380
#     4   9  19  34  59  90 128 166 211 266 323 364
#     4  10  25  40  66  94 131 171 208 264 325 379
#
# _framework density 20.958770999999999
#
# number of rings (size 3 to 8) (size 9 to 14) (size 15 to 20)
#    0.000    2.222    0.000    2.667   12.444    3.556 
#    0.000    1.111    0.000    0.000    0.000    0.000 
#    0.000    0.000    0.000    0.000    0.000    0.000 
#
# Total GULP energy -100453.865879 kJ/mol
# GULP energy per Si atom -5580.770327 kJ/mol
# Density = 2.091107 g / cm^3
# Si number density = 20.958771 Si / 1000 Ang^3
#
#
#
# Elastic Constant Matrix: (Units=GPa)
#
#
# Indices 1 2 3 4 5 6 
#
# 1 88.3216 31.8037 0.7128 0.0000 -2.4673 0.0000
# 2 31.8037 122.3665 18.8875 0.0000 -6.8122 0.0000
# 3 0.7128 18.8875 71.4671 0.0000 -11.4151 0.0000
# 4 0.0000 0.0000 0.0000 31.0802 0.0000 -1.6311
# 5 -2.4673 -6.8122 -11.4151 0.0000 28.1484 0.0000
# 6 0.0000 0.0000 0.0000 -1.6311 0.0000 15.4017
#
#
#
# Elastic Compliance Matrix: (Units=1/GPa)
#
#
# Indices 1 2 3 4 5 6 
#
# 1 0.012542 -0.003358 0.000864 0.000000 0.000637 0.000000
# 2 -0.003358 0.009458 -0.002296 0.000000 0.001063 0.000000
# 3 0.000864 -0.002296 0.015519 0.000000 0.005814 0.000000
# 4 0.000000 0.000000 0.000000 0.032355 0.000000 0.003427
# 5 0.000637 0.001063 0.005814 0.000000 0.038197 0.000000
# 6 0.000000 0.000000 0.000000 0.003427 0.000000 0.065291
#
#
# Mechanical properties :
#
#
# Convention : Reuss Voigt Hill
#
# Bulk Modulus (GPa) = 35.79099 42.77368 39.28234
# Shear Modulus (GPa) = 26.00707 30.30948 28.15828
#
# Velocity S-wave (km/s) = 3.52642 3.80695 3.66937
# Velocity P-wave (km/s) = 5.80472 6.30687 6.06100
#
# Compressibility (1/GPa) = 0.02793999
#
# Stress axis : x y z
#
# Youngs Moduli (GPa) = 79.73122 105.72504 64.43592
#
# Poissons Ratio (x) = 0.35499 -0.05568
# Poissons Ratio (y) = 0.26771 0.14797
# Poissons Ratio (z) = -0.06889 0.24278
#
# Static dielectric constant tensor:
#      x y z
#    x 1.785400 0.000000 0.010120 
#    y 0.000000 1.796180 0.000000 
#    z 0.010120 0.000000 1.705630 
# 
# From -- ./inp_files/118557.got.cif
#   From: 2010.05.17/outbox.cif.g08.bks.cpg/sg12_60_cif.got.tgz:118557.got - 2010.06.03 13:09:07.
