data_PCOD9216895
_publ_section_title
;
Structure prediction by ZEFSAII (Michael W. Deem and Ramdas Pophale) SiO2 
 PCOD9216895
Probable space group: C 2/M
;
_chemical_formula_sum "Si O2"
_cell_formula_units_Z 64
_cell_length_a 14.916247
_cell_length_b 22.731962
_cell_length_c 17.081336
_cell_angle_alpha 90.000000
_cell_angle_beta 32.160546
_cell_angle_gamma 90.000000
_cell_volume 3082.971095
_symmetry_space_group_name_H-M "C 2/M"
_symmetry_group_IT_number 12
_symmetry_cell_setting 'monoclinic'
loop_
_space_group_symop_operation_xyz
x,y,z
-x,y,-z
-x,-y,-z
x,-y,z
1/2+x,1/2+y,z
1/2-x,1/2+y,-z
1/2-x,1/2-y,-z
1/2+x,1/2-y,z
loop_
_atom_site_type_symbol
_atom_site_label
_atom_site_fract_x
_atom_site_fract_y
_atom_site_fract_z
Si Si1 0.159088 0.070145 0.933255
Si Si2 0.611786 0.759472 0.495588
Si Si3 0.115988 0.661413 0.852275
Si Si4 0.102809 0.181093 0.238530
Si Si5 0.498669 0.864649 0.682110
Si Si6 0.899107 0.432933 0.255617
Si Si7 0.993991 0.264766 0.813637
Si Si8 0.699284 0.567175 0.082477
O O1 0.326280 0.104466 0.784804
O O2 0.187370 0.000000 0.902962
O O3 0.126904 0.079788 0.049270
O O4 0.000000 0.088215 0.000000
O O5 0.500000 0.752141 0.500000
O O6 0.559642 0.709983 0.599008
O O7 0.576747 0.824026 0.557654
O O8 0.809190 0.752950 0.335279
O O9 0.259407 0.692498 0.796050
O O10 0.186332 0.616151 0.736064
O O11 0.991831 0.707615 0.901353
O O12 0.000000 0.627149 0.000000
O O13 0.126392 0.113083 0.198613
O O14 0.113821 0.213051 0.145519
O O15 0.608473 0.912808 0.648112
O O16 0.459235 0.818244 0.780348
O O17 0.843496 0.500000 0.286073
O O18 0.097866 0.429692 0.082960
O O19 0.661655 0.500000 0.132315
#
# Coordination Sequence:
#
# PCOD9216895 Si02
#       8
#     8   8   8   8   8   8   8   8
#     4   9  18  35  57  86 125 157 189 239 297 353
#     4  11  22  41  61  79 107 157 205 242 297 342
#     4  11  21  36  56  89 121 148 193 235 286 351
#     4  11  21  37  59  82 116 155 189 246 282 343
#     4   9  18  34  58  83 108 151 203 237 282 353
#     4   9  18  34  56  83 119 153 186 227 284 350
#     4  10  23  41  56  78 115 159 195 243 293 342
#     4   9  18  34  56  83 117 157 187 224 291 349
#
# _framework density 20.759195999999999
#
# number of rings (size 3 to 8) (size 9 to 14) (size 15 to 20)
#    0.000    2.125    2.500    2.625    0.000    2.250 
#    4.500    0.000    0.000   11.625    0.000    0.000 
#    0.000    0.000    0.000    0.000    0.000    0.000 
#
# Total GULP energy -178374.155796 kJ/mol
# GULP energy per Si atom -5574.192369 kJ/mol
# Density = 2.071195 g / cm^3
# Si number density = 20.759196 Si / 1000 Ang^3
#
#
#
# Elastic Constant Matrix: (Units=GPa)
#
#
# Indices 1 2 3 4 5 6 
#
# 1 116.0565 38.3532 18.9417 0.0184 -7.5180 0.0091
# 2 38.3532 96.5332 26.2424 0.0215 5.2795 -0.0121
# 3 18.9417 26.2424 36.8448 0.0164 4.9919 -0.0245
# 4 0.0184 0.0215 0.0164 19.4998 -0.0227 0.9080
# 5 -7.5180 5.2795 4.9919 -0.0227 27.3160 0.0113
# 6 0.0091 -0.0121 -0.0245 0.9080 0.0113 29.4405
#
#
#
# Elastic Compliance Matrix: (Units=1/GPa)
#
#
# Indices 1 2 3 4 5 6 
#
# 1 0.010624 -0.003487 -0.003553 0.000002 0.004247 -0.000009
# 2 -0.003487 0.014010 -0.007884 -0.000008 -0.002227 0.000001
# 3 -0.003553 -0.007884 0.035385 -0.000026 -0.005921 0.000030
# 4 0.000002 -0.000008 -0.000026 0.051356 0.000050 -0.001584
# 5 0.004247 -0.002227 -0.005921 0.000050 0.039290 -0.000024
# 6 -0.000009 0.000001 0.000030 -0.001584 -0.000024 0.034016
#
#
# Mechanical properties :
#
#
# Convention : Reuss Voigt Hill
#
# Bulk Modulus (GPa) = 33.14575 46.27879 39.71227
# Shear Modulus (GPa) = 22.26317 26.31109 24.28713
#
# Velocity S-wave (km/s) = 3.27838 3.56398 3.42416
# Velocity P-wave (km/s) = 5.50743 6.26717 5.89955
#
# Compressibility (1/GPa) = 0.03016978
#
# Stress axis : x y z
#
# Youngs Moduli (GPa) = 94.12621 71.37953 28.26055
#
# Poissons Ratio (x) = 0.24892 0.10042
# Poissons Ratio (y) = 0.32825 0.22280
# Poissons Ratio (z) = 0.33447 0.56274
#
# Static dielectric constant tensor:
#      x y z
#    x 1.793550 0.000000 0.012440 
#    y 0.000000 1.773830 0.000010 
#    z 0.012440 0.000010 1.776790 
# 
# From -- ./inp_files/272839.got.cif
#   From: 2010.05.17/outbox.cif.g08.bks.cpg/sg12_137_cif.got.tgz:272839.got - 2010.06.03 13:09:07.
