data_PCOD9216453
_publ_section_title
;
Structure prediction by ZEFSAII (Michael W. Deem and Ramdas Pophale) SiO2 
 PCOD9216453
Probable space group: C 2/M
;
_chemical_formula_sum "Si O2"
_cell_formula_units_Z 52
_cell_length_a 17.444884
_cell_length_b 13.189141
_cell_length_c 14.444503
_cell_angle_alpha 90.000000
_cell_angle_beta 51.670870
_cell_angle_gamma 90.000000
_cell_volume 2607.105758
_symmetry_space_group_name_H-M "C 2/M"
_symmetry_group_IT_number 12
_symmetry_cell_setting 'monoclinic'
loop_
_space_group_symop_operation_xyz
x,y,z
-x,y,-z
-x,-y,-z
x,-y,z
1/2+x,1/2+y,z
1/2-x,1/2+y,-z
1/2-x,1/2-y,-z
1/2+x,1/2-y,z
loop_
_atom_site_type_symbol
_atom_site_label
_atom_site_fract_x
_atom_site_fract_y
_atom_site_fract_z
Si Si1 0.190077 0.215473 0.136207
Si Si2 0.500464 0.621558 0.812232
Si Si3 0.856334 0.384136 0.681556
Si Si4 0.584836 0.114125 0.560348
Si Si5 0.325351 0.760557 0.359839
Si Si6 0.318791 0.118079 0.185475
Si Si7 0.500000 0.261392 0.000000
O O1 0.082513 0.173699 0.190343
O O2 0.188176 0.310048 0.209327
O O3 0.245174 0.130061 0.154812
O O4 0.250000 0.250000 0.000000
O O5 0.494510 0.500000 0.811600
O O6 0.612066 0.660290 0.710701
O O7 0.477104 0.666582 0.930878
O O8 0.818718 0.500000 0.715006
O O9 0.854695 0.348326 0.575398
O O10 0.971642 0.387537 0.617716
O O11 0.593493 0.170202 0.650130
O O12 0.619727 0.000000 0.547819
O O13 0.250000 0.750000 0.500000
O O14 0.284535 0.825432 0.304864
O O15 0.340270 0.000000 0.185999
O O16 0.411780 0.186146 0.089237
#
# Coordination Sequence:
#
# PCOD9216453 Si02
#       7
#     8   8   8   8   8   8   4
#     4  12  23  42  61  93 134 171 216 259 319 384
#     4  11  24  43  66  91 128 171 214 265 321 382
#     4   9  19  35  60  92 118 156 208 258 313 367
#     4   9  17  35  62  87 117 153 201 261 315 367
#     4  11  23  41  64  92 127 168 214 263 320 386
#     4  11  24  41  65  95 129 167 212 267 324 381
#     4  10  22  46  64  92 124 166 218 268 312 382
#
# _framework density 19.945488999999998
#
# number of rings (size 3 to 8) (size 9 to 14) (size 15 to 20)
#    0.000    1.538    3.077    3.231    0.000    2.462 
#    0.000    2.308    0.000    2.769    0.000    0.000 
#    0.000    0.000    0.000    0.000    0.000    0.000 
#
# Total GULP energy -144958.802362 kJ/mol
# GULP energy per Si atom -5575.338552 kJ/mol
# Density = 1.990009 g / cm^3
# Si number density = 19.945489 Si / 1000 Ang^3
#
#
#
# Elastic Constant Matrix: (Units=GPa)
#
#
# Indices 1 2 3 4 5 6 
#
# 1 59.1210 16.7965 1.2661 0.0000 20.7673 0.0000
# 2 16.7965 131.0838 48.5623 0.0000 8.3905 0.0000
# 3 1.2661 48.5623 99.0871 0.0000 10.7754 0.0000
# 4 0.0000 0.0000 0.0000 24.1904 0.0000 2.3441
# 5 20.7673 8.3905 10.7754 0.0000 29.4000 0.0000
# 6 0.0000 0.0000 0.0000 2.3441 0.0000 23.0648
#
#
#
# Elastic Compliance Matrix: (Units=1/GPa)
#
#
# Indices 1 2 3 4 5 6 
#
# 1 0.023685 -0.003079 0.003052 0.000000 -0.016970 0.000000
# 2 -0.003079 0.009751 -0.004868 0.000000 0.001176 0.000000
# 3 0.003052 -0.004868 0.013042 0.000000 -0.005547 0.000000
# 4 0.000000 0.000000 0.000000 0.041750 0.000000 -0.004243
# 5 -0.016970 0.001176 -0.005547 0.000000 0.047698 0.000000
# 6 0.000000 0.000000 0.000000 -0.004243 0.000000 0.043787
#
#
# Mechanical properties :
#
#
# Convention : Reuss Voigt Hill
#
# Bulk Modulus (GPa) = 27.25665 46.94909 37.10287
# Shear Modulus (GPa) = 24.78523 30.17550 27.48036
#
# Velocity S-wave (km/s) = 3.52895 3.89382 3.71586
# Velocity P-wave (km/s) = 5.50453 6.61858 6.08709
#
# Compressibility (1/GPa) = 0.03668829
#
# Stress axis : x y z
#
# Youngs Moduli (GPa) = 42.22073 102.55043 76.67572
#
# Poissons Ratio (x) = 0.31579 -0.23401
# Poissons Ratio (y) = 0.13001 0.37323
# Poissons Ratio (z) = -0.12886 0.49918
#
# Static dielectric constant tensor:
#      x y z
#    x 1.776430 0.000000 -0.005670 
#    y 0.000000 1.716420 0.000000 
#    z -0.005670 0.000000 1.722740 
# 
# From -- ./inp_files/232316.got.cif
#   From: 2010.05.17/outbox.cif.g08.bks.cpg/sg12_117_cif.got.tgz:232316.got - 2010.06.03 13:09:07.
