data_PCOD9216467
_publ_section_title
;
Structure prediction by ZEFSAII (Michael W. Deem and Ramdas Pophale) SiO2 
 PCOD9216467
Probable space group: C 2/M
;
_chemical_formula_sum "Si O2"
_cell_formula_units_Z 50
_cell_length_a 11.109889
_cell_length_b 29.297929
_cell_length_c 13.452555
_cell_angle_alpha 90.000000
_cell_angle_beta 31.801354
_cell_angle_gamma 90.000000
_cell_volume 2307.502371
_symmetry_space_group_name_H-M "C 2/M"
_symmetry_group_IT_number 12
_symmetry_cell_setting 'monoclinic'
loop_
_space_group_symop_operation_xyz
x,y,z
-x,y,-z
-x,-y,-z
x,-y,z
1/2+x,1/2+y,z
1/2-x,1/2+y,-z
1/2-x,1/2-y,-z
1/2+x,1/2-y,z
loop_
_atom_site_type_symbol
_atom_site_label
_atom_site_fract_x
_atom_site_fract_y
_atom_site_fract_z
Si Si1 0.595655 0.680982 0.170520
Si Si2 0.171936 0.091113 0.231363
Si Si3 0.400949 0.000000 0.789757
Si Si4 0.343372 0.909131 0.325830
Si Si5 0.570585 0.151840 0.550244
Si Si6 0.255853 0.225698 0.854392
Si Si7 0.537106 0.500000 0.205692
Si Si8 0.500000 0.000000 0.500000
O O1 0.705749 0.635613 0.139216
O O2 0.329138 0.668010 0.351269
O O3 0.618591 0.726192 0.221163
O O4 0.716258 0.697761 0.984743
O O5 0.919728 0.095003 0.456848
O O6 0.138660 0.044352 0.192962
O O7 0.659035 0.092751 0.792535
O O8 0.543447 0.043499 0.725247
O O9 0.369804 0.000000 0.694540
O O10 0.160549 0.000000 0.013538
O O11 0.452929 0.873887 0.328161
O O12 0.500000 0.123742 0.500000
O O13 0.399298 0.194233 0.680005
O O14 0.000000 0.235716 0.000000
O O15 0.262344 0.500000 0.381485
#
# Coordination Sequence:
#
# PCOD9216467 Si02
#       8
#     8   8   4   8   8   8   4   2
#     4  10  24  43  68 100 135 178 234 280 351 413
#     4  10  22  46  71 103 139 186 227 289 348 416
#     4  12  26  44  70 109 135 185 232 282 353 413
#     4  10  23  43  71 103 141 184 229 286 351 412
#     4  11  23  43  68  99 136 184 227 282 346 415
#     4  11  23  44  67 100 136 182 226 290 348 411
#     4  12  26  46  76 103 140 185 234 284 353 412
#     4  12  26  52  70  98 144 186 230 292 332 422
#
# _framework density 21.668451000000001
#
# number of rings (size 3 to 8) (size 9 to 14) (size 15 to 20)
#    0.000    1.280    3.200    1.200    3.360    5.120 
#    5.760    0.000    0.000    0.000    0.000    0.000 
#    0.000    0.000    0.000    0.000    0.000    0.000 
#
# Total GULP energy -139243.977605 kJ/mol
# GULP energy per Si atom -5569.759104 kJ/mol
# Density = 2.161913 g / cm^3
# Si number density = 21.668451 Si / 1000 Ang^3
#
#
#
# Elastic Constant Matrix: (Units=GPa)
#
#
# Indices 1 2 3 4 5 6 
#
# 1 178.9456 76.9189 38.7877 0.0000 8.2595 0.0000
# 2 76.9189 122.2561 31.9289 0.0000 0.5301 0.0000
# 3 38.7877 31.9289 65.3816 0.0000 -5.3989 0.0000
# 4 0.0000 0.0000 0.0000 25.6334 0.0000 13.8385
# 5 8.2595 0.5301 -5.3989 0.0000 40.1986 0.0000
# 6 0.0000 0.0000 0.0000 13.8385 0.0000 12.3602
#
#
#
# Elastic Compliance Matrix: (Units=1/GPa)
#
#
# Indices 1 2 3 4 5 6 
#
# 1 0.008195 -0.004395 -0.002882 0.000000 -0.002013 0.000000
# 2 -0.004395 0.011754 -0.003106 0.000000 0.000331 0.000000
# 3 -0.002882 -0.003106 0.018782 0.000000 0.003156 0.000000
# 4 0.000000 0.000000 0.000000 0.098620 0.000000 -0.110414
# 5 -0.002013 0.000331 0.003156 0.000000 0.025710 0.000000
# 6 0.000000 0.000000 0.000000 -0.110414 0.000000 0.204524
#
#
# Mechanical properties :
#
#
# Convention : Reuss Voigt Hill
#
# Bulk Modulus (GPa) = 55.65879 73.53936 64.59907
# Shear Modulus (GPa) = 12.67953 30.23497 21.45725
#
# Velocity S-wave (km/s) = 2.42163 3.73948 3.15024
# Velocity P-wave (km/s) = 5.79322 7.25652 6.56576
#
# Compressibility (1/GPa) = 0.01796661
#
# Stress axis : x y z
#
# Youngs Moduli (GPa) = 122.02867 85.07683 53.24351
#
# Poissons Ratio (x) = 0.37387 0.15343
# Poissons Ratio (y) = 0.53626 0.16536
# Poissons Ratio (z) = 0.35165 0.26422
#
# Static dielectric constant tensor:
#      x y z
#    x 1.888820 0.000000 0.000660 
#    y 0.000000 1.831230 0.000000 
#    z 0.000660 0.000000 1.789240 
# 
# From -- ./inp_files/273245.got.cif
#   From: 2010.05.17/outbox.cif.g08.bks.cpg/sg12_137_cif.got.tgz:273245.got - 2010.06.03 13:09:07.
