data_PCOD9216530
_publ_section_title
;
Structure prediction by ZEFSAII (Michael W. Deem and Ramdas Pophale) SiO2 
 PCOD9216530
Probable space group: C 2/M
;
_chemical_formula_sum "Si O2"
_cell_formula_units_Z 56
_cell_length_a 16.152349
_cell_length_b 10.892448
_cell_length_c 21.626338
_cell_angle_alpha 90.000000
_cell_angle_beta 41.952187
_cell_angle_gamma 90.000000
_cell_volume 2543.619962
_symmetry_space_group_name_H-M "C 2/M"
_symmetry_group_IT_number 12
_symmetry_cell_setting 'monoclinic'
loop_
_space_group_symop_operation_xyz
x,y,z
-x,y,-z
-x,-y,-z
x,-y,z
1/2+x,1/2+y,z
1/2-x,1/2+y,-z
1/2-x,1/2-y,-z
1/2+x,1/2-y,z
loop_
_atom_site_type_symbol
_atom_site_label
_atom_site_fract_x
_atom_site_fract_y
_atom_site_fract_z
Si Si1 0.668813 0.134762 0.833621
Si Si2 0.790594 0.368673 0.917486
Si Si3 0.960871 0.138562 0.790896
Si Si4 0.877067 0.321169 0.002189
Si Si5 0.722535 0.640784 0.718599
Si Si6 0.148320 0.362688 0.482394
Si Si7 0.912765 0.865484 0.408766
O O1 0.519371 0.148460 0.912518
O O2 0.728538 0.250406 0.765553
O O3 0.706239 0.000000 0.788614
O O4 0.679098 0.134788 0.902087
O O5 0.820673 0.500000 0.873284
O O6 0.880558 0.258918 0.847986
O O7 0.807352 0.372059 0.981641
O O8 0.651445 0.324317 0.981266
O O9 0.087649 0.150970 0.760253
O O10 0.992634 0.141518 0.700528
O O11 0.915574 0.000000 0.829724
O O12 0.734226 0.500000 0.735865
O O13 0.817895 0.655347 0.608371
O O14 0.093951 0.500000 0.520244
O O15 0.075846 0.248881 0.551812
O O16 0.278634 0.363032 0.448415
O O17 0.923603 0.000000 0.432922
#
# Coordination Sequence:
#
# PCOD9216530 Si02
#       7
#     8   8   8   8   8   8   8
#     4  11  21  37  57  76 100 137 176 215 257 308
#     4  11  22  37  56  78 102 135 177 217 256 310
#     4   9  18  31  48  72 105 139 168 210 262 303
#     4  10  23  37  53  76 105 131 170 220 265 300
#     4   9  18  31  47  73 106 136 168 212 260 304
#     4   8  14  25  41  64  98 134 165 202 251 298
#     4   8  14  25  41  65  97 132 169 204 245 298
#
# _framework density 22.015867
#
# number of rings (size 3 to 8) (size 9 to 14) (size 15 to 20)
#    0.000    2.571    1.429    3.429    0.000    5.714 
#    0.000    4.286    0.000    0.000    0.000    1.000 
#    0.000    6.857    0.000    0.000    0.000    0.000 
#
# Total GULP energy -156216.703261 kJ/mol
# GULP energy per Si atom -5579.167974 kJ/mol
# Density = 2.196576 g / cm^3
# Si number density = 22.015867 Si / 1000 Ang^3
#
#
#
# Elastic Constant Matrix: (Units=GPa)
#
#
# Indices 1 2 3 4 5 6 
#
# 1 38.7739 24.9604 2.4408 0.0000 6.6061 0.0000
# 2 24.9604 232.3358 82.4288 0.0000 24.2195 0.0000
# 3 2.4408 82.4288 73.3311 0.0000 18.5370 0.0000
# 4 0.0000 0.0000 0.0000 24.6199 0.0000 -17.5649
# 5 6.6061 24.2195 18.5370 0.0000 17.1073 0.0000
# 6 0.0000 0.0000 0.0000 -17.5649 0.0000 -16.4234
#
#
#
# Elastic Compliance Matrix: (Units=1/GPa)
#
#
# Indices 1 2 3 4 5 6 
#
# 1 0.030533 -0.004530 0.007485 0.000000 -0.013488 0.000000
# 2 -0.004530 0.007879 -0.008715 0.000000 0.000038 0.000000
# 3 0.007485 -0.008715 0.028641 0.000000 -0.021586 0.000000
# 4 0.000000 0.000000 0.000000 0.023039 0.000000 -0.024640
# 5 -0.013488 0.000038 -0.021586 0.000000 0.086999 0.000000
# 6 0.000000 0.000000 0.000000 -0.024640 0.000000 -0.034536
#
#
# Mechanical properties :
#
#
# Convention : Reuss Voigt Hill
#
# Bulk Modulus (GPa) = 18.00722 62.67787 40.34254
# Shear Modulus (GPa) = 28.97129 20.70148 24.83638
#
# Velocity S-wave (km/s) = 3.63151 3.06975 3.36238
# Velocity P-wave (km/s) = 5.07747 6.41060 5.78258
#
# Compressibility (1/GPa) = 0.05553329
#
# Stress axis : x y z
#
# Youngs Moduli (GPa) = 32.75093 126.92363 34.91531
#
# Poissons Ratio (x) = 0.57494 -0.26135
# Poissons Ratio (y) = 0.14836 0.30429
# Poissons Ratio (z) = -0.24515 1.10616
#
# Static dielectric constant tensor:
#      x y z
#    x 1.865600 0.000000 -0.047020 
#    y 0.000000 1.845630 0.000000 
#    z -0.047020 0.000000 1.811390 
# 
# From -- ./inp_files/342249.got.cif
#   From: 2010.05.17/outbox.cif.g08.bks.cpg/sg12_172_cif.got.tgz:342249.got - 2010.06.03 13:09:07.
