data_PCOD9216489
_publ_section_title
;
Structure prediction by ZEFSAII (Michael W. Deem and Ramdas Pophale) SiO2 
 PCOD9216489
Probable space group: C 2/M
;
_chemical_formula_sum "Si O2"
_cell_formula_units_Z 40
_cell_length_a 7.238061
_cell_length_b 14.500484
_cell_length_c 20.458591
_cell_angle_alpha 90.000000
_cell_angle_beta 134.135008
_cell_angle_gamma 90.000000
_cell_volume 1541.075738
_symmetry_space_group_name_H-M "C 2/M"
_symmetry_group_IT_number 12
_symmetry_cell_setting 'monoclinic'
loop_
_space_group_symop_operation_xyz
x,y,z
-x,y,-z
-x,-y,-z
x,-y,z
1/2+x,1/2+y,z
1/2-x,1/2+y,-z
1/2-x,1/2-y,-z
1/2+x,1/2-y,z
loop_
_atom_site_type_symbol
_atom_site_label
_atom_site_fract_x
_atom_site_fract_y
_atom_site_fract_z
Si Si1 0.409117 0.600086 0.128240
Si Si2 0.283139 0.107356 0.534843
Si Si3 0.996838 0.196424 0.641498
Si Si4 0.439579 0.188410 0.227155
Si Si5 0.371325 0.842849 0.057146
O O1 0.448915 0.500000 0.167145
O O2 0.679676 0.651657 0.196291
O O3 0.158516 0.642353 0.101256
O O4 0.315478 0.590874 0.029370
O O5 0.216545 0.131649 0.442806
O O6 0.441211 0.198680 0.599225
O O7 0.272445 0.150102 0.692415
O O8 0.372606 0.000000 0.565469
O O9 0.000000 0.114100 0.500000
O O10 0.014402 0.214976 0.723122
O O11 0.380331 0.167474 0.136702
O O12 0.250000 0.750000 0.000000
#
# Coordination Sequence:
#
# PCOD9216489 Si02
#       5
#     8   8   8   8   8
#     4  11  28  49  73 110 155 203 266 327 382 458
#     4  10  22  47  78 109 151 205 257 316 402 482
#     4  11  25  45  74 114 155 199 261 322 391 467
#     4  12  27  42  75 110 155 200 257 318 386 454
#     4  11  26  45  77 106 148 208 262 306 386 461
#
# _framework density 25.955893
#
# number of rings (size 3 to 8) (size 9 to 14) (size 15 to 20)
#    0.000    1.000    2.000    3.000   16.800    4.000 
#    0.000    2.000    0.000    0.000    0.000    0.000 
#    0.000    0.000    0.000    0.000    0.000    0.000 
#
# Total GULP energy -111494.915415 kJ/mol
# GULP energy per Si atom -5574.745771 kJ/mol
# Density = 2.589682 g / cm^3
# Si number density = 25.955893 Si / 1000 Ang^3
#
#
#
# Elastic Constant Matrix: (Units=GPa)
#
#
# Indices 1 2 3 4 5 6 
#
# 1 179.3332 38.9079 54.4148 0.0000 24.1517 0.0000
# 2 38.9079 137.3123 21.4842 0.0000 13.5755 0.0000
# 3 54.4148 21.4842 161.8557 0.0001 6.8441 0.0001
# 4 0.0000 0.0000 0.0001 8.1027 0.0001 -8.4665
# 5 24.1517 13.5755 6.8441 0.0001 55.6766 0.0000
# 6 0.0000 0.0000 0.0001 -8.4665 0.0000 -11.8992
#
#
#
# Elastic Compliance Matrix: (Units=1/GPa)
#
#
# Indices 1 2 3 4 5 6 
#
# 1 0.006802 -0.001380 -0.002004 0.000000 -0.002368 0.000000
# 2 -0.001380 0.007881 -0.000529 0.000000 -0.001258 0.000000
# 3 -0.002004 -0.000529 0.006916 0.000000 0.000148 0.000000
# 4 0.000000 0.000000 0.000000 0.070788 0.000000 -0.050366
# 5 -0.002368 -0.001258 0.000148 0.000000 0.019277 0.000000
# 6 0.000000 0.000000 0.000000 -0.050366 0.000000 -0.048203
#
#
# Mechanical properties :
#
#
# Convention : Reuss Voigt Hill
#
# Bulk Modulus (GPa) = 72.59966 78.67944 75.63955
# Shear Modulus (GPa) = 65.89584 34.62230 50.25907
#
# Velocity S-wave (km/s) = 5.04408 3.65621 4.40514
# Velocity P-wave (km/s) = 7.87113 6.94279 7.42149
#
# Compressibility (1/GPa) = 0.01377417
#
# Stress axis : x y z
#
# Youngs Moduli (GPa) = 147.00529 126.89070 144.59404
#
# Poissons Ratio (x) = 0.17510 0.28972
# Poissons Ratio (y) = 0.20285 0.07649
# Poissons Ratio (z) = 0.29455 0.06712
#
# Static dielectric constant tensor:
#      x y z
#    x 2.080870 0.000000 -0.123170 
#    y 0.000000 2.344160 0.000000 
#    z -0.123170 0.000000 2.166930 
# 
# From -- ./inp_files/305028.got.cif
#   From: 2010.05.17/outbox.cif.g08.bks.cpg/sg12_153_cif.got.tgz:305028.got - 2010.06.03 13:09:07.
