data_PCOD9216748
_publ_section_title
;
Structure prediction by ZEFSAII (Michael W. Deem and Ramdas Pophale) SiO2 
 PCOD9216748
Probable space group: C 2/M
;
_chemical_formula_sum "Si O2"
_cell_formula_units_Z 64
_cell_length_a 16.587749
_cell_length_b 16.670462
_cell_length_c 22.303865
_cell_angle_alpha 90.000000
_cell_angle_beta 147.962704
_cell_angle_gamma 90.000000
_cell_volume 3271.726651
_symmetry_space_group_name_H-M "C 2/M"
_symmetry_group_IT_number 12
_symmetry_cell_setting 'monoclinic'
loop_
_space_group_symop_operation_xyz
x,y,z
-x,y,-z
-x,-y,-z
x,-y,z
1/2+x,1/2+y,z
1/2-x,1/2+y,-z
1/2-x,1/2-y,-z
1/2+x,1/2-y,z
loop_
_atom_site_type_symbol
_atom_site_label
_atom_site_fract_x
_atom_site_fract_y
_atom_site_fract_z
Si Si1 0.089659 0.593164 0.238853
Si Si2 0.261181 0.244972 0.333456
Si Si3 0.231954 0.657072 0.003895
Si Si4 0.046024 0.726079 0.427443
Si Si5 0.049222 0.091082 0.219771
Si Si6 0.673844 0.909254 0.090938
Si Si7 0.008747 0.878859 0.676356
Si Si8 0.684654 0.086479 0.436411
O O1 0.121003 0.500000 0.238660
O O2 0.183121 0.668937 0.270202
O O3 0.122047 0.596689 0.330206
O O4 0.914807 0.615301 0.116750
O O5 0.390576 0.221912 0.367100
O O6 0.335973 0.254485 0.446797
O O7 0.151442 0.167694 0.267274
O O8 0.250000 0.750000 0.000000
O O9 0.385020 0.608044 0.087142
O O10 0.209237 0.652420 0.061024
O O11 0.011645 0.785686 0.350961
O O12 0.121565 0.650166 0.443608
O O13 0.025047 0.096881 0.276568
O O14 0.102619 0.000000 0.239901
O O15 0.816662 0.902877 0.226200
O O16 0.681550 0.000000 0.070953
O O17 0.500000 0.897446 0.000000
O O18 0.868406 0.912979 0.549932
O O19 0.635508 0.000000 0.428285
#
# Coordination Sequence:
#
# PCOD9216748 Si02
#       8
#     8   8   8   8   8   8   8   8
#     4  11  23  41  62  87 125 164 204 249 301 367
#     4  11  23  41  58  92 123 165 198 244 319 359
#     4  11  22  38  63  89 123 161 206 250 297 363
#     4  11  24  38  61  85 130 157 197 259 302 368
#     4  11  22  39  65  91 120 156 209 257 297 358
#     4  10  23  40  60  90 123 156 200 251 302 355
#     4  11  20  37  62  88 117 155 199 246 299 349
#     4  11  22  38  63  91 117 159 206 249 305 365
#
# _framework density 19.561537000000001
#
# number of rings (size 3 to 8) (size 9 to 14) (size 15 to 20)
#    0.000    1.125    3.750    4.125    3.500    0.500 
#    0.000    3.750    0.000    0.000    0.000    2.625 
#    0.000    0.000    0.000    0.000    0.000    0.000 
#
# Total GULP energy -178404.283303 kJ/mol
# GULP energy per Si atom -5575.133853 kJ/mol
# Density = 1.951701 g / cm^3
# Si number density = 19.561537 Si / 1000 Ang^3
#
#
#
# Elastic Constant Matrix: (Units=GPa)
#
#
# Indices 1 2 3 4 5 6 
#
# 1 45.5581 48.6582 26.8513 -0.0006 15.5893 0.0003
# 2 48.6582 148.0351 39.7711 -0.0013 19.3191 -0.0001
# 3 26.8513 39.7711 139.1130 -0.0035 18.7173 0.0001
# 4 -0.0006 -0.0013 -0.0035 9.5955 -0.0009 3.9580
# 5 15.5893 19.3191 18.7173 -0.0009 26.9405 0.0002
# 6 0.0003 -0.0001 0.0001 3.9580 0.0002 9.0147
#
#
#
# Elastic Compliance Matrix: (Units=1/GPa)
#
#
# Indices 1 2 3 4 5 6 
#
# 1 0.039295 -0.010423 -0.002814 -0.000001 -0.013309 -0.000001
# 2 -0.010423 0.010536 -0.000877 0.000000 -0.000915 0.000000
# 3 -0.002814 -0.000877 0.008470 0.000003 -0.003627 -0.000001
# 4 -0.000001 0.000000 0.000003 0.127264 0.000003 -0.055877
# 5 -0.013309 -0.000915 -0.003627 0.000003 0.047996 -0.000002
# 6 -0.000001 0.000000 -0.000001 -0.055877 -0.000002 0.135463
#
#
# Mechanical properties :
#
#
# Convention : Reuss Voigt Hill
#
# Bulk Modulus (GPa) = 33.25286 62.58527 47.91907
# Shear Modulus (GPa) = 12.27664 23.60519 17.94091
#
# Velocity S-wave (km/s) = 2.50789 3.47755 3.03174
# Velocity P-wave (km/s) = 5.04203 6.94175 6.06671
#
# Compressibility (1/GPa) = 0.03007260
#
# Stress axis : x y z
#
# Youngs Moduli (GPa) = 25.44850 94.91052 118.05747
#
# Poissons Ratio (x) = 0.98927 0.33223
# Poissons Ratio (y) = 0.26525 0.10357
# Poissons Ratio (z) = 0.07161 0.08326
#
# Static dielectric constant tensor:
#      x y z
#    x 1.665040 0.000000 0.013580 
#    y 0.000000 1.786130 0.000000 
#    z 0.013580 0.000000 1.739840 
# 
# From -- ./inp_files/344084.got.cif
#   From: 2010.05.17/outbox.cif.g08.bks.cpg/sg12_173_cif.got.tgz:344084.got - 2010.06.03 13:09:07.
