data_PCOD9216386
_publ_section_title
;
Structure prediction by ZEFSAII (Michael W. Deem and Ramdas Pophale) SiO2 
 PCOD9216386
Probable space group: C 2/M
;
_chemical_formula_sum "Si O2"
_cell_formula_units_Z 60
_cell_length_a 22.625195
_cell_length_b 14.304268
_cell_length_c 10.722787
_cell_angle_alpha 90.000000
_cell_angle_beta 46.895279
_cell_angle_gamma 90.000000
_cell_volume 2533.678760
_symmetry_space_group_name_H-M "C 2/M"
_symmetry_group_IT_number 12
_symmetry_cell_setting 'monoclinic'
loop_
_space_group_symop_operation_xyz
x,y,z
-x,y,-z
-x,-y,-z
x,-y,z
1/2+x,1/2+y,z
1/2-x,1/2+y,-z
1/2-x,1/2-y,-z
1/2+x,1/2-y,z
loop_
_atom_site_type_symbol
_atom_site_label
_atom_site_fract_x
_atom_site_fract_y
_atom_site_fract_z
Si Si1 0.422432 0.787852 0.312050
Si Si2 0.858649 0.347765 0.164462
Si Si3 0.997678 0.103659 0.721961
Si Si4 0.744021 0.334300 0.658560
Si Si5 0.694829 0.208419 0.187850
Si Si6 0.872971 0.897586 0.688712
Si Si7 0.062634 0.609792 0.217927
Si Si8 0.749850 0.000000 0.544127
O O1 0.423666 0.847546 0.183269
O O2 0.467898 0.687723 0.244049
O O3 0.327827 0.789194 0.484462
O O4 0.473812 0.845296 0.339369
O O5 0.825029 0.242406 0.222664
O O6 0.789154 0.419210 0.306777
O O7 0.894965 0.370443 0.977577
O O8 0.060514 0.096635 0.516000
O O9 0.914595 0.120524 0.764255
O O10 0.994651 0.000000 0.785323
O O11 0.765677 0.361011 0.769812
O O12 0.723449 0.417653 0.595205
O O13 0.675745 0.307313 0.280067
O O14 0.616619 0.161244 0.242052
O O15 0.750000 0.250000 0.000000
O O16 0.832766 0.000000 0.752756
O O17 0.058806 0.500000 0.244879
#
# Coordination Sequence:
#
# PCOD9216386 Si02
#       8
#     8   8   8   8   8   8   8   4
#     4  11  22  40  70  99 138 173 230 295 339 402
#     4  11  24  48  68  98 137 184 242 283 342 423
#     4   9  17  34  62  94 122 158 213 272 330 398
#     4  11  25  45  67 104 135 183 234 289 350 411
#     4  12  24  43  66  95 142 177 226 287 343 418
#     4   9  18  36  60  88 123 165 210 261 329 400
#     4  12  27  44  71 104 137 189 236 282 356 427
#     4  10  22  44  73  93 137 174 232 290 339 402
#
# _framework density 23.680980999999999
#
# number of rings (size 3 to 8) (size 9 to 14) (size 15 to 20)
#    0.000    1.333    4.667    2.800    4.667    1.600 
#    6.000    0.667    1.467    0.800    0.000    0.000 
#    0.000    0.000    0.000    0.000    0.000    0.000 
#
# Total GULP energy -167040.130388 kJ/mol
# GULP energy per Si atom -5568.004346 kJ/mol
# Density = 2.362708 g / cm^3
# Si number density = 23.680981 Si / 1000 Ang^3
#
#
#
# Elastic Constant Matrix: (Units=GPa)
#
#
# Indices 1 2 3 4 5 6 
#
# 1 54.8267 2.5243 -12.6081 0.0000 5.8483 0.0000
# 2 2.5243 139.0026 -12.6556 0.0000 -7.2914 0.0000
# 3 -12.6081 -12.6556 28.9215 0.0000 4.9874 0.0000
# 4 0.0000 0.0000 0.0000 20.1764 0.0000 6.1836
# 5 5.8483 -7.2914 4.9874 0.0000 27.6961 0.0000
# 6 0.0000 0.0000 0.0000 6.1836 0.0000 -10.1702
#
#
#
# Elastic Compliance Matrix: (Units=1/GPa)
#
#
# Indices 1 2 3 4 5 6 
#
# 1 0.021315 0.000236 0.010486 0.000000 -0.006327 0.000000
# 2 0.000236 0.007550 0.003171 0.000000 0.001367 0.000000
# 3 0.010486 0.003171 0.042080 0.000000 -0.008957 0.000000
# 4 0.000000 0.000000 0.000000 0.041778 0.000000 0.025401
# 5 -0.006327 0.001367 -0.008957 0.000000 0.039415 0.000000
# 6 0.000000 0.000000 0.000000 0.025401 0.000000 -0.082882
#
#
# Mechanical properties :
#
#
# Convention : Reuss Voigt Hill
#
# Bulk Modulus (GPa) = 10.12855 19.69690 14.91272
# Shear Modulus (GPa) = 67.22209 23.90647 45.56428
#
# Velocity S-wave (km/s) = 5.33368 3.18074 4.39120
# Velocity P-wave (km/s) = 6.49748 4.67174 5.65873
#
# Compressibility (1/GPa) = 0.09873082
#
# Stress axis : x y z
#
# Youngs Moduli (GPa) = 46.91581 132.44632 23.76431
#
# Poissons Ratio (x) = -0.03123 -0.24920
# Poissons Ratio (y) = -0.01106 -0.07535
# Poissons Ratio (z) = -0.49197 -0.41998
#
# Static dielectric constant tensor:
#      x y z
#    x 2.029160 0.000000 0.058480 
#    y 0.000000 1.913720 0.000000 
#    z 0.058480 0.000000 1.548030 
# 
# From -- ./inp_files/176460.got.cif
#   From: 2010.05.17/outbox.cif.g08.bks.cpg/sg12_89_cif.got.tgz:176460.got - 2010.06.03 13:09:07.
