data_PCOD9216127
_publ_section_title
;
Structure prediction by ZEFSAII (Michael W. Deem and Ramdas Pophale) SiO2 
 PCOD9216127
Probable space group: C 2/M
;
_chemical_formula_sum "Si O2"
_cell_formula_units_Z 52
_cell_length_a 31.453197
_cell_length_b 8.562620
_cell_length_c 20.527149
_cell_angle_alpha 90.000000
_cell_angle_beta 26.664635
_cell_angle_gamma 90.000000
_cell_volume 2480.969875
_symmetry_space_group_name_H-M "C 2/M"
_symmetry_group_IT_number 12
_symmetry_cell_setting 'monoclinic'
loop_
_space_group_symop_operation_xyz
x,y,z
-x,y,-z
-x,-y,-z
x,-y,z
1/2+x,1/2+y,z
1/2-x,1/2+y,-z
1/2-x,1/2-y,-z
1/2+x,1/2-y,z
loop_
_atom_site_type_symbol
_atom_site_label
_atom_site_fract_x
_atom_site_fract_y
_atom_site_fract_z
Si Si1 0.085495 0.500000 0.721897
Si Si2 0.783678 0.000000 0.508846
Si Si3 0.966446 0.183263 0.862672
Si Si4 0.262722 0.500000 0.391693
Si Si5 0.303136 0.737167 0.592250
Si Si6 0.992185 0.815460 0.674610
Si Si7 0.773777 0.325970 0.163363
Si Si8 0.903051 0.313384 0.672028
O O1 0.168895 0.500000 0.662458
O O2 0.151148 0.500000 0.566666
O O3 0.029473 0.334436 0.799855
O O4 0.810819 0.000000 0.395966
O O5 0.819749 0.140700 0.502939
O O6 0.959830 0.199058 0.793308
O O7 0.994203 0.000000 0.837051
O O8 0.862935 0.213248 0.033748
O O9 0.273762 0.356483 0.329513
O O10 0.409558 0.780706 0.467677
O O11 0.258717 0.664917 0.717173
O O12 0.918118 0.754076 0.723602
O O13 0.013488 0.000000 0.632925
O O14 0.801143 0.500000 0.103628
O O15 0.685414 0.263965 0.242887
O O16 0.891348 0.500000 0.689576
O O17 0.000000 0.277127 0.500000
#
# Coordination Sequence:
#
# PCOD9216127 Si02
#       8
#     4   4   8   4   8   8   8   8
#     4  10  22  45  70  98 131 180 219 282 348 390
#     4  10  22  43  66 105 129 171 223 284 340 404
#     4  11  25  45  70  98 137 186 229 276 333 410
#     4  10  24  36  70  98 138 165 220 280 341 402
#     4  12  22  40  67 102 130 173 220 278 337 406
#     4  11  22  40  67  93 131 176 224 270 335 393
#     4  12  25  43  68  96 138 181 226 276 336 404
#     4  11  25  39  63  99 138 171 220 282 330 394
#
# _framework density 20.959544000000001
#
# number of rings (size 3 to 8) (size 9 to 14) (size 15 to 20)
#    0.462    0.462    5.385    1.385    4.308    1.231 
#    1.385    1.538    0.000    0.923    0.000    0.000 
#    0.000    0.000    0.000    0.000    0.000    0.000 
#
# Total GULP energy -144930.351785 kJ/mol
# GULP energy per Si atom -5574.244299 kJ/mol
# Density = 2.091184 g / cm^3
# Si number density = 20.959544 Si / 1000 Ang^3
#
#
#
# Elastic Constant Matrix: (Units=GPa)
#
#
# Indices 1 2 3 4 5 6 
#
# 1 136.5287 48.4679 35.7421 0.0014 -16.1462 -0.0009
# 2 48.4679 95.7296 16.2607 0.0057 -9.1707 -0.0023
# 3 35.7421 16.2607 73.5681 0.0076 -3.3186 -0.0038
# 4 0.0014 0.0057 0.0076 36.1528 -0.0020 -2.9360
# 5 -16.1462 -9.1707 -3.3186 -0.0020 25.2568 0.0009
# 6 -0.0009 -0.0023 -0.0038 -2.9360 0.0009 25.9658
#
#
#
# Elastic Compliance Matrix: (Units=1/GPa)
#
#
# Indices 1 2 3 4 5 6 
#
# 1 0.010364 -0.004141 -0.003912 0.000001 0.004608 -0.000001
# 2 -0.004141 0.012853 -0.000742 -0.000002 0.001922 0.000001
# 3 -0.003912 -0.000742 0.015625 -0.000003 -0.000717 0.000002
# 4 0.000001 -0.000002 -0.000003 0.027917 0.000002 0.003157
# 5 0.004608 0.001922 -0.000717 0.000002 0.043143 -0.000001
# 6 -0.000001 0.000001 0.000002 0.003157 -0.000001 0.038869
#
#
# Mechanical properties :
#
#
# Convention : Reuss Voigt Hill
#
# Bulk Modulus (GPa) = 47.05649 56.30754 51.68202
# Shear Modulus (GPa) = 28.82769 31.16545 29.99657
#
# Velocity S-wave (km/s) = 3.71266 3.86026 3.78718
# Velocity P-wave (km/s) = 6.39361 6.84047 6.62081
#
# Compressibility (1/GPa) = 0.02125105
#
# Stress axis : x y z
#
# Youngs Moduli (GPa) = 96.49151 77.80295 63.99977
#
# Poissons Ratio (x) = 0.32220 0.25036
# Poissons Ratio (y) = 0.39959 0.04750
# Poissons Ratio (z) = 0.37746 0.05775
#
# Static dielectric constant tensor:
#      x y z
#    x 1.695380 0.000000 -0.009280 
#    y 0.000000 1.730760 0.000000 
#    z -0.009280 0.000000 1.737870 
# 
# From -- ./inp_files/329291.got.cif
#   From: 2010.05.17/outbox.cif.g08.bks.cpg/sg12_165_cif.got.tgz:329291.got - 2010.06.03 13:09:07.
