data_PCOD9216436
_publ_section_title
;
Structure prediction by ZEFSAII (Michael W. Deem and Ramdas Pophale) SiO2 
 PCOD9216436
Probable space group: C 2/M
;
_chemical_formula_sum "Si O2"
_cell_formula_units_Z 48
_cell_length_a 7.398504
_cell_length_b 14.161137
_cell_length_c 17.871621
_cell_angle_alpha 90.000000
_cell_angle_beta 95.872168
_cell_angle_gamma 90.000000
_cell_volume 1862.606354
_symmetry_space_group_name_H-M "C 2/M"
_symmetry_group_IT_number 12
_symmetry_cell_setting 'monoclinic'
loop_
_space_group_symop_operation_xyz
x,y,z
-x,y,-z
-x,-y,-z
x,-y,z
1/2+x,1/2+y,z
1/2-x,1/2+y,-z
1/2-x,1/2-y,-z
1/2+x,1/2-y,z
loop_
_atom_site_type_symbol
_atom_site_label
_atom_site_fract_x
_atom_site_fract_y
_atom_site_fract_z
Si Si1 0.459792 0.388165 0.303785
Si Si2 0.941061 0.612635 0.168482
Si Si3 0.679339 0.166009 0.049648
Si Si4 0.403290 0.712993 0.560708
Si Si5 0.049343 0.610828 0.342455
Si Si6 0.034803 0.889197 0.142713
O O1 0.477630 0.500000 0.301741
O O2 0.610292 0.347633 0.365559
O O3 0.261835 0.369981 0.330629
O O4 0.476316 0.348671 0.220864
O O5 0.982342 0.500000 0.156920
O O6 0.085528 0.673703 0.127974
O O7 0.949770 0.623963 0.258340
O O8 0.740112 0.638693 0.131919
O O9 0.872038 0.118560 0.076992
O O10 0.500000 0.122637 0.000000
O O11 0.750000 0.250000 0.000000
O O12 0.500000 0.650941 0.500000
O O13 0.250000 0.750000 0.500000
O O14 0.493713 0.809814 0.597895
O O15 0.029275 0.500000 0.363545
O O16 0.058272 0.000000 0.156399
#
# Coordination Sequence:
#
# PCOD9216436 Si02
#       6
#     8   8   8   8   8   8
#     4  10  22  45  74 101 140 199 258 305 368 448
#     4  10  23  47  79 108 140 189 253 311 366 443
#     4  12  29  47  70 106 153 189 233 299 380 455
#     4  12  26  42  62 105 153 193 243 307 378 442
#     4  10  22  45  73 102 140 196 253 308 373 444
#     4  10  23  47  79 109 140 191 255 312 367 440
#
# _framework density 25.770339
#
# number of rings (size 3 to 8) (size 9 to 14) (size 15 to 20)
#    0.000    1.333    3.333    0.500    4.667    4.000 
#    0.000    1.667    0.000    0.000    0.000    0.000 
#    0.000    0.000    0.000    0.000    0.000    0.000 
#
# Total GULP energy -133977.334865 kJ/mol
# GULP energy per Si atom -5582.388953 kJ/mol
# Density = 2.571169 g / cm^3
# Si number density = 25.770339 Si / 1000 Ang^3
#
#
#
# Elastic Constant Matrix: (Units=GPa)
#
#
# Indices 1 2 3 4 5 6 
#
# 1 141.9746 28.0004 45.9991 0.0000 20.4249 0.0000
# 2 28.0004 82.9106 41.3618 0.0000 -20.7400 0.0000
# 3 45.9991 41.3618 143.5259 0.0000 1.9051 0.0000
# 4 0.0000 0.0000 0.0000 -6.8005 0.0000 26.8415
# 5 20.4249 -20.7400 1.9051 0.0000 48.1943 0.0000
# 6 0.0000 0.0000 0.0000 26.8415 0.0000 13.0321
#
#
#
# Elastic Compliance Matrix: (Units=1/GPa)
#
#
# Indices 1 2 3 4 5 6 
#
# 1 0.009082 -0.003466 -0.001842 0.000000 -0.005267 0.000000
# 2 -0.003466 0.017561 -0.004072 0.000000 0.009187 0.000000
# 3 -0.001842 -0.004072 0.008749 0.000000 -0.001318 0.000000
# 4 0.000000 0.000000 0.000000 -0.016107 0.000000 0.033175
# 5 -0.005267 0.009187 -0.001318 0.000000 0.026987 0.000000
# 6 0.000000 0.000000 0.000000 0.033175 0.000000 0.008405
#
#
# Mechanical properties :
#
#
# Convention : Reuss Voigt Hill
#
# Bulk Modulus (GPa) = 60.12489 66.57040 63.34764
# Shear Modulus (GPa) = 63.30687 27.75517 45.53102
#
# Velocity S-wave (km/s) = 4.96177 3.28536 4.20789
# Velocity P-wave (km/s) = 7.49714 6.34663 6.94575
#
# Compressibility (1/GPa) = 0.01663205
#
# Stress axis : x y z
#
# Youngs Moduli (GPa) = 110.11282 56.94363 114.30292
#
# Poissons Ratio (x) = 0.19736 0.21053
# Poissons Ratio (y) = 0.38163 0.46545
# Poissons Ratio (z) = 0.20281 0.23188
#
# Static dielectric constant tensor:
#      x y z
#    x 2.330860 0.000000 -0.089890 
#    y 0.000000 2.110080 0.000000 
#    z -0.089890 0.000000 2.022250 
# 
# From -- ./inp_files/261770.got.cif
#   From: 2010.05.17/outbox.cif.g08.bks.cpg/sg12_131_cif.got.tgz:261770.got - 2010.06.03 13:09:07.
