data_PCOD9216145
_publ_section_title
;
Structure prediction by ZEFSAII (Michael W. Deem and Ramdas Pophale) SiO2 
 PCOD9216145
Probable space group: C 2/M
;
_chemical_formula_sum "Si O2"
_cell_formula_units_Z 64
_cell_length_a 24.171535
_cell_length_b 23.307783
_cell_length_c 18.643470
_cell_angle_alpha 90.000000
_cell_angle_beta 162.762965
_cell_angle_gamma 90.000000
_cell_volume 3112.439496
_symmetry_space_group_name_H-M "C 2/M"
_symmetry_group_IT_number 12
_symmetry_cell_setting 'monoclinic'
loop_
_space_group_symop_operation_xyz
x,y,z
-x,y,-z
-x,-y,-z
x,-y,z
1/2+x,1/2+y,z
1/2-x,1/2+y,-z
1/2-x,1/2-y,-z
1/2+x,1/2-y,z
loop_
_atom_site_type_symbol
_atom_site_label
_atom_site_fract_x
_atom_site_fract_y
_atom_site_fract_z
Si Si1 0.805508 0.159375 0.728109
Si Si2 0.057844 0.219076 0.784370
Si Si3 0.810353 0.126840 0.505850
Si Si4 0.538721 0.235742 0.177022
Si Si5 0.669919 0.431014 0.615069
Si Si6 0.132147 0.568008 0.414921
Si Si7 0.247342 0.430531 0.127727
Si Si8 0.853024 0.244885 0.381906
O O1 0.692589 0.108263 0.553984
O O2 0.689475 0.189853 0.647286
O O3 0.863655 0.209465 0.742151
O O4 0.000000 0.137903 0.000000
O O5 0.004505 0.250775 0.793220
O O6 0.020303 0.152924 0.761380
O O7 0.935855 0.220786 0.559227
O O8 0.250000 0.250000 0.000000
O O9 0.675615 0.181761 0.346260
O O10 0.758247 0.095250 0.368391
O O11 0.772326 0.084205 0.523890
O O12 0.348501 0.223948 0.896695
O O13 0.677231 0.500000 0.620433
O O14 0.452696 0.413581 0.356350
O O15 0.772787 0.412185 0.814741
O O16 0.132395 0.500000 0.428807
O O17 0.926209 0.587312 0.134296
O O18 0.247478 0.500000 0.128371
O O19 0.000000 0.238312 0.500000
#
# Coordination Sequence:
#
# PCOD9216145 Si02
#       8
#     8   8   8   8   8   8   8   8
#     4  10  22  43  67  87 128 170 208 275 329 377
#     4  12  24  41  63  89 127 172 211 257 320 389
#     4  12  24  38  62  94 131 166 207 265 317 381
#     4  11  23  44  63  92 131 169 215 259 327 388
#     4   9  19  39  60  87 127 172 210 252 313 377
#     4  11  23  40  66  96 121 162 220 271 324 383
#     4   8  18  39  61  83 125 170 210 255 310 376
#     4  11  23  42  65  93 130 173 218 260 319 393
#
# _framework density 20.562649
#
# number of rings (size 3 to 8) (size 9 to 14) (size 15 to 20)
#    0.000    1.500    3.750    2.250    0.000    4.750 
#    2.250    1.875    0.000    0.375    0.000    0.000 
#    0.000    0.000    0.000    0.000    0.000    0.000 
#
# Total GULP energy -178660.507384 kJ/mol
# GULP energy per Si atom -5583.140856 kJ/mol
# Density = 2.051585 g / cm^3
# Si number density = 20.562649 Si / 1000 Ang^3
#
#
#
# Elastic Constant Matrix: (Units=GPa)
#
#
# Indices 1 2 3 4 5 6 
#
# 1 88.9998 13.8230 3.9520 -0.0001 -3.5173 -0.0002
# 2 13.8230 74.1546 29.5547 -0.0001 -2.0153 -0.0001
# 3 3.9520 29.5547 81.2030 -0.0002 -7.5960 -0.0006
# 4 -0.0001 -0.0001 -0.0002 22.7396 0.0001 -4.6097
# 5 -3.5173 -2.0153 -7.5960 0.0001 25.2520 -0.0001
# 6 -0.0002 -0.0001 -0.0006 -4.6097 -0.0001 34.7269
#
#
#
# Elastic Compliance Matrix: (Units=1/GPa)
#
#
# Indices 1 2 3 4 5 6 
#
# 1 0.011635 -0.002291 0.000414 0.000000 0.001562 0.000000
# 2 -0.002291 0.016230 -0.005870 0.000000 -0.000789 0.000000
# 3 0.000414 -0.005870 0.014809 0.000000 0.004044 0.000000
# 4 0.000000 0.000000 0.000000 0.045192 0.000000 0.005999
# 5 0.001562 -0.000789 0.004044 0.000000 0.040972 0.000000
# 6 0.000000 0.000000 0.000000 0.005999 0.000000 0.029592
#
#
# Mechanical properties :
#
#
# Convention : Reuss Voigt Hill
#
# Bulk Modulus (GPa) = 36.79083 37.66852 37.22967
# Shear Modulus (GPa) = 27.32456 29.67890 28.50173
#
# Velocity S-wave (km/s) = 3.64929 3.80325 3.72707
# Velocity P-wave (km/s) = 5.97388 6.13555 6.05526
#
# Compressibility (1/GPa) = 0.02718069
#
# Stress axis : x y z
#
# Youngs Moduli (GPa) = 85.94588 61.61302 67.52540
#
# Poissons Ratio (x) = 0.14118 -0.02795
# Poissons Ratio (y) = 0.19693 0.39634
# Poissons Ratio (z) = -0.03557 0.36164
#
# Static dielectric constant tensor:
#      x y z
#    x 1.746260 0.000000 0.019590 
#    y 0.000000 1.745910 0.000000 
#    z 0.019590 0.000000 1.785340 
# 
# From -- ./inp_files/290961.got.cif
#   From: 2010.05.17/outbox.cif.g08.bks.cpg/sg12_146_cif.got.tgz:290961.got - 2010.06.03 13:09:07.
