data_PCOD9216360
_publ_section_title
;
Structure prediction by ZEFSAII (Michael W. Deem and Ramdas Pophale) SiO2 
 PCOD9216360
Probable space group: C 2/M
;
_chemical_formula_sum "Si O2"
_cell_formula_units_Z 34
_cell_length_a 19.744535
_cell_length_b 7.961473
_cell_length_c 18.626826
_cell_angle_alpha 90.000000
_cell_angle_beta 29.557811
_cell_angle_gamma 90.000000
_cell_volume 1444.413780
_symmetry_space_group_name_H-M "C 2/M"
_symmetry_group_IT_number 12
_symmetry_cell_setting 'monoclinic'
loop_
_space_group_symop_operation_xyz
x,y,z
-x,y,-z
-x,-y,-z
x,-y,z
1/2+x,1/2+y,z
1/2-x,1/2+y,-z
1/2-x,1/2-y,-z
1/2+x,1/2-y,z
loop_
_atom_site_type_symbol
_atom_site_label
_atom_site_fract_x
_atom_site_fract_y
_atom_site_fract_z
Si Si1 0.392567 0.797058 0.664399
Si Si2 0.896218 0.298646 0.830239
Si Si3 0.140513 0.683306 0.812388
Si Si4 0.826289 0.189591 0.360103
Si Si5 0.500000 0.500000 0.000000
O O1 0.500000 0.759660 0.500000
O O2 0.418159 0.755672 0.724875
O O3 0.250410 0.708418 0.773765
O O4 0.369117 0.000000 0.683100
O O5 0.911782 0.500000 0.820865
O O6 0.014069 0.212866 0.768718
O O7 0.750000 0.250000 0.000000
O O8 0.075106 0.500000 0.872110
O O9 0.218090 0.700209 0.665952
O O10 0.045271 0.847838 0.902895
O O11 0.750000 0.250000 0.500000
O O12 0.786524 0.000000 0.381444
#
# Coordination Sequence:
#
# PCOD9216360 Si02
#       5
#     8   8   8   8   2
#     4  10  22  44  70  98 137 182 228 288 349 412
#     4  11  25  42  67 101 140 181 228 287 355 414
#     4  12  26  44  73 103 137 185 235 285 348 416
#     4  12  25  46  71 102 143 185 235 292 349 419
#     4  12  26  48  66 102 144 180 236 290 344 406
#
# _framework density 23.538962999999999
#
# number of rings (size 3 to 8) (size 9 to 14) (size 15 to 20)
#    0.000    0.706    2.353    4.588    3.294    4.235 
#    0.000    0.000    0.000    0.000    0.000    0.000 
#    0.000    0.000    0.000    0.000    0.000    0.000 
#
# Total GULP energy -94753.101858 kJ/mol
# GULP energy per Si atom -5573.711874 kJ/mol
# Density = 2.348539 g / cm^3
# Si number density = 23.538963 Si / 1000 Ang^3
#
#
#
# Elastic Constant Matrix: (Units=GPa)
#
#
# Indices 1 2 3 4 5 6 
#
# 1 88.6951 12.9964 -3.4034 0.0000 21.4716 0.0000
# 2 12.9964 157.9365 25.7248 0.0000 15.2908 0.0000
# 3 -3.4034 25.7248 87.8897 0.0000 14.3451 0.0000
# 4 0.0000 0.0000 0.0000 2.2450 0.0000 14.6432
# 5 21.4716 15.2908 14.3451 0.0000 40.3150 0.0000
# 6 0.0000 0.0000 0.0000 14.6432 0.0000 26.4855
#
#
#
# Elastic Compliance Matrix: (Units=1/GPa)
#
#
# Indices 1 2 3 4 5 6 
#
# 1 0.013263 -0.000681 0.001936 0.000000 -0.007494 0.000000
# 2 -0.000681 0.006830 -0.001764 0.000000 -0.001600 0.000000
# 3 0.001936 -0.001764 0.012770 0.000000 -0.004906 0.000000
# 4 0.000000 0.000000 0.000000 -0.170917 0.000000 0.094495
# 5 -0.007494 -0.001600 -0.004906 0.000000 0.031149 0.000000
# 6 0.000000 0.000000 0.000000 0.094495 0.000000 -0.014488
#
#
# Mechanical properties :
#
#
# Convention : Reuss Voigt Hill
#
# Bulk Modulus (GPa) = 31.40285 45.01743 38.21014
# Shear Modulus (GPa) = -45.55430 33.75600 -5.89915
#
# Velocity S-wave (km/s) = -4.40395 3.79099 -1.58479
# Velocity P-wave (km/s) = 3.53410 6.19099 3.59433
#
# Compressibility (1/GPa) = 0.03184424
#
# Stress axis : x y z
#
# Youngs Moduli (GPa) = 75.39799 146.41319 78.30847
#
# Poissons Ratio (x) = 0.09973 -0.15162
# Poissons Ratio (y) = 0.05136 0.13816
# Poissons Ratio (z) = -0.14598 0.25832
#
# Static dielectric constant tensor:
#      x y z
#    x 1.868800 0.000000 -0.033000 
#    y 0.000000 1.751960 0.000000 
#    z -0.033000 0.000000 2.109270 
# 
# From -- ./inp_files/281984.got.cif
#   From: 2010.05.17/outbox.cif.g08.bks.cpg/sg12_141_cif.got.tgz:281984.got - 2010.06.03 13:09:07.
