data_PCOD9216262
_publ_section_title
;
Structure prediction by ZEFSAII (Michael W. Deem and Ramdas Pophale) SiO2 
 PCOD9216262
Probable space group: C 2/M
;
_chemical_formula_sum "Si O2"
_cell_formula_units_Z 32
_cell_length_a 17.218980
_cell_length_b 16.027607
_cell_length_c 12.441185
_cell_angle_alpha 90.000000
_cell_angle_beta 160.566597
_cell_angle_gamma 90.000000
_cell_volume 1142.365217
_symmetry_space_group_name_H-M "C 2/M"
_symmetry_group_IT_number 12
_symmetry_cell_setting 'monoclinic'
loop_
_space_group_symop_operation_xyz
x,y,z
-x,y,-z
-x,-y,-z
x,-y,z
1/2+x,1/2+y,z
1/2-x,1/2+y,-z
1/2-x,1/2-y,-z
1/2+x,1/2-y,z
loop_
_atom_site_type_symbol
_atom_site_label
_atom_site_fract_x
_atom_site_fract_y
_atom_site_fract_z
Si Si1 0.301990 0.909163 0.334532
Si Si2 0.508221 0.594247 0.758221
Si Si3 0.763094 0.590837 0.795636
Si Si4 0.023890 0.725484 0.273890
O O1 0.500000 0.910690 0.500000
O O2 0.374026 0.831570 0.498974
O O3 0.314503 0.000000 0.405071
O O4 0.056931 0.903735 0.949688
O O5 0.601794 0.500000 0.851794
O O6 0.271417 0.596265 0.378659
O O7 0.598027 0.687733 0.848027
O O8 0.500000 0.589310 0.500000
O O9 0.866634 0.500000 0.957203
O O10 0.875870 0.668430 0.000819
O O11 0.250000 0.750000 0.500000
#
# Coordination Sequence:
#
# PCOD9216262 Si02
#       4
#     8   8   8   8
#     4  10  22  43  71 102 138 185 246 314 377 440
#     4  10  23  40  61  94 136 186 243 299 362 437
#     4  10  22  43  71 102 138 185 246 314 377 440
#     4  12  26  42  65 104 147 191 239 301 384 457
#
# _framework density 28.012056999999999
#
# number of rings (size 3 to 8) (size 9 to 14) (size 15 to 20)
#    0.000    1.500    0.000    3.750    0.000   16.000 
#    0.000    5.000    0.000    0.000    0.000    0.000 
#    0.000    0.000    0.000    0.000    0.000    0.000 
#
# Total GULP energy -89458.840382 kJ/mol
# GULP energy per Si atom -5591.177524 kJ/mol
# Density = 2.794830 g / cm^3
# Si number density = 28.012057 Si / 1000 Ang^3
#
#
#
# Elastic Constant Matrix: (Units=GPa)
#
#
# Indices 1 2 3 4 5 6 
#
# 1 98.2951 69.8872 53.3847 0.0000 -15.9327 0.0000
# 2 69.8872 343.4680 94.3047 0.0000 -36.8402 0.0000
# 3 53.3847 94.3047 137.8121 0.0000 -43.6879 0.0000
# 4 0.0000 0.0000 0.0000 72.5998 0.0000 -14.6232
# 5 -15.9327 -36.8402 -43.6879 0.0000 69.6099 0.0000
# 6 0.0000 0.0000 0.0000 -14.6232 0.0000 62.9080
#
#
#
# Elastic Compliance Matrix: (Units=1/GPa)
#
#
# Indices 1 2 3 4 5 6 
#
# 1 0.013593 -0.001637 -0.004287 0.000000 -0.000445 0.000000
# 2 -0.001637 0.003793 -0.001803 0.000000 0.000502 0.000000
# 3 -0.004287 -0.001803 0.011906 0.000000 0.005537 0.000000
# 4 0.000000 0.000000 0.000000 0.014451 0.000000 0.003359
# 5 -0.000445 0.000502 0.005537 0.000000 0.018004 0.000000
# 6 0.000000 0.000000 0.000000 0.003359 0.000000 0.016677
#
#
# Mechanical properties :
#
#
# Convention : Reuss Voigt Hill
#
# Bulk Modulus (GPa) = 72.25615 112.74758 92.50186
# Shear Modulus (GPa) = 50.76666 65.15678 57.96172
#
# Velocity S-wave (km/s) = 4.26175 4.82812 4.55375
# Velocity P-wave (km/s) = 7.07583 8.45092 7.79376
#
# Compressibility (1/GPa) = 0.01383965
#
# Stress axis : x y z
#
# Youngs Moduli (GPa) = 73.56675 263.62577 83.99306
#
# Poissons Ratio (x) = 0.43145 0.36007
# Poissons Ratio (y) = 0.12040 0.15142
# Poissons Ratio (z) = 0.31537 0.47525
#
# Static dielectric constant tensor:
#      x y z
#    x 2.368680 0.000000 0.153510 
#    y 0.000000 2.099430 0.000000 
#    z 0.153510 0.000000 2.266940 
# 
# From -- ./inp_files/233931.got.cif
#   From: 2010.05.17/outbox.cif.g08.bks.cpg/sg12_117_cif.got.tgz:233931.got - 2010.06.03 13:09:07.
