data_PCOD9216819
_publ_section_title
;
Structure prediction by ZEFSAII (Michael W. Deem and Ramdas Pophale) SiO2 
 PCOD9216819
Probable space group: C 2/M
;
_chemical_formula_sum "Si O2"
_cell_formula_units_Z 40
_cell_length_a 9.527717
_cell_length_b 25.881756
_cell_length_c 8.768954
_cell_angle_alpha 90.000000
_cell_angle_beta 64.180602
_cell_angle_gamma 90.000000
_cell_volume 1946.505229
_symmetry_space_group_name_H-M "C 2/M"
_symmetry_group_IT_number 12
_symmetry_cell_setting 'monoclinic'
loop_
_space_group_symop_operation_xyz
x,y,z
-x,y,-z
-x,-y,-z
x,-y,z
1/2+x,1/2+y,z
1/2-x,1/2+y,-z
1/2-x,1/2-y,-z
1/2+x,1/2-y,z
loop_
_atom_site_type_symbol
_atom_site_label
_atom_site_fract_x
_atom_site_fract_y
_atom_site_fract_z
Si Si1 0.837381 0.060204 0.670344
Si Si2 0.245615 0.831250 0.817744
Si Si3 0.452461 0.869747 0.198737
Si Si4 0.730522 0.723853 0.341535
Si Si5 0.443405 0.650116 0.791833
O O1 0.683594 0.090797 0.685203
O O2 0.880454 0.092278 0.800666
O O3 0.000000 0.065099 0.500000
O O4 0.803650 0.000000 0.705509
O O5 0.393335 0.867882 0.772001
O O6 0.291790 0.773686 0.752225
O O7 0.124545 0.849513 0.746010
O O8 0.151258 0.827996 0.020319
O O9 0.382174 0.811693 0.241212
O O10 0.500000 0.880283 0.000000
O O11 0.750000 0.750000 0.500000
O O12 0.601484 0.683979 0.334158
#
# Coordination Sequence:
#
# PCOD9216819 Si02
#       5
#     8   8   8   8   8
#     4  10  23  46  72  95 128 171 218 284 353 408
#     4  11  22  39  64  97 139 176 216 279 322 393
#     4  11  23  43  67  97 131 174 231 270 321 399
#     4  11  24  39  61  97 140 186 218 262 325 403
#     4  10  23  40  64  97 135 176 221 270 339 399
#
# _framework density 20.54965
#
# number of rings (size 3 to 8) (size 9 to 14) (size 15 to 20)
#    0.000    1.400    4.000    1.800    8.400    2.800 
#    0.000    3.000    0.000    2.400    0.000    0.000 
#    0.000    0.000    0.000    0.000    0.000    0.000 
#
# Total GULP energy -111494.420989 kJ/mol
# GULP energy per Si atom -5574.721049 kJ/mol
# Density = 2.050288 g / cm^3
# Si number density = 20.549650 Si / 1000 Ang^3
#
#
#
# Elastic Constant Matrix: (Units=GPa)
#
#
# Indices 1 2 3 4 5 6 
#
# 1 205.4112 63.0596 27.9306 0.0000 10.4836 0.0000
# 2 63.0596 128.1716 38.1505 0.0000 -2.2507 0.0000
# 3 27.9306 38.1505 83.5147 0.0000 -0.1376 0.0000
# 4 0.0000 0.0000 0.0000 15.6311 0.0000 -6.3561
# 5 10.4836 -2.2507 -0.1376 0.0000 24.9450 0.0000
# 6 0.0000 0.0000 0.0000 -6.3561 0.0000 11.7863
#
#
#
# Elastic Compliance Matrix: (Units=1/GPa)
#
#
# Indices 1 2 3 4 5 6 
#
# 1 0.005956 -0.002760 -0.000736 0.000000 -0.002756 0.000000
# 2 -0.002760 0.010324 -0.003790 0.000000 0.002070 0.000000
# 3 -0.000736 -0.003790 0.013951 0.000000 0.000044 0.000000
# 4 0.000000 0.000000 0.000000 0.081945 0.000000 0.044191
# 5 -0.002756 0.002070 0.000044 0.000000 0.041434 0.000000
# 6 0.000000 0.000000 0.000000 0.044191 0.000000 0.108676
#
#
# Mechanical properties :
#
#
# Convention : Reuss Voigt Hill
#
# Bulk Modulus (GPa) = 63.85336 75.04212 69.44774
# Shear Modulus (GPa) = 17.72563 29.66960 23.69761
#
# Velocity S-wave (km/s) = 2.94015 3.80386 3.39955
# Velocity P-wave (km/s) = 6.53193 7.47591 7.01981
#
# Compressibility (1/GPa) = 0.01566088
#
# Stress axis : x y z
#
# Youngs Moduli (GPa) = 167.89080 96.85924 71.67768
#
# Poissons Ratio (x) = 0.26731 0.05274
# Poissons Ratio (y) = 0.46335 0.27165
# Poissons Ratio (z) = 0.12354 0.36708
#
# Static dielectric constant tensor:
#      x y z
#    x 1.835630 0.000000 -0.041170 
#    y 0.000000 1.699620 0.000000 
#    z -0.041170 0.000000 1.785730 
# 
# From -- ./inp_files/40338.got.cif
#   From: 2010.05.17/outbox.cif.g08.bks.cpg/sg12_21_cif.got.tgz:40338.got - 2010.06.03 13:09:07.
