data_PCOD9216714
_publ_section_title
;
Structure prediction by ZEFSAII (Michael W. Deem and Ramdas Pophale) SiO2 
 PCOD9216714
Probable space group: C 2/M
;
_chemical_formula_sum "Si O2"
_cell_formula_units_Z 42
_cell_length_a 14.112488
_cell_length_b 17.163103
_cell_length_c 7.509667
_cell_angle_alpha 90.000000
_cell_angle_beta 94.467732
_cell_angle_gamma 90.000000
_cell_volume 1813.420001
_symmetry_space_group_name_H-M "C 2/M"
_symmetry_group_IT_number 12
_symmetry_cell_setting 'monoclinic'
loop_
_space_group_symop_operation_xyz
x,y,z
-x,y,-z
-x,-y,-z
x,-y,z
1/2+x,1/2+y,z
1/2-x,1/2+y,-z
1/2-x,1/2-y,-z
1/2+x,1/2-y,z
loop_
_atom_site_type_symbol
_atom_site_label
_atom_site_fract_x
_atom_site_fract_y
_atom_site_fract_z
Si Si1 0.815582 0.639463 0.336478
Si Si2 0.744609 0.590290 0.698357
Si Si3 0.083821 0.206217 0.745739
Si Si4 0.500000 0.500000 0.000000
Si Si5 0.396450 0.088601 0.994960
Si Si6 0.392075 0.657530 0.853251
O O1 0.802179 0.601153 0.525204
O O2 0.878610 0.717198 0.344240
O O3 0.710109 0.658337 0.250487
O O4 0.863642 0.587336 0.192657
O O5 0.723402 0.500000 0.730933
O O6 0.645301 0.634979 0.678570
O O7 0.812271 0.623482 0.863909
O O8 0.971790 0.191226 0.731669
O O9 0.108685 0.205590 0.961613
O O10 0.428064 0.570351 0.913310
O O11 0.407008 0.000000 0.926482
O O12 0.500000 0.126817 0.000000
#
# Coordination Sequence:
#
# PCOD9216714 Si02
#       6
#     8   8   8   2   8   8
#     4  12  24  42  71  98 136 177 231 280 347 404
#     4  11  25  43  67 101 133 175 229 282 341 414
#     4  10  23  42  65  99 140 174 225 279 341 405
#     4   8  20  36  64 102 138 170 224 268 326 416
#     4  10  24  43  67  95 131 179 225 282 345 402
#     4  10  23  39  72 102 134 184 226 273 346 408
#
# _framework density 23.160657
#
# number of rings (size 3 to 8) (size 9 to 14) (size 15 to 20)
#    0.000    1.714    1.905    1.714   10.667    1.524 
#    0.000    5.714    0.000    0.000    0.000    0.000 
#    0.000    0.000    0.000    0.000    0.000    0.000 
#
# Total GULP energy -117243.298534 kJ/mol
# GULP energy per Si atom -5583.014216 kJ/mol
# Density = 2.310794 g / cm^3
# Si number density = 23.160657 Si / 1000 Ang^3
#
#
#
# Elastic Constant Matrix: (Units=GPa)
#
#
# Indices 1 2 3 4 5 6 
#
# 1 94.6708 24.5336 17.0407 0.0000 -31.5077 0.0000
# 2 24.5336 56.5791 -3.4149 0.0000 4.2757 0.0000
# 3 17.0407 -3.4149 91.6492 0.0000 -18.8295 0.0000
# 4 0.0000 0.0000 0.0000 31.0663 0.0000 -12.1426
# 5 -31.5077 4.2757 -18.8295 0.0000 28.5377 0.0000
# 6 0.0000 0.0000 0.0000 -12.1426 0.0000 13.1439
#
#
#
# Elastic Compliance Matrix: (Units=1/GPa)
#
#
# Indices 1 2 3 4 5 6 
#
# 1 0.022505 -0.011759 0.000977 0.000000 0.027253 0.000000
# 2 -0.011759 0.024022 -0.000376 0.000000 -0.016830 0.000000
# 3 0.000977 -0.000376 0.012666 0.000000 0.009492 0.000000
# 4 0.000000 0.000000 0.000000 0.050381 0.000000 0.046543
# 5 0.027253 -0.016830 0.009492 0.000000 0.073915 0.000000
# 6 0.000000 0.000000 0.000000 0.046543 0.000000 0.119078
#
#
# Mechanical properties :
#
#
# Convention : Reuss Voigt Hill
#
# Bulk Modulus (GPa) = 27.11835 35.46867 31.29351
# Shear Modulus (GPa) = 14.82908 28.19890 21.51399
#
# Velocity S-wave (km/s) = 2.53310 3.49310 3.05110
# Velocity P-wave (km/s) = 4.50441 5.62285 5.09442
#
# Compressibility (1/GPa) = 0.03687540
#
# Stress axis : x y z
#
# Youngs Moduli (GPa) = 44.43553 41.62794 78.95385
#
# Poissons Ratio (x) = 0.48950 -0.07711
# Poissons Ratio (y) = 0.52251 0.02971
# Poissons Ratio (z) = -0.04340 0.01567
#
# Static dielectric constant tensor:
#      x y z
#    x 1.887950 0.000000 0.012160 
#    y 0.000000 1.878810 0.000000 
#    z 0.012160 0.000000 1.870820 
# 
# From -- ./inp_files/61002.got.cif
#   From: 2010.05.17/outbox.cif.g08.bks.cpg/sg12_31_cif.got.tgz:61002.got - 2010.06.03 13:09:07.
