data_PCOD9216197
_publ_section_title
;
Structure prediction by ZEFSAII (Michael W. Deem and Ramdas Pophale) SiO2 
 PCOD9216197
Probable space group: C 2/M
;
_chemical_formula_sum "Si O2"
_cell_formula_units_Z 56
_cell_length_a 12.192080
_cell_length_b 32.794405
_cell_length_c 14.336767
_cell_angle_alpha 90.000000
_cell_angle_beta 29.417939
_cell_angle_gamma 90.000000
_cell_volume 2815.570255
_symmetry_space_group_name_H-M "C 2/M"
_symmetry_group_IT_number 12
_symmetry_cell_setting 'monoclinic'
loop_
_space_group_symop_operation_xyz
x,y,z
-x,y,-z
-x,-y,-z
x,-y,z
1/2+x,1/2+y,z
1/2-x,1/2+y,-z
1/2-x,1/2-y,-z
1/2+x,1/2-y,z
loop_
_atom_site_type_symbol
_atom_site_label
_atom_site_fract_x
_atom_site_fract_y
_atom_site_fract_z
Si Si1 0.189030 0.895252 0.937960
Si Si2 0.925235 0.164353 0.457850
Si Si3 0.254001 0.547212 0.729337
Si Si4 0.583742 0.048242 0.660049
Si Si5 0.531953 0.413139 0.261268
Si Si6 0.742430 0.770781 0.864695
Si Si7 0.089792 0.310235 0.170555
O O1 0.387249 0.925620 0.761459
O O2 0.289926 0.850457 0.880724
O O3 0.098307 0.911017 0.104912
O O4 0.000000 0.894009 0.000000
O O5 0.671606 0.179692 0.647143
O O6 0.000000 0.144144 0.500000
O O7 0.958248 0.131313 0.352524
O O8 0.096046 0.201503 0.316912
O O9 0.500000 0.547182 0.500000
O O10 0.200206 0.500000 0.788685
O O11 0.104940 0.562197 0.753244
O O12 0.275462 0.571625 0.809620
O O13 0.819209 0.057812 0.436687
O O14 0.542799 0.000000 0.689955
O O15 0.864256 0.728447 0.797437
O O16 0.500000 0.763124 0.000000
O O17 0.694130 0.796169 0.994850
#
# Coordination Sequence:
#
# PCOD9216197 Si02
#       7
#     8   8   8   8   8   8   8
#     4  12  27  45  63  91 129 180 228 267 315 389
#     4  12  22  39  68 104 130 165 213 272 330 394
#     4   8  16  34  62  95 126 157 196 253 330 389
#     4  10  22  43  68  96 130 167 213 276 331 386
#     4  11  22  39  66  97 131 169 210 266 334 387
#     4  11  23  42  67  96 130 172 213 268 326 384
#     4  11  24  44  64  91 136 171 218 266 323 385
#
# _framework density 19.889398
#
# number of rings (size 3 to 8) (size 9 to 14) (size 15 to 20)
#    0.000    1.286    4.286    3.429    0.000    2.571 
#    0.000    2.143    0.000    0.000    0.000    0.000 
#    0.000    0.000    0.000    0.000    0.000    0.000 
#
# Total GULP energy -156510.062836 kJ/mol
# GULP energy per Si atom -5589.645101 kJ/mol
# Density = 1.984413 g / cm^3
# Si number density = 19.889398 Si / 1000 Ang^3
#
#
#
# Elastic Constant Matrix: (Units=GPa)
#
#
# Indices 1 2 3 4 5 6 
#
# 1 90.7453 26.2945 23.1326 0.0000 -25.9095 0.0000
# 2 26.2945 78.8026 14.4242 0.0000 -16.8865 0.0000
# 3 23.1326 14.4242 57.2077 0.0002 -13.4039 -0.0001
# 4 0.0000 0.0000 0.0002 -87.3348 -0.0001 34.6692
# 5 -25.9095 -16.8865 -13.4039 -0.0001 40.7064 0.0000
# 6 0.0000 0.0000 -0.0001 34.6692 0.0000 13.2707
#
#
#
# Elastic Compliance Matrix: (Units=1/GPa)
#
#
# Indices 1 2 3 4 5 6 
#
# 1 0.014754 -0.002748 -0.003619 0.000000 0.007059 0.000000
# 2 -0.002748 0.014735 -0.001714 0.000000 0.003799 0.000000
# 3 -0.003619 -0.001714 0.020230 0.000000 0.003647 0.000000
# 4 0.000000 0.000000 0.000000 -0.005621 0.000000 0.014684
# 5 0.007059 0.003799 0.003647 0.000000 0.031836 0.000000
# 6 0.000000 0.000000 0.000000 0.014684 0.000000 0.036991
#
#
# Mechanical properties :
#
#
# Convention : Reuss Voigt Hill
#
# Bulk Modulus (GPa) = 29.79985 39.38426 34.59206
# Shear Modulus (GPa) = 35.64461 4.18874 19.91668
#
# Velocity S-wave (km/s) = 4.23796 1.45279 3.16788
# Velocity P-wave (km/s) = 6.24199 4.76012 5.55073
#
# Compressibility (1/GPa) = 0.03355721
#
# Stress axis : x y z
#
# Youngs Moduli (GPa) = 67.77687 67.86720 49.43102
#
# Poissons Ratio (x) = 0.18650 0.17890
# Poissons Ratio (y) = 0.18625 0.08472
# Poissons Ratio (z) = 0.24530 0.11632
#
# Static dielectric constant tensor:
#      x y z
#    x 1.696590 0.000000 0.004920 
#    y 0.000000 1.684950 0.000000 
#    z 0.004920 0.000000 1.701030 
# 
# From -- ./inp_files/209976.got.cif
#   From: 2010.05.17/outbox.cif.g08.bks.cpg/sg12_105_cif.got.tgz:209976.got - 2010.06.03 13:09:07.
