data_PCOD9216631
_publ_section_title
;
Structure prediction by ZEFSAII (Michael W. Deem and Ramdas Pophale) SiO2 
 PCOD9216631
Probable space group: C 2/M
;
_chemical_formula_sum "Si O2"
_cell_formula_units_Z 40
_cell_length_a 13.911264
_cell_length_b 12.229118
_cell_length_c 15.608418
_cell_angle_alpha 90.000000
_cell_angle_beta 64.974537
_cell_angle_gamma 90.000000
_cell_volume 2406.059008
_symmetry_space_group_name_H-M "C 2/M"
_symmetry_group_IT_number 12
_symmetry_cell_setting 'monoclinic'
loop_
_space_group_symop_operation_xyz
x,y,z
-x,y,-z
-x,-y,-z
x,-y,z
1/2+x,1/2+y,z
1/2-x,1/2+y,-z
1/2-x,1/2-y,-z
1/2+x,1/2-y,z
loop_
_atom_site_type_symbol
_atom_site_label
_atom_site_fract_x
_atom_site_fract_y
_atom_site_fract_z
Si Si1 0.324487 0.273140 0.391161
Si Si2 0.609187 0.500000 0.562641
Si Si3 0.926381 0.370788 0.108331
Si Si4 0.020839 0.629900 0.262276
Si Si5 0.359647 0.500000 0.641057
Si Si6 0.781396 0.227445 0.747466
O O1 0.250000 0.250000 0.500000
O O2 0.368868 0.392445 0.392237
O O3 0.419877 0.185352 0.347670
O O4 0.260469 0.274916 0.326713
O O5 0.485225 0.500000 0.591614
O O6 0.672521 0.500000 0.447676
O O7 0.896912 0.500000 0.113037
O O8 0.821221 0.296740 0.154951
O O9 0.991470 0.358966 0.172635
O O10 0.000000 0.343651 0.000000
O O11 0.030191 0.500000 0.277718
O O12 0.126467 0.697404 0.247480
O O13 0.322636 0.607831 0.703802
#
# Coordination Sequence:
#
# PCOD9216631 Si02
#       6
#     8   4   8   8   4   8
#     4  11  23  35  55  80 112 151 187 226 273 316
#     4  11  22  36  54  78 113 148 198 228 258 321
#     4   9  19  37  62  85 106 139 182 228 280 335
#     4  10  23  39  54  82 116 144 183 229 278 329
#     4  11  20  36  57  79 108 151 195 228 260 316
#     4  11  21  37  58  82 112 149 181 230 276 324
#
# _framework density 16.624696
#
# number of rings (size 3 to 8) (size 9 to 14) (size 15 to 20)
#    0.000    1.600    5.000    0.000    4.200    1.600 
#    0.000    1.000    0.000    0.600    0.000    0.000 
#    0.000    0.000    0.000    0.000    0.000    0.000 
#
# Total GULP energy -111522.221178 kJ/mol
# GULP energy per Si atom -5576.111059 kJ/mol
# Density = 1.658686 g / cm^3
# Si number density = 16.624696 Si / 1000 Ang^3
#
#
#
# Elastic Constant Matrix: (Units=GPa)
#
#
# Indices 1 2 3 4 5 6 
#
# 1 115.5639 65.2265 58.2032 0.0000 -12.6311 0.0000
# 2 65.2265 130.3844 56.4712 0.0000 -0.2530 0.0000
# 3 58.2032 56.4712 133.5662 0.0000 -22.8907 0.0000
# 4 0.0000 0.0000 0.0000 21.1188 0.0000 5.9413
# 5 -12.6311 -0.2530 -22.8907 0.0000 15.7502 0.0000
# 6 0.0000 0.0000 0.0000 5.9413 0.0000 23.5481
#
#
#
# Elastic Compliance Matrix: (Units=1/GPa)
#
#
# Indices 1 2 3 4 5 6 
#
# 1 0.014053 -0.006067 -0.002190 0.000000 0.007991 0.000000
# 2 -0.006067 0.012720 -0.004705 0.000000 -0.011499 0.000000
# 3 -0.002190 -0.004705 0.013472 0.000000 0.017748 0.000000
# 4 0.000000 0.000000 0.000000 0.050969 0.000000 -0.012860
# 5 0.007991 -0.011499 0.017748 0.000000 0.095509 0.000000
# 6 0.000000 0.000000 0.000000 -0.012860 0.000000 0.045711
#
#
# Mechanical properties :
#
#
# Convention : Reuss Voigt Hill
#
# Bulk Modulus (GPa) = 69.81782 82.14626 75.98204
# Shear Modulus (GPa) = 19.00188 25.39099 22.19643
#
# Velocity S-wave (km/s) = 3.38448 3.91232 3.65793
# Velocity P-wave (km/s) = 7.57368 8.36228 7.97773
#
# Compressibility (1/GPa) = 0.01432299
#
# Stress axis : x y z
#
# Youngs Moduli (GPa) = 71.15679 78.61602 74.22746
#
# Poissons Ratio (x) = 0.47693 0.16253
# Poissons Ratio (y) = 0.43168 0.34925
# Poissons Ratio (z) = 0.15581 0.36990
#
# Static dielectric constant tensor:
#      x y z
#    x 1.570670 0.000000 -0.013510 
#    y 0.000000 1.546190 0.000000 
#    z -0.013510 0.000000 1.557710 
# 
# From -- ./inp_files/188860.got.cif
#   From: 2010.05.17/outbox.cif.g08.bks.cpg/sg12_95_cif.got.tgz:188860.got - 2010.06.03 13:09:07.
