data_PCOD9216573
_publ_section_title
;
Structure prediction by ZEFSAII (Michael W. Deem and Ramdas Pophale) SiO2 
 PCOD9216573
Probable space group: C 2/M
;
_chemical_formula_sum "Si O2"
_cell_formula_units_Z 56
_cell_length_a 23.519951
_cell_length_b 17.495023
_cell_length_c 21.251383
_cell_angle_alpha 90.000000
_cell_angle_beta 162.279559
_cell_angle_gamma 90.000000
_cell_volume 2661.608246
_symmetry_space_group_name_H-M "C 2/M"
_symmetry_group_IT_number 12
_symmetry_cell_setting 'monoclinic'
loop_
_space_group_symop_operation_xyz
x,y,z
-x,y,-z
-x,-y,-z
x,-y,z
1/2+x,1/2+y,z
1/2-x,1/2+y,-z
1/2-x,1/2-y,-z
1/2+x,1/2-y,z
loop_
_atom_site_type_symbol
_atom_site_label
_atom_site_fract_x
_atom_site_fract_y
_atom_site_fract_z
Si Si1 0.196737 0.184348 0.493626
Si Si2 0.211014 0.767149 0.296928
Si Si3 0.291974 0.659471 0.034344
Si Si4 0.185209 0.824961 0.082613
Si Si5 0.797512 0.179650 0.264889
Si Si6 0.290560 0.916176 0.306130
Si Si7 0.570116 0.090971 0.917317
O O1 0.250000 0.250000 0.500000
O O2 0.149062 0.230041 0.506620
O O3 0.367110 0.129272 0.692108
O O4 0.011540 0.143652 0.274837
O O5 0.198084 0.709786 0.224014
O O6 0.271710 0.849346 0.336330
O O7 0.014796 0.781362 0.126433
O O8 0.250000 0.750000 0.000000
O O9 0.253958 0.644963 0.920754
O O10 0.181711 0.614150 0.971527
O O11 0.323712 0.759758 0.254947
O O12 0.169672 0.890340 0.118572
O O13 0.000000 0.148866 0.500000
O O14 0.679180 0.125722 0.093378
O O15 0.500000 0.917473 0.500000
O O16 0.242141 0.000000 0.278661
O O17 0.556337 0.000000 0.909181
#
# Coordination Sequence:
#
# PCOD9216573 Si02
#       7
#     8   8   8   8   8   8   8
#     4  12  23  44  73 102 133 180 234 281 339 418
#     4  11  21  37  68  95 124 171 228 273 330 415
#     4  12  23  43  74 101 134 182 234 283 336 413
#     4  11  21  37  66  98 123 170 229 271 329 413
#     4  11  21  39  66  99 132 176 230 280 335 416
#     4  10  23  38  56  91 135 168 206 272 344 399
#     4  12  28  47  67 103 145 180 232 296 347 402
#
# _framework density 21.039909999999999
#
# number of rings (size 3 to 8) (size 9 to 14) (size 15 to 20)
#    0.000    0.714    5.714    4.286    2.000    2.571 
#    0.000    3.571    0.000    0.000    0.000    0.000 
#    0.000    0.000    0.000    0.000    0.000    0.000 
#
# Total GULP energy -156431.215545 kJ/mol
# GULP energy per Si atom -5586.829127 kJ/mol
# Density = 2.099202 g / cm^3
# Si number density = 21.039910 Si / 1000 Ang^3
#
#
#
# Elastic Constant Matrix: (Units=GPa)
#
#
# Indices 1 2 3 4 5 6 
#
# 1 110.3452 34.0635 14.9403 0.0432 -21.4289 0.0129
# 2 34.0635 132.8712 29.4244 0.0962 -12.8784 0.0576
# 3 14.9403 29.4244 100.9979 0.0808 -8.3104 0.0443
# 4 0.0432 0.0962 0.0808 20.2009 0.0528 1.6049
# 5 -21.4289 -12.8784 -8.3104 0.0528 40.9180 0.0215
# 6 0.0129 0.0576 0.0443 1.6049 0.0215 20.8569
#
#
#
# Elastic Compliance Matrix: (Units=1/GPa)
#
#
# Indices 1 2 3 4 5 6 
#
# 1 0.010744 -0.002162 -0.000562 -0.000023 0.004832 -0.000003
# 2 -0.002162 0.008660 -0.002107 -0.000030 0.001166 -0.000017
# 3 -0.000562 -0.002107 0.010698 -0.000034 0.001215 -0.000015
# 4 -0.000023 -0.000030 -0.000034 0.049808 -0.000090 -0.003832
# 5 0.004832 0.001166 0.001215 -0.000090 0.027584 -0.000030
# 6 -0.000003 -0.000017 -0.000015 -0.003832 -0.000030 0.048241
#
#
# Mechanical properties :
#
#
# Convention : Reuss Voigt Hill
#
# Bulk Modulus (GPa) = 48.92174 55.67452 52.29813
# Shear Modulus (GPa) = 29.03433 34.11423 31.57428
#
# Velocity S-wave (km/s) = 3.71882 4.03104 3.87807
# Velocity P-wave (km/s) = 6.46079 6.94151 6.70546
#
# Compressibility (1/GPa) = 0.02044081
#
# Stress axis : x y z
#
# Youngs Moduli (GPa) = 93.07259 115.47465 93.47295
#
# Poissons Ratio (x) = 0.24961 0.05253
# Poissons Ratio (y) = 0.20119 0.19697
# Poissons Ratio (z) = 0.05230 0.24333
#
# Static dielectric constant tensor:
#      x y z
#    x 1.812930 0.000030 0.025970 
#    y 0.000030 1.730070 -0.000080 
#    z 0.025970 -0.000080 1.868810 
# 
# From -- ./inp_files/326042.got.cif
#   From: 2010.05.17/outbox.cif.g08.bks.cpg/sg12_164_cif.got.tgz:326042.got - 2010.06.03 13:09:07.
