data_PCOD9216827
_publ_section_title
;
Structure prediction by ZEFSAII (Michael W. Deem and Ramdas Pophale) SiO2 
 PCOD9216827
Probable space group: C 2/M
;
_chemical_formula_sum "Si O2"
_cell_formula_units_Z 52
_cell_length_a 19.558801
_cell_length_b 9.539118
_cell_length_c 17.257286
_cell_angle_alpha 90.000000
_cell_angle_beta 50.181371
_cell_angle_gamma 90.000000
_cell_volume 2473.015159
_symmetry_space_group_name_H-M "C 2/M"
_symmetry_group_IT_number 12
_symmetry_cell_setting 'monoclinic'
loop_
_space_group_symop_operation_xyz
x,y,z
-x,y,-z
-x,-y,-z
x,-y,z
1/2+x,1/2+y,z
1/2-x,1/2+y,-z
1/2-x,1/2-y,-z
1/2+x,1/2-y,z
loop_
_atom_site_type_symbol
_atom_site_label
_atom_site_fract_x
_atom_site_fract_y
_atom_site_fract_z
Si Si1 0.867156 0.208053 0.416947
Si Si2 0.237109 0.835381 0.763766
Si Si3 0.213631 0.500000 0.505822
Si Si4 0.396737 0.339258 0.574382
Si Si5 0.040389 0.829740 0.889406
Si Si6 0.051312 0.159578 0.201783
Si Si7 0.784796 0.336980 0.901722
O O1 0.855541 0.374072 0.421004
O O2 0.865185 0.162354 0.508250
O O3 0.960987 0.162211 0.315122
O O4 0.788685 0.122918 0.432158
O O5 0.323672 0.752151 0.672279
O O6 0.142067 0.782276 0.801097
O O7 0.228922 0.826538 0.863100
O O8 0.249622 0.000000 0.734033
O O9 0.500000 0.288687 0.500000
O O10 0.397221 0.500000 0.603356
O O11 0.975431 0.797250 0.865845
O O12 0.046091 0.000000 0.888943
O O13 0.000000 0.780127 0.000000
O O14 0.120558 0.268014 0.185865
O O15 0.087111 0.000000 0.174527
O O16 0.791610 0.500000 0.916688
O O17 0.750000 0.250000 0.000000
#
# Coordination Sequence:
#
# PCOD9216827 Si02
#       7
#     8   8   4   8   8   8   8
#     4  11  23  40  61  92 123 168 208 256 306 369
#     4  10  23  40  65  91 119 161 209 251 307 366
#     4  10  24  38  62  86 130 158 214 254 304 366
#     4  11  24  41  60  87 126 163 206 254 308 372
#     4   9  19  36  60  90 119 151 198 253 303 358
#     4  11  22  38  65  91 124 164 206 254 314 370
#     4  11  24  43  66  92 122 161 209 258 309 373
#
# _framework density 21.026964
#
# number of rings (size 3 to 8) (size 9 to 14) (size 15 to 20)
#    0.000    1.538    1.538    2.308    6.462    5.231 
#    0.000    0.769    0.000    1.846    0.000    0.000 
#    0.000    0.000    0.000    0.000    0.000    0.000 
#
# Total GULP energy -144792.835821 kJ/mol
# GULP energy per Si atom -5568.955224 kJ/mol
# Density = 2.097911 g / cm^3
# Si number density = 21.026964 Si / 1000 Ang^3
#
#
#
# Elastic Constant Matrix: (Units=GPa)
#
#
# Indices 1 2 3 4 5 6 
#
# 1 43.7046 10.0866 -4.2258 0.0000 -4.8886 0.0000
# 2 10.0866 107.0335 1.9762 0.0000 -0.7419 0.0000
# 3 -4.2258 1.9762 69.4828 0.0000 2.4961 0.0000
# 4 0.0000 0.0000 0.0000 34.4688 0.0000 -5.5537
# 5 -4.8886 -0.7419 2.4961 0.0000 31.6243 0.0000
# 6 0.0000 0.0000 0.0000 -5.5537 0.0000 -4.3731
#
#
#
# Elastic Compliance Matrix: (Units=1/GPa)
#
#
# Indices 1 2 3 4 5 6 
#
# 1 0.023932 -0.002256 0.001393 0.000000 0.003537 0.000000
# 2 -0.002256 0.009562 -0.000406 0.000000 -0.000092 0.000000
# 3 0.001393 -0.000406 0.014522 0.000000 -0.000940 0.000000
# 4 0.000000 0.000000 0.000000 0.024084 0.000000 -0.030585
# 5 0.003537 -0.000092 -0.000940 0.000000 0.032240 0.000000
# 6 0.000000 0.000000 0.000000 -0.030585 0.000000 -0.189826
#
#
# Mechanical properties :
#
#
# Convention : Reuss Voigt Hill
#
# Bulk Modulus (GPa) = 21.98922 26.21056 24.09989
# Shear Modulus (GPa) = -73.75970 26.50293 -23.62839
#
# Velocity S-wave (km/s) = -5.92915 3.55410 -3.35583
# Velocity P-wave (km/s) = 6.03264 5.41613 1.87860
#
# Compressibility (1/GPa) = 0.04547682
#
# Stress axis : x y z
#
# Youngs Moduli (GPa) = 41.78525 104.57661 68.86072
#
# Poissons Ratio (x) = 0.23598 -0.09590
# Poissons Ratio (y) = 0.09429 0.02795
# Poissons Ratio (z) = -0.05819 0.04245
#
# Static dielectric constant tensor:
#      x y z
#    x 1.807700 0.000000 0.010820 
#    y 0.000000 1.738710 0.000000 
#    z 0.010820 0.000000 1.793350 
# 
# From -- ./inp_files/282079.got.cif
#   From: 2010.05.17/outbox.cif.g08.bks.cpg/sg12_142_cif.got.tgz:282079.got - 2010.06.03 13:09:07.
