data_PCOD9216475
_publ_section_title
;
Structure prediction by ZEFSAII (Michael W. Deem and Ramdas Pophale) SiO2 
 PCOD9216475
Probable space group: C 2/M
;
_chemical_formula_sum "Si O2"
_cell_formula_units_Z 42
_cell_length_a 14.963913
_cell_length_b 8.554257
_cell_length_c 19.888063
_cell_angle_alpha 90.000000
_cell_angle_beta 50.768623
_cell_angle_gamma 90.000000
_cell_volume 1971.952587
_symmetry_space_group_name_H-M "C 2/M"
_symmetry_group_IT_number 12
_symmetry_cell_setting 'monoclinic'
loop_
_space_group_symop_operation_xyz
x,y,z
-x,y,-z
-x,-y,-z
x,-y,z
1/2+x,1/2+y,z
1/2-x,1/2+y,-z
1/2-x,1/2-y,-z
1/2+x,1/2-y,z
loop_
_atom_site_type_symbol
_atom_site_label
_atom_site_fract_x
_atom_site_fract_y
_atom_site_fract_z
Si Si1 0.716083 0.673676 0.445993
Si Si2 0.837457 0.814254 0.788505
Si Si3 0.781376 0.818634 0.275857
Si Si4 0.524651 0.815773 0.163459
Si Si5 0.117670 0.690294 0.981169
Si Si6 0.000000 0.000000 0.500000
O O1 0.772737 0.500000 0.412410
O O2 0.750000 0.750000 0.500000
O O3 0.753802 0.778901 0.365622
O O4 0.581434 0.633516 0.498613
O O5 0.821304 0.734449 0.724420
O O6 0.947583 0.769267 0.780162
O O7 0.832401 0.000000 0.781421
O O8 0.729149 0.759863 0.886359
O O9 0.894083 0.717775 0.203514
O O10 0.806722 0.000000 0.254346
O O11 0.606153 0.757068 0.063846
O O12 0.542014 0.000000 0.163715
O O13 0.119270 0.500000 0.981389
O O14 0.000000 0.738462 0.000000
#
# Coordination Sequence:
#
# PCOD9216475 Si02
#       6
#     8   8   8   8   8   2
#     4  10  22  46  74 104 137 174 217 274 341 411
#     4  11  22  39  61  90 131 174 222 279 332 390
#     4  12  25  42  64  97 135 171 218 272 326 395
#     4  11  22  39  62  92 126 174 224 273 336 393
#     4   9  17  34  60  84 120 171 223 277 332 386
#     4   8  24  44  78 106 136 170 218 266 338 406
#
# _framework density 21.298687000000001
#
# number of rings (size 3 to 8) (size 9 to 14) (size 15 to 20)
#    0.571    0.952    1.905    4.000    0.000    1.524 
#    0.000    7.619    0.000    0.000    0.000    0.000 
#    0.000    0.000    0.000    0.000    0.000    0.000 
#
# Total GULP energy -117008.326796 kJ/mol
# GULP energy per Si atom -5571.825086 kJ/mol
# Density = 2.125021 g / cm^3
# Si number density = 21.298687 Si / 1000 Ang^3
#
#
#
# Elastic Constant Matrix: (Units=GPa)
#
#
# Indices 1 2 3 4 5 6 
#
# 1 97.4975 5.1484 20.4276 0.0000 24.2274 0.0000
# 2 5.1484 51.4635 9.5063 0.0000 10.3635 0.0000
# 3 20.4276 9.5063 62.3123 0.0000 34.4390 0.0000
# 4 0.0000 0.0000 0.0000 20.1973 0.0000 4.1896
# 5 24.2274 10.3635 34.4390 0.0000 34.4700 0.0000
# 6 0.0000 0.0000 0.0000 4.1896 0.0000 36.2887
#
#
#
# Elastic Compliance Matrix: (Units=1/GPa)
#
#
# Indices 1 2 3 4 5 6 
#
# 1 0.012523 0.000583 0.001713 0.000000 -0.010689 0.000000
# 2 0.000583 0.020722 0.000709 0.000000 -0.007348 0.000000
# 3 0.001713 0.000709 0.036090 0.000000 -0.037475 0.000000
# 4 0.000000 0.000000 0.000000 0.050726 0.000000 -0.005857
# 5 -0.010689 -0.007348 -0.037475 0.000000 0.076174 0.000000
# 6 0.000000 0.000000 0.000000 -0.005857 0.000000 0.028233
#
#
# Mechanical properties :
#
#
# Convention : Reuss Voigt Hill
#
# Bulk Modulus (GPa) = 13.27225 31.27088 22.27157
# Shear Modulus (GPa) = 20.52768 29.93725 25.23247
#
# Velocity S-wave (km/s) = 3.10788 3.75319 3.44568
# Velocity P-wave (km/s) = 4.37305 5.78756 5.12930
#
# Compressibility (1/GPa) = 0.07534515
#
# Stress axis : x y z
#
# Youngs Moduli (GPa) = 79.85276 48.25863 27.70824
#
# Poissons Ratio (x) = -0.02814 -0.04747
# Poissons Ratio (y) = -0.04657 -0.01963
# Poissons Ratio (z) = -0.13681 -0.03419
#
# Static dielectric constant tensor:
#      x y z
#    x 1.667190 0.000000 -0.093710 
#    y 0.000000 1.719170 0.000000 
#    z -0.093710 0.000000 1.730300 
# 
# From -- ./inp_files/267520.got.cif
#   From: 2010.05.17/outbox.cif.g08.bks.cpg/sg12_134_cif.got.tgz:267520.got - 2010.06.03 13:09:07.
