data_PCOD9216407
_publ_section_title
;
Structure prediction by ZEFSAII (Michael W. Deem and Ramdas Pophale) SiO2 
 PCOD9216407
Probable space group: C 2/M
;
_chemical_formula_sum "Si O2"
_cell_formula_units_Z 42
_cell_length_a 30.043593
_cell_length_b 11.917224
_cell_length_c 5.293403
_cell_angle_alpha 90.000000
_cell_angle_beta 85.141065
_cell_angle_gamma 90.000000
_cell_volume 1888.419077
_symmetry_space_group_name_H-M "C 2/M"
_symmetry_group_IT_number 12
_symmetry_cell_setting 'monoclinic'
loop_
_space_group_symop_operation_xyz
x,y,z
-x,y,-z
-x,-y,-z
x,-y,z
1/2+x,1/2+y,z
1/2-x,1/2+y,-z
1/2-x,1/2-y,-z
1/2+x,1/2-y,z
loop_
_atom_site_type_symbol
_atom_site_label
_atom_site_fract_x
_atom_site_fract_y
_atom_site_fract_z
Si Si1 0.152906 0.375272 0.828082
Si Si2 0.606412 0.500000 0.865565
Si Si3 0.252881 0.322937 0.745824
Si Si4 0.544308 0.313948 0.126296
Si Si5 0.831895 0.000000 0.669733
Si Si6 0.000000 0.000000 0.500000
Si Si7 0.107908 0.637067 0.344401
O O1 0.133488 0.500000 0.844652
O O2 0.205188 0.384054 0.759474
O O3 0.126725 0.321718 0.605577
O O4 0.144678 0.332247 0.113166
O O5 0.575187 0.389021 0.918414
O O6 0.638554 0.500000 0.092914
O O7 0.636108 0.500000 0.594421
O O8 0.250000 0.250000 0.500000
O O9 0.297255 0.396594 0.702299
O O10 0.250000 0.250000 0.000000
O O11 0.529315 0.403303 0.341242
O O12 0.566999 0.208871 0.255243
O O13 0.500000 0.277299 0.000000
O O14 0.101460 0.500000 0.357315
#
# Coordination Sequence:
#
# PCOD9216407 Si02
#       7
#     8   4   8   8   4   2   8
#     4  10  22  45  66  97 143 189 230 287 346 423
#     4  11  28  44  73 101 151 189 245 291 363 424
#     4  12  26  43  69 102 143 191 238 286 357 408
#     4  11  27  47  74 103 145 188 242 302 372 438
#     4  12  28  49  67 113 143 189 240 306 338 430
#     4  10  24  48  70 106 128 200 226 298 378 424
#     4  10  24  43  75 106 139 186 236 292 358 425
#
# _framework density 22.240822999999999
#
# number of rings (size 3 to 8) (size 9 to 14) (size 15 to 20)
#    0.000    1.143    0.952    3.429   16.000    0.381 
#    0.000    0.476    0.000    0.000    0.000    0.000 
#    0.000    0.000    0.000    0.000    0.000    0.000 
#
# Total GULP energy -116969.303718 kJ/mol
# GULP energy per Si atom -5569.966844 kJ/mol
# Density = 2.219020 g / cm^3
# Si number density = 22.240823 Si / 1000 Ang^3
#
#
#
# Elastic Constant Matrix: (Units=GPa)
#
#
# Indices 1 2 3 4 5 6 
#
# 1 110.3638 34.6870 31.4232 0.0000 4.5471 0.0000
# 2 34.6870 87.4455 41.8522 0.0000 -4.3248 0.0000
# 3 31.4232 41.8522 149.0368 0.0000 -10.2000 0.0000
# 4 0.0000 0.0000 0.0000 9.4205 0.0000 -42.4127
# 5 4.5471 -4.3248 -10.2000 0.0000 48.1300 0.0000
# 6 0.0000 0.0000 0.0000 -42.4127 0.0000-1221.6410
#
#
#
# Elastic Compliance Matrix: (Units=1/GPa)
#
#
# Indices 1 2 3 4 5 6 
#
# 1 0.010660 -0.003674 -0.001327 0.000000 -0.001618 0.000000
# 2 -0.003674 0.014485 -0.003227 0.000000 0.000965 0.000000
# 3 -0.001327 -0.003227 0.008000 0.000000 0.001531 0.000000
# 4 0.000000 0.000000 0.000000 0.091802 0.000000 -0.003187
# 5 -0.001618 0.000965 0.001531 0.000000 0.021341 0.000000
# 6 0.000000 0.000000 0.000000 -0.003187 0.000000 -0.000708
#
#
# Mechanical properties :
#
#
# Convention : Reuss Voigt Hill
#
# Bulk Modulus (GPa) = 59.91329 62.53010 61.22169
# Shear Modulus (GPa) = 29.83311 -216.89250 -93.52970
#
# Velocity S-wave (km/s) = 3.66644 -9.88593 -6.49188
# Velocity P-wave (km/s) = 6.70229 10.10608 5.34847
#
# Compressibility (1/GPa) = 0.01669079
#
# Stress axis : x y z
#
# Youngs Moduli (GPa) = 93.80909 69.03636 124.99229
#
# Poissons Ratio (x) = 0.25361 0.16583
# Poissons Ratio (y) = 0.34461 0.40337
# Poissons Ratio (z) = 0.12446 0.22279
#
# Static dielectric constant tensor:
#      x y z
#    x 1.837060 0.000000 -0.009110 
#    y 0.000000 1.851250 0.000000 
#    z -0.009110 0.000000 1.856930 
# 
# From -- ./inp_files/30852.got.cif
#   From: 2010.05.17/outbox.cif.g08.bks.cpg/sg12_16_cif.got.tgz:30852.got - 2010.06.03 13:09:07.
