data_PCOD9216319
_publ_section_title
;
Structure prediction by ZEFSAII (Michael W. Deem and Ramdas Pophale) SiO2 
 PCOD9216319
Probable space group: C 2/M
;
_chemical_formula_sum "Si O2"
_cell_formula_units_Z 48
_cell_length_a 11.769323
_cell_length_b 20.979449
_cell_length_c 12.302836
_cell_angle_alpha 90.000000
_cell_angle_beta 131.875820
_cell_angle_gamma 90.000000
_cell_volume 2261.881922
_symmetry_space_group_name_H-M "C 2/M"
_symmetry_group_IT_number 12
_symmetry_cell_setting 'monoclinic'
loop_
_space_group_symop_operation_xyz
x,y,z
-x,y,-z
-x,-y,-z
x,-y,z
1/2+x,1/2+y,z
1/2-x,1/2+y,-z
1/2-x,1/2-y,-z
1/2+x,1/2-y,z
loop_
_atom_site_type_symbol
_atom_site_label
_atom_site_fract_x
_atom_site_fract_y
_atom_site_fract_z
Si Si1 0.097949 0.259656 0.165035
Si Si2 0.322466 0.427038 0.857395
Si Si3 0.591053 0.122056 0.874898
Si Si4 0.699618 0.628597 0.793648
Si Si5 0.360967 0.360760 0.665769
Si Si6 0.230189 0.429124 0.383153
O O1 0.233922 0.303449 0.204625
O O2 0.156799 0.206572 0.284891
O O3 0.983371 0.308658 0.152442
O O4 0.000000 0.233251 0.000000
O O5 0.280364 0.500000 0.855641
O O6 0.215419 0.381479 0.859776
O O7 0.309305 0.412033 0.722165
O O8 0.500000 0.418754 0.000000
O O9 0.449270 0.077349 0.755932
O O10 0.675590 0.103672 0.040698
O O11 0.539483 0.633273 0.751310
O O12 0.688769 0.585834 0.679472
O O13 0.273336 0.375863 0.499025
O O14 0.269407 0.500000 0.446760
#
# Coordination Sequence:
#
# PCOD9216319 Si02
#       6
#     8   8   8   8   8   8
#     4   9  22  40  70  98 130 169 219 273 325 382
#     4  11  23  39  64  98 133 173 219 267 323 387
#     4  10  22  44  67  98 128 169 221 268 320 392
#     4  10  23  42  66 100 127 166 222 269 324 384
#     4  12  24  40  65  97 135 171 216 267 330 391
#     4  11  25  44  65  92 131 175 217 268 325 386
#
# _framework density 21.221267000000001
#
# number of rings (size 3 to 8) (size 9 to 14) (size 15 to 20)
#    0.000    1.500    1.667    3.500    2.333    8.667 
#    0.000    1.667    0.000    0.000    0.000    0.000 
#    0.000    0.000    0.000    0.000    0.000    0.000 
#
# Total GULP energy -134171.243894 kJ/mol
# GULP energy per Si atom -5590.468496 kJ/mol
# Density = 2.117297 g / cm^3
# Si number density = 21.221267 Si / 1000 Ang^3
#
#
#
# Elastic Constant Matrix: (Units=GPa)
#
#
# Indices 1 2 3 4 5 6 
#
# 1 98.4990 17.3506 23.0930 0.0000 -16.2666 0.0000
# 2 17.3506 82.3148 32.3133 0.0000 -7.9013 0.0000
# 3 23.0930 32.3133 94.4811 0.0000 -19.3883 0.0000
# 4 0.0000 0.0000 0.0000 27.2527 0.0000 -10.8431
# 5 -16.2666 -7.9013 -19.3883 0.0000 27.7968 0.0000
# 6 0.0000 0.0000 0.0000 -10.8431 0.0000 11.7602
#
#
#
# Elastic Compliance Matrix: (Units=1/GPa)
#
#
# Indices 1 2 3 4 5 6 
#
# 1 0.011604 -0.001440 -0.001207 0.000000 0.005539 0.000000
# 2 -0.001440 0.014225 -0.004500 0.000000 0.000061 0.000000
# 3 -0.001207 -0.004500 0.014017 0.000000 0.007792 0.000000
# 4 0.000000 0.000000 0.000000 0.057953 0.000000 0.053434
# 5 0.005539 0.000061 0.007792 0.000000 0.044669 0.000000
# 6 0.000000 0.000000 0.000000 0.053434 0.000000 0.134299
#
#
# Mechanical properties :
#
#
# Convention : Reuss Voigt Hill
#
# Bulk Modulus (GPa) = 39.13816 46.75653 42.94734
# Shear Modulus (GPa) = 16.69008 26.86447 21.77728
#
# Velocity S-wave (km/s) = 2.80747 3.56184 3.20691
# Velocity P-wave (km/s) = 5.38443 6.24470 5.83045
#
# Compressibility (1/GPa) = 0.02555051
#
# Stress axis : x y z
#
# Youngs Moduli (GPa) = 86.17825 70.30065 71.34137
#
# Poissons Ratio (x) = 0.10126 0.08610
# Poissons Ratio (y) = 0.12413 0.32105
# Poissons Ratio (z) = 0.10400 0.31637
#
# Static dielectric constant tensor:
#      x y z
#    x 1.745990 0.000000 -0.004830 
#    y 0.000000 1.779330 0.000000 
#    z -0.004830 0.000000 1.763510 
# 
# From -- ./inp_files/133714.got.cif
#   From: 2010.05.17/outbox.cif.g08.bks.cpg/sg12_67_cif.got.tgz:133714.got - 2010.06.03 13:09:07.
