data_PCOD9216619
_publ_section_title
;
Structure prediction by ZEFSAII (Michael W. Deem and Ramdas Pophale) SiO2 
 PCOD9216619
Probable space group: C 2/M
;
_chemical_formula_sum "Si O2"
_cell_formula_units_Z 24
_cell_length_a 11.471193
_cell_length_b 20.084935
_cell_length_c 5.050998
_cell_angle_alpha 90.000000
_cell_angle_beta 67.141872
_cell_angle_gamma 90.000000
_cell_volume 1072.351576
_symmetry_space_group_name_H-M "C 2/M"
_symmetry_group_IT_number 12
_symmetry_cell_setting 'monoclinic'
loop_
_space_group_symop_operation_xyz
x,y,z
-x,y,-z
-x,-y,-z
x,-y,z
1/2+x,1/2+y,z
1/2-x,1/2+y,-z
1/2-x,1/2-y,-z
1/2+x,1/2-y,z
loop_
_atom_site_type_symbol
_atom_site_label
_atom_site_fract_x
_atom_site_fract_y
_atom_site_fract_z
Si Si1 0.754589 0.865664 0.050695
Si Si2 0.094055 0.000000 0.168495
Si Si3 0.121736 0.807489 0.535110
Si Si4 0.000000 0.677203 0.500000
O O1 0.833740 0.840317 0.235532
O O2 0.607175 0.864760 0.259276
O O3 0.813149 0.936335 0.920439
O O4 0.776683 0.815668 0.787234
O O5 0.000000 0.000000 0.500000
O O6 0.000000 0.000000 0.000000
O O7 0.000000 0.840791 0.500000
O O8 0.076570 0.731422 0.609971
#
# Coordination Sequence:
#
# PCOD9216619 Si02
#       4
#     8   4   8   4
#     4  12  23  44  63 100 130 172 217 260 324 384
#     4  12  26  45  70  91 128 172 221 270 313 388
#     4  10  23  38  67  94 132 166 215 263 321 378
#     4  10  26  39  70  95 138 170 208 272 326 382
#
# _framework density 22.380721000000001
#
# number of rings (size 3 to 8) (size 9 to 14) (size 15 to 20)
#    1.000    0.000    0.000    8.000    0.000    4.667 
#    0.000    0.000    0.000    6.000    0.000    0.000 
#    0.000    0.000    0.000    0.000    0.000    0.000 
#
# Total GULP energy -67072.381573 kJ/mol
# GULP energy per Si atom -5589.365131 kJ/mol
# Density = 2.232978 g / cm^3
# Si number density = 22.380721 Si / 1000 Ang^3
#
#
#
# Elastic Constant Matrix: (Units=GPa)
#
#
# Indices 1 2 3 4 5 6 
#
# 1 129.2684 63.3721 93.9604 0.0000 -8.3185 0.0000
# 2 63.3721 130.0322 73.2497 0.0000 -29.7887 0.0000
# 3 93.9604 73.2497 177.3863 0.0000 -23.7306 0.0000
# 4 0.0000 0.0000 0.0000 41.0045 0.0000 -43.1156
# 5 -8.3185 -29.7887 -23.7306 0.0000 65.8909 0.0000
# 6 0.0000 0.0000 0.0000 -43.1156 0.0000 246.0323
#
#
#
# Elastic Compliance Matrix: (Units=1/GPa)
#
#
# Indices 1 2 3 4 5 6 
#
# 1 0.013886 -0.003854 -0.006054 0.000000 -0.002170 0.000000
# 2 -0.003854 0.011775 -0.002284 0.000000 0.004014 0.000000
# 3 -0.006054 -0.002284 0.010030 0.000000 0.001816 0.000000
# 4 0.000000 0.000000 0.000000 0.029896 0.000000 0.005239
# 5 -0.002170 0.004014 0.001816 0.000000 0.017371 0.000000
# 6 0.000000 0.000000 0.000000 0.005239 0.000000 0.004983
#
#
# Mechanical properties :
#
#
# Convention : Reuss Voigt Hill
#
# Bulk Modulus (GPa) = 88.44000 99.76125 94.10062
# Shear Modulus (GPa) = 43.06818 84.32585 63.69702
#
# Velocity S-wave (km/s) = 4.39149 6.14489 5.34064
# Velocity P-wave (km/s) = 8.08180 9.74770 8.95358
#
# Compressibility (1/GPa) = 0.01130710
#
# Stress axis : x y z
#
# Youngs Moduli (GPa) = 72.01377 84.92682 99.69881
#
# Poissons Ratio (x) = 0.32732 0.60359
# Poissons Ratio (y) = 0.27755 0.22769
# Poissons Ratio (z) = 0.43598 0.19395
#
# Static dielectric constant tensor:
#      x y z
#    x 1.884540 0.000000 -0.050210 
#    y 0.000000 1.849650 0.000000 
#    z -0.050210 0.000000 1.859780 
# 
# From -- ./inp_files/10357.got.cif
#   From: 2010.05.17/outbox.cif.g08.bks.cpg/sg12_6_cif.got.tgz:10357.got - 2010.06.03 13:09:07.
