data_PCOD9216874
_publ_section_title
;
Structure prediction by ZEFSAII (Michael W. Deem and Ramdas Pophale) SiO2 
 PCOD9216874
Probable space group: C 2/M
;
_chemical_formula_sum "Si O2"
_cell_formula_units_Z 48
_cell_length_a 20.574502
_cell_length_b 15.373214
_cell_length_c 10.146770
_cell_angle_alpha 90.000000
_cell_angle_beta 51.784268
_cell_angle_gamma 90.000000
_cell_volume 2521.572292
_symmetry_space_group_name_H-M "C 2/M"
_symmetry_group_IT_number 12
_symmetry_cell_setting 'monoclinic'
loop_
_space_group_symop_operation_xyz
x,y,z
-x,y,-z
-x,-y,-z
x,-y,z
1/2+x,1/2+y,z
1/2-x,1/2+y,-z
1/2-x,1/2-y,-z
1/2+x,1/2-y,z
loop_
_atom_site_type_symbol
_atom_site_label
_atom_site_fract_x
_atom_site_fract_y
_atom_site_fract_z
Si Si1 0.100110 0.000000 0.876897
Si Si2 0.811563 0.500000 0.969082
Si Si3 0.902522 0.500000 0.137227
Si Si4 0.860108 0.841301 0.362156
Si Si5 0.328038 0.807106 0.948118
Si Si6 0.472764 0.679793 0.681694
Si Si7 0.307912 0.164579 0.285027
Si Si8 0.877797 0.000000 0.839657
O O1 0.131053 0.916019 0.758285
O O2 0.128972 0.000000 0.992223
O O3 0.000000 0.000000 0.000000
O O4 0.830369 0.404842 0.883484
O O5 0.861011 0.500000 0.044371
O O6 0.712684 0.500000 0.110705
O O7 0.868507 0.586267 0.248297
O O8 0.000000 0.500000 0.000000
O O9 0.785292 0.860229 0.557043
O O10 0.835735 0.751658 0.322753
O O11 0.946557 0.830983 0.328990
O O12 0.410200 0.752461 0.814722
O O13 0.250000 0.750000 0.000000
O O14 0.316125 0.819744 0.119239
O O15 0.500000 0.702240 0.500000
O O16 0.426113 0.586984 0.739303
#
# Coordination Sequence:
#
# PCOD9216874 Si02
#       8
#     4   4   4   8   8   8   8   4
#     4  12  23  39  65 102 136 167 207 268 332 394
#     4  10  24  40  63  96 122 167 220 262 325 383
#     4  10  23  40  69  91 120 165 225 267 318 389
#     4  11  24  41  63  96 132 168 217 270 333 390
#     4  11  22  41  67  92 130 169 219 267 327 397
#     4  12  25  40  66  97 132 171 222 273 331 398
#     4  10  24  42  66  92 127 172 215 277 324 388
#     4  12  23  41  65 100 129 175 210 268 337 401
#
# _framework density 19.035741999999999
#
# number of rings (size 3 to 8) (size 9 to 14) (size 15 to 20)
#    0.000    1.000    3.333    2.750    7.000    0.000 
#    0.000    0.417    0.000    0.000    0.000    0.000 
#    0.000    0.000    0.000    0.000    0.000    0.000 
#
# Total GULP energy -134105.445190 kJ/mol
# GULP energy per Si atom -5587.726883 kJ/mol
# Density = 1.899242 g / cm^3
# Si number density = 19.035742 Si / 1000 Ang^3
#
#
#
# Elastic Constant Matrix: (Units=GPa)
#
#
# Indices 1 2 3 4 5 6 
#
# 1 80.9447 10.6366 38.2099 0.0000 -24.4042 0.0000
# 2 10.6366 141.1101 62.1278 0.0000 -22.0880 0.0000
# 3 38.2099 62.1278 146.2279 0.0000 -16.9936 0.0000
# 4 0.0000 0.0000 0.0000 31.1654 0.0000 -9.8992
# 5 -24.4042 -22.0880 -16.9936 0.0000 44.3723 0.0000
# 6 0.0000 0.0000 0.0000 -9.8992 0.0000 20.7503
#
#
#
# Elastic Compliance Matrix: (Units=1/GPa)
#
#
# Indices 1 2 3 4 5 6 
#
# 1 0.016636 0.001914 -0.004172 0.000000 0.008505 0.000000
# 2 0.001914 0.009353 -0.003988 0.000000 0.004181 0.000000
# 3 -0.004172 -0.003988 0.009551 0.000000 -0.000622 0.000000
# 4 0.000000 0.000000 0.000000 0.037817 0.000000 0.018041
# 5 0.008505 0.004181 -0.000622 0.000000 0.029057 0.000000
# 6 0.000000 0.000000 0.000000 0.018041 0.000000 0.056799
#
#
# Mechanical properties :
#
#
# Convention : Reuss Voigt Hill
#
# Bulk Modulus (GPa) = 43.38781 65.58124 54.48452
# Shear Modulus (GPa) = 27.87269 36.41150 32.14210
#
# Velocity S-wave (km/s) = 3.83068 4.37830 4.11361
# Velocity P-wave (km/s) = 6.51212 7.75150 7.15868
#
# Compressibility (1/GPa) = 0.02304795
#
# Stress axis : x y z
#
# Youngs Moduli (GPa) = 60.11046 106.92166 104.70264
#
# Poissons Ratio (x) = -0.20465 0.43681
# Poissons Ratio (y) = -0.11505 0.41755
# Poissons Ratio (z) = 0.25078 0.42639
#
# Static dielectric constant tensor:
#      x y z
#    x 1.640220 0.000000 0.008030 
#    y 0.000000 1.927010 0.000000 
#    z 0.008030 0.000000 1.645410 
# 
# From -- ./inp_files/167595.got.cif
#   From: 2010.05.17/outbox.cif.g08.bks.cpg/sg12_84_cif.got.tgz:167595.got - 2010.06.03 13:09:07.
