data_PCOD9216134
_publ_section_title
;
Structure prediction by ZEFSAII (Michael W. Deem and Ramdas Pophale) SiO2 
 PCOD9216134
Probable space group: C 2/M
;
_chemical_formula_sum "Si O2"
_cell_formula_units_Z 50
_cell_length_a 23.452593
_cell_length_b 17.843534
_cell_length_c 5.237030
_cell_angle_alpha 90.000000
_cell_angle_beta 70.175677
_cell_angle_gamma 90.000000
_cell_volume 2061.697638
_symmetry_space_group_name_H-M "C 2/M"
_symmetry_group_IT_number 12
_symmetry_cell_setting 'monoclinic'
loop_
_space_group_symop_operation_xyz
x,y,z
-x,y,-z
-x,-y,-z
x,-y,z
1/2+x,1/2+y,z
1/2-x,1/2+y,-z
1/2-x,1/2-y,-z
1/2+x,1/2-y,z
loop_
_atom_site_type_symbol
_atom_site_label
_atom_site_fract_x
_atom_site_fract_y
_atom_site_fract_z
Si Si1 0.691868 0.080925 0.589743
Si Si2 0.701025 0.385533 0.910477
Si Si3 0.376584 0.582426 0.482986
Si Si4 0.500000 0.000000 0.500000
Si Si5 0.168997 0.279845 0.928607
Si Si6 0.442543 0.275275 0.252764
Si Si7 0.084284 0.367506 0.444299
O O1 0.734578 0.083739 0.276840
O O2 0.706191 0.154920 0.730990
O O3 0.622432 0.090787 0.608049
O O4 0.700314 0.000000 0.703559
O O5 0.657301 0.406766 0.737276
O O6 0.704915 0.295610 0.932482
O O7 0.671636 0.414687 0.214355
O O8 0.405798 0.500000 0.439806
O O9 0.420970 0.653490 0.449755
O O10 0.450971 0.067116 0.645953
O O11 0.115232 0.248959 0.828299
O O12 0.133541 0.320462 0.209978
O O13 0.456717 0.197708 0.372645
O O14 0.500000 0.298001 0.000000
#
# Coordination Sequence:
#
# PCOD9216134 Si02
#       7
#     8   8   8   2   8   8   8
#     4  11  24  40  63  99 138 177 232 292 352 423
#     4  11  24  45  71 100 141 188 226 288 355 424
#     4  11  23  43  70 105 140 179 230 288 356 424
#     4  12  24  40  70  96 134 186 232 304 348 406
#     4  10  23  42  65  95 133 180 234 284 350 428
#     4  10  22  43  66  93 134 179 231 288 350 424
#     4  11  23  43  63  97 131 179 235 289 353 414
#
# _framework density 24.251857000000001
#
# number of rings (size 3 to 8) (size 9 to 14) (size 15 to 20)
#    0.000    1.280    2.400    2.880    3.360    0.960 
#    0.000    2.000    0.000    2.880    0.000    0.000 
#    0.000    0.000    0.000    0.000    0.000    0.000 
#
# Total GULP energy -139591.398378 kJ/mol
# GULP energy per Si atom -5583.655935 kJ/mol
# Density = 2.419666 g / cm^3
# Si number density = 24.251857 Si / 1000 Ang^3
#
#
#
# Elastic Constant Matrix: (Units=GPa)
#
#
# Indices 1 2 3 4 5 6 
#
# 1 38.0914 21.1665 -1.6191 0.0000 1.3185 0.0000
# 2 21.1665 224.4385 30.2645 0.0000 -2.7190 0.0000
# 3 -1.6191 30.2645 83.9724 0.0000 -4.7363 0.0000
# 4 0.0000 0.0000 0.0000 5.8748 0.0000 2.0461
# 5 1.3185 -2.7190 -4.7363 0.0000 30.3365 0.0000
# 6 0.0000 0.0000 0.0000 2.0461 0.0000 9.0386
#
#
#
# Elastic Compliance Matrix: (Units=1/GPa)
#
#
# Indices 1 2 3 4 5 6 
#
# 1 0.027944 -0.002852 0.001497 0.000000 -0.001236 0.000000
# 2 -0.002852 0.004975 -0.001832 0.000000 0.000284 0.000000
# 3 0.001497 -0.001832 0.012697 0.000000 0.001753 0.000000
# 4 0.000000 0.000000 0.000000 0.184789 0.000000 -0.041832
# 5 -0.001236 0.000284 0.001753 0.000000 0.033316 0.000000
# 6 0.000000 0.000000 0.000000 -0.041832 0.000000 0.120107
#
#
# Mechanical properties :
#
#
# Convention : Reuss Voigt Hill
#
# Bulk Modulus (GPa) = 25.48338 49.56954 37.52646
# Shear Modulus (GPa) = 12.39825 28.82935 20.61380
#
# Velocity S-wave (km/s) = 2.26349 3.45156 2.91862
# Velocity P-wave (km/s) = 4.16675 6.03061 5.18315
#
# Compressibility (1/GPa) = 0.03924126
#
# Stress axis : x y z
#
# Youngs Moduli (GPa) = 35.78593 201.00380 78.76064
#
# Poissons Ratio (x) = 0.57330 -0.11791
# Poissons Ratio (y) = 0.10207 0.14429
# Poissons Ratio (z) = -0.05357 0.36825
#
# Static dielectric constant tensor:
#      x y z
#    x 2.007610 0.000000 0.076150 
#    y 0.000000 1.935810 0.000000 
#    z 0.076150 0.000000 1.942270 
# 
# From -- ./inp_files/28704.got.cif
#   From: 2010.05.17/outbox.cif.g08.bks.cpg/sg12_15_cif.got.tgz:28704.got - 2010.06.03 13:09:07.
