data_PCOD9216308
_publ_section_title
;
Structure prediction by ZEFSAII (Michael W. Deem and Ramdas Pophale) SiO2 
 PCOD9216308
Probable space group: C 2/M
;
_chemical_formula_sum "Si O2"
_cell_formula_units_Z 48
_cell_length_a 21.985103
_cell_length_b 10.750192
_cell_length_c 14.773803
_cell_angle_alpha 90.000000
_cell_angle_beta 141.315781
_cell_angle_gamma 90.000000
_cell_volume 2182.409679
_symmetry_space_group_name_H-M "C 2/M"
_symmetry_group_IT_number 12
_symmetry_cell_setting 'monoclinic'
loop_
_space_group_symop_operation_xyz
x,y,z
-x,y,-z
-x,-y,-z
x,-y,z
1/2+x,1/2+y,z
1/2-x,1/2+y,-z
1/2-x,1/2-y,-z
1/2+x,1/2-y,z
loop_
_atom_site_type_symbol
_atom_site_label
_atom_site_fract_x
_atom_site_fract_y
_atom_site_fract_z
Si Si1 0.307816 0.359727 0.118017
Si Si2 0.885498 0.362359 0.546544
Si Si3 0.822734 0.145494 0.655736
Si Si4 0.393256 0.642268 0.920826
Si Si5 0.610647 0.640136 0.592166
Si Si6 0.524973 0.275107 0.805200
O O1 0.269067 0.500000 0.058480
O O2 0.321779 0.338544 0.241213
O O3 0.415628 0.352820 0.198961
O O4 0.250000 0.250000 0.000000
O O5 0.876300 0.500000 0.494723
O O6 0.791040 0.346339 0.503010
O O7 0.882341 0.251082 0.471214
O O8 0.988207 0.351921 0.717786
O O9 0.831362 0.201635 0.767492
O O10 0.918848 0.172091 0.709431
O O11 0.835609 0.000000 0.690074
O O12 0.363372 0.500000 0.912495
O O13 0.500000 0.632679 0.000000
O O14 0.409171 0.723039 0.028925
O O15 0.500000 0.639725 0.500000
O O16 0.368954 0.500000 0.420512
#
# Coordination Sequence:
#
# PCOD9216308 Si02
#       6
#     8   8   8   8   8   8
#     4  11  25  42  65  94 122 161 210 260 313 368
#     4  11  24  39  62  97 131 164 203 258 317 369
#     4   9  19  36  61  94 126 159 209 258 305 371
#     4   8  15  29  54  85 113 148 199 250 291 346
#     4  10  22  44  66  89 121 164 217 259 302 370
#     4  11  20  37  61  90 125 164 205 252 310 367
#
# _framework density 21.994036000000001
#
# number of rings (size 3 to 8) (size 9 to 14) (size 15 to 20)
#    0.000    2.000    1.667    3.000    2.333    3.000 
#    0.000    0.833    0.000    4.500    0.000    0.000 
#    0.000    0.000    0.000    0.000    0.000    0.000 
#
# Total GULP energy -133654.297172 kJ/mol
# GULP energy per Si atom -5568.929049 kJ/mol
# Density = 2.194398 g / cm^3
# Si number density = 21.994036 Si / 1000 Ang^3
#
#
#
# Elastic Constant Matrix: (Units=GPa)
#
#
# Indices 1 2 3 4 5 6 
#
# 1 71.3623 33.1764 6.9729 0.0000 -4.2135 0.0000
# 2 33.1764 130.6779 22.1107 0.0000 -3.2771 0.0000
# 3 6.9729 22.1107 60.3321 0.0000 12.4117 0.0000
# 4 0.0000 0.0000 0.0000 30.7185 0.0000 -1.2169
# 5 -4.2135 -3.2771 12.4117 0.0000 24.6242 0.0000
# 6 0.0000 0.0000 0.0000 -1.2169 0.0000 17.9221
#
#
#
# Elastic Compliance Matrix: (Units=1/GPa)
#
#
# Indices 1 2 3 4 5 6 
#
# 1 0.016058 -0.003836 -0.001016 0.000000 0.002749 0.000000
# 2 -0.003836 0.009264 -0.003425 0.000000 0.002303 0.000000
# 3 -0.001016 -0.003425 0.020169 0.000000 -0.010795 0.000000
# 4 0.000000 0.000000 0.000000 0.032642 0.000000 0.002216
# 5 0.002749 0.002303 -0.010795 0.000000 0.046829 0.000000
# 6 0.000000 0.000000 0.000000 0.002216 0.000000 0.055948
#
#
# Mechanical properties :
#
#
# Convention : Reuss Voigt Hill
#
# Bulk Modulus (GPa) = 34.55897 42.98802 38.77350
# Shear Modulus (GPa) = 24.14209 27.99377 26.06793
#
# Velocity S-wave (km/s) = 3.31670 3.57149 3.44645
# Velocity P-wave (km/s) = 5.51492 6.04939 5.78832
#
# Compressibility (1/GPa) = 0.02893604
#
# Stress axis : x y z
#
# Youngs Moduli (GPa) = 62.27465 107.94935 49.58218
#
# Poissons Ratio (x) = 0.41409 0.05036
# Poissons Ratio (y) = 0.23888 0.16984
# Poissons Ratio (z) = 0.06325 0.36977
#
# Static dielectric constant tensor:
#      x y z
#    x 1.843340 0.000000 -0.093980 
#    y 0.000000 1.829120 0.000000 
#    z -0.093980 0.000000 2.025230 
# 
# From -- ./inp_files/232857.got.cif
#   From: 2010.05.17/outbox.cif.g08.bks.cpg/sg12_117_cif.got.tgz:232857.got - 2010.06.03 13:09:07.
