data_PCOD9216090
_publ_section_title
;
Structure prediction by ZEFSAII (Michael W. Deem and Ramdas Pophale) SiO2 
 PCOD9216090
Probable space group: C 2/M
;
_chemical_formula_sum "Si O2"
_cell_formula_units_Z 50
_cell_length_a 16.734049
_cell_length_b 28.236449
_cell_length_c 5.941441
_cell_angle_alpha 90.000000
_cell_angle_beta 63.352650
_cell_angle_gamma 90.000000
_cell_volume 2509.200876
_symmetry_space_group_name_H-M "C 2/M"
_symmetry_group_IT_number 12
_symmetry_cell_setting 'monoclinic'
loop_
_space_group_symop_operation_xyz
x,y,z
-x,y,-z
-x,-y,-z
x,-y,z
1/2+x,1/2+y,z
1/2-x,1/2+y,-z
1/2-x,1/2-y,-z
1/2+x,1/2-y,z
loop_
_atom_site_type_symbol
_atom_site_label
_atom_site_fract_x
_atom_site_fract_y
_atom_site_fract_z
Si Si1 0.683417 0.373164 0.806226
Si Si2 0.500000 0.500000 0.000000
Si Si3 0.939572 0.082795 0.384463
Si Si4 0.000000 0.307134 0.000000
Si Si5 0.685233 0.707544 0.158849
Si Si6 0.769517 0.054443 0.877722
Si Si7 0.500000 0.245291 0.500000
Si Si8 0.315264 0.862001 0.260766
O O1 0.602004 0.381042 0.739495
O O2 0.777813 0.369141 0.558201
O O3 0.665981 0.327007 0.974501
O O4 0.694579 0.419940 0.944198
O O5 0.505021 0.541546 0.801454
O O6 0.851879 0.058378 0.601017
O O7 0.000000 0.105900 0.500000
O O8 0.088631 0.339059 0.878326
O O9 0.997859 0.280658 0.754060
O O10 0.593409 0.726293 0.379002
O O11 0.743072 0.674562 0.249848
O O12 0.750000 0.750000 0.000000
O O13 0.694942 0.089053 0.864855
O O14 0.744239 0.000000 0.944158
#
# Coordination Sequence:
#
# PCOD9216090 Si02
#       8
#     8   2   8   4   8   8   4   8
#     4  10  24  42  65  96 139 188 223 298 348 418
#     4  12  22  36  62  82 128 194 228 284 330 422
#     4  11  23  38  58  92 134 187 234 280 341 418
#     4  12  26  48  78 110 134 184 242 296 376 436
#     4  11  23  48  70  99 140 182 238 292 355 426
#     4  10  22  43  64  96 132 180 233 284 351 415
#     4  12  28  44  78 106 142 196 234 294 364 442
#     4  10  24  45  73 100 140 180 233 297 355 426
#
# _framework density 19.926662
#
# number of rings (size 3 to 8) (size 9 to 14) (size 15 to 20)
#    0.000    1.280    2.400    2.160    7.840    1.920 
#   24.480    0.400    0.000    0.960    0.000    0.000 
#    0.000    0.000    0.000    0.000    0.000    0.000 
#
# Total GULP energy -139349.414619 kJ/mol
# GULP energy per Si atom -5573.976585 kJ/mol
# Density = 1.988131 g / cm^3
# Si number density = 19.926662 Si / 1000 Ang^3
#
#
#
# Elastic Constant Matrix: (Units=GPa)
#
#
# Indices 1 2 3 4 5 6 
#
# 1 122.6133 65.5079 57.0349 0.0000 -7.4561 0.0000
# 2 65.5079 143.2538 64.1694 0.0000 -5.0414 0.0000
# 3 57.0349 64.1694 115.3770 0.0000 0.3978 0.0000
# 4 0.0000 0.0000 0.0000 14.7018 0.0000 -5.1249
# 5 -7.4561 -5.0414 0.3978 0.0000 32.6377 0.0000
# 6 0.0000 0.0000 0.0000 -5.1249 0.0000 -8.3340
#
#
#
# Elastic Compliance Matrix: (Units=1/GPa)
#
#
# Indices 1 2 3 4 5 6 
#
# 1 0.012093 -0.003689 -0.003934 0.000000 0.002241 0.000000
# 2 -0.003689 0.010496 -0.004017 0.000000 0.000828 0.000000
# 3 -0.003934 -0.004017 0.012852 0.000000 -0.001676 0.000000
# 4 0.000000 0.000000 0.000000 0.056012 0.000000 -0.034444
# 5 0.002241 0.000828 -0.001676 0.000000 0.031300 0.000000
# 6 0.000000 0.000000 0.000000 -0.034444 0.000000 -0.098810
#
#
# Mechanical properties :
#
#
# Convention : Reuss Voigt Hill
#
# Bulk Modulus (GPa) = 82.22924 83.85204 83.04064
# Shear Modulus (GPa) = 97.51392 20.76992 59.14192
#
# Velocity S-wave (km/s) = 7.00305 3.23200 5.45383
# Velocity P-wave (km/s) = 10.33178 7.48995 9.02345
#
# Compressibility (1/GPa) = 0.01216112
#
# Stress axis : x y z
#
# Youngs Moduli (GPa) = 82.69459 95.27539 77.81010
#
# Poissons Ratio (x) = 0.35145 0.30610
# Poissons Ratio (y) = 0.30504 0.31255
# Poissons Ratio (z) = 0.32532 0.38271
#
# Static dielectric constant tensor:
#      x y z
#    x 1.721510 0.000000 0.024430 
#    y 0.000000 1.694570 0.000000 
#    z 0.024430 0.000000 1.793140 
# 
# From -- ./inp_files/17620.got.cif
#   From: 2010.05.17/outbox.cif.g08.bks.cpg/sg12_9_cif.got.tgz:17620.got - 2010.06.03 13:09:07.
