data_PCOD9216639
_publ_section_title
;
Structure prediction by ZEFSAII (Michael W. Deem and Ramdas Pophale) SiO2 
 PCOD9216639
Probable space group: C 2/M
;
_chemical_formula_sum "Si O2"
_cell_formula_units_Z 56
_cell_length_a 18.426748
_cell_length_b 17.776752
_cell_length_c 11.340080
_cell_angle_alpha 90.000000
_cell_angle_beta 52.513540
_cell_angle_gamma 90.000000
_cell_volume 2947.559739
_symmetry_space_group_name_H-M "C 2/M"
_symmetry_group_IT_number 12
_symmetry_cell_setting 'monoclinic'
loop_
_space_group_symop_operation_xyz
x,y,z
-x,y,-z
-x,-y,-z
x,-y,z
1/2+x,1/2+y,z
1/2-x,1/2+y,-z
1/2-x,1/2-y,-z
1/2+x,1/2-y,z
loop_
_atom_site_type_symbol
_atom_site_label
_atom_site_fract_x
_atom_site_fract_y
_atom_site_fract_z
Si Si1 0.082112 0.136131 0.496898
Si Si2 0.158699 0.341113 0.149800
Si Si3 0.120756 0.916706 0.719577
Si Si4 0.257822 0.307834 0.824086
Si Si5 0.090089 0.754088 0.840589
Si Si6 0.450319 0.198387 0.371115
Si Si7 0.821433 0.416161 0.630822
O O1 0.105524 0.093649 0.594799
O O2 0.172572 0.147520 0.328189
O O3 0.047339 0.219211 0.572111
O O4 0.000000 0.102567 0.500000
O O5 0.185571 0.257063 0.165360
O O6 0.193349 0.396567 0.217426
O O7 0.049218 0.338387 0.254081
O O8 0.206115 0.354334 0.977129
O O9 0.079856 0.842840 0.822271
O O10 0.227305 0.912937 0.651128
O O11 0.086899 0.000000 0.788383
O O12 0.180332 0.265358 0.824673
O O13 0.095070 0.711818 0.711058
O O14 0.000000 0.729585 0.000000
O O15 0.389876 0.145434 0.512504
O O16 0.859647 0.500000 0.581676
#
# Coordination Sequence:
#
# PCOD9216639 Si02
#       7
#     8   8   8   8   8   8   8
#     4  11  20  37  63  87 116 153 200 246 291 336
#     4  11  21  34  57  86 122 148 190 241 292 340
#     4  10  23  39  57  84 119 156 199 242 289 350
#     4  11  21  36  58  90 117 151 188 253 285 346
#     4  11  21  37  63  88 114 155 195 242 298 345
#     4  11  20  36  59  91 114 148 200 245 282 349
#     4  11  22  39  60  85 121 159 193 239 295 349
#
# _framework density 18.998766
#
# number of rings (size 3 to 8) (size 9 to 14) (size 15 to 20)
#    0.000    1.143    5.714    1.286    0.000    4.000 
#    0.000    0.714    0.000    1.286    0.000    0.000 
#    0.000    0.000    0.000    0.000    0.000    0.000 
#
# Total GULP energy -156338.728229 kJ/mol
# GULP energy per Si atom -5583.526008 kJ/mol
# Density = 1.895552 g / cm^3
# Si number density = 18.998766 Si / 1000 Ang^3
#
#
#
# Elastic Constant Matrix: (Units=GPa)
#
#
# Indices 1 2 3 4 5 6 
#
# 1 93.7492 18.7315 36.6169 0.0000 19.1591 0.0000
# 2 18.7315 52.0231 4.7295 0.0000 6.3186 0.0000
# 3 36.6169 4.7295 93.8470 0.0000 9.0166 0.0000
# 4 0.0000 0.0000 0.0000 11.7969 0.0000 -1.8428
# 5 19.1591 6.3186 9.0166 0.0000 23.1505 0.0000
# 6 0.0000 0.0000 0.0000 -1.8428 0.0000 -6.1657
#
#
#
# Elastic Compliance Matrix: (Units=1/GPa)
#
#
# Indices 1 2 3 4 5 6 
#
# 1 0.015328 -0.003896 -0.004849 0.000000 -0.009734 0.000000
# 2 -0.003896 0.020894 0.000733 0.000000 -0.002764 0.000000
# 3 -0.004849 0.000733 0.012617 0.000000 -0.001101 0.000000
# 4 0.000000 0.000000 0.000000 0.080987 0.000000 -0.024205
# 5 -0.009734 -0.002764 -0.001101 0.000000 0.052434 0.000000
# 6 0.000000 0.000000 0.000000 -0.024205 0.000000 -0.154954
#
#
# Mechanical properties :
#
#
# Convention : Reuss Voigt Hill
#
# Bulk Modulus (GPa) = 30.47495 39.97502 35.22499
# Shear Modulus (GPa) = 92.13240 17.72577 54.92909
#
# Velocity S-wave (km/s) = 6.97131 3.05781 5.38281
# Velocity P-wave (km/s) = 8.99301 5.79254 7.56398
#
# Compressibility (1/GPa) = 0.03281383
#
# Stress axis : x y z
#
# Youngs Moduli (GPa) = 65.23811 47.86030 79.26106
#
# Poissons Ratio (x) = 0.18647 0.38436
# Poissons Ratio (y) = 0.25417 -0.05808
# Poissons Ratio (z) = 0.31636 -0.03507
#
# Static dielectric constant tensor:
#      x y z
#    x 1.661210 0.000000 0.014500 
#    y 0.000000 1.642390 0.000000 
#    z 0.014500 0.000000 1.647650 
# 
# From -- ./inp_files/158185.got.cif
#   From: 2010.05.17/outbox.cif.g08.bks.cpg/sg12_80_cif.got.tgz:158185.got - 2010.06.03 13:09:07.
