data_PCOD9216427
_publ_section_title
;
Structure prediction by ZEFSAII (Michael W. Deem and Ramdas Pophale) SiO2 
 PCOD9216427
Probable space group: C 2/M
;
_chemical_formula_sum "Si O2"
_cell_formula_units_Z 58
_cell_length_a 9.540163
_cell_length_b 21.579884
_cell_length_c 17.060022
_cell_angle_alpha 90.000000
_cell_angle_beta 123.982554
_cell_angle_gamma 90.000000
_cell_volume 2912.378846
_symmetry_space_group_name_H-M "C 2/M"
_symmetry_group_IT_number 12
_symmetry_cell_setting 'monoclinic'
loop_
_space_group_symop_operation_xyz
x,y,z
-x,y,-z
-x,-y,-z
x,-y,z
1/2+x,1/2+y,z
1/2-x,1/2+y,-z
1/2-x,1/2-y,-z
1/2+x,1/2-y,z
loop_
_atom_site_type_symbol
_atom_site_label
_atom_site_fract_x
_atom_site_fract_y
_atom_site_fract_z
Si Si1 0.523633 0.071355 0.246609
Si Si2 0.996015 0.835264 0.794908
Si Si3 0.626129 0.426771 0.111186
Si Si4 0.054652 0.736343 0.934220
Si Si5 0.284450 0.822247 0.605671
Si Si6 0.500000 0.000000 0.000000
Si Si7 0.857248 0.612864 0.879009
Si Si8 0.461491 0.695926 0.612007
O O1 0.327507 0.082885 0.161208
O O2 0.599672 0.120644 0.331048
O O3 0.633163 0.079497 0.201922
O O4 0.534223 0.000000 0.276921
O O5 0.974481 0.770189 0.834013
O O6 0.194892 0.846994 0.847191
O O7 0.920942 0.886830 0.827994
O O8 0.934967 0.837377 0.686780
O O9 0.603116 0.500000 0.117988
O O10 0.500000 0.410630 0.000000
O O11 0.006054 0.664173 0.920270
O O12 0.250000 0.750000 0.000000
O O13 0.000000 0.764393 0.000000
O O14 0.404111 0.765791 0.615544
O O15 0.162212 0.831925 0.492644
O O16 0.150969 0.806228 0.634548
O O17 0.635687 0.055964 0.058403
#
# Coordination Sequence:
#
# PCOD9216427 Si02
#       8
#     8   8   8   8   8   2   8   8
#     4  11  24  44  68  96 131 178 221 271 328 398
#     4  12  25  41  64  95 134 171 218 279 328 393
#     4  10  26  44  65  94 135 182 226 266 324 393
#     4  12  25  41  57  93 132 175 222 272 326 386
#     4  10  22  45  71 102 132 166 221 270 341 401
#     4  12  24  40  64  90 126 176 226 282 300 408
#     4  12  25  40  65  92 128 177 228 264 332 393
#     4  10  23  42  70 103 131 169 213 278 339 396
#
# _framework density 19.914991000000001
#
# number of rings (size 3 to 8) (size 9 to 14) (size 15 to 20)
#    0.000    0.966    4.138    1.241    8.690    0.000 
#    0.000    2.069    0.000    1.655    0.000    0.000 
#    0.000    0.000    0.000    0.000    0.000    0.000 
#
# Total GULP energy -161530.978360 kJ/mol
# GULP energy per Si atom -5570.033737 kJ/mol
# Density = 1.986966 g / cm^3
# Si number density = 19.914991 Si / 1000 Ang^3
#
#
#
# Elastic Constant Matrix: (Units=GPa)
#
#
# Indices 1 2 3 4 5 6 
#
# 1 89.8251 50.1040 44.4962 0.0000 -11.7821 0.0000
# 2 50.1040 123.9756 50.5367 0.0000 10.6849 0.0000
# 3 44.4962 50.5367 87.0148 0.0000 -6.2871 0.0000
# 4 0.0000 0.0000 0.0000 32.9767 0.0000 5.3860
# 5 -11.7821 10.6849 -6.2871 0.0000 31.2655 0.0000
# 6 0.0000 0.0000 0.0000 5.3860 0.0000 19.5161
#
#
#
# Elastic Compliance Matrix: (Units=1/GPa)
#
#
# Indices 1 2 3 4 5 6 
#
# 1 0.017980 -0.005775 -0.005285 0.000000 0.007686 0.000000
# 2 -0.005775 0.013224 -0.005288 0.000000 -0.007759 0.000000
# 3 -0.005285 -0.005288 0.017507 0.000000 0.003336 0.000000
# 4 0.000000 0.000000 0.000000 0.031756 0.000000 -0.008764
# 5 0.007686 -0.007759 0.003336 0.000000 0.038203 0.000000
# 6 0.000000 0.000000 0.000000 -0.008764 0.000000 0.053658
#
#
# Mechanical properties :
#
#
# Convention : Reuss Voigt Hill
#
# Bulk Modulus (GPa) = 62.43854 65.67659 64.05757
# Shear Modulus (GPa) = 23.76846 27.13023 25.44934
#
# Velocity S-wave (km/s) = 3.45845 3.69494 3.57865
# Velocity P-wave (km/s) = 6.88247 7.15916 7.02218
#
# Compressibility (1/GPa) = 0.01601575
#
# Stress axis : x y z
#
# Youngs Moduli (GPa) = 55.61716 75.61945 57.11929
#
# Poissons Ratio (x) = 0.43667 0.30189
# Poissons Ratio (y) = 0.32116 0.30205
# Poissons Ratio (z) = 0.29395 0.39988
#
# Static dielectric constant tensor:
#      x y z
#    x 1.714100 0.000000 0.005400 
#    y 0.000000 1.687370 0.000000 
#    z 0.005400 0.000000 1.856260 
# 
# From -- ./inp_files/258532.got.cif
#   From: 2010.05.17/outbox.cif.g08.bks.cpg/sg12_130_cif.got.tgz:258532.got - 2010.06.03 13:09:07.
