data_PCOD9216726
_publ_section_title
;
Structure prediction by ZEFSAII (Michael W. Deem and Ramdas Pophale) SiO2 
 PCOD9216726
Probable space group: C 2/M
;
_chemical_formula_sum "Si O2"
_cell_formula_units_Z 64
_cell_length_a 23.181134
_cell_length_b 21.047482
_cell_length_c 8.614202
_cell_angle_alpha 90.000000
_cell_angle_beta 55.607147
_cell_angle_gamma 90.000000
_cell_volume 3468.172226
_symmetry_space_group_name_H-M "C 2/M"
_symmetry_group_IT_number 12
_symmetry_cell_setting 'monoclinic'
loop_
_space_group_symop_operation_xyz
x,y,z
-x,y,-z
-x,-y,-z
x,-y,z
1/2+x,1/2+y,z
1/2-x,1/2+y,-z
1/2-x,1/2-y,-z
1/2+x,1/2-y,z
loop_
_atom_site_type_symbol
_atom_site_label
_atom_site_fract_x
_atom_site_fract_y
_atom_site_fract_z
Si Si1 0.720064 0.928970 0.056535
Si Si2 0.197194 0.806055 0.117556
Si Si3 0.295796 0.694469 0.516236
Si Si4 0.928720 0.380352 0.193980
Si Si5 0.424739 0.885109 0.573046
Si Si6 0.284713 0.930551 0.310807
Si Si7 0.449531 0.252015 0.694920
Si Si8 0.055667 0.761469 0.809067
O O1 0.644946 0.916584 0.251376
O O2 0.743963 0.000000 0.063859
O O3 0.772739 0.870535 0.003211
O O4 0.714531 0.926796 0.877467
O O5 0.196617 0.803531 0.307147
O O6 0.121045 0.789348 0.166826
O O7 0.250000 0.750000 0.000000
O O8 0.250000 0.750000 0.500000
O O9 0.258194 0.627036 0.547910
O O10 0.375196 0.700992 0.337449
O O11 0.924901 0.382392 0.386548
O O12 0.864720 0.421808 0.235186
O O13 0.918685 0.306199 0.160613
O O14 0.000000 0.400438 0.000000
O O15 0.500000 0.915448 0.500000
O O16 0.427314 0.814589 0.647771
O O17 0.258036 0.000000 0.397110
O O18 0.500000 0.289175 0.500000
O O19 0.503054 0.240301 0.752135
O O20 0.000000 0.797558 0.000000
#
# Coordination Sequence:
#
# PCOD9216726 Si02
#       8
#     8   8   8   8   8   8   8   8
#     4  10  23  40  57  83 118 156 196 237 289 346
#     4  11  22  35  62  88 115 154 192 243 295 340
#     4  11  22  37  59  89 117 149 198 245 286 347
#     4  11  21  34  56  83 117 153 192 231 286 351
#     4  11  20  34  57  83 117 151 190 235 287 347
#     4  10  23  40  58  81 117 159 194 237 290 345
#     4  11  20  37  57  88 122 147 190 241 299 346
#     4  11  23  36  58  90 120 151 188 245 296 345
#
# _framework density 18.453524000000002
#
# number of rings (size 3 to 8) (size 9 to 14) (size 15 to 20)
#    0.000    1.250    6.250    0.750    3.500    1.000 
#    0.000    0.000    0.000    1.500    0.000    0.000 
#    0.000    0.000    0.000    0.000    0.000    0.000 
#
# Total GULP energy -178293.724976 kJ/mol
# GULP energy per Si atom -5571.678906 kJ/mol
# Density = 1.841152 g / cm^3
# Si number density = 18.453524 Si / 1000 Ang^3
#
#
#
# Elastic Constant Matrix: (Units=GPa)
#
#
# Indices 1 2 3 4 5 6 
#
# 1 51.3058 35.6373 18.4824 0.0000 -27.5784 0.0000
# 2 35.6373 114.7620 53.2077 0.0000 -24.1502 0.0000
# 3 18.4824 53.2077 104.8534 0.0000 -33.3644 0.0000
# 4 0.0000 0.0000 0.0000 20.4791 0.0000 -4.2324
# 5 -27.5784 -24.1502 -33.3644 0.0000 30.2859 0.0000
# 6 0.0000 0.0000 0.0000 -4.2324 0.0000 15.9619
#
#
#
# Elastic Compliance Matrix: (Units=1/GPa)
#
#
# Indices 1 2 3 4 5 6 
#
# 1 0.049551 -0.010651 0.012819 0.000000 0.050751 0.000000
# 2 -0.010651 0.014039 -0.007345 0.000000 -0.006596 0.000000
# 3 0.012819 -0.007345 0.019794 0.000000 0.027623 0.000000
# 4 0.000000 0.000000 0.000000 0.051661 0.000000 0.013698
# 5 0.050751 -0.006596 0.027623 0.000000 0.104403 0.000000
# 6 0.000000 0.000000 0.000000 0.013698 0.000000 0.066281
#
#
# Mechanical properties :
#
#
# Convention : Reuss Voigt Hill
#
# Bulk Modulus (GPa) = 13.69292 53.95288 33.82290
# Shear Modulus (GPa) = 14.68743 24.25162 19.46952
#
# Velocity S-wave (km/s) = 2.82426 3.62912 3.25169
# Velocity P-wave (km/s) = 4.25107 6.84553 5.69793
#
# Compressibility (1/GPa) = 0.07303044
#
# Stress axis : x y z
#
# Youngs Moduli (GPa) = 20.18114 71.23207 50.51942
#
# Poissons Ratio (x) = 0.75868 -0.64763
# Poissons Ratio (y) = 0.21495 0.37108
# Poissons Ratio (z) = -0.25871 0.52323
#
# Static dielectric constant tensor:
#      x y z
#    x 1.741760 0.000000 0.132510 
#    y 0.000000 1.660130 0.000000 
#    z 0.132510 0.000000 1.783190 
# 
# From -- ./inp_files/99085.got.cif
#   From: 2010.05.17/outbox.cif.g08.bks.cpg/sg12_50_cif.got.tgz:99085.got - 2010.06.03 13:09:07.
