data_PCOD9216836
_publ_section_title
;
Structure prediction by ZEFSAII (Michael W. Deem and Ramdas Pophale) SiO2 
 PCOD9216836
Probable space group: C 2/M
;
_chemical_formula_sum "Si O2"
_cell_formula_units_Z 26
_cell_length_a 27.771638
_cell_length_b 7.915870
_cell_length_c 4.742122
_cell_angle_alpha 90.000000
_cell_angle_beta 111.271908
_cell_angle_gamma 90.000000
_cell_volume 971.466519
_symmetry_space_group_name_H-M "C 2/M"
_symmetry_group_IT_number 12
_symmetry_cell_setting 'monoclinic'
loop_
_space_group_symop_operation_xyz
x,y,z
-x,y,-z
-x,-y,-z
x,-y,z
1/2+x,1/2+y,z
1/2-x,1/2+y,-z
1/2-x,1/2-y,-z
1/2+x,1/2-y,z
loop_
_atom_site_type_symbol
_atom_site_label
_atom_site_fract_x
_atom_site_fract_y
_atom_site_fract_z
Si Si1 0.739210 0.000000 0.522486
Si Si2 0.149870 0.684181 0.052968
Si Si3 0.308914 0.500000 0.172558
Si Si4 0.447053 0.693244 0.821672
Si Si5 0.000000 0.000000 0.500000
O O1 0.754994 0.000000 0.880677
O O2 0.702441 0.847862 0.342726
O O3 0.792392 0.000000 0.459765
O O4 0.138621 0.500000 0.894514
O O5 0.160932 0.834019 0.860674
O O6 0.104228 0.728777 0.171161
O O7 0.452872 0.500000 0.979202
O O8 0.457584 0.645972 0.522156
O O9 0.500000 0.788663 0.000000
#
# Coordination Sequence:
#
# PCOD9216836 Si02
#       5
#     4   8   4   8   2
#     4  10  26  42  70  94 133 175 219 263 335 374
#     4  10  23  40  65  96 124 172 219 265 331 384
#     4  12  21  51  62  94 139 173 211 280 311 398
#     4   9  18  39  59  87 123 162 212 256 324 381
#     4   8  16  34  62  82 116 174 202 250 334 374
#
# _framework density 26.763660999999999
#
# number of rings (size 3 to 8) (size 9 to 14) (size 15 to 20)
#    1.846    0.308    1.538    1.846    0.000    0.615 
#   16.615    0.769    0.000    0.000    0.000    0.000 
#    0.000    0.000    0.000    0.000    0.000    0.000 
#
# Total GULP energy -72458.186064 kJ/mol
# GULP energy per Si atom -5573.706620 kJ/mol
# Density = 2.670275 g / cm^3
# Si number density = 26.763661 Si / 1000 Ang^3
#
#
#
# Elastic Constant Matrix: (Units=GPa)
#
#
# Indices 1 2 3 4 5 6 
#
# 1 226.3846 77.9174 27.5603 0.0000 -25.1950 0.0000
# 2 77.9174 181.2366 12.7494 0.0000 -22.1707 0.0000
# 3 27.5603 12.7494 68.7676 0.0000 -12.0697 0.0000
# 4 0.0000 0.0000 0.0000 5.9217 0.0000 -2.3213
# 5 -25.1950 -22.1707 -12.0697 0.0000 38.6279 0.0000
# 6 0.0000 0.0000 0.0000 -2.3213 0.0000 46.2133
#
#
#
# Elastic Compliance Matrix: (Units=1/GPa)
#
#
# Indices 1 2 3 4 5 6 
#
# 1 0.005515 -0.002025 -0.001489 0.000000 0.001969 0.000000
# 2 -0.002025 0.006696 0.000014 0.000000 0.002527 0.000000
# 3 -0.001489 0.000014 0.015835 0.000000 0.003985 0.000000
# 4 0.000000 0.000000 0.000000 0.172261 0.000000 0.008653
# 5 0.001969 0.002527 0.003985 0.000000 0.029868 0.000000
# 6 0.000000 0.000000 0.000000 0.008653 0.000000 0.022073
#
#
# Mechanical properties :
#
#
# Convention : Reuss Voigt Hill
#
# Bulk Modulus (GPa) = 47.51669 79.20478 63.36074
# Shear Modulus (GPa) = 18.77824 42.03003 30.40414
#
# Velocity S-wave (km/s) = 2.65171 3.96714 3.37415
# Velocity P-wave (km/s) = 5.21231 7.11637 6.23742
#
# Compressibility (1/GPa) = 0.02104524
#
# Stress axis : x y z
#
# Youngs Moduli (GPa) = 181.33123 149.33195 63.14994
#
# Poissons Ratio (x) = 0.30244 0.09403
# Poissons Ratio (y) = 0.36724 -0.00086
# Poissons Ratio (z) = 0.27001 -0.00204
#
# Static dielectric constant tensor:
#      x y z
#    x 1.987910 0.000000 0.100910 
#    y 0.000000 2.185750 0.000000 
#    z 0.100910 0.000000 1.875630 
# 
# From -- ./inp_files/26991.got.cif
#   From: 2010.05.17/outbox.cif.g08.bks.cpg/sg12_14_cif.got.tgz:26991.got - 2010.06.03 13:09:07.
