data_PCOD9216661
_publ_section_title
;
Structure prediction by ZEFSAII (Michael W. Deem and Ramdas Pophale) SiO2 
 PCOD9216661
Probable space group: C 2/M
;
_chemical_formula_sum "Si O2"
_cell_formula_units_Z 48
_cell_length_a 15.622234
_cell_length_b 25.386416
_cell_length_c 5.358944
_cell_angle_alpha 90.000000
_cell_angle_beta 87.552475
_cell_angle_gamma 90.000000
_cell_volume 2123.378349
_symmetry_space_group_name_H-M "C 2/M"
_symmetry_group_IT_number 12
_symmetry_cell_setting 'monoclinic'
loop_
_space_group_symop_operation_xyz
x,y,z
-x,y,-z
-x,-y,-z
x,-y,z
1/2+x,1/2+y,z
1/2-x,1/2+y,-z
1/2-x,1/2-y,-z
1/2+x,1/2-y,z
loop_
_atom_site_type_symbol
_atom_site_label
_atom_site_fract_x
_atom_site_fract_y
_atom_site_fract_z
Si Si1 0.277510 0.060085 0.345878
Si Si2 0.702401 0.285648 0.306051
Si Si3 0.912827 0.157802 0.358069
Si Si4 0.665790 0.440261 0.861633
Si Si5 0.121974 0.268289 0.919722
Si Si6 0.050724 0.624692 0.751031
O O1 0.233641 0.063930 0.624027
O O2 0.357054 0.098537 0.298066
O O3 0.310682 0.000000 0.323370
O O4 0.211604 0.065651 0.122566
O O5 0.750000 0.250000 0.500000
O O6 0.664213 0.337370 0.431070
O O7 0.780835 0.293280 0.106931
O O8 0.624368 0.251512 0.203945
O O9 0.899033 0.107671 0.183629
O O10 0.899853 0.213096 0.213927
O O11 0.000000 0.154977 0.500000
O O12 0.629205 0.500000 0.853125
O O13 0.065451 0.313769 0.812943
O O14 0.000000 0.618751 0.500000
O O15 0.000000 0.602967 0.000000
#
# Coordination Sequence:
#
# PCOD9216661 Si02
#       6
#     8   8   8   8   8   8
#     4  10  23  46  72  94 127 172 223 273 322 389
#     4   9  21  38  61  87 117 173 224 258 309 383
#     4  11  24  38  62  93 130 169 210 273 330 388
#     4  10  23  44  70  96 124 169 224 275 324 387
#     4  10  23  39  60  89 130 177 213 264 311 396
#     4  12  27  40  64 100 138 174 210 271 329 387
#
# _framework density 22.605488000000001
#
# number of rings (size 3 to 8) (size 9 to 14) (size 15 to 20)
#    0.000    1.667    0.000    2.500   16.333    1.000 
#    0.000    0.000    0.000    3.000    0.000    0.000 
#    0.000    0.000    0.000    0.000    0.000    0.000 
#
# Total GULP energy -133963.135624 kJ/mol
# GULP energy per Si atom -5581.797318 kJ/mol
# Density = 2.255404 g / cm^3
# Si number density = 22.605488 Si / 1000 Ang^3
#
#
#
# Elastic Constant Matrix: (Units=GPa)
#
#
# Indices 1 2 3 4 5 6 
#
# 1 56.1325 27.4993 11.2561 0.0000 19.7586 0.0000
# 2 27.4993 137.0968 20.4852 0.0000 17.8045 0.0000
# 3 11.2561 20.4852 113.8635 0.0000 15.4705 0.0000
# 4 0.0000 0.0000 0.0000 29.6430 0.0000 3.8379
# 5 19.7586 17.8045 15.4705 0.0000 32.8034 0.0000
# 6 0.0000 0.0000 0.0000 3.8379 0.0000 15.8955
#
#
#
# Elastic Compliance Matrix: (Units=1/GPa)
#
#
# Indices 1 2 3 4 5 6 
#
# 1 0.023797 -0.003125 -0.000078 0.000000 -0.012601 0.000000
# 2 -0.003125 0.008343 -0.000890 0.000000 -0.002226 0.000000
# 3 -0.000078 -0.000890 0.009486 0.000000 -0.003944 0.000000
# 4 0.000000 0.000000 0.000000 0.034823 0.000000 -0.008408
# 5 -0.012601 -0.002226 -0.003944 0.000000 0.041143 0.000000
# 6 0.000000 0.000000 0.000000 -0.008408 0.000000 0.064941
#
#
# Mechanical properties :
#
#
# Convention : Reuss Voigt Hill
#
# Bulk Modulus (GPa) = 29.90400 47.28600 38.59500
# Shear Modulus (GPa) = 24.76889 32.19185 28.48037
#
# Velocity S-wave (km/s) = 3.31373 3.77778 3.55334
# Velocity P-wave (km/s) = 5.28190 6.32394 5.82626
#
# Compressibility (1/GPa) = 0.03344034
#
# Stress axis : x y z
#
# Youngs Moduli (GPa) = 42.02191 119.86059 105.41785
#
# Poissons Ratio (x) = 0.37459 0.00824
# Poissons Ratio (y) = 0.13133 0.09377
# Poissons Ratio (z) = 0.00329 0.10662
#
# Static dielectric constant tensor:
#      x y z
#    x 1.939590 0.000000 -0.114720 
#    y 0.000000 1.866260 0.000000 
#    z -0.114720 0.000000 1.946020 
# 
# From -- ./inp_files/16680.got.cif
#   From: 2010.05.17/outbox.cif.g08.bks.cpg/sg12_9_cif.got.tgz:16680.got - 2010.06.03 13:09:07.
