data_PCOD9216692
_publ_section_title
;
Structure prediction by ZEFSAII (Michael W. Deem and Ramdas Pophale) SiO2 
 PCOD9216692
Probable space group: C 2/M
;
_chemical_formula_sum "Si O2"
_cell_formula_units_Z 60
_cell_length_a 16.928025
_cell_length_b 22.046757
_cell_length_c 9.625861
_cell_angle_alpha 90.000000
_cell_angle_beta 119.368140
_cell_angle_gamma 90.000000
_cell_volume 3130.771210
_symmetry_space_group_name_H-M "C 2/M"
_symmetry_group_IT_number 12
_symmetry_cell_setting 'monoclinic'
loop_
_space_group_symop_operation_xyz
x,y,z
-x,y,-z
-x,-y,-z
x,-y,z
1/2+x,1/2+y,z
1/2-x,1/2+y,-z
1/2-x,1/2-y,-z
1/2+x,1/2-y,z
loop_
_atom_site_type_symbol
_atom_site_label
_atom_site_fract_x
_atom_site_fract_y
_atom_site_fract_z
Si Si1 0.688647 0.098287 0.919135
Si Si2 0.957539 0.197436 0.813060
Si Si3 0.430159 0.625186 0.312944
Si Si4 0.872666 0.681964 0.633360
Si Si5 0.739268 0.324372 0.260624
Si Si6 0.261005 0.808487 0.818580
Si Si7 0.167449 0.000000 0.837945
Si Si8 0.990079 0.432424 0.657252
O O1 0.729666 0.120437 0.807879
O O2 0.589800 0.071905 0.807991
O O3 0.758022 0.052135 0.048536
O O4 0.683693 0.156311 0.015895
O O5 0.936428 0.259615 0.712462
O O6 0.859375 0.167281 0.756976
O O7 0.022344 0.153506 0.782395
O O8 0.000000 0.211630 0.000000
O O9 0.500000 0.630957 0.500000
O O10 0.340546 0.665375 0.265646
O O11 0.402182 0.555287 0.266795
O O12 0.811587 0.688688 0.443693
O O13 0.807109 0.678767 0.709712
O O14 0.929238 0.620670 0.666375
O O15 0.735069 0.263817 0.163498
O O16 0.952065 0.500000 0.647844
O O17 0.000000 0.423379 0.500000
#
# Coordination Sequence:
#
# PCOD9216692 Si02
#       8
#     8   8   8   8   8   8   4   8
#     4  11  22  41  65  89 125 169 211 257 319 376
#     4  11  24  40  65  99 134 161 213 269 320 381
#     4  11  22  42  68  93 126 172 215 259 319 388
#     4  11  24  41  64  97 129 166 204 264 320 376
#     4  11  22  42  63  93 129 167 206 263 319 379
#     4  10  23  39  64  96 130 158 203 261 331 375
#     4  10  23  42  62  91 125 168 211 266 314 365
#     4  11  24  43  66  94 125 166 220 259 305 377
#
# _framework density 19.164608000000001
#
# number of rings (size 3 to 8) (size 9 to 14) (size 15 to 20)
#    0.000    1.200    2.000    5.400    5.600    0.533 
#    4.800    3.667    0.000    0.000    0.000    0.000 
#    0.000    0.000    0.000    0.000    0.000    0.000 
#
# Total GULP energy -167151.601927 kJ/mol
# GULP energy per Si atom -5571.720064 kJ/mol
# Density = 1.912099 g / cm^3
# Si number density = 19.164608 Si / 1000 Ang^3
#
#
#
# Elastic Constant Matrix: (Units=GPa)
#
#
# Indices 1 2 3 4 5 6 
#
# 1 54.3545 39.2355 -9.9138 0.0000 6.7361 0.0000
# 2 39.2355 54.5073 -18.8976 0.0000 -5.2745 0.0000
# 3 -9.9138 -18.8976 60.3821 0.0000 14.7503 0.0000
# 4 0.0000 0.0000 0.0000 22.6065 0.0000 11.3872
# 5 6.7361 -5.2745 14.7503 0.0000 28.3860 0.0000
# 6 0.0000 0.0000 0.0000 11.3872 0.0000 6.7263
#
#
#
# Elastic Compliance Matrix: (Units=1/GPa)
#
#
# Indices 1 2 3 4 5 6 
#
# 1 0.045244 -0.033881 0.001129 0.000000 -0.017619 0.000000
# 2 -0.033881 0.045959 0.005464 0.000000 0.013741 0.000000
# 3 0.001129 0.005464 0.020931 0.000000 -0.010129 0.000000
# 4 0.000000 0.000000 0.000000 0.300426 0.000000 -0.508606
# 5 -0.017619 0.013741 -0.010129 0.000000 0.047226 0.000000
# 6 0.000000 0.000000 0.000000 -0.508606 0.000000 1.009715
#
#
# Mechanical properties :
#
#
# Convention : Reuss Voigt Hill
#
# Bulk Modulus (GPa) = 17.37418 21.12135 19.24776
# Shear Modulus (GPa) = 3.23989 22.13174 12.68582
#
# Velocity S-wave (km/s) = 1.30163 3.40196 2.57561
# Velocity P-wave (km/s) = 3.36815 5.14549 4.34859
#
# Compressibility (1/GPa) = 0.05755669
#
# Stress axis : x y z
#
# Youngs Moduli (GPa) = 22.10235 21.75867 47.77621
#
# Poissons Ratio (x) = 0.73721 -0.05392
# Poissons Ratio (y) = 0.74886 -0.26106
# Poissons Ratio (z) = -0.02495 -0.11889
#
# Static dielectric constant tensor:
#      x y z
#    x 1.657140 0.000000 -0.004410 
#    y 0.000000 1.667340 0.000000 
#    z -0.004410 0.000000 1.678960 
# 
# From -- ./inp_files/78044.got.cif
#   From: 2010.05.17/outbox.cif.g08.bks.cpg/sg12_40_cif.got.tgz:78044.got - 2010.06.03 13:09:07.
