data_PCOD9216809
_publ_section_title
;
Structure prediction by ZEFSAII (Michael W. Deem and Ramdas Pophale) SiO2 
 PCOD9216809
Probable space group: C 2/M
;
_chemical_formula_sum "Si O2"
_cell_formula_units_Z 56
_cell_length_a 9.079078
_cell_length_b 16.768082
_cell_length_c 24.828044
_cell_angle_alpha 90.000000
_cell_angle_beta 44.497115
_cell_angle_gamma 90.000000
_cell_volume 2649.153900
_symmetry_space_group_name_H-M "C 2/M"
_symmetry_group_IT_number 12
_symmetry_cell_setting 'monoclinic'
loop_
_space_group_symop_operation_xyz
x,y,z
-x,y,-z
-x,-y,-z
x,-y,z
1/2+x,1/2+y,z
1/2-x,1/2+y,-z
1/2-x,1/2-y,-z
1/2+x,1/2-y,z
loop_
_atom_site_type_symbol
_atom_site_label
_atom_site_fract_x
_atom_site_fract_y
_atom_site_fract_z
Si Si1 0.587892 0.412141 0.405099
Si Si2 0.371340 0.759456 0.811953
Si Si3 0.821564 0.711825 0.422585
Si Si4 0.425489 0.408709 0.080959
Si Si5 0.821433 0.818450 0.714285
Si Si6 0.421040 0.089210 0.464353
Si Si7 0.263434 0.183222 0.043793
O O1 0.657804 0.500000 0.407017
O O2 0.672616 0.338415 0.420029
O O3 0.658770 0.400215 0.324732
O O4 0.333299 0.412968 0.472123
O O5 0.236302 0.841658 0.854456
O O6 0.615087 0.780090 0.741483
O O7 0.296726 0.699797 0.784058
O O8 0.349063 0.717356 0.874681
O O9 0.750000 0.750000 0.500000
O O10 0.986950 0.644388 0.398582
O O11 0.956816 0.777664 0.357970
O O12 0.348725 0.500000 0.104531
O O13 0.639775 0.394493 0.057520
O O14 0.500000 0.392392 0.000000
O O15 0.500000 0.124126 0.500000
O O16 0.503872 0.000000 0.439223
O O17 0.500000 0.169188 0.000000
O O18 0.250000 0.250000 0.000000
#
# Coordination Sequence:
#
# PCOD9216809 Si02
#       7
#     8   8   8   8   8   8   8
#     4  11  25  47  68  94 133 178 229 287 357 425
#     4  12  23  43  67  98 138 179 226 279 341 416
#     4  12  25  41  68  98 125 173 236 297 339 410
#     4  11  24  43  70 107 142 180 232 283 337 411
#     4  12  26  41  66 101 130 182 232 283 348 417
#     4  10  23  40  64  93 127 169 221 289 353 406
#     4  12  20  40  75 104 133 183 228 276 337 407
#
# _framework density 21.138824
#
# number of rings (size 3 to 8) (size 9 to 14) (size 15 to 20)
#    0.000    0.571    7.143    0.857    4.000    2.000 
#    0.000    0.714    0.000    0.000    0.000    0.000 
#    0.000    0.000    0.000    0.000    0.000    0.000 
#
# Total GULP energy -156022.853153 kJ/mol
# GULP energy per Si atom -5572.244755 kJ/mol
# Density = 2.109071 g / cm^3
# Si number density = 21.138824 Si / 1000 Ang^3
#
#
#
# Elastic Constant Matrix: (Units=GPa)
#
#
# Indices 1 2 3 4 5 6 
#
# 1 112.7787 28.6719 25.6349 0.0010 8.2477 0.0001
# 2 28.6719 89.1859 28.6887 0.0018 13.3343 -0.0009
# 3 25.6349 28.6887 94.0976 0.0031 19.6265 -0.0025
# 4 0.0010 0.0018 0.0031 18.9638 -0.0008 1.0042
# 5 8.2477 13.3343 19.6265 -0.0008 40.1056 0.0002
# 6 0.0001 -0.0009 -0.0025 1.0042 0.0002 31.0813
#
#
#
# Elastic Compliance Matrix: (Units=1/GPa)
#
#
# Indices 1 2 3 4 5 6 
#
# 1 0.009964 -0.002558 -0.001876 0.000000 -0.000281 0.000000
# 2 -0.002558 0.013325 -0.002841 -0.000001 -0.002514 0.000000
# 3 -0.001876 -0.002841 0.013060 -0.000002 -0.005061 0.000001
# 4 0.000000 -0.000001 -0.000002 0.052822 0.000002 -0.001707
# 5 -0.000281 -0.002514 -0.005061 0.000002 0.028304 -0.000001
# 6 0.000000 0.000000 0.000001 -0.001707 -0.000001 0.032229
#
#
# Mechanical properties :
#
#
# Convention : Reuss Voigt Hill
#
# Bulk Modulus (GPa) = 45.87506 51.33924 48.60715
# Shear Modulus (GPa) = 29.15088 32.23458 30.69273
#
# Velocity S-wave (km/s) = 3.71755 3.90923 3.81459
# Velocity P-wave (km/s) = 6.33844 6.68697 6.51503
#
# Compressibility (1/GPa) = 0.02179834
#
# Stress axis : x y z
#
# Youngs Moduli (GPa) = 100.35938 75.04880 76.56843
#
# Poissons Ratio (x) = 0.19197 0.14365
# Poissons Ratio (y) = 0.25671 0.21756
# Poissons Ratio (z) = 0.18829 0.21324
#
# Static dielectric constant tensor:
#      x y z
#    x 1.825950 0.000000 -0.008650 
#    y 0.000000 1.856140 0.000000 
#    z -0.008650 0.000000 1.858690 
# 
# From -- ./inp_files/333297.got.cif
#   From: 2010.05.17/outbox.cif.g08.bks.cpg/sg12_167_cif.got.tgz:333297.got - 2010.06.03 13:09:07.
