data_PCOD9216041
_publ_section_title
;
Structure prediction by ZEFSAII (Michael W. Deem and Ramdas Pophale) SiO2 
 PCOD9216041
Probable space group: C 2/M
;
_chemical_formula_sum "Si O2"
_cell_formula_units_Z 28
_cell_length_a 11.754730
_cell_length_b 18.882130
_cell_length_c 4.992581
_cell_angle_alpha 90.000000
_cell_angle_beta 83.943934
_cell_angle_gamma 90.000000
_cell_volume 1101.940724
_symmetry_space_group_name_H-M "C 2/M"
_symmetry_group_IT_number 12
_symmetry_cell_setting 'monoclinic'
loop_
_space_group_symop_operation_xyz
x,y,z
-x,y,-z
-x,-y,-z
x,-y,z
1/2+x,1/2+y,z
1/2-x,1/2+y,-z
1/2-x,1/2-y,-z
1/2+x,1/2-y,z
loop_
_atom_site_type_symbol
_atom_site_label
_atom_site_fract_x
_atom_site_fract_y
_atom_site_fract_z
Si Si1 0.708833 0.079361 0.305998
Si Si2 0.500000 0.299387 0.000000
Si Si3 0.875842 0.717987 0.416494
Si Si4 0.138542 0.920034 0.235051
O O1 0.633265 0.139486 0.459948
O O2 0.752413 0.090647 0.992348
O O3 0.659995 0.000000 0.336481
O O4 0.820672 0.081384 0.469401
O O5 0.600867 0.245574 0.889829
O O6 0.555223 0.356750 0.188170
O O7 0.750000 0.750000 0.500000
O O8 0.000000 0.742115 0.500000
O O9 0.096025 0.000000 0.192164
#
# Coordination Sequence:
#
# PCOD9216041 Si02
#       4
#     8   4   8   8
#     4  10  23  45  70 100 143 189 241 296 359 432
#     4  12  25  40  73 102 148 188 242 300 365 428
#     4  12  27  46  72 107 147 193 243 300 365 435
#     4  10  22  42  71 104 140 187 242 301 360 426
#
# _framework density 25.409717000000001
#
# number of rings (size 3 to 8) (size 9 to 14) (size 15 to 20)
#    0.000    1.143    2.857    2.143    4.000    2.857 
#    0.000    5.000    0.000    0.000    0.000    0.000 
#    0.000    0.000    0.000    0.000    0.000    0.000 
#
# Total GULP energy -78103.575079 kJ/mol
# GULP energy per Si atom -5578.826791 kJ/mol
# Density = 2.535188 g / cm^3
# Si number density = 25.409717 Si / 1000 Ang^3
#
#
#
# Elastic Constant Matrix: (Units=GPa)
#
#
# Indices 1 2 3 4 5 6 
#
# 1 106.9342 38.0949 21.0611 0.0000 -26.8688 0.0000
# 2 38.0949 198.1004 39.3631 0.0000 -56.5608 0.0000
# 3 21.0611 39.3631 94.0693 0.0000 -35.4637 0.0000
# 4 0.0000 0.0000 0.0000 24.5334 0.0000 -12.2573
# 5 -26.8688 -56.5608 -35.4637 0.0000 50.0652 0.0000
# 6 0.0000 0.0000 0.0000 -12.2573 0.0000 31.4291
#
#
#
# Elastic Compliance Matrix: (Units=1/GPa)
#
#
# Indices 1 2 3 4 5 6 
#
# 1 0.010869 -0.000629 -0.000326 0.000000 0.004892 0.000000
# 2 -0.000629 0.007488 0.000095 0.000000 0.008190 0.000000
# 3 -0.000326 0.000095 0.014514 0.000000 0.010213 0.000000
# 4 0.000000 0.000000 0.000000 0.050625 0.000000 0.019744
# 5 0.004892 0.008190 0.010213 0.000000 0.039086 0.000000
# 6 0.000000 0.000000 0.000000 0.019744 0.000000 0.039518
#
#
# Mechanical properties :
#
#
# Convention : Reuss Voigt Hill
#
# Bulk Modulus (GPa) = 32.10157 66.23801 49.16979
# Shear Modulus (GPa) = 28.70208 41.24454 34.97331
#
# Velocity S-wave (km/s) = 3.36456 4.03324 3.71398
# Velocity P-wave (km/s) = 5.26827 6.91476 6.14689
#
# Compressibility (1/GPa) = 0.03115112
#
# Stress axis : x y z
#
# Youngs Moduli (GPa) = 92.00590 133.54270 68.89842
#
# Poissons Ratio (x) = 0.08394 0.02247
# Poissons Ratio (y) = 0.05783 -0.00652
# Poissons Ratio (z) = 0.03001 -0.01265
#
# Static dielectric constant tensor:
#      x y z
#    x 2.043820 0.000000 0.130770 
#    y 0.000000 2.012740 0.000000 
#    z 0.130770 0.000000 2.767480 
# 
# From -- ./inp_files/5613.got.cif
#   From: 2010.05.17/outbox.cif.g08.bks.cpg/sg12_3_cif.got.tgz:5613.got - 2010.06.03 13:09:07.
