data_PCOD9216838
_publ_section_title
;
Structure prediction by ZEFSAII (Michael W. Deem and Ramdas Pophale) SiO2 
 PCOD9216838
Probable space group: C 2/M
;
_chemical_formula_sum "Si O2"
_cell_formula_units_Z 48
_cell_length_a 14.405015
_cell_length_b 18.563166
_cell_length_c 16.111615
_cell_angle_alpha 90.000000
_cell_angle_beta 153.508663
_cell_angle_gamma 90.000000
_cell_volume 1921.766191
_symmetry_space_group_name_H-M "C 2/M"
_symmetry_group_IT_number 12
_symmetry_cell_setting 'monoclinic'
loop_
_space_group_symop_operation_xyz
x,y,z
-x,y,-z
-x,-y,-z
x,-y,z
1/2+x,1/2+y,z
1/2-x,1/2+y,-z
1/2-x,1/2-y,-z
1/2+x,1/2-y,z
loop_
_atom_site_type_symbol
_atom_site_label
_atom_site_fract_x
_atom_site_fract_y
_atom_site_fract_z
Si Si1 0.765041 0.000000 0.398300
Si Si2 0.383136 0.500000 0.758075
Si Si3 0.161261 0.842530 0.842547
Si Si4 0.663599 0.341520 0.562186
Si Si5 0.030440 0.500000 0.688151
Si Si6 0.996698 0.229714 0.873455
Si Si7 0.708172 0.878206 0.722506
Si Si8 0.677202 0.500000 0.844574
O O1 0.771107 0.077215 0.359237
O O2 0.562662 0.000000 0.295030
O O3 0.979199 0.000000 0.623479
O O4 0.176950 0.500000 0.535625
O O5 0.360935 0.433114 0.799157
O O6 0.580316 0.500000 0.858850
O O7 0.955697 0.843168 0.620901
O O8 0.087981 0.826163 0.878164
O O9 0.270826 0.920027 0.913327
O O10 0.312509 0.777253 0.940982
O O11 0.500000 0.316062 0.500000
O O12 0.855977 0.288026 0.711853
O O13 0.142948 0.424667 0.751859
O O14 0.840906 0.193537 0.814921
O O15 0.500000 0.870558 0.500000
#
# Coordination Sequence:
#
# PCOD9216838 Si02
#       8
#     4   4   8   8   4   8   8   4
#     4   9  20  39  66  93 127 170 236 274 313 394
#     4   8  12  25  50  85 128 162 208 254 310 396
#     4  10  23  40  65  96 132 177 226 268 332 392
#     4  11  24  43  66  93 129 178 224 277 326 386
#     4   8  16  30  59 101 124 167 218 269 324 400
#     4  11  22  39  62 100 137 175 212 276 338 408
#     4   9  16  28  56  97 133 166 210 262 333 398
#     4   9  15  34  61  88 123 173 218 268 314 385
#
# _framework density 24.977022999999999
#
# number of rings (size 3 to 8) (size 9 to 14) (size 15 to 20)
#    0.000    2.333    1.667    2.250    2.333    1.333 
#    3.000    0.000    0.000    4.000    0.000    7.000 
#    0.000    0.000    0.000    0.000    0.000    0.000 
#
# Total GULP energy -134054.240299 kJ/mol
# GULP energy per Si atom -5585.593346 kJ/mol
# Density = 2.492017 g / cm^3
# Si number density = 24.977023 Si / 1000 Ang^3
#
#
#
# Elastic Constant Matrix: (Units=GPa)
#
#
# Indices 1 2 3 4 5 6 
#
# 1 61.3151 28.4890 2.5152 0.0010 17.4262 0.0004
# 2 28.4890 152.0538 39.7092 0.0169 0.6675 0.0023
# 3 2.5152 39.7092 93.1398 0.0295 3.8016 0.0076
# 4 0.0010 0.0169 0.0295 -8.4221 0.0108 -0.8211
# 5 17.4262 0.6675 3.8016 0.0108 24.5226 0.0051
# 6 0.0004 0.0023 0.0076 -0.8211 0.0051 67.3989
#
#
#
# Elastic Compliance Matrix: (Units=1/GPa)
#
#
# Indices 1 2 3 4 5 6 
#
# 1 0.023208 -0.004827 0.002112 -0.000021 -0.016688 0.000001
# 2 -0.004827 0.008406 -0.003607 0.000008 0.003760 0.000000
# 3 0.002112 -0.003607 0.012353 0.000032 -0.003318 -0.000001
# 4 -0.000021 0.000008 0.000032 -0.118594 0.000062 -0.001445
# 5 -0.016688 0.003760 -0.003318 0.000062 0.053050 -0.000003
# 6 0.000001 0.000000 -0.000001 -0.001445 -0.000003 0.014819
#
#
# Mechanical properties :
#
#
# Convention : Reuss Voigt Hill
#
# Bulk Modulus (GPa) = 31.92422 49.77060 40.84741
# Shear Modulus (GPa) = 306.23970 32.41956 169.32963
#
# Velocity S-wave (km/s) = 11.08489 3.60665 8.24265
# Velocity P-wave (km/s) = 13.29068 6.10850 10.34301
#
# Compressibility (1/GPa) = 0.03132418
#
# Stress axis : x y z
#
# Youngs Moduli (GPa) = 43.08846 118.95620 80.95333
#
# Poissons Ratio (x) = 0.57416 -0.17099
# Poissons Ratio (y) = 0.20797 0.29201
# Poissons Ratio (z) = -0.09101 0.42909
#
# Static dielectric constant tensor:
#      x y z
#    x 1.931170 -0.000010 -0.039590 
#    y -0.000010 2.012580 -0.000010 
#    z -0.039590 -0.000010 2.012940 
# 
# From -- ./inp_files/271835.got.cif
#   From: 2010.05.17/outbox.cif.g08.bks.cpg/sg12_136_cif.got.tgz:271835.got - 2010.06.03 13:09:07.
