data_PCOD9216405
_publ_section_title
;
Structure prediction by ZEFSAII (Michael W. Deem and Ramdas Pophale) SiO2 
 PCOD9216405
Probable space group: C 2/M
;
_chemical_formula_sum "Si O2"
_cell_formula_units_Z 26
_cell_length_a 28.385298
_cell_length_b 7.492422
_cell_length_c 5.067999
_cell_angle_alpha 90.000000
_cell_angle_beta 77.829424
_cell_angle_gamma 90.000000
_cell_volume 1053.609716
_symmetry_space_group_name_H-M "C 2/M"
_symmetry_group_IT_number 12
_symmetry_cell_setting 'monoclinic'
loop_
_space_group_symop_operation_xyz
x,y,z
-x,y,-z
-x,-y,-z
x,-y,z
1/2+x,1/2+y,z
1/2-x,1/2+y,-z
1/2-x,1/2-y,-z
1/2+x,1/2-y,z
loop_
_atom_site_type_symbol
_atom_site_label
_atom_site_fract_x
_atom_site_fract_y
_atom_site_fract_z
Si Si1 0.219436 0.000000 0.001401
Si Si2 0.500000 0.500000 0.000000
Si Si3 0.545958 0.212031 0.263420
Si Si4 0.211193 0.500000 0.583577
Si Si5 0.151490 0.700578 0.291430
O O1 0.259155 0.000000 0.186627
O O2 0.185235 0.832135 0.093186
O O3 0.248020 0.000000 0.695324
O O4 0.539540 0.341886 0.025850
O O5 0.500000 0.259549 0.500000
O O6 0.595836 0.253089 0.353320
O O7 0.543517 0.000000 0.206248
O O8 0.176408 0.666362 0.546658
O O9 0.151146 0.500000 0.173430
#
# Coordination Sequence:
#
# PCOD9216405 Si02
#       5
#     4   2   8   4   8
#     4  12  21  45  64 100 135 175 225 284 325 402
#     4  12  22  38  68  96 128 176 220 282 336 400
#     4  10  22  45  65  96 137 173 226 278 342 409
#     4  10  24  42  68  96 137 177 225 277 337 396
#     4   9  22  41  64  94 128 175 220 271 338 401
#
# _framework density 24.677070000000001
#
# number of rings (size 3 to 8) (size 9 to 14) (size 15 to 20)
#    0.923    0.923    0.000    3.692    0.000    0.000 
#   16.615    0.000    0.000    0.000    0.000    0.000 
#    0.000    0.000    0.000    0.000    0.000    0.000 
#
# Total GULP energy -72428.622567 kJ/mol
# GULP energy per Si atom -5571.432505 kJ/mol
# Density = 2.462090 g / cm^3
# Si number density = 24.677070 Si / 1000 Ang^3
#
#
#
# Elastic Constant Matrix: (Units=GPa)
#
#
# Indices 1 2 3 4 5 6 
#
# 1 242.3567 48.0651 57.0455 0.0000 1.0873 0.0000
# 2 48.0651 77.9702 23.2410 0.0000 9.6855 0.0000
# 3 57.0455 23.2410 86.3051 0.0000 8.8383 0.0000
# 4 0.0000 0.0000 0.0000 40.4084 0.0000 25.7777
# 5 1.0873 9.6855 8.8383 0.0000 8.9412 0.0000
# 6 0.0000 0.0000 0.0000 25.7777 0.0000 117.7671
#
#
#
# Elastic Compliance Matrix: (Units=1/GPa)
#
#
# Indices 1 2 3 4 5 6 
#
# 1 0.005532 -0.003148 -0.003437 0.000000 0.006134 0.000000
# 2 -0.003148 0.017159 -0.000752 0.000000 -0.017461 0.000000
# 3 -0.003437 -0.000752 0.015504 0.000000 -0.014093 0.000000
# 4 0.000000 0.000000 0.000000 0.028764 0.000000 -0.006296
# 5 0.006134 -0.017461 -0.014093 0.000000 0.143941 0.000000
# 6 0.000000 0.000000 0.000000 -0.006296 0.000000 0.009869
#
#
# Mechanical properties :
#
#
# Convention : Reuss Voigt Hill
#
# Bulk Modulus (GPa) = 42.51368 73.70389 58.10878
# Shear Modulus (GPa) = 20.55210 51.97537 36.26373
#
# Velocity S-wave (km/s) = 2.88903 4.59434 3.83761
# Velocity P-wave (km/s) = 5.32861 7.62077 6.57534
#
# Compressibility (1/GPa) = 0.02352184
#
# Stress axis : x y z
#
# Youngs Moduli (GPa) = 180.76997 58.27828 64.49793
#
# Poissons Ratio (x) = 0.18344 0.22168
# Poissons Ratio (y) = 0.56901 0.04850
# Poissons Ratio (z) = 0.62131 0.04383
#
# Static dielectric constant tensor:
#      x y z
#    x 1.934740 0.000000 0.012320 
#    y 0.000000 2.037340 0.000000 
#    z 0.012320 0.000000 2.065300 
# 
# From -- ./inp_files/26970.got.cif
#   From: 2010.05.17/outbox.cif.g08.bks.cpg/sg12_14_cif.got.tgz:26970.got - 2010.06.03 13:09:07.
