data_PCOD9216980
_publ_section_title
;
Structure prediction by ZEFSAII (Michael W. Deem and Ramdas Pophale) SiO2 
 PCOD9216980
Probable space group: C 2/M
;
_chemical_formula_sum "Si O2"
_cell_formula_units_Z 56
_cell_length_a 31.750629
_cell_length_b 14.782736
_cell_length_c 5.492879
_cell_angle_alpha 90.000000
_cell_angle_beta 90.174779
_cell_angle_gamma 90.000000
_cell_volume 2578.132099
_symmetry_space_group_name_H-M "C 2/M"
_symmetry_group_IT_number 12
_symmetry_cell_setting 'monoclinic'
loop_
_space_group_symop_operation_xyz
x,y,z
-x,y,-z
-x,-y,-z
x,-y,z
1/2+x,1/2+y,z
1/2-x,1/2+y,-z
1/2-x,1/2-y,-z
1/2+x,1/2-y,z
loop_
_atom_site_type_symbol
_atom_site_label
_atom_site_fract_x
_atom_site_fract_y
_atom_site_fract_z
Si Si1 0.600816 0.900642 0.212453
Si Si2 0.727252 0.608978 0.536559
Si Si3 0.972670 0.095791 0.753847
Si Si4 0.180372 0.109666 0.038300
Si Si5 0.950423 0.265195 0.536071
Si Si6 0.382364 0.247863 0.158219
Si Si7 0.323636 0.106060 0.438976
O O1 0.570420 0.862168 0.419010
O O2 0.648125 0.898943 0.317382
O O3 0.589774 0.000000 0.132002
O O4 0.596883 0.827791 0.007164
O O5 0.726015 0.500000 0.528595
O O6 0.710706 0.631764 0.806565
O O7 0.775833 0.633108 0.492451
O O8 0.699526 0.637815 0.301462
O O9 0.948097 0.189107 0.745382
O O10 0.000000 0.096190 0.500000
O O11 0.948700 0.000000 0.750831
O O12 0.000000 0.096370 0.000000
O O13 0.139421 0.169063 0.978871
O O14 0.173867 0.000000 0.039193
O O15 0.919829 0.221128 0.334785
O O16 0.000000 0.279214 0.500000
O O17 0.346036 0.185960 0.287931
O O18 0.324651 0.000000 0.339919
#
# Coordination Sequence:
#
# PCOD9216980 Si02
#       7
#     8   8   8   8   8   8   8
#     4  10  23  42  64  92 125 165 215 270 331 384
#     4   9  20  39  64  93 130 175 215 259 311 376
#     4   9  19  37  64  95 125 156 197 253 311 372
#     4  10  23  41  62  94 135 172 212 259 316 381
#     4  10  24  42  65  91 125 165 214 271 326 390
#     4  11  24  39  63  91 127 169 213 265 328 382
#     4   9  20  39  62  91 128 168 214 265 317 376
#
# _framework density 21.721152
#
# number of rings (size 3 to 8) (size 9 to 14) (size 15 to 20)
#    0.000    2.286    0.000    0.429   10.000    2.571 
#    0.000    1.429    0.000    0.000    0.000    0.000 
#    0.000    0.000    0.000    0.000    0.000    0.000 
#
# Total GULP energy -156015.971714 kJ/mol
# GULP energy per Si atom -5571.998990 kJ/mol
# Density = 2.167171 g / cm^3
# Si number density = 21.721152 Si / 1000 Ang^3
#
#
#
# Elastic Constant Matrix: (Units=GPa)
#
#
# Indices 1 2 3 4 5 6 
#
# 1 91.5285 27.2021 8.8353 0.0000 9.6777 0.0000
# 2 27.2021 99.4039 19.0353 0.0000 11.6788 0.0000
# 3 8.8353 19.0353 69.7429 0.0000 3.5485 0.0000
# 4 0.0000 0.0000 0.0000 3.3612 0.0000 24.0718
# 5 9.6777 11.6788 3.5485 0.0000 21.5661 0.0000
# 6 0.0000 0.0000 0.0000 24.0718 0.0000 19.5173
#
#
#
# Elastic Compliance Matrix: (Units=1/GPa)
#
#
# Indices 1 2 3 4 5 6 
#
# 1 0.012218 -0.002774 -0.000593 0.000000 -0.003883 0.000000
# 2 -0.002774 0.011885 -0.002651 0.000000 -0.004755 0.000000
# 3 -0.000593 -0.002651 0.015177 0.000000 -0.000796 0.000000
# 4 0.000000 0.000000 0.000000 -0.037982 0.000000 0.046846
# 5 -0.003883 -0.004755 -0.000796 0.000000 0.050818 0.000000
# 6 0.000000 0.000000 0.000000 0.046846 0.000000 -0.006541
#
#
# Mechanical properties :
#
#
# Convention : Reuss Voigt Hill
#
# Bulk Modulus (GPa) = 36.70313 41.20231 38.95272
# Shear Modulus (GPa) = 74.97224 22.59576 48.78400
#
# Velocity S-wave (km/s) = 5.88139 3.22881 4.74426
# Velocity P-wave (km/s) = 7.94072 5.73674 6.92695
#
# Compressibility (1/GPa) = 0.02724563
#
# Stress axis : x y z
#
# Youngs Moduli (GPa) = 81.84850 84.13784 65.88726
#
# Poissons Ratio (x) = 0.23336 0.03908
# Poissons Ratio (y) = 0.22701 0.17464
# Poissons Ratio (z) = 0.04855 0.22301
#
# Static dielectric constant tensor:
#      x y z
#    x 1.836470 0.000000 -0.085240 
#    y 0.000000 1.807250 0.000000 
#    z -0.085240 0.000000 1.889290 
# 
# From -- ./inp_files/31521.got.cif
#   From: 2010.05.17/outbox.cif.g08.bks.cpg/sg12_16_cif.got.tgz:31521.got - 2010.06.03 13:09:07.
