data_PCOD9216442
_publ_section_title
;
Structure prediction by ZEFSAII (Michael W. Deem and Ramdas Pophale) SiO2 
 PCOD9216442
Probable space group: C 2/M
;
_chemical_formula_sum "Si O2"
_cell_formula_units_Z 32
_cell_length_a 9.792797
_cell_length_b 14.669323
_cell_length_c 10.206264
_cell_angle_alpha 90.000000
_cell_angle_beta 103.962774
_cell_angle_gamma 90.000000
_cell_volume 1422.846319
_symmetry_space_group_name_H-M "C 2/M"
_symmetry_group_IT_number 12
_symmetry_cell_setting 'monoclinic'
loop_
_space_group_symop_operation_xyz
x,y,z
-x,y,-z
-x,-y,-z
x,-y,z
1/2+x,1/2+y,z
1/2-x,1/2+y,-z
1/2-x,1/2-y,-z
1/2+x,1/2-y,z
loop_
_atom_site_type_symbol
_atom_site_label
_atom_site_fract_x
_atom_site_fract_y
_atom_site_fract_z
Si Si1 0.505443 0.000000 0.846033
Si Si2 0.000000 0.835902 0.000000
Si Si3 0.870234 0.194023 0.369011
Si Si4 0.060869 0.302646 0.250508
Si Si5 0.172270 0.000000 0.126759
Si Si6 0.033656 0.000000 0.666879
O O1 0.435527 0.093142 0.786980
O O2 0.661989 0.000000 0.823574
O O3 0.500000 0.000000 0.000000
O O4 0.044412 0.767576 0.126532
O O5 0.126424 0.910361 0.033243
O O6 0.707262 0.210678 0.362139
O O7 0.000000 0.188406 0.500000
O O8 0.920103 0.280091 0.296648
O O9 0.885988 0.096355 0.297692
O O10 0.090367 0.000000 0.250021
O O11 0.000000 0.000000 0.500000
#
# Coordination Sequence:
#
# PCOD9216442 Si02
#       6
#     4   4   8   8   4   4
#     4  12  28  42  68 104 150 180 231 282 349 419
#     4  11  24  41  72 100 142 181 226 283 356 422
#     4  11  25  46  72  98 137 185 238 289 347 412
#     4  12  25  44  69 103 140 184 231 288 351 415
#     4  11  24  45  66 109 141 185 229 288 348 425
#     4  10  22  45  74  97 135 184 236 285 345 411
#
# _framework density 22.490131000000002
#
# number of rings (size 3 to 8) (size 9 to 14) (size 15 to 20)
#    0.000    0.750    3.750    3.000    3.500    2.000 
#    0.000    0.625    0.000    0.000    0.000    0.000 
#    0.000    0.000    0.000    0.000    0.000    0.000 
#
# Total GULP energy -89108.831846 kJ/mol
# GULP energy per Si atom -5569.301990 kJ/mol
# Density = 2.243894 g / cm^3
# Si number density = 22.490131 Si / 1000 Ang^3
#
#
#
# Elastic Constant Matrix: (Units=GPa)
#
#
# Indices 1 2 3 4 5 6 
#
# 1 117.2353 15.8822 27.9734 0.0000 21.9524 0.0000
# 2 15.8822 170.1092 44.1783 0.0000 8.1538 0.0000
# 3 27.9734 44.1783 82.8377 0.0000 20.9963 0.0000
# 4 0.0000 0.0000 0.0000 42.9065 0.0000 -11.2948
# 5 21.9524 8.1538 20.9963 0.0000 29.7263 0.0000
# 6 0.0000 0.0000 0.0000 -11.2948 0.0000 24.2112
#
#
#
# Elastic Compliance Matrix: (Units=1/GPa)
#
#
# Indices 1 2 3 4 5 6 
#
# 1 0.010133 -0.000195 -0.001747 0.000000 -0.006195 0.000000
# 2 -0.000195 0.006845 -0.003831 0.000000 0.000973 0.000000
# 3 -0.001747 -0.003831 0.017189 0.000000 -0.009800 0.000000
# 4 0.000000 0.000000 0.000000 0.026569 0.000000 0.012395
# 5 -0.006195 0.000973 -0.009800 0.000000 0.044870 0.000000
# 6 0.000000 0.000000 0.000000 0.012395 0.000000 0.047085
#
#
# Mechanical properties :
#
#
# Convention : Reuss Voigt Hill
#
# Bulk Modulus (GPa) = 44.20944 60.69443 52.45193
# Shear Modulus (GPa) = 29.10694 38.17871 33.64283
#
# Velocity S-wave (km/s) = 3.60142 4.12464 3.87187
# Velocity P-wave (km/s) = 6.08223 7.05189 6.58493
#
# Compressibility (1/GPa) = 0.02261960
#
# Stress axis : x y z
#
# Youngs Moduli (GPa) = 98.68383 146.08845 58.17697
#
# Poissons Ratio (x) = 0.02853 0.10166
# Poissons Ratio (y) = 0.01927 0.22289
# Poissons Ratio (z) = 0.17244 0.55969
#
# Static dielectric constant tensor:
#      x y z
#    x 1.811430 0.000000 -0.051340 
#    y 0.000000 1.791830 0.000000 
#    z -0.051340 0.000000 1.984170 
# 
# From -- ./inp_files/117873.got.cif
#   From: 2010.05.17/outbox.cif.g08.bks.cpg/sg12_59_cif.got.tgz:117873.got - 2010.06.03 13:09:07.
