data_PCOD9216213
_publ_section_title
;
Structure prediction by ZEFSAII (Michael W. Deem and Ramdas Pophale) SiO2 
 PCOD9216213
Probable space group: C 2/M
;
_chemical_formula_sum "Si O2"
_cell_formula_units_Z 40
_cell_length_a 25.569776
_cell_length_b 15.779655
_cell_length_c 7.713787
_cell_angle_alpha 90.000000
_cell_angle_beta 34.406134
_cell_angle_gamma 90.000000
_cell_volume 1758.664714
_symmetry_space_group_name_H-M "C 2/M"
_symmetry_group_IT_number 12
_symmetry_cell_setting 'monoclinic'
loop_
_space_group_symop_operation_xyz
x,y,z
-x,y,-z
-x,-y,-z
x,-y,z
1/2+x,1/2+y,z
1/2-x,1/2+y,-z
1/2-x,1/2-y,-z
1/2+x,1/2-y,z
loop_
_atom_site_type_symbol
_atom_site_label
_atom_site_fract_x
_atom_site_fract_y
_atom_site_fract_z
Si Si1 0.092211 0.815488 0.858282
Si Si2 0.580407 0.500000 0.921338
Si Si3 0.242399 0.000000 0.952320
Si Si4 0.893158 0.361178 0.010254
Si Si5 0.236063 0.500000 0.494443
Si Si6 0.745516 0.668213 0.139463
Si Si7 0.537715 0.000000 0.593165
O O1 0.078811 0.904308 0.997909
O O2 0.102420 0.735655 0.951978
O O3 0.177236 0.815761 0.488932
O O4 0.000000 0.803945 0.000000
O O5 0.687115 0.500000 0.565058
O O6 0.500000 0.500000 0.000000
O O7 0.217440 0.000000 0.818895
O O8 0.355196 0.000000 0.654108
O O9 0.210388 0.913484 0.129415
O O10 0.823428 0.416263 0.318259
O O11 0.845090 0.359402 0.951162
O O12 0.987775 0.412561 0.787579
O O13 0.750000 0.750000 0.000000
O O14 0.500000 0.000000 0.500000
#
# Coordination Sequence:
#
# PCOD9216213 Si02
#       7
#     8   4   4   8   4   8   4
#     4  11  25  43  70  96 136 182 237 281 331 413
#     4  10  22  43  69  92 125 182 238 275 324 391
#     4  12  26  44  71 101 141 178 229 288 361 400
#     4  11  24  42  71  99 136 180 232 282 350 409
#     4  11  23  42  73  98 132 177 232 284 344 425
#     4  12  25  42  67 102 139 180 224 285 353 407
#     4  11  23  44  69 105 141 179 216 300 362 403
#
# _framework density 22.744529
#
# number of rings (size 3 to 8) (size 9 to 14) (size 15 to 20)
#    0.000    0.800    4.000    3.000    8.400    0.800 
#    0.000    0.000    0.000    2.400    0.000    0.000 
#    0.000    0.000    0.000    0.000    0.000    0.000 
#
# Total GULP energy -111565.498999 kJ/mol
# GULP energy per Si atom -5578.274950 kJ/mol
# Density = 2.269276 g / cm^3
# Si number density = 22.744529 Si / 1000 Ang^3
#
#
#
# Elastic Constant Matrix: (Units=GPa)
#
#
# Indices 1 2 3 4 5 6 
#
# 1 62.8598 28.2239 6.5447 0.0000 1.5849 0.0000
# 2 28.2239 208.7387 -0.7589 0.0000 25.2127 0.0000
# 3 6.5447 -0.7589 38.7381 0.0000 -11.1935 0.0000
# 4 0.0000 0.0000 0.0000 -10.1879 0.0000 26.7107
# 5 1.5849 25.2127 -11.1935 0.0000 41.3056 0.0000
# 6 0.0000 0.0000 0.0000 26.7107 0.0000 40.5490
#
#
#
# Elastic Compliance Matrix: (Units=1/GPa)
#
#
# Indices 1 2 3 4 5 6 
#
# 1 0.017270 -0.002341 -0.002975 0.000000 -0.000040 0.000000
# 2 -0.002341 0.005517 -0.000481 0.000000 -0.003408 0.000000
# 3 -0.002975 -0.000481 0.028670 0.000000 0.008177 0.000000
# 4 0.000000 0.000000 0.000000 -0.035993 0.000000 0.023710
# 5 -0.000040 -0.003408 0.008177 0.000000 0.028508 0.000000
# 6 0.000000 0.000000 0.000000 0.023710 0.000000 0.009043
#
#
# Mechanical properties :
#
#
# Convention : Reuss Voigt Hill
#
# Bulk Modulus (GPa) = 25.08597 42.03957 33.56277
# Shear Modulus (GPa) = 64.18626 32.75514 48.47070
#
# Velocity S-wave (km/s) = 5.31806 3.79902 4.62138
# Velocity P-wave (km/s) = 6.98301 6.14548 6.57759
#
# Compressibility (1/GPa) = 0.03986292
#
# Stress axis : x y z
#
# Youngs Moduli (GPa) = 57.90268 181.25323 34.87908
#
# Poissons Ratio (x) = 0.42434 0.10377
# Poissons Ratio (y) = 0.13556 0.01678
# Poissons Ratio (z) = 0.17227 0.08722
#
# Static dielectric constant tensor:
#      x y z
#    x 1.864670 0.000000 0.002690 
#    y 0.000000 1.889330 0.000000 
#    z 0.002690 0.000000 1.965720 
# 
# From -- ./inp_files/111880.got.cif
#   From: 2010.05.17/outbox.cif.g08.bks.cpg/sg12_56_cif.got.tgz:111880.got - 2010.06.03 13:09:07.
