data_PCOD9216499
_publ_section_title
;
Structure prediction by ZEFSAII (Michael W. Deem and Ramdas Pophale) SiO2 
 PCOD9216499
Probable space group: C 2/M
;
_chemical_formula_sum "Si O2"
_cell_formula_units_Z 56
_cell_length_a 20.719100
_cell_length_b 28.631728
_cell_length_c 5.167339
_cell_angle_alpha 90.000000
_cell_angle_beta 114.834729
_cell_angle_gamma 90.000000
_cell_volume 2781.909982
_symmetry_space_group_name_H-M "C 2/M"
_symmetry_group_IT_number 12
_symmetry_cell_setting 'monoclinic'
loop_
_space_group_symop_operation_xyz
x,y,z
-x,y,-z
-x,-y,-z
x,-y,z
1/2+x,1/2+y,z
1/2-x,1/2+y,-z
1/2-x,1/2-y,-z
1/2+x,1/2-y,z
loop_
_atom_site_type_symbol
_atom_site_label
_atom_site_fract_x
_atom_site_fract_y
_atom_site_fract_z
Si Si1 0.213396 0.152300 0.197119
Si Si2 0.315064 0.550977 0.917106
Si Si3 0.575106 0.807226 0.778234
Si Si4 0.434567 0.349748 0.744688
Si Si5 0.913898 0.050213 0.580934
Si Si6 0.355516 0.280886 0.281769
Si Si7 0.348962 0.810174 0.584271
O O1 0.227695 0.099325 0.129813
O O2 0.135238 0.149894 0.192220
O O3 0.271757 0.168589 0.502665
O O4 0.208398 0.192363 0.968049
O O5 0.278830 0.500000 0.886618
O O6 0.353406 0.550478 0.702163
O O7 0.375205 0.552993 0.240133
O O8 0.500000 0.807777 0.500000
O O9 0.603219 0.753980 0.837736
O O10 0.626517 0.830873 0.652315
O O11 0.592956 0.822384 0.099543
O O12 0.455530 0.402150 0.696573
O O13 0.409345 0.320645 0.459137
O O14 0.500000 0.327196 0.000000
O O15 0.951844 0.000000 0.664337
O O16 0.341241 0.245203 0.498059
#
# Coordination Sequence:
#
# PCOD9216499 Si02
#       7
#     8   8   8   8   8   8   8
#     4  11  22  38  54  82 112 139 190 228 269 326
#     4   9  18  34  56  76 102 138 173 225 276 316
#     4  10  23  40  57  80 111 144 182 220 267 326
#     4  11  24  34  53  78 107 150 192 231 275 313
#     4   9  18  36  53  72 100 137 185 232 274 311
#     4  10  23  34  56  76 113 146 187 225 269 315
#     4  10  24  36  60  79 109 148 181 221 274 315
#
# _framework density 20.130054999999999
#
# number of rings (size 3 to 8) (size 9 to 14) (size 15 to 20)
#    0.857    1.143    1.429    1.714    6.000    1.429 
#    0.000    0.000    0.000    4.286    0.000    0.000 
#    0.000    3.429    0.000    0.000    0.000    0.000 
#
# Total GULP energy -155969.714665 kJ/mol
# GULP energy per Si atom -5570.346952 kJ/mol
# Density = 2.008424 g / cm^3
# Si number density = 20.130055 Si / 1000 Ang^3
#
#
#
# Elastic Constant Matrix: (Units=GPa)
#
#
# Indices 1 2 3 4 5 6 
#
# 1 41.6522 18.3446 30.2516 0.0000 2.3083 0.0000
# 2 18.3446 42.8174 12.5551 0.0000 3.6719 0.0000
# 3 30.2516 12.5551 101.2769 0.0000 6.2863 0.0000
# 4 0.0000 0.0000 0.0000 23.8995 0.0000 -1.1093
# 5 2.3083 3.6719 6.2863 0.0000 29.2007 0.0000
# 6 0.0000 0.0000 0.0000 -1.1093 0.0000 -7.2108
#
#
#
# Elastic Compliance Matrix: (Units=1/GPa)
#
#
# Indices 1 2 3 4 5 6 
#
# 1 0.036441 -0.012942 -0.009327 0.000000 0.000755 0.000000
# 2 -0.012942 0.029004 0.000439 0.000000 -0.002719 0.000000
# 3 -0.009327 0.000439 0.012733 0.000000 -0.002059 0.000000
# 4 0.000000 0.000000 0.000000 0.041545 0.000000 -0.006391
# 5 0.000755 -0.002719 -0.002059 0.000000 0.034971 0.000000
# 6 0.000000 0.000000 0.000000 -0.006391 0.000000 -0.137698
#
#
# Mechanical properties :
#
#
# Convention : Reuss Voigt Hill
#
# Bulk Modulus (GPa) = 28.97097 34.22766 31.59931
# Shear Modulus (GPa) = 69.28662 17.48425 43.38544
#
# Velocity S-wave (km/s) = 5.87318 2.95034 4.64751
# Velocity P-wave (km/s) = 7.77274 5.35221 6.67314
#
# Compressibility (1/GPa) = 0.03451732
#
# Stress axis : x y z
#
# Youngs Moduli (GPa) = 27.44162 34.47751 78.53356
#
# Poissons Ratio (x) = 0.44622 0.73251
# Poissons Ratio (y) = 0.35516 -0.03448
# Poissons Ratio (z) = 0.25596 -0.01514
#
# Static dielectric constant tensor:
#      x y z
#    x 1.786880 0.000000 -0.047460 
#    y 0.000000 1.758680 0.000000 
#    z -0.047460 0.000000 1.753190 
# 
# From -- ./inp_files/26515.got.cif
#   From: 2010.05.17/outbox.cif.g08.bks.cpg/sg12_14_cif.got.tgz:26515.got - 2010.06.03 13:09:07.
