data_PCOD9216273
_publ_section_title
;
Structure prediction by ZEFSAII (Michael W. Deem and Ramdas Pophale) SiO2 
 PCOD9216273
Probable space group: C 2/M
;
_chemical_formula_sum "Si O2"
_cell_formula_units_Z 36
_cell_length_a 17.170012
_cell_length_b 18.016878
_cell_length_c 5.431669
_cell_angle_alpha 90.000000
_cell_angle_beta 104.358447
_cell_angle_gamma 90.000000
_cell_volume 1627.800193
_symmetry_space_group_name_H-M "C 2/M"
_symmetry_group_IT_number 12
_symmetry_cell_setting 'monoclinic'
loop_
_space_group_symop_operation_xyz
x,y,z
-x,y,-z
-x,-y,-z
x,-y,z
1/2+x,1/2+y,z
1/2-x,1/2+y,-z
1/2-x,1/2-y,-z
1/2+x,1/2-y,z
loop_
_atom_site_type_symbol
_atom_site_label
_atom_site_fract_x
_atom_site_fract_y
_atom_site_fract_z
Si Si1 0.420109 0.500000 0.117589
Si Si2 0.793345 0.625876 0.568695
Si Si3 0.812558 0.224759 0.849691
Si Si4 0.901093 0.500000 0.413794
Si Si5 0.043538 0.157752 0.771680
Si Si6 0.242655 0.500000 0.075936
O O1 0.500000 0.500000 0.000000
O O2 0.428659 0.575133 0.276873
O O3 0.323922 0.500000 0.968479
O O4 0.828017 0.704541 0.688629
O O5 0.722744 0.654555 0.329234
O O6 0.863501 0.573886 0.512123
O O7 0.756369 0.573774 0.753397
O O8 0.750000 0.250000 0.000000
O O9 0.884952 0.207104 0.083319
O O10 0.000000 0.500000 0.500000
O O11 0.845824 0.500000 0.121394
O O12 0.000000 0.189386 0.500000
O O13 0.000000 0.149840 0.000000
#
# Coordination Sequence:
#
# PCOD9216273 Si02
#       6
#     4   8   8   4   8   4
#     4  10  22  43  72 102 142 189 243 296 367 446
#     4  10  24  43  75 104 132 197 243 308 371 446
#     4  11  24  46  69 100 142 186 244 295 379 448
#     4  11  24  47  70 106 147 189 256 312 375 442
#     4  11  26  44  66 106 144 188 235 298 364 441
#     4  11  23  47  74 101 139 189 246 308 371 441
#
# _framework density 22.115735000000001
#
# number of rings (size 3 to 8) (size 9 to 14) (size 15 to 20)
#    0.000    1.333    0.000    4.333    9.333    2.667 
#   12.000    0.000    0.000    0.000    0.000    0.000 
#    0.000    0.000    0.000    0.000    0.000    0.000 
#
# Total GULP energy -100259.369387 kJ/mol
# GULP energy per Si atom -5569.964966 kJ/mol
# Density = 2.206540 g / cm^3
# Si number density = 22.115735 Si / 1000 Ang^3
#
#
#
# Elastic Constant Matrix: (Units=GPa)
#
#
# Indices 1 2 3 4 5 6 
#
# 1 118.6793 60.2434 62.1757 0.0000 15.5181 0.0000
# 2 60.2434 130.9603 66.8935 0.0000 15.2817 0.0000
# 3 62.1757 66.8935 168.4022 0.0000 38.7640 0.0000
# 4 0.0000 0.0000 0.0000 -17.6904 0.0000 55.9505
# 5 15.5181 15.2817 38.7640 0.0000 35.2362 0.0000
# 6 0.0000 0.0000 0.0000 55.9505 0.0000 -12.2138
#
#
#
# Elastic Compliance Matrix: (Units=1/GPa)
#
#
# Indices 1 2 3 4 5 6 
#
# 1 0.011967 -0.004076 -0.002669 0.000000 -0.000567 0.000000
# 2 -0.004076 0.010968 -0.002906 0.000000 0.000235 0.000000
# 3 -0.002669 -0.002906 0.010066 0.000000 -0.008638 0.000000
# 4 0.000000 0.000000 0.000000 0.004191 0.000000 0.019198
# 5 -0.000567 0.000235 -0.008638 0.000000 0.038031 0.000000
# 6 0.000000 0.000000 0.000000 0.019198 0.000000 0.006070
#
#
# Mechanical properties :
#
#
# Convention : Reuss Voigt Hill
#
# Bulk Modulus (GPa) = 72.99327 88.51856 80.75591
# Shear Modulus (GPa) = 47.54603 16.31502 31.93053
#
# Velocity S-wave (km/s) = 4.64170 2.71903 3.80385
# Velocity P-wave (km/s) = 7.86155 7.06891 7.47575
#
# Compressibility (1/GPa) = 0.01369989
#
# Stress axis : x y z
#
# Youngs Moduli (GPa) = 83.56078 91.17704 99.34009
#
# Poissons Ratio (x) = 0.37161 0.26515
# Poissons Ratio (y) = 0.34057 0.28868
# Poissons Ratio (z) = 0.22303 0.26496
#
# Static dielectric constant tensor:
#      x y z
#    x 1.827680 0.000000 -0.005980 
#    y 0.000000 2.111730 0.000000 
#    z -0.005980 0.000000 1.839160 
# 
# From -- ./inp_files/15370.got.cif
#   From: 2010.05.17/outbox.cif.g08.bks.cpg/sg12_8_cif.got.tgz:15370.got - 2010.06.03 13:09:07.
