data_PCOD9216120
_publ_section_title
;
Structure prediction by ZEFSAII (Michael W. Deem and Ramdas Pophale) SiO2 
 PCOD9216120
Probable space group: C 2/M
;
_chemical_formula_sum "Si O2"
_cell_formula_units_Z 56
_cell_length_a 17.368916
_cell_length_b 30.057029
_cell_length_c 7.069039
_cell_angle_alpha 90.000000
_cell_angle_beta 139.490495
_cell_angle_gamma 90.000000
_cell_volume 2397.220045
_symmetry_space_group_name_H-M "C 2/M"
_symmetry_group_IT_number 12
_symmetry_cell_setting 'monoclinic'
loop_
_space_group_symop_operation_xyz
x,y,z
-x,y,-z
-x,-y,-z
x,-y,z
1/2+x,1/2+y,z
1/2-x,1/2+y,-z
1/2-x,1/2-y,-z
1/2+x,1/2-y,z
loop_
_atom_site_type_symbol
_atom_site_label
_atom_site_fract_x
_atom_site_fract_y
_atom_site_fract_z
Si Si1 0.693072 0.865628 0.115629
Si Si2 0.925978 0.818858 0.055078
Si Si3 0.472128 0.081994 0.670741
Si Si4 0.966318 0.278853 0.157240
Si Si5 0.865285 0.500000 0.656089
Si Si6 0.055792 0.098048 0.313989
Si Si7 0.171957 0.336812 0.648833
Si Si8 0.899486 0.000000 0.645958
O O1 0.816952 0.878065 0.438629
O O2 0.603252 0.906790 0.994855
O O3 0.634488 0.817158 0.041061
O O4 0.705131 0.859862 0.909768
O O5 0.936528 0.770735 0.171015
O O6 0.968480 0.864274 0.236817
O O7 0.787909 0.823332 0.757957
O O8 0.000000 0.817423 0.000000
O O9 0.500000 0.078394 0.500000
O O10 0.403230 0.126317 0.597054
O O11 0.383533 0.043312 0.562750
O O12 0.079122 0.296773 0.485960
O O13 0.000000 0.274391 0.000000
O O14 0.738545 0.500000 0.530186
O O15 0.000000 0.500000 0.000000
O O16 0.077419 0.046924 0.419829
O O17 0.000000 0.092490 0.000000
O O18 0.000000 0.000000 0.000000
#
# Coordination Sequence:
#
# PCOD9216120 Si02
#       8
#     8   8   8   8   4   8   8   4
#     4  10  22  43  65  94 136 171 211 275 330 387
#     4  10  24  39  64  93 132 172 224 264 325 397
#     4   9  21  40  62  91 131 168 207 269 334 392
#     4  10  23  38  66  97 130 175 215 268 334 386
#     4  12  23  35  68 105 120 163 232 276 329 394
#     4  10  23  41  65  94 130 172 215 270 325 397
#     4  10  23  43  63  94 135 173 218 266 334 391
#     4  10  24  41  64 100 137 171 222 280 342 396
#
# _framework density 23.360391
#
# number of rings (size 3 to 8) (size 9 to 14) (size 15 to 20)
#    0.000    2.000    0.000    2.357   12.000    5.714 
#    2.571    0.714    0.000    0.857    0.000    0.000 
#    0.000    0.000    0.000    0.000    0.000    0.000 
#
# Total GULP energy -155960.143561 kJ/mol
# GULP energy per Si atom -5570.005127 kJ/mol
# Density = 2.330722 g / cm^3
# Si number density = 23.360391 Si / 1000 Ang^3
#
#
#
# Elastic Constant Matrix: (Units=GPa)
#
#
# Indices 1 2 3 4 5 6 
#
# 1 57.8597 7.2568 28.5379 0.0000 12.2689 0.0000
# 2 7.2568 167.8693 23.4377 0.0000 23.0366 0.0000
# 3 28.5379 23.4377 128.3570 0.0000 25.2893 0.0000
# 4 0.0000 0.0000 0.0000 51.6646 0.0000 58.8463
# 5 12.2689 23.0366 25.2893 0.0000 41.7589 0.0000
# 6 0.0000 0.0000 0.0000 58.8463 0.0000 60.2154
#
#
#
# Elastic Compliance Matrix: (Units=1/GPa)
#
#
# Indices 1 2 3 4 5 6 
#
# 1 0.019880 0.000165 -0.003726 0.000000 -0.003675 0.000000
# 2 0.000165 0.006480 -0.000575 0.000000 -0.003275 0.000000
# 3 -0.003726 -0.000575 0.009590 0.000000 -0.004396 0.000000
# 4 0.000000 0.000000 0.000000 -0.171125 0.000000 0.167234
# 5 -0.003675 -0.003275 -0.004396 0.000000 0.029496 0.000000
# 6 0.000000 0.000000 0.000000 0.167234 0.000000 -0.146825
#
#
# Mechanical properties :
#
#
# Convention : Reuss Voigt Hill
#
# Bulk Modulus (GPa) = 36.12888 52.50565 44.31727
# Shear Modulus (GPa) = -21.27591 50.38469 14.55439
#
# Velocity S-wave (km/s) = -3.02117 4.64922 2.49878
# Velocity P-wave (km/s) = 1.82469 7.16558 5.22853
#
# Compressibility (1/GPa) = 0.02767869
#
# Stress axis : x y z
#
# Youngs Moduli (GPa) = 50.30301 154.33216 104.27270
#
# Poissons Ratio (x) = -0.02550 0.38851
# Poissons Ratio (y) = -0.00831 0.05992
# Poissons Ratio (z) = 0.18742 0.08868
#
# Static dielectric constant tensor:
#      x y z
#    x 1.924580 0.000000 -0.060460 
#    y 0.000000 2.235950 0.000000 
#    z -0.060460 0.000000 1.927570 
# 
# From -- ./inp_files/91680.got.cif
#   From: 2010.05.17/outbox.cif.g08.bks.cpg/sg12_46_cif.got.tgz:91680.got - 2010.06.03 13:09:07.
