data_PCOD9216719
_publ_section_title
;
Structure prediction by ZEFSAII (Michael W. Deem and Ramdas Pophale) SiO2 
 PCOD9216719
Probable space group: C 2/M
;
_chemical_formula_sum "Si O2"
_cell_formula_units_Z 56
_cell_length_a 18.975620
_cell_length_b 8.813302
_cell_length_c 23.196792
_cell_angle_alpha 90.000000
_cell_angle_beta 40.359172
_cell_angle_gamma 90.000000
_cell_volume 2512.198908
_symmetry_space_group_name_H-M "C 2/M"
_symmetry_group_IT_number 12
_symmetry_cell_setting 'monoclinic'
loop_
_space_group_symop_operation_xyz
x,y,z
-x,y,-z
-x,-y,-z
x,-y,z
1/2+x,1/2+y,z
1/2-x,1/2+y,-z
1/2-x,1/2-y,-z
1/2+x,1/2-y,z
loop_
_atom_site_type_symbol
_atom_site_label
_atom_site_fract_x
_atom_site_fract_y
_atom_site_fract_z
Si Si1 0.689916 0.678501 0.123209
Si Si2 0.684482 0.829328 0.243132
Si Si3 0.406032 0.822774 0.511532
Si Si4 0.392365 0.330028 0.040928
Si Si5 0.867316 0.318902 0.410026
Si Si6 0.461664 0.682250 0.233411
Si Si7 0.741417 0.177635 0.691265
O O1 0.703331 0.500000 0.108841
O O2 0.647530 0.721055 0.214333
O O3 0.809067 0.755027 0.047084
O O4 0.588082 0.730116 0.148111
O O5 0.811716 0.843121 0.145677
O O6 0.688595 0.758550 0.302944
O O7 0.638128 0.000000 0.269382
O O8 0.500000 0.801262 0.500000
O O9 0.436760 0.795472 0.425868
O O10 0.306864 0.716353 0.592231
O O11 0.370693 0.000000 0.537208
O O12 0.421463 0.500000 0.002219
O O13 0.500000 0.253475 0.000000
O O14 0.859345 0.500000 0.404681
O O15 0.750000 0.250000 0.500000
O O16 0.917247 0.239763 0.323019
O O17 0.456564 0.500000 0.234689
O O18 0.378553 0.752882 0.239575
O O19 0.735724 0.000000 0.705128
#
# Coordination Sequence:
#
# PCOD9216719 Si02
#       7
#     8   8   8   8   8   8   8
#     4   9  19  34  54  85 112 140 181 224 266 313
#     4   9  19  35  56  79 111 144 174 215 267 321
#     4  10  23  40  56  76 103 139 180 223 275 330
#     4   8  16  32  56  85 114 146 180 215 262 320
#     4  11  22  37  57  79 105 138 182 228 276 328
#     4  11  23  38  56  77 111 148 184 228 275 327
#     4  12  24  37  55  79 107 140 184 228 272 324
#
# _framework density 22.291228
#
# number of rings (size 3 to 8) (size 9 to 14) (size 15 to 20)
#    0.857    1.143    1.429    2.571    2.000    3.429 
#    0.000    0.000    0.000    0.857    0.000    0.000 
#    0.000    0.000    0.000    0.000    0.000    0.000 
#
# Total GULP energy -156125.400128 kJ/mol
# GULP energy per Si atom -5575.907147 kJ/mol
# Density = 2.224049 g / cm^3
# Si number density = 22.291228 Si / 1000 Ang^3
#
#
#
# Elastic Constant Matrix: (Units=GPa)
#
#
# Indices 1 2 3 4 5 6 
#
# 1 74.4863 7.6827 13.8895 0.0000 -20.2301 0.0000
# 2 7.6827 41.8991 5.8102 0.0000 -14.7070 0.0001
# 3 13.8895 5.8102 42.7546 0.0000 -10.2373 0.0000
# 4 0.0000 0.0000 0.0000 16.7063 0.0000 -7.5650
# 5 -20.2301 -14.7070 -10.2373 0.0000 45.6790 0.0000
# 6 0.0000 0.0001 0.0000 -7.5650 0.0000 18.9923
#
#
#
# Elastic Compliance Matrix: (Units=1/GPa)
#
#
# Indices 1 2 3 4 5 6 
#
# 1 0.015784 -0.000251 -0.003634 0.000000 0.006095 0.000000
# 2 -0.000251 0.027025 -0.001621 0.000000 0.008227 0.000000
# 3 -0.003634 -0.001621 0.025657 0.000000 0.003619 0.000000
# 4 0.000000 0.000000 0.000000 0.073030 0.000000 0.029089
# 5 0.006095 0.008227 0.003619 0.000000 0.028051 0.000000
# 6 0.000000 0.000000 0.000000 0.029089 0.000000 0.064240
#
#
# Mechanical properties :
#
#
# Convention : Reuss Voigt Hill
#
# Bulk Modulus (GPa) = 17.40534 23.76720 20.58627
# Shear Modulus (GPa) = 18.94294 25.05937 22.00116
#
# Velocity S-wave (km/s) = 2.91828 3.35652 3.14504
# Velocity P-wave (km/s) = 4.37953 5.07020 4.73747
#
# Compressibility (1/GPa) = 0.05745364
#
# Stress axis : x y z
#
# Youngs Moduli (GPa) = 63.35424 37.00230 38.97623
#
# Poissons Ratio (x) = 0.00928 0.14165
# Poissons Ratio (y) = 0.01589 0.06319
# Poissons Ratio (z) = 0.23024 0.05999
#
# Static dielectric constant tensor:
#      x y z
#    x 1.904950 0.000000 -0.019620 
#    y 0.000000 1.761240 0.000000 
#    z -0.019620 0.000000 1.875580 
# 
# From -- ./inp_files/362499.got.cif
#   From: 2010.05.17/outbox.cif.g08.bks.cpg/sg12_182_cif.got.tgz:362499.got - 2010.06.03 13:09:07.
