data_PCOD9216937
_publ_section_title
;
Structure prediction by ZEFSAII (Michael W. Deem and Ramdas Pophale) SiO2 
 PCOD9216937
Probable space group: C 2/M
;
_chemical_formula_sum "Si O2"
_cell_formula_units_Z 56
_cell_length_a 14.803323
_cell_length_b 29.281685
_cell_length_c 11.554254
_cell_angle_alpha 90.000000
_cell_angle_beta 29.511508
_cell_angle_gamma 90.000000
_cell_volume 2467.119322
_symmetry_space_group_name_H-M "C 2/M"
_symmetry_group_IT_number 12
_symmetry_cell_setting 'monoclinic'
loop_
_space_group_symop_operation_xyz
x,y,z
-x,y,-z
-x,-y,-z
x,-y,z
1/2+x,1/2+y,z
1/2-x,1/2+y,-z
1/2-x,1/2-y,-z
1/2+x,1/2-y,z
loop_
_atom_site_type_symbol
_atom_site_label
_atom_site_fract_x
_atom_site_fract_y
_atom_site_fract_z
Si Si1 0.734507 0.589198 0.565416
Si Si2 0.217637 0.553051 0.240479
Si Si3 0.882498 0.192012 0.247219
Si Si4 0.504401 0.219687 0.373267
Si Si5 0.663894 0.308446 0.137663
Si Si6 0.944195 0.446886 0.933796
Si Si7 0.111276 0.911916 0.182100
O O1 0.701375 0.563095 0.722873
O O2 0.696042 0.641991 0.634950
O O3 0.595346 0.574152 0.618581
O O4 0.936732 0.580326 0.292763
O O5 0.248530 0.500000 0.173291
O O6 0.000000 0.559917 0.500000
O O7 0.295686 0.584162 0.050121
O O8 0.705478 0.223883 0.430945
O O9 0.026629 0.203922 0.185537
O O10 0.000000 0.190109 0.000000
O O11 0.500000 0.192896 0.500000
O O12 0.616361 0.266605 0.274050
O O13 0.629323 0.194718 0.139128
O O14 0.618747 0.360044 0.219966
O O15 0.993984 0.500000 0.867336
O O16 0.732546 0.440747 0.135180
O O17 0.000000 0.431521 0.000000
#
# Coordination Sequence:
#
# PCOD9216937 Si02
#       7
#     8   8   8   8   8   8   8
#     4  11  23  39  64  99 132 168 210 268 323 390
#     4  11  22  36  62  98 133 164 202 259 327 389
#     4  11  21  39  66  95 127 167 205 254 327 389
#     4  11  22  38  65  89 126 168 206 263 312 374
#     4  10  23  41  60  94 125 163 215 256 316 382
#     4  11  25  45  66  90 125 175 227 269 317 380
#     4  11  23  42  66  93 131 169 211 269 327 386
#
# _framework density 22.698536000000001
#
# number of rings (size 3 to 8) (size 9 to 14) (size 15 to 20)
#    0.000    1.143    2.857    4.286    0.000    3.429 
#    5.143    1.429    0.000    0.000    0.000    0.000 
#    0.000    0.000    0.000    0.000    0.000    0.000 
#
# Total GULP energy -156519.871372 kJ/mol
# GULP energy per Si atom -5589.995406 kJ/mol
# Density = 2.264687 g / cm^3
# Si number density = 22.698536 Si / 1000 Ang^3
#
#
#
# Elastic Constant Matrix: (Units=GPa)
#
#
# Indices 1 2 3 4 5 6 
#
# 1 86.6299 -2.3601 15.3161 0.0000 -8.9428 -0.0002
# 2 -2.3601 48.4488 10.6545 0.0002 -5.1501 0.0000
# 3 15.3161 10.6545 73.6241 -0.0004 -12.4550 -0.0003
# 4 0.0000 0.0002 -0.0004 13.0105 0.0003 -9.5852
# 5 -8.9428 -5.1501 -12.4550 0.0003 31.6435 0.0002
# 6 -0.0002 0.0000 -0.0003 -9.5852 0.0002 24.6782
#
#
#
# Elastic Compliance Matrix: (Units=1/GPa)
#
#
# Indices 1 2 3 4 5 6 
#
# 1 0.012274 0.001397 -0.002282 0.000000 0.002798 0.000000
# 2 0.001397 0.021652 -0.002958 -0.000001 0.002754 0.000000
# 3 -0.002282 -0.002958 0.015315 0.000001 0.004901 0.000000
# 4 0.000000 -0.000001 0.000001 0.107671 -0.000001 0.041820
# 5 0.002798 0.002754 0.004901 -0.000001 0.034770 -0.000001
# 6 0.000000 0.000000 0.000000 0.041820 -0.000001 0.056765
#
#
# Mechanical properties :
#
#
# Convention : Reuss Voigt Hill
#
# Bulk Modulus (GPa) = 24.06511 28.43597 26.25054
# Shear Modulus (GPa) = 18.51964 26.20595 22.36279
#
# Velocity S-wave (km/s) = 2.85949 3.40151 3.14221
# Velocity P-wave (km/s) = 4.63975 5.28979 4.97540
#
# Compressibility (1/GPa) = 0.04155393
#
# Stress axis : x y z
#
# Youngs Moduli (GPa) = 81.47485 46.18575 65.29752
#
# Poissons Ratio (x) = -0.06453 0.14902
# Poissons Ratio (y) = -0.11384 0.19315
# Poissons Ratio (z) = 0.18594 0.13662
#
# Static dielectric constant tensor:
#      x y z
#    x 1.872430 0.000000 0.002950 
#    y 0.000000 1.823040 0.000000 
#    z 0.002950 0.000000 1.826750 
# 
# From -- ./inp_files/150439.got.cif
#   From: 2010.05.17/outbox.cif.g08.bks.cpg/sg12_76_cif.got.tgz:150439.got - 2010.06.03 13:09:07.
