data_PCOD9216293
_publ_section_title
;
Structure prediction by ZEFSAII (Michael W. Deem and Ramdas Pophale) SiO2 
 PCOD9216293
Probable space group: C 2/M
;
_chemical_formula_sum "Si O2"
_cell_formula_units_Z 44
_cell_length_a 15.108999
_cell_length_b 10.510773
_cell_length_c 25.458464
_cell_angle_alpha 90.000000
_cell_angle_beta 33.123447
_cell_angle_gamma 90.000000
_cell_volume 2209.269978
_symmetry_space_group_name_H-M "C 2/M"
_symmetry_group_IT_number 12
_symmetry_cell_setting 'monoclinic'
loop_
_space_group_symop_operation_xyz
x,y,z
-x,y,-z
-x,-y,-z
x,-y,z
1/2+x,1/2+y,z
1/2-x,1/2+y,-z
1/2-x,1/2-y,-z
1/2+x,1/2-y,z
loop_
_atom_site_type_symbol
_atom_site_label
_atom_site_fract_x
_atom_site_fract_y
_atom_site_fract_z
Si Si1 0.957112 0.500000 0.935447
Si Si2 0.921510 0.250480 0.739703
Si Si3 0.118176 0.000000 0.057907
Si Si4 0.253968 0.848821 0.375989
Si Si5 0.936016 0.773748 0.091214
Si Si6 0.840160 0.000000 0.845183
Si Si7 0.516661 0.654436 0.405516
O O1 0.053458 0.632590 0.887829
O O2 0.154079 0.500000 0.956638
O O3 0.815105 0.500000 0.961836
O O4 0.749564 0.319678 0.818466
O O5 0.878416 0.122450 0.792420
O O6 0.985500 0.216593 0.650140
O O7 0.062823 0.315428 0.702514
O O8 0.048339 0.874208 0.065565
O O9 0.069473 0.000000 0.143701
O O10 0.175333 0.804896 0.360201
O O11 0.135686 0.807401 0.482375
O O12 0.238100 0.000000 0.382377
O O13 0.000000 0.764941 0.000000
O O14 0.516842 0.500000 0.399653
#
# Coordination Sequence:
#
# PCOD9216293 Si02
#       7
#     4   8   4   8   8   4   8
#     4  10  22  44  62  84 122 172 208 246 299 369
#     4  12  22  36  65  90 124 157 206 245 308 368
#     4  10  25  42  61  86 128 160 213 261 313 347
#     4   9  21  40  60  89 124 153 200 256 304 354
#     4  12  23  41  63  91 128 165 206 255 309 366
#     4  10  23  41  60  86 119 164 204 254 294 377
#     4   9  19  39  63  87 117 162 204 244 298 370
#
# _framework density 19.916081999999999
#
# number of rings (size 3 to 8) (size 9 to 14) (size 15 to 20)
#    0.545    1.091    2.727    3.273    3.818    0.000 
#    0.000    0.000    0.000    1.091    0.000    0.000 
#    0.000    0.000    0.000    0.000    0.000    0.000 
#
# Total GULP energy -122792.863033 kJ/mol
# GULP energy per Si atom -5581.493774 kJ/mol
# Density = 1.987075 g / cm^3
# Si number density = 19.916082 Si / 1000 Ang^3
#
#
#
# Elastic Constant Matrix: (Units=GPa)
#
#
# Indices 1 2 3 4 5 6 
#
# 1 106.7430 30.5413 13.2799 0.0000 -23.0175 0.0000
# 2 30.5413 46.7830 0.6812 0.0000 -4.8281 0.0000
# 3 13.2799 0.6812 32.8060 0.0000 -23.4309 0.0000
# 4 0.0000 0.0000 0.0000 -0.1576 0.0000 -6.3285
# 5 -23.0175 -4.8281 -23.4309 0.0000 41.4089 0.0000
# 6 0.0000 0.0000 0.0000 -6.3285 0.0000 31.7226
#
#
#
# Elastic Compliance Matrix: (Units=1/GPa)
#
#
# Indices 1 2 3 4 5 6 
#
# 1 0.012980 -0.007867 -0.000995 0.000000 0.005735 0.000000
# 2 -0.007867 0.026505 0.002884 0.000000 0.000349 0.000000
# 3 -0.000995 0.002884 0.051472 -0.000001 0.028908 0.000000
# 4 0.000000 0.000000 -0.000001 -0.704145 -0.000001 -0.140475
# 5 0.005735 0.000349 0.028908 -0.000001 0.043735 0.000000
# 6 0.000000 0.000000 0.000000 -0.140475 0.000000 0.003499
#
#
# Mechanical properties :
#
#
# Convention : Reuss Voigt Hill
#
# Bulk Modulus (GPa) = 12.65827 30.59296 21.62562
# Shear Modulus (GPa) = -9.47574 24.05006 7.28716
#
# Velocity S-wave (km/s) = -2.18361 3.47878 1.91491
# Velocity P-wave (km/s) = 0.10978 5.61517 3.97129
#
# Compressibility (1/GPa) = 0.07899973
#
# Stress axis : x y z
#
# Youngs Moduli (GPa) = 77.04398 37.72847 19.42794
#
# Poissons Ratio (x) = 0.29681 0.01933
# Poissons Ratio (y) = 0.60612 -0.05602
# Poissons Ratio (z) = 0.07666 -0.10879
#
# Static dielectric constant tensor:
#      x y z
#    x 1.719430 0.000000 -0.022210 
#    y 0.000000 1.676440 0.000000 
#    z -0.022210 0.000000 1.714750 
# 
# From -- ./inp_files/261599.got.cif
#   From: 2010.05.17/outbox.cif.g08.bks.cpg/sg12_131_cif.got.tgz:261599.got - 2010.06.03 13:09:07.
