data_PCOD9216890
_publ_section_title
;
Structure prediction by ZEFSAII (Michael W. Deem and Ramdas Pophale) SiO2 
 PCOD9216890
Probable space group: C 2/M
;
_chemical_formula_sum "Si O2"
_cell_formula_units_Z 26
_cell_length_a 20.536888
_cell_length_b 14.120828
_cell_length_c 9.042942
_cell_angle_alpha 90.000000
_cell_angle_beta 149.815595
_cell_angle_gamma 90.000000
_cell_volume 1318.519583
_symmetry_space_group_name_H-M "C 2/M"
_symmetry_group_IT_number 12
_symmetry_cell_setting 'monoclinic'
loop_
_space_group_symop_operation_xyz
x,y,z
-x,y,-z
-x,-y,-z
x,-y,z
1/2+x,1/2+y,z
1/2-x,1/2+y,-z
1/2-x,1/2-y,-z
1/2+x,1/2-y,z
loop_
_atom_site_type_symbol
_atom_site_label
_atom_site_fract_x
_atom_site_fract_y
_atom_site_fract_z
Si Si1 0.136501 0.298693 0.184008
Si Si2 0.695726 0.500000 0.915922
Si Si3 0.124189 0.790386 0.836106
Si Si4 0.000000 0.500000 0.500000
Si Si5 0.320676 0.000000 0.864765
O O1 0.250000 0.250000 0.500000
O O2 0.175607 0.406289 0.224672
O O3 0.121345 0.248068 0.995641
O O4 0.000000 0.295194 0.000000
O O5 0.631966 0.403723 0.846212
O O6 0.701269 0.500000 0.746942
O O7 0.847627 0.500000 0.257183
O O8 0.000000 0.755403 0.500000
O O9 0.250000 0.750000 0.000000
O O10 0.056391 0.500000 0.782240
#
# Coordination Sequence:
#
# PCOD9216890 Si02
#       5
#     8   4   8   2   4
#     4  12  28  44  68 105 144 181 223 290 356 416
#     4  10  23  40  74 102 135 174 242 294 339 392
#     4  12  25  45  73 101 138 183 244 283 341 415
#     4   8  20  36  78 104 120 178 246 286 328 396
#     4  10  23  44  71  98 141 178 240 276 353 398
#
# _framework density 19.719085
#
# number of rings (size 3 to 8) (size 9 to 14) (size 15 to 20)
#    0.923    0.000    3.077    2.769   12.923    1.231 
#    0.000    1.538    0.000    0.000    0.000    0.000 
#    0.000    0.000    0.000    0.000    0.000    0.000 
#
# Total GULP energy -72420.220878 kJ/mol
# GULP energy per Si atom -5570.786221 kJ/mol
# Density = 1.967420 g / cm^3
# Si number density = 19.719085 Si / 1000 Ang^3
#
#
#
# Elastic Constant Matrix: (Units=GPa)
#
#
# Indices 1 2 3 4 5 6 
#
# 1 159.3987 92.7807 47.2789 0.0000 -16.5880 0.0000
# 2 92.7807 169.6779 62.6379 0.0000 -15.0504 0.0000
# 3 47.2789 62.6379 144.6948 0.0000 -22.3042 0.0000
# 4 0.0000 0.0000 0.0000 10.4725 0.0000 -11.0594
# 5 -16.5880 -15.0504 -22.3042 0.0000 32.7047 0.0000
# 6 0.0000 0.0000 0.0000 -11.0594 0.0000 15.6598
#
#
#
# Elastic Compliance Matrix: (Units=1/GPa)
#
#
# Indices 1 2 3 4 5 6 
#
# 1 0.009453 -0.004714 -0.000719 0.000000 0.002135 0.000000
# 2 -0.004714 0.009415 -0.002499 0.000000 0.000237 0.000000
# 3 -0.000719 -0.002499 0.008933 0.000000 0.004578 0.000000
# 4 0.000000 0.000000 0.000000 0.375657 0.000000 0.265299
# 5 0.002135 0.000237 0.004578 0.000000 0.034891 0.000000
# 6 0.000000 0.000000 0.000000 0.265299 0.000000 0.251219
#
#
# Mechanical properties :
#
#
# Convention : Reuss Voigt Hill
#
# Bulk Modulus (GPa) = 83.76929 97.68516 90.72723
# Shear Modulus (GPa) = 7.04811 29.83898 18.44355
#
# Velocity S-wave (km/s) = 1.89262 3.89421 3.06161
# Velocity P-wave (km/s) = 6.88110 8.35857 7.65556
#
# Compressibility (1/GPa) = 0.01193755
#
# Stress axis : x y z
#
# Youngs Moduli (GPa) = 105.78726 106.21695 111.94033
#
# Poissons Ratio (x) = 0.50072 0.08048
# Poissons Ratio (y) = 0.49870 0.27970
# Poissons Ratio (z) = 0.07605 0.26540
#
# Static dielectric constant tensor:
#      x y z
#    x 1.602880 0.000000 0.084570 
#    y 0.000000 1.763190 0.000000 
#    z 0.084570 0.000000 1.597780 
# 
# From -- ./inp_files/86194.got.cif
#   From: 2010.05.17/outbox.cif.g08.bks.cpg/sg12_44_cif.got.tgz:86194.got - 2010.06.03 13:09:07.
