data_PCOD9216527
_publ_section_title
;
Structure prediction by ZEFSAII (Michael W. Deem and Ramdas Pophale) SiO2 
 PCOD9216527
Probable space group: C 2/M
;
_chemical_formula_sum "Si O2"
_cell_formula_units_Z 36
_cell_length_a 18.024612
_cell_length_b 5.627161
_cell_length_c 16.754646
_cell_angle_alpha 90.000000
_cell_angle_beta 105.160990
_cell_angle_gamma 90.000000
_cell_volume 1640.232784
_symmetry_space_group_name_H-M "C 2/M"
_symmetry_group_IT_number 12
_symmetry_cell_setting 'monoclinic'
loop_
_space_group_symop_operation_xyz
x,y,z
-x,y,-z
-x,-y,-z
x,-y,z
1/2+x,1/2+y,z
1/2-x,1/2+y,-z
1/2-x,1/2-y,-z
1/2+x,1/2-y,z
loop_
_atom_site_type_symbol
_atom_site_label
_atom_site_fract_x
_atom_site_fract_y
_atom_site_fract_z
Si Si1 0.950460 0.500000 0.794936
Si Si2 0.727375 0.500000 0.895728
Si Si3 0.399081 0.000000 0.968006
Si Si4 0.963266 0.249682 0.578003
Si Si5 0.923980 0.500000 0.284661
Si Si6 0.433893 0.500000 0.060634
Si Si7 0.258307 0.000000 0.191554
Si Si8 0.588006 0.500000 0.213815
O O1 0.918576 0.742453 0.748038
O O2 0.920900 0.500000 0.878905
O O3 0.041429 0.500000 0.796398
O O4 0.644933 0.500000 0.912742
O O5 0.732595 0.749884 0.851074
O O6 0.808515 0.500000 0.964586
O O7 0.428656 0.250945 0.011115
O O8 0.919371 0.500000 0.573076
O O9 0.000000 0.246368 0.500000
O O10 0.035669 0.281411 0.658322
O O11 0.922771 0.000000 0.580000
O O12 0.833558 0.500000 0.268347
O O13 0.512022 0.500000 0.134799
O O14 0.171080 0.000000 0.196828
#
# Coordination Sequence:
#
# PCOD9216527 Si02
#       8
#     4   4   4   8   4   4   4   4
#     4  12  25  42  61  84 126 147 205 235 309 358
#     4  12  24  46  59  92 109 151 197 272 294 375
#     4  12  24  44  65  88 109 150 197 265 309 374
#     4   8  16  32  56  95 128 149 194 243 277 327
#     4  10  23  36  68  93 118 171 194 237 286 357
#     4  12  26  42  72  79 110 150 209 249 330 356
#     4  12  24  42  64  84 129 148 205 243 305 353
#     4  12  25  46  57  91 116 162 191 261 300 375
#
# _framework density 21.948104000000001
#
# number of rings (size 3 to 8) (size 9 to 14) (size 15 to 20)
#    0.667    0.444    2.222    4.667    3.111    2.667 
#    0.000    0.000    0.000    0.000    0.000    6.222 
#    0.000    0.000    0.000    0.000    0.000    0.444 
#
# Total GULP energy -100287.913410 kJ/mol
# GULP energy per Si atom -5571.550745 kJ/mol
# Density = 2.189815 g / cm^3
# Si number density = 21.948104 Si / 1000 Ang^3
#
#
#
# Elastic Constant Matrix: (Units=GPa)
#
#
# Indices 1 2 3 4 5 6 
#
# 1 173.8042 26.9470 52.3608 0.0000 17.0598 0.0000
# 2 26.9470 242.3271 29.3089 0.0000 -11.2516 0.0000
# 3 52.3608 29.3089 44.1419 0.0000 -6.2359 0.0000
# 4 0.0000 0.0000 0.0000 -51.0704 0.0000 -159.9864
# 5 17.0598 -11.2516 -6.2359 0.0000 14.7690 0.0000
# 6 0.0000 0.0000 0.0000 -159.9864 0.0000 -511.1710
#
#
#
# Elastic Compliance Matrix: (Units=1/GPa)
#
#
# Indices 1 2 3 4 5 6 
#
# 1 0.014593 -0.000313 -0.020756 0.000000 -0.025859 0.000000
# 2 -0.000313 0.004568 -0.002253 0.000000 0.002890 0.000000
# 3 -0.020756 -0.002253 0.055208 0.000000 0.045569 0.000000
# 4 0.000000 0.000000 0.000000 -1.002164 0.000000 0.313657
# 5 -0.025859 0.002890 0.045569 0.000000 0.119022 0.000000
# 6 0.000000 0.000000 0.000000 0.313657 0.000000 -0.100125
#
#
# Mechanical properties :
#
#
# Convention : Reuss Voigt Hill
#
# Bulk Modulus (GPa) = 36.06817 75.27851 55.67334
# Shear Modulus (GPa) = -5.86158 -86.05072 -45.95615
#
# Velocity S-wave (km/s) = -1.63599 -6.26830 -4.58083
# Velocity P-wave (km/s) = 3.59172 4.24451 1.59928
#
# Compressibility (1/GPa) = 0.02772527
#
# Stress axis : x y z
#
# Youngs Moduli (GPa) = 68.52503 218.90329 18.11331
#
# Poissons Ratio (x) = 0.06854 0.37595
# Poissons Ratio (y) = 0.02146 0.04082
# Poissons Ratio (z) = 1.42228 0.49329
#
# Static dielectric constant tensor:
#      x y z
#    x 1.822270 0.000000 -0.041660 
#    y 0.000000 1.812120 0.000000 
#    z -0.041660 0.000000 1.881040 
# 
# From -- ./inp_files/313058.got.cif
#   From: 2010.05.17/outbox.cif.g08.bks.cpg/sg12_157_cif.got.tgz:313058.got - 2010.06.03 13:09:07.
