data_PCOD9216951
_publ_section_title
;
Structure prediction by ZEFSAII (Michael W. Deem and Ramdas Pophale) SiO2 
 PCOD9216951
Probable space group: C 2/M
;
_chemical_formula_sum "Si O2"
_cell_formula_units_Z 56
_cell_length_a 24.329809
_cell_length_b 8.437629
_cell_length_c 16.029812
_cell_angle_alpha 90.000000
_cell_angle_beta 119.867405
_cell_angle_gamma 90.000000
_cell_volume 2853.625019
_symmetry_space_group_name_H-M "C 2/M"
_symmetry_group_IT_number 12
_symmetry_cell_setting 'monoclinic'
loop_
_space_group_symop_operation_xyz
x,y,z
-x,y,-z
-x,-y,-z
x,-y,z
1/2+x,1/2+y,z
1/2-x,1/2+y,-z
1/2-x,1/2-y,-z
1/2+x,1/2-y,z
loop_
_atom_site_type_symbol
_atom_site_label
_atom_site_fract_x
_atom_site_fract_y
_atom_site_fract_z
Si Si1 0.068299 0.190141 0.795149
Si Si2 0.712129 0.810694 0.890552
Si Si3 0.711992 0.190678 0.348945
Si Si4 0.180259 0.309703 0.143788
Si Si5 0.660772 0.808610 0.488470
Si Si6 0.949698 0.190866 0.031567
Si Si7 0.981114 0.308073 0.578637
O O1 0.140269 0.250167 0.839262
O O2 0.041682 0.244957 0.865837
O O3 0.026357 0.247928 0.686198
O O4 0.069263 0.000000 0.796690
O O5 0.753381 0.746299 0.844834
O O6 0.712027 0.000000 0.889595
O O7 0.750000 0.750000 0.000000
O O8 0.678695 0.242697 0.238983
O O9 0.678418 0.246598 0.408326
O O10 0.784369 0.247056 0.409556
O O11 0.711444 0.000000 0.349177
O O12 0.176962 0.500000 0.136475
O O13 0.120863 0.239390 0.049446
O O14 0.590819 0.756479 0.459040
O O15 0.662540 0.000000 0.490877
O O16 0.953709 0.000000 0.034897
O O17 0.000000 0.250068 0.000000
O O18 0.983199 0.500000 0.581952
O O19 0.000000 0.256285 0.500000
#
# Coordination Sequence:
#
# PCOD9216951 Si02
#       7
#     8   8   8   8   8   8   8
#     4  11  24  42  64  91 123 162 204 253 308 363
#     4  12  24  41  64  89 121 158 199 248 299 358
#     4   9  20  37  58  87 118 152 198 251 300 355
#     4  11  23  38  61  93 123 158 202 250 306 364
#     4   9  19  38  60  83 117 158 202 249 301 358
#     4  10  23  42  62  89 126 165 207 251 301 367
#     4  10  23  41  61  88 121 160 207 253 303 364
#
# _framework density 19.624162999999999
#
# number of rings (size 3 to 8) (size 9 to 14) (size 15 to 20)
#    0.000    1.714    1.429    2.143    4.000    2.857 
#    0.000    0.000    0.000    0.000    0.000    0.000 
#    0.000    0.000    0.000    0.000    0.000    0.000 
#
# Total GULP energy -156418.453319 kJ/mol
# GULP energy per Si atom -5586.373333 kJ/mol
# Density = 1.957950 g / cm^3
# Si number density = 19.624163 Si / 1000 Ang^3
#
#
#
# Elastic Constant Matrix: (Units=GPa)
#
#
# Indices 1 2 3 4 5 6 
#
# 1 132.6079 8.8760 56.7706 0.0000 1.3273 0.0000
# 2 8.8760 10.4504 10.7361 0.0000 -5.0659 0.0000
# 3 56.7706 10.7361 145.1702 0.0000 -9.8818 0.0000
# 4 0.0000 0.0000 0.0000 27.5356 0.0000 7.9854
# 5 1.3273 -5.0659 -9.8818 0.0000 24.7750 0.0000
# 6 0.0000 0.0000 0.0000 7.9854 0.0000 23.3446
#
#
#
# Elastic Compliance Matrix: (Units=1/GPa)
#
#
# Indices 1 2 3 4 5 6 
#
# 1 0.009457 -0.005978 -0.003468 0.000000 -0.003112 0.000000
# 2 -0.005978 0.116434 -0.004760 0.000000 0.022230 0.000000
# 3 -0.003468 -0.004760 0.008782 0.000000 0.002715 0.000000
# 4 0.000000 0.000000 0.000000 0.040316 0.000000 -0.013791
# 5 -0.003112 0.022230 0.002715 0.000000 0.046158 0.000000
# 6 0.000000 0.000000 0.000000 -0.013791 0.000000 0.047554
#
#
# Mechanical properties :
#
#
# Convention : Reuss Voigt Hill
#
# Bulk Modulus (GPa) = 9.41088 48.99935 29.20511
# Shear Modulus (GPa) = 15.03612 29.25410 22.14511
#
# Velocity S-wave (km/s) = 2.77104 3.86517 3.36290
# Velocity P-wave (km/s) = 3.87869 6.70392 5.47662
#
# Compressibility (1/GPa) = 0.10625998
#
# Stress axis : x y z
#
# Youngs Moduli (GPa) = 105.74157 8.58859 113.87557
#
# Poissons Ratio (x) = 0.05134 0.39492
# Poissons Ratio (y) = 0.63214 0.54203
# Poissons Ratio (z) = 0.36671 0.04088
#
# Static dielectric constant tensor:
#      x y z
#    x 1.688910 0.000000 -0.038810 
#    y 0.000000 1.676700 0.000000 
#    z -0.038810 0.000000 1.668980 
# 
# From -- ./inp_files/238999.got.cif
#   From: 2010.05.17/outbox.cif.g08.bks.cpg/sg12_120_cif.got.tgz:238999.got - 2010.06.03 13:09:07.
