data_PCOD9216983
_publ_section_title
;
Structure prediction by ZEFSAII (Michael W. Deem and Ramdas Pophale) SiO2 
 PCOD9216983
Probable space group: C 2/M
;
_chemical_formula_sum "Si O2"
_cell_formula_units_Z 40
_cell_length_a 9.026536
_cell_length_b 17.613685
_cell_length_c 15.266044
_cell_angle_alpha 90.000000
_cell_angle_beta 128.144735
_cell_angle_gamma 90.000000
_cell_volume 1908.844876
_symmetry_space_group_name_H-M "C 2/M"
_symmetry_group_IT_number 12
_symmetry_cell_setting 'monoclinic'
loop_
_space_group_symop_operation_xyz
x,y,z
-x,y,-z
-x,-y,-z
x,-y,z
1/2+x,1/2+y,z
1/2-x,1/2+y,-z
1/2-x,1/2-y,-z
1/2+x,1/2-y,z
loop_
_atom_site_type_symbol
_atom_site_label
_atom_site_fract_x
_atom_site_fract_y
_atom_site_fract_z
Si Si1 0.813494 0.914810 0.174721
Si Si2 0.247656 0.085704 0.388255
Si Si3 0.470695 0.172292 0.611956
Si Si4 0.088006 0.813178 0.937128
Si Si5 0.793155 0.288959 0.730619
O O1 0.826434 0.885983 0.079989
O O2 0.709495 0.852951 0.195801
O O3 0.028095 0.913390 0.288649
O O4 0.739369 0.000000 0.155228
O O5 0.313916 0.148778 0.482951
O O6 0.372345 0.107056 0.348662
O O7 0.291436 0.000000 0.434703
O O8 0.588639 0.250189 0.642212
O O9 0.376577 0.177475 0.671950
O O10 0.928432 0.777168 0.816238
O O11 0.250000 0.750000 0.000000
O O12 0.000000 0.827329 0.000000
#
# Coordination Sequence:
#
# PCOD9216983 Si02
#       5
#     8   8   8   8   8
#     4  11  25  45  65 100 138 166 213 277 330 378
#     4  10  23  41  62  96 140 176 212 265 320 385
#     4  11  21  38  64  93 133 174 222 250 320 381
#     4  12  23  44  71  92 124 168 221 277 327 387
#     4  12  23  41  65 101 125 174 222 273 313 388
#
# _framework density 20.955082000000001
#
# number of rings (size 3 to 8) (size 9 to 14) (size 15 to 20)
#    0.000    0.800    6.000    1.200    0.000   10.000 
#    0.000    4.000    0.000    0.000    0.000    0.000 
#    0.000    0.000    0.000    0.000    0.000    0.000 
#
# Total GULP energy -111737.721001 kJ/mol
# GULP energy per Si atom -5586.886050 kJ/mol
# Density = 2.090739 g / cm^3
# Si number density = 20.955082 Si / 1000 Ang^3
#
#
#
# Elastic Constant Matrix: (Units=GPa)
#
#
# Indices 1 2 3 4 5 6 
#
# 1 88.6758 17.8227 16.0779 0.0000 -40.9033 0.0000
# 2 17.8227 115.1839 19.2951 0.0000 -24.0048 0.0000
# 3 16.0779 19.2951 57.0973 0.0000 -17.4119 0.0000
# 4 0.0000 0.0000 0.0000 30.2235 0.0000 -3.5623
# 5 -40.9033 -24.0048 -17.4119 0.0000 51.4824 0.0000
# 6 0.0000 0.0000 0.0000 -3.5623 0.0000 15.0955
#
#
#
# Elastic Compliance Matrix: (Units=1/GPa)
#
#
# Indices 1 2 3 4 5 6 
#
# 1 0.017841 0.000306 -0.000848 0.000000 0.014031 0.000000
# 2 0.000306 0.009852 -0.002164 0.000000 0.004105 0.000000
# 3 -0.000848 -0.002164 0.020037 0.000000 0.005094 0.000000
# 4 0.000000 0.000000 0.000000 0.034033 0.000000 0.008031
# 5 0.014031 0.004105 0.005094 0.000000 0.034208 0.000000
# 6 0.000000 0.000000 0.000000 0.008031 0.000000 0.068140
#
#
# Mechanical properties :
#
#
# Convention : Reuss Voigt Hill
#
# Bulk Modulus (GPa) = 23.63065 40.81648 32.22357
# Shear Modulus (GPa) = 24.55406 33.21104 28.88255
#
# Velocity S-wave (km/s) = 3.42679 3.98536 3.71658
# Velocity P-wave (km/s) = 5.19216 6.37948 5.81620
#
# Compressibility (1/GPa) = 0.04231791
#
# Stress axis : x y z
#
# Youngs Moduli (GPa) = 56.04963 101.49791 49.90652
#
# Poissons Ratio (x) = -0.03101 0.04234
# Poissons Ratio (y) = -0.01713 0.10798
# Poissons Ratio (z) = 0.04756 0.21961
#
# Static dielectric constant tensor:
#      x y z
#    x 1.761430 0.000000 0.040870 
#    y 0.000000 1.760300 0.000000 
#    z 0.040870 0.000000 1.787730 
# 
# From -- ./inp_files/118893.got.cif
#   From: 2010.05.17/outbox.cif.g08.bks.cpg/sg12_60_cif.got.tgz:118893.got - 2010.06.03 13:09:07.
