data_PCOD9216917
_publ_section_title
;
Structure prediction by ZEFSAII (Michael W. Deem and Ramdas Pophale) SiO2 
 PCOD9216917
Probable space group: C 2/M
;
_chemical_formula_sum "Si O2"
_cell_formula_units_Z 36
_cell_length_a 17.762186
_cell_length_b 21.704188
_cell_length_c 4.879584
_cell_angle_alpha 90.000000
_cell_angle_beta 68.538423
_cell_angle_gamma 90.000000
_cell_volume 1750.714251
_symmetry_space_group_name_H-M "C 2/M"
_symmetry_group_IT_number 12
_symmetry_cell_setting 'monoclinic'
loop_
_space_group_symop_operation_xyz
x,y,z
-x,y,-z
-x,-y,-z
x,-y,z
1/2+x,1/2+y,z
1/2-x,1/2+y,-z
1/2-x,1/2-y,-z
1/2+x,1/2-y,z
loop_
_atom_site_type_symbol
_atom_site_label
_atom_site_fract_x
_atom_site_fract_y
_atom_site_fract_z
Si Si1 0.806686 0.296610 0.248540
Si Si2 0.793642 0.000000 0.972990
Si Si3 0.908285 0.000000 0.317501
Si Si4 0.089482 0.183644 0.002448
Si Si5 0.255562 0.869517 0.780737
Si Si6 0.500000 0.394787 0.500000
O O1 0.750000 0.250000 0.500000
O O2 0.817108 0.351182 0.456646
O O3 0.881337 0.254054 0.055326
O O4 0.768234 0.324662 0.025009
O O5 0.873817 0.000000 0.058601
O O6 0.744562 0.061194 0.112379
O O7 0.829226 0.000000 0.619999
O O8 0.961945 0.058957 0.327945
O O9 0.072569 0.150292 0.313464
O O10 0.164977 0.144382 0.787587
O O11 0.000000 0.179439 0.000000
#
# Coordination Sequence:
#
# PCOD9216917 Si02
#       6
#     8   4   4   8   8   4
#     4  10  23  41  59  84 122 160 200 254 300 348
#     4  12  22  41  62  84 117 165 205 242 291 360
#     4  11  24  38  54  86 130 164 195 240 280 358
#     4  11  23  35  60  87 121 161 200 244 295 360
#     4  11  23  41  60  87 121 161 203 246 303 352
#     4  11  24  34  56  86 128 163 200 232 298 355
#
# _framework density 20.563037000000001
#
# number of rings (size 3 to 8) (size 9 to 14) (size 15 to 20)
#    0.000    1.111    2.222    5.333    9.333    0.889 
#    0.000    0.000    0.000    0.000    0.000    4.667 
#    0.000    0.000    0.000    0.000    0.000    0.000 
#
# Total GULP energy -100474.672094 kJ/mol
# GULP energy per Si atom -5581.926227 kJ/mol
# Density = 2.051623 g / cm^3
# Si number density = 20.563037 Si / 1000 Ang^3
#
#
#
# Elastic Constant Matrix: (Units=GPa)
#
#
# Indices 1 2 3 4 5 6 
#
# 1 61.0818 38.5271 20.7543 0.0000 14.2044 0.0000
# 2 38.5271 145.7014 50.9334 0.0000 -17.2938 0.0000
# 3 20.7543 50.9334 91.8371 0.0000 2.8843 0.0000
# 4 0.0000 0.0000 0.0000 31.3125 0.0000 -4.3868
# 5 14.2044 -17.2938 2.8843 0.0000 30.8482 0.0000
# 6 0.0000 0.0000 0.0000 -4.3868 0.0000 30.3411
#
#
#
# Elastic Compliance Matrix: (Units=1/GPa)
#
#
# Indices 1 2 3 4 5 6 
#
# 1 0.025894 -0.008646 -0.000532 0.000000 -0.016720 0.000000
# 2 -0.008646 0.012334 -0.005244 0.000000 0.011386 0.000000
# 3 -0.000532 -0.005244 0.014043 0.000000 -0.004008 0.000000
# 4 0.000000 0.000000 0.000000 0.032596 0.000000 0.004713
# 5 -0.016720 0.011386 -0.004008 0.000000 0.046874 0.000000
# 6 0.000000 0.000000 0.000000 0.004713 0.000000 0.033640
#
#
# Mechanical properties :
#
#
# Convention : Reuss Voigt Hill
#
# Bulk Modulus (GPa) = 42.68419 57.67219 50.17819
# Shear Modulus (GPa) = 24.74832 31.06073 27.90453
#
# Velocity S-wave (km/s) = 3.47296 3.89075 3.68778
# Velocity P-wave (km/s) = 6.07328 6.94920 6.52595
#
# Compressibility (1/GPa) = 0.02342788
#
# Stress axis : x y z
#
# Youngs Moduli (GPa) = 38.61965 81.07521 71.20757
#
# Poissons Ratio (x) = 0.70095 0.03786
# Poissons Ratio (y) = 0.33389 0.37344
# Poissons Ratio (z) = 0.02053 0.42519
#
# Static dielectric constant tensor:
#      x y z
#    x 1.747910 0.000000 0.046250 
#    y 0.000000 1.813550 0.000000 
#    z 0.046250 0.000000 1.851630 
# 
# From -- ./inp_files/15606.got.cif
#   From: 2010.05.17/outbox.cif.g08.bks.cpg/sg12_8_cif.got.tgz:15606.got - 2010.06.03 13:09:07.
