data_PCOD9216198
_publ_section_title
;
Structure prediction by ZEFSAII (Michael W. Deem and Ramdas Pophale) SiO2 
 PCOD9216198
Probable space group: C 2/M
;
_chemical_formula_sum "Si O2"
_cell_formula_units_Z 44
_cell_length_a 12.330572
_cell_length_b 22.466999
_cell_length_c 11.850924
_cell_angle_alpha 90.000000
_cell_angle_beta 41.363373
_cell_angle_gamma 90.000000
_cell_volume 2169.560211
_symmetry_space_group_name_H-M "C 2/M"
_symmetry_group_IT_number 12
_symmetry_cell_setting 'monoclinic'
loop_
_space_group_symop_operation_xyz
x,y,z
-x,y,-z
-x,-y,-z
x,-y,z
1/2+x,1/2+y,z
1/2-x,1/2+y,-z
1/2-x,1/2-y,-z
1/2+x,1/2-y,z
loop_
_atom_site_type_symbol
_atom_site_label
_atom_site_fract_x
_atom_site_fract_y
_atom_site_fract_z
Si Si1 0.658963 0.000000 0.948208
Si Si2 0.235091 0.201523 0.700910
Si Si3 0.898398 0.103703 0.764540
Si Si4 0.000000 0.199157 0.500000
Si Si5 0.387068 0.500000 0.469120
Si Si6 0.488759 0.000000 0.314235
Si Si7 0.634602 0.699096 0.040437
Si Si8 0.000000 0.401338 0.500000
O O1 0.621486 0.000000 0.110492
O O2 0.500000 0.000000 0.000000
O O3 0.756147 0.059215 0.839050
O O4 0.351771 0.257096 0.582383
O O5 0.343916 0.142219 0.600553
O O6 0.058172 0.208965 0.781405
O O7 0.181216 0.199958 0.873647
O O8 0.840406 0.134526 0.924495
O O9 0.935611 0.156206 0.648420
O O10 0.053057 0.059182 0.643593
O O11 0.500000 0.500000 0.500000
O O12 0.189318 0.500000 0.611830
O O13 0.510292 0.943570 0.381547
O O14 0.750000 0.750000 0.000000
#
# Coordination Sequence:
#
# PCOD9216198 Si02
#       8
#     4   8   8   4   4   4   8   4
#     4  11  26  41  62  93 128 169 208 271 328 383
#     4  10  23  42  62  95 131 162 212 264 315 382
#     4  11  23  40  60  87 126 164 206 251 318 381
#     4  11  22  40  62  90 122 169 208 252 310 381
#     4  11  22  40  62  92 130 168 210 266 325 384
#     4  11  22  42  69  96 125 168 224 272 315 389
#     4  11  22  41  63  92 128 170 206 259 320 384
#     4  10  22  43  68  97 126 172 224 268 322 374
#
# _framework density 20.280608000000001
#
# number of rings (size 3 to 8) (size 9 to 14) (size 15 to 20)
#    0.000    1.273    2.727    3.273    0.000    2.182 
#    3.273    0.000    0.000    8.727    0.000    0.000 
#    0.000    0.000    0.000    0.000    0.000    0.000 
#
# Total GULP energy -122676.653996 kJ/mol
# GULP energy per Si atom -5576.211545 kJ/mol
# Density = 2.023445 g / cm^3
# Si number density = 20.280608 Si / 1000 Ang^3
#
#
#
# Elastic Constant Matrix: (Units=GPa)
#
#
# Indices 1 2 3 4 5 6 
#
# 1 79.7134 47.2043 36.0671 0.0000 -14.9583 0.0000
# 2 47.2043 151.4194 56.7009 0.0000 -15.2302 0.0000
# 3 36.0671 56.7009 96.4440 0.0000 -8.8879 0.0000
# 4 0.0000 0.0000 0.0000 49.0754 0.0000 6.0685
# 5 -14.9583 -15.2302 -8.8879 0.0000 46.4752 0.0000
# 6 0.0000 0.0000 0.0000 6.0685 0.0000 5.3577
#
#
#
# Elastic Compliance Matrix: (Units=1/GPa)
#
#
# Indices 1 2 3 4 5 6 
#
# 1 0.017089 -0.003458 -0.004026 0.000000 0.003597 0.000000
# 2 -0.003458 0.009328 -0.004084 0.000000 0.001163 0.000000
# 3 -0.004026 -0.004084 0.014284 0.000000 0.000097 0.000000
# 4 0.000000 0.000000 0.000000 0.023696 0.000000 -0.026840
# 5 0.003597 0.001163 0.000097 0.000000 0.023074 0.000000
# 6 0.000000 0.000000 0.000000 -0.026840 0.000000 0.217050
#
#
# Mechanical properties :
#
#
# Convention : Reuss Voigt Hill
#
# Bulk Modulus (GPa) = 56.92945 67.50239 62.21592
# Shear Modulus (GPa) = 14.99186 32.68862 23.84024
#
# Velocity S-wave (km/s) = 2.72181 4.01910 3.43230
# Velocity P-wave (km/s) = 6.16518 7.40905 6.81555
#
# Compressibility (1/GPa) = 0.01756560
#
# Stress axis : x y z
#
# Youngs Moduli (GPa) = 58.51546 107.19873 70.00601
#
# Poissons Ratio (x) = 0.37070 0.28187
# Poissons Ratio (y) = 0.20235 0.28590
# Poissons Ratio (z) = 0.23561 0.43780
#
# Static dielectric constant tensor:
#      x y z
#    x 1.713900 0.000000 0.050310 
#    y 0.000000 1.689010 0.000000 
#    z 0.050310 0.000000 1.719020 
# 
# From -- ./inp_files/135821.got.cif
#   From: 2010.05.17/outbox.cif.g08.bks.cpg/sg12_68_cif.got.tgz:135821.got - 2010.06.03 13:09:07.
