data_PCOD9216428
_publ_section_title
;
Structure prediction by ZEFSAII (Michael W. Deem and Ramdas Pophale) SiO2 
 PCOD9216428
Probable space group: C 2/M
;
_chemical_formula_sum "Si O2"
_cell_formula_units_Z 40
_cell_length_a 17.851057
_cell_length_b 14.436831
_cell_length_c 14.271291
_cell_angle_alpha 90.000000
_cell_angle_beta 147.721709
_cell_angle_gamma 90.000000
_cell_volume 1964.112640
_symmetry_space_group_name_H-M "C 2/M"
_symmetry_group_IT_number 12
_symmetry_cell_setting 'monoclinic'
loop_
_space_group_symop_operation_xyz
x,y,z
-x,y,-z
-x,-y,-z
x,-y,z
1/2+x,1/2+y,z
1/2-x,1/2+y,-z
1/2-x,1/2-y,-z
1/2+x,1/2-y,z
loop_
_atom_site_type_symbol
_atom_site_label
_atom_site_fract_x
_atom_site_fract_y
_atom_site_fract_z
Si Si1 0.575061 0.608335 0.749752
Si Si2 0.000000 0.820737 0.000000
Si Si3 0.613132 0.896547 0.842947
Si Si4 0.000000 0.758819 0.500000
Si Si5 0.201664 0.397848 0.719679
Si Si6 0.089873 0.761507 0.296988
O O1 0.550342 0.500000 0.703971
O O2 0.550088 0.674594 0.635327
O O3 0.474236 0.644822 0.725647
O O4 0.736486 0.620353 0.950236
O O5 0.133055 0.881114 0.108686
O O6 0.058021 0.765015 0.151851
O O7 0.647384 0.894903 0.768929
O O8 0.502867 0.821035 0.758198
O O9 0.564674 0.000000 0.816358
O O10 0.121490 0.689654 0.591357
O O11 0.168136 0.500000 0.644574
O O12 0.250000 0.750000 0.500000
#
# Coordination Sequence:
#
# PCOD9216428 Si02
#       6
#     8   4   8   4   8   8
#     4  11  23  42  67  93 130 176 227 277 336 405
#     4  12  25  40  67 100 142 182 223 278 347 406
#     4  10  22  45  71  92 127 181 230 277 334 403
#     4  12  22  40  66 100 130 170 226 280 336 402
#     4  11  23  41  67  99 132 174 222 277 339 403
#     4  12  25  44  65 102 139 181 225 287 344 401
#
# _framework density 20.36543
#
# number of rings (size 3 to 8) (size 9 to 14) (size 15 to 20)
#    0.000    0.800    4.000    3.900    0.000    1.600 
#    0.000    0.500    0.000    0.000    0.000    0.000 
#    0.000    0.000    0.000    0.000    0.000    0.000 
#
# Total GULP energy -111819.306204 kJ/mol
# GULP energy per Si atom -5590.965310 kJ/mol
# Density = 2.031908 g / cm^3
# Si number density = 20.365430 Si / 1000 Ang^3
#
#
#
# Elastic Constant Matrix: (Units=GPa)
#
#
# Indices 1 2 3 4 5 6 
#
# 1 85.1145 49.1306 46.8892 0.0001 4.7908 0.0000
# 2 49.1306 159.2709 84.9822 0.0001 13.0917 0.0000
# 3 46.8892 84.9822 128.3924 0.0001 8.9141 0.0001
# 4 0.0001 0.0001 0.0001 -134.3292 0.0001 -70.1342
# 5 4.7908 13.0917 8.9141 0.0001 44.7504 0.0000
# 6 0.0000 0.0000 0.0001 -70.1342 0.0000 -14.6421
#
#
#
# Elastic Compliance Matrix: (Units=1/GPa)
#
#
# Indices 1 2 3 4 5 6 
#
# 1 0.015430 -0.002703 -0.003839 0.000000 -0.000096 0.000000
# 2 -0.002703 0.010292 -0.005715 0.000000 -0.001583 0.000000
# 3 -0.003839 -0.005715 0.013009 0.000000 -0.000508 0.000000
# 4 0.000000 0.000000 0.000000 0.004960 0.000000 -0.023759
# 5 -0.000096 -0.001583 -0.000508 0.000000 0.022921 0.000000
# 6 0.000000 0.000000 0.000000 -0.023759 0.000000 0.045505
#
#
# Mechanical properties :
#
#
# Convention : Reuss Voigt Hill
#
# Bulk Modulus (GPa) = 70.34498 81.64241 75.99370
# Shear Modulus (GPa) = 35.36821 -8.05913 13.65454
#
# Velocity S-wave (km/s) = 4.17187 -1.99144 2.59216
# Velocity P-wave (km/s) = 7.60410 5.90660 6.80846
#
# Compressibility (1/GPa) = 0.01421565
#
# Stress axis : x y z
#
# Youngs Moduli (GPa) = 64.81049 97.16257 76.87193
#
# Poissons Ratio (x) = 0.26267 0.29510
# Poissons Ratio (y) = 0.17521 0.43933
# Poissons Ratio (z) = 0.24880 0.55529
#
# Static dielectric constant tensor:
#      x y z
#    x 1.725580 0.000000 -0.024180 
#    y 0.000000 1.733250 0.000000 
#    z -0.024180 0.000000 1.742870 
# 
# From -- ./inp_files/225577.got.cif
#   From: 2010.05.17/outbox.cif.g08.bks.cpg/sg12_113_cif.got.tgz:225577.got - 2010.06.03 13:09:07.
