data_PCOD9216121
_publ_section_title
;
Structure prediction by ZEFSAII (Michael W. Deem and Ramdas Pophale) SiO2 
 PCOD9216121
Probable space group: C 2/M
;
_chemical_formula_sum "Si O2"
_cell_formula_units_Z 28
_cell_length_a 13.251527
_cell_length_b 24.346641
_cell_length_c 5.454728
_cell_angle_alpha 90.000000
_cell_angle_beta 43.580336
_cell_angle_gamma 90.000000
_cell_volume 1213.196268
_symmetry_space_group_name_H-M "C 2/M"
_symmetry_group_IT_number 12
_symmetry_cell_setting 'monoclinic'
loop_
_space_group_symop_operation_xyz
x,y,z
-x,y,-z
-x,-y,-z
x,-y,z
1/2+x,1/2+y,z
1/2-x,1/2+y,-z
1/2-x,1/2-y,-z
1/2+x,1/2-y,z
loop_
_atom_site_type_symbol
_atom_site_label
_atom_site_fract_x
_atom_site_fract_y
_atom_site_fract_z
Si Si1 0.454909 0.368775 0.826433
Si Si2 0.159917 0.616750 0.108103
Si Si3 0.403579 0.000000 0.920770
Si Si4 0.284373 0.716965 0.683034
O O1 0.500000 0.399636 0.500000
O O2 0.554315 0.312380 0.633548
O O3 0.500000 0.394925 0.000000
O O4 0.281172 0.367007 0.099033
O O5 0.182846 0.557048 0.949318
O O6 0.000000 0.618748 0.500000
O O7 0.179081 0.664326 0.877265
O O8 0.500000 0.000000 0.500000
O O9 0.500000 0.000000 0.000000
O O10 0.250000 0.750000 0.500000
O O11 0.250000 0.750000 0.000000
#
# Coordination Sequence:
#
# PCOD9216121 Si02
#       4
#     8   8   4   8
#     4  10  22  43  65  95 137 175 225 285 343 414
#     4  10  24  46  73 104 140 189 240 295 352 417
#     4  10  24  46  70 102 142 186 239 292 351 422
#     4  11  24  43  66  97 140 182 223 284 354 422
#
# _framework density 23.079530999999999
#
# number of rings (size 3 to 8) (size 9 to 14) (size 15 to 20)
#    0.000    1.714    0.000    3.429    0.000   19.429 
#    0.000   17.143    0.000    0.000    0.000    2.000 
#    0.000    0.000    0.000    0.000    0.000    0.000 
#
# Total GULP energy -78019.387998 kJ/mol
# GULP energy per Si atom -5572.813428 kJ/mol
# Density = 2.302700 g / cm^3
# Si number density = 23.079531 Si / 1000 Ang^3
#
#
#
# Elastic Constant Matrix: (Units=GPa)
#
#
# Indices 1 2 3 4 5 6 
#
# 1 175.6254 57.3171 88.2796 0.0000 5.8352 0.0000
# 2 57.3171 189.8964 53.3365 0.0000 5.8746 0.0000
# 3 88.2796 53.3365 121.8034 0.0000 3.2504 0.0000
# 4 0.0000 0.0000 0.0000 29.0994 0.0000 -6.3853
# 5 5.8352 5.8746 3.2504 0.0000 67.4966 0.0000
# 6 0.0000 0.0000 0.0000 -6.3853 0.0000 34.5446
#
#
#
# Elastic Compliance Matrix: (Units=1/GPa)
#
#
# Indices 1 2 3 4 5 6 
#
# 1 0.009139 -0.001013 -0.006169 0.000000 -0.000405 0.000000
# 2 -0.001013 0.006127 -0.001939 0.000000 -0.000352 0.000000
# 3 -0.006169 -0.001939 0.013529 0.000000 0.000051 0.000000
# 4 0.000000 0.000000 0.000000 0.035818 0.000000 0.006621
# 5 -0.000405 -0.000352 0.000051 0.000000 0.014879 0.000000
# 6 0.000000 0.000000 0.000000 0.006621 0.000000 0.030172
#
#
# Mechanical properties :
#
#
# Convention : Reuss Voigt Hill
#
# Bulk Modulus (GPa) = 94.76929 98.35462 96.56195
# Shear Modulus (GPa) = 38.04443 45.45424 41.74933
#
# Velocity S-wave (km/s) = 4.06446 4.44268 4.25777
# Velocity P-wave (km/s) = 7.94844 8.30810 8.13026
#
# Compressibility (1/GPa) = 0.01055194
#
# Stress axis : x y z
#
# Youngs Moduli (GPa) = 109.41998 163.19940 73.91430
#
# Poissons Ratio (x) = 0.16535 0.45600
# Poissons Ratio (y) = 0.11086 0.14335
# Poissons Ratio (z) = 0.67504 0.31651
#
# Static dielectric constant tensor:
#      x y z
#    x 1.945380 0.000000 0.074680 
#    y 0.000000 1.924080 0.000000 
#    z 0.074680 0.000000 2.267210 
# 
# From -- ./inp_files/11986.got.cif
#   From: 2010.05.17/outbox.cif.g08.bks.cpg/sg12_6_cif.got.tgz:11986.got - 2010.06.03 13:09:07.
