data_PCOD9216936
_publ_section_title
;
Structure prediction by ZEFSAII (Michael W. Deem and Ramdas Pophale) SiO2 
 PCOD9216936
Probable space group: C 2/M
;
_chemical_formula_sum "Si O2"
_cell_formula_units_Z 42
_cell_length_a 9.435354
_cell_length_b 16.827320
_cell_length_c 15.281167
_cell_angle_alpha 90.000000
_cell_angle_beta 61.474927
_cell_angle_gamma 90.000000
_cell_volume 2131.694364
_symmetry_space_group_name_H-M "C 2/M"
_symmetry_group_IT_number 12
_symmetry_cell_setting 'monoclinic'
loop_
_space_group_symop_operation_xyz
x,y,z
-x,y,-z
-x,-y,-z
x,-y,z
1/2+x,1/2+y,z
1/2-x,1/2+y,-z
1/2-x,1/2-y,-z
1/2+x,1/2-y,z
loop_
_atom_site_type_symbol
_atom_site_label
_atom_site_fract_x
_atom_site_fract_y
_atom_site_fract_z
Si Si1 0.682334 0.208947 0.432635
Si Si2 0.500000 0.000000 0.000000
Si Si3 0.061400 0.094000 0.731714
Si Si4 0.068422 0.414116 0.157974
Si Si5 0.871035 0.190664 0.114442
Si Si6 0.250434 0.665678 0.736741
O O1 0.500000 0.180435 0.500000
O O2 0.750000 0.250000 0.500000
O O3 0.800333 0.139733 0.363780
O O4 0.681489 0.277349 0.358628
O O5 0.468381 0.932578 0.932710
O O6 0.061493 0.135738 0.826724
O O7 0.890493 0.112248 0.736064
O O8 0.086746 0.000000 0.730224
O O9 0.119741 0.500000 0.180756
O O10 0.208404 0.351134 0.128788
O O11 0.902368 0.385019 0.250013
O O12 0.821703 0.274793 0.169450
O O13 0.000000 0.197174 0.000000
#
# Coordination Sequence:
#
# PCOD9216936 Si02
#       6
#     8   2   8   8   8   8
#     4  11  23  46  71  93 129 167 211 265 326 383
#     4   8  24  40  62  84 130 174 214 246 324 370
#     4  11  25  42  65 100 129 164 213 268 321 378
#     4  10  23  41  60  88 127 173 211 258 318 371
#     4  11  25  39  63  94 132 172 219 260 312 376
#     4  11  24  42  67  94 126 168 217 264 312 391
#
# _framework density 19.702635999999998
#
# number of rings (size 3 to 8) (size 9 to 14) (size 15 to 20)
#    0.571    0.762    1.905    3.429    6.667    3.429 
#    0.000    2.857    0.000    0.000    0.000    0.000 
#    0.000    0.000    0.000    0.000    0.000    0.000 
#
# Total GULP energy -117082.788345 kJ/mol
# GULP energy per Si atom -5575.370874 kJ/mol
# Density = 1.965779 g / cm^3
# Si number density = 19.702636 Si / 1000 Ang^3
#
#
#
# Elastic Constant Matrix: (Units=GPa)
#
#
# Indices 1 2 3 4 5 6 
#
# 1 75.1500 1.3972 28.5124 0.0000 -13.0365 0.0000
# 2 1.3972 80.0471 26.9738 0.0000 7.9593 0.0000
# 3 28.5124 26.9738 105.9376 0.0000 -9.5196 0.0000
# 4 0.0000 0.0000 0.0000 -11.1667 0.0000 -3.2365
# 5 -13.0365 7.9593 -9.5196 0.0000 20.7957 0.0000
# 6 0.0000 0.0000 0.0000 -3.2365 0.0000 22.2262
#
#
#
# Elastic Compliance Matrix: (Units=1/GPa)
#
#
# Indices 1 2 3 4 5 6 
#
# 1 0.016136 0.000097 -0.003611 0.000000 0.008426 0.000000
# 2 0.000097 0.014756 -0.004469 0.000000 -0.007633 0.000000
# 3 -0.003611 -0.004469 0.011993 0.000000 0.004937 0.000000
# 4 0.000000 0.000000 0.000000 -0.085926 0.000000 -0.012512
# 5 0.008426 -0.007633 0.004937 0.000000 0.058550 0.000000
# 6 0.000000 0.000000 0.000000 -0.012512 0.000000 0.043170
#
#
# Mechanical properties :
#
#
# Convention : Reuss Voigt Hill
#
# Bulk Modulus (GPa) = 37.14704 41.65573 39.40138
# Shear Modulus (GPa) = 59.79590 19.98781 39.89185
#
# Velocity S-wave (km/s) = 5.51499 3.18854 4.50454
# Velocity P-wave (km/s) = 7.71027 5.89439 6.86265
#
# Compressibility (1/GPa) = 0.02692005
#
# Stress axis : x y z
#
# Youngs Moduli (GPa) = 61.97157 67.76963 83.38276
#
# Poissons Ratio (x) = -0.00659 0.30107
# Poissons Ratio (y) = -0.00603 0.37265
# Poissons Ratio (z) = 0.22376 0.30287
#
# Static dielectric constant tensor:
#      x y z
#    x 1.692590 0.000000 0.003010 
#    y 0.000000 1.607400 0.000000 
#    z 0.003010 0.000000 1.684340 
# 
# From -- ./inp_files/195370.got.cif
#   From: 2010.05.17/outbox.cif.g08.bks.cpg/sg12_98_cif.got.tgz:195370.got - 2010.06.03 13:09:07.
