data_PCOD9216237
_publ_section_title
;
Structure prediction by ZEFSAII (Michael W. Deem and Ramdas Pophale) SiO2 
 PCOD9216237
Probable space group: C 2/M
;
_chemical_formula_sum "Si O2"
_cell_formula_units_Z 48
_cell_length_a 15.042722
_cell_length_b 9.614570
_cell_length_c 26.939057
_cell_angle_alpha 90.000000
_cell_angle_beta 146.106685
_cell_angle_gamma 90.000000
_cell_volume 2172.696368
_symmetry_space_group_name_H-M "C 2/M"
_symmetry_group_IT_number 12
_symmetry_cell_setting 'monoclinic'
loop_
_space_group_symop_operation_xyz
x,y,z
-x,y,-z
-x,-y,-z
x,-y,z
1/2+x,1/2+y,z
1/2-x,1/2+y,-z
1/2-x,1/2-y,-z
1/2+x,1/2-y,z
loop_
_atom_site_type_symbol
_atom_site_label
_atom_site_fract_x
_atom_site_fract_y
_atom_site_fract_z
Si Si1 0.462173 0.652896 0.614101
Si Si2 0.377715 0.667007 0.026257
Si Si3 0.774864 0.836815 0.432638
Si Si4 0.773079 0.775508 0.785339
Si Si5 0.146490 0.652545 0.831586
Si Si6 0.657529 0.342984 0.293278
O O1 0.393196 0.500000 0.593210
O O2 0.369126 0.771056 0.601428
O O3 0.425550 0.676597 0.539086
O O4 0.646642 0.655371 0.714279
O O5 0.393515 0.500000 0.045727
O O6 0.545574 0.742529 0.112987
O O7 0.250000 0.750000 0.000000
O O8 0.305876 0.674419 0.937689
O O9 0.771570 0.747245 0.381396
O O10 0.750584 0.000000 0.410965
O O11 0.692639 0.848012 0.795417
O O12 0.788420 0.846382 0.738733
O O13 0.082346 0.500000 0.816221
O O14 0.014134 0.767036 0.782477
O O15 0.645148 0.500000 0.306049
#
# Coordination Sequence:
#
# PCOD9216237 Si02
#       6
#     8   8   8   8   8   8
#     4  10  23  43  70 103 137 178 230 283 340 410
#     4  11  24  44  69  99 137 180 231 283 343 409
#     4  10  22  43  70 100 139 182 225 280 345 408
#     4  12  25  42  70 103 138 180 230 284 340 407
#     4  11  24  44  70  98 133 182 232 282 343 407
#     4  12  25  42  67 102 143 179 227 287 341 405
#
# _framework density 22.092365000000001
#
# number of rings (size 3 to 8) (size 9 to 14) (size 15 to 20)
#    0.000    1.000    3.333    3.000    0.000    6.000 
#    0.000    2.500    0.000    3.000    0.000    0.000 
#    0.000    0.000    0.000    0.000    0.000    0.000 
#
# Total GULP energy -133974.858544 kJ/mol
# GULP energy per Si atom -5582.285773 kJ/mol
# Density = 2.204208 g / cm^3
# Si number density = 22.092365 Si / 1000 Ang^3
#
#
#
# Elastic Constant Matrix: (Units=GPa)
#
#
# Indices 1 2 3 4 5 6 
#
# 1 92.0516 51.3071 43.7041 0.0000 -19.1144 0.0000
# 2 51.3071 140.3644 65.1793 0.0000 -3.7757 0.0000
# 3 43.7041 65.1793 151.8223 0.0000 -20.3240 0.0000
# 4 0.0000 0.0000 0.0000 24.6074 0.0000 -2.9516
# 5 -19.1144 -3.7757 -20.3240 0.0000 47.7045 0.0000
# 6 0.0000 0.0000 0.0000 -2.9516 0.0000 6.6612
#
#
#
# Elastic Compliance Matrix: (Units=1/GPa)
#
#
# Indices 1 2 3 4 5 6 
#
# 1 0.015332 -0.004662 -0.001738 0.000000 0.005034 0.000000
# 2 -0.004662 0.010359 -0.003442 0.000000 -0.002514 0.000000
# 3 -0.001738 -0.003442 0.008945 0.000000 0.002842 0.000000
# 4 0.000000 0.000000 0.000000 0.042919 0.000000 0.019017
# 5 0.005034 -0.002514 0.002842 0.000000 0.023991 0.000000
# 6 0.000000 0.000000 0.000000 0.019017 0.000000 0.158551
#
#
# Mechanical properties :
#
#
# Convention : Reuss Voigt Hill
#
# Bulk Modulus (GPa) = 66.87878 78.29103 72.58491
# Shear Modulus (GPa) = 17.55829 30.73114 24.14471
#
# Velocity S-wave (km/s) = 2.82222 3.73370 3.30949
# Velocity P-wave (km/s) = 6.39984 7.35543 6.89421
#
# Compressibility (1/GPa) = 0.01495242
#
# Stress axis : x y z
#
# Youngs Moduli (GPa) = 65.22113 96.53497 111.79227
#
# Poissons Ratio (x) = 0.45002 0.19434
# Poissons Ratio (y) = 0.30405 0.38477
# Poissons Ratio (z) = 0.11338 0.33226
#
# Static dielectric constant tensor:
#      x y z
#    x 1.819730 0.000000 -0.008290 
#    y 0.000000 1.778800 0.000000 
#    z -0.008290 0.000000 1.840740 
# 
# From -- ./inp_files/378559.got.cif
#   From: 2010.05.17/outbox.cif.g08.bks.cpg/sg12_190_cif.got.tgz:378559.got - 2010.06.03 13:09:07.
