data_PCOD9216537
_publ_section_title
;
Structure prediction by ZEFSAII (Michael W. Deem and Ramdas Pophale) SiO2 
 PCOD9216537
Probable space group: C 2/M
;
_chemical_formula_sum "Si O2"
_cell_formula_units_Z 44
_cell_length_a 10.641298
_cell_length_b 22.852526
_cell_length_c 15.447847
_cell_angle_alpha 90.000000
_cell_angle_beta 142.285470
_cell_angle_gamma 90.000000
_cell_volume 2298.025815
_symmetry_space_group_name_H-M "C 2/M"
_symmetry_group_IT_number 12
_symmetry_cell_setting 'monoclinic'
loop_
_space_group_symop_operation_xyz
x,y,z
-x,y,-z
-x,-y,-z
x,-y,z
1/2+x,1/2+y,z
1/2-x,1/2+y,-z
1/2-x,1/2-y,-z
1/2+x,1/2-y,z
loop_
_atom_site_type_symbol
_atom_site_label
_atom_site_fract_x
_atom_site_fract_y
_atom_site_fract_z
Si Si1 0.405739 0.703304 0.835767
Si Si2 0.629913 0.000000 0.658191
Si Si3 0.796011 0.707312 0.446385
Si Si4 0.417612 0.500000 0.054285
Si Si5 0.023216 0.377553 0.680575
Si Si6 0.000000 0.311489 0.000000
Si Si7 0.798778 0.374585 0.046380
O O1 0.387396 0.709075 0.722205
O O2 0.218401 0.661427 0.758700
O O3 0.617414 0.670712 0.973416
O O4 0.390099 0.765505 0.874724
O O5 0.500000 0.000000 0.500000
O O6 0.573237 0.943242 0.682392
O O7 0.874409 0.000000 0.775794
O O8 0.750000 0.750000 0.500000
O O9 0.000000 0.722167 0.500000
O O10 0.842064 0.646252 0.520541
O O11 0.292141 0.440241 0.001293
O O12 0.500000 0.500000 0.000000
O O13 0.021208 0.371045 0.783167
O O14 0.130667 0.352835 0.008678
#
# Coordination Sequence:
#
# PCOD9216537 Si02
#       7
#     8   4   8   4   8   4   8
#     4  11  21  38  59  88 123 158 206 245 307 364
#     4  12  22  38  64  96 116 148 204 258 313 351
#     4  10  23  37  57  87 123 161 200 251 306 368
#     4  12  22  43  68  89 117 158 204 266 301 360
#     4  11  21  39  61  91 121 157 203 258 303 365
#     4  12  26  35  62  93 128 168 198 256 306 380
#     4  12  23  40  63  90 124 160 210 252 312 366
#
# _framework density 19.14687
#
# number of rings (size 3 to 8) (size 9 to 14) (size 15 to 20)
#    0.000    0.727    5.455    3.273    5.091    0.364 
#    0.000    0.000    0.000    0.000    0.000    1.909 
#    0.000    0.000    0.000    0.000    0.000    0.000 
#
# Total GULP energy -122795.779439 kJ/mol
# GULP energy per Si atom -5581.626338 kJ/mol
# Density = 1.910329 g / cm^3
# Si number density = 19.146870 Si / 1000 Ang^3
#
#
#
# Elastic Constant Matrix: (Units=GPa)
#
#
# Indices 1 2 3 4 5 6 
#
# 1 78.6570 57.7263 18.3742 -0.0001 -21.7940 0.0000
# 2 57.7263 148.0596 32.8895 0.0000 -19.6647 0.0000
# 3 18.3742 32.8895 130.7633 -0.0003 -37.2489 -0.0001
# 4 -0.0001 0.0000 -0.0003 1.0676 -0.0002 -12.8719
# 5 -21.7940 -19.6647 -37.2489 -0.0002 22.6391 0.0000
# 6 0.0000 0.0000 -0.0001 -12.8719 0.0000 9.2039
#
#
#
# Elastic Compliance Matrix: (Units=1/GPa)
#
#
# Indices 1 2 3 4 5 6 
#
# 1 0.023978 -0.007127 0.006089 -0.000001 0.026911 -0.000001
# 2 -0.007127 0.009753 -0.001869 0.000000 -0.001464 0.000000
# 3 0.006089 -0.001869 0.015940 -0.000001 0.030466 -0.000001
# 4 -0.000001 0.000000 -0.000001 -0.059053 -0.000002 -0.082587
# 5 0.026911 -0.001464 0.030466 -0.000002 0.118933 -0.000003
# 6 -0.000001 0.000000 -0.000001 -0.082587 -0.000003 -0.006850
#
#
# Mechanical properties :
#
#
# Convention : Reuss Voigt Hill
#
# Bulk Modulus (GPa) = 22.80066 63.93998 43.37032
# Shear Modulus (GPa) = 40.60600 23.14811 31.87706
#
# Velocity S-wave (km/s) = 4.61017 3.48081 4.08471
# Velocity P-wave (km/s) = 6.34605 7.04426 6.70425
#
# Compressibility (1/GPa) = 0.04385838
#
# Stress axis : x y z
#
# Youngs Moduli (GPa) = 41.70501 102.52732 62.73456
#
# Poissons Ratio (x) = 0.73072 -0.38200
# Poissons Ratio (y) = 0.29724 0.11723
# Poissons Ratio (z) = -0.25395 0.19158
#
# Static dielectric constant tensor:
#      x y z
#    x 1.670950 0.000000 -0.025240 
#    y 0.000000 1.653930 0.000000 
#    z -0.025240 0.000000 1.792200 
# 
# From -- ./inp_files/207827.got.cif
#   From: 2010.05.17/outbox.cif.g08.bks.cpg/sg12_104_cif.got.tgz:207827.got - 2010.06.03 13:09:07.
