data_PCOD9216345
_publ_section_title
;
Structure prediction by ZEFSAII (Michael W. Deem and Ramdas Pophale) SiO2 
 PCOD9216345
Probable space group: C 2/M
;
_chemical_formula_sum "Si O2"
_cell_formula_units_Z 40
_cell_length_a 9.430158
_cell_length_b 18.080961
_cell_length_c 11.110694
_cell_angle_alpha 90.000000
_cell_angle_beta 95.028492
_cell_angle_gamma 90.000000
_cell_volume 1887.152266
_symmetry_space_group_name_H-M "C 2/M"
_symmetry_group_IT_number 12
_symmetry_cell_setting 'monoclinic'
loop_
_space_group_symop_operation_xyz
x,y,z
-x,y,-z
-x,-y,-z
x,-y,z
1/2+x,1/2+y,z
1/2-x,1/2+y,-z
1/2-x,1/2-y,-z
1/2+x,1/2-y,z
loop_
_atom_site_type_symbol
_atom_site_label
_atom_site_fract_x
_atom_site_fract_y
_atom_site_fract_z
Si Si1 0.653456 0.145093 0.490960
Si Si2 0.359405 0.583752 0.921451
Si Si3 0.133169 0.295378 0.921175
Si Si4 0.851265 0.786161 0.334755
Si Si5 0.924763 0.082602 0.644054
O O1 0.500000 0.108063 0.500000
O O2 0.702218 0.172387 0.360751
O O3 0.640931 0.219262 0.570591
O O4 0.781971 0.098156 0.557764
O O5 0.344627 0.500000 0.966441
O O6 0.210257 0.625645 0.917457
O O7 0.393104 0.583821 0.783187
O O8 0.500000 0.616100 0.000000
O O9 0.122759 0.252606 0.792348
O O10 0.250000 0.250000 0.000000
O O11 0.000000 0.299104 0.000000
O O12 0.968121 0.849308 0.365291
O O13 0.981689 0.000000 0.623540
#
# Coordination Sequence:
#
# PCOD9216345 Si02
#       5
#     8   8   8   8   8
#     4  11  24  40  68  94 131 178 223 284 334 398
#     4  10  22  44  69  98 138 180 223 279 346 407
#     4  12  25  39  67 102 136 175 228 282 332 412
#     4  11  23  42  64  97 134 177 223 272 342 398
#     4  11  23  43  69  98 135 178 227 277 338 411
#
# _framework density 21.195958000000001
#
# number of rings (size 3 to 8) (size 9 to 14) (size 15 to 20)
#    0.000    1.000    2.000    6.000    2.800    2.400 
#    0.000    0.000    0.000    0.000    0.000    0.000 
#    0.000    0.000    0.000    0.000    0.000    0.000 
#
# Total GULP energy -111590.214315 kJ/mol
# GULP energy per Si atom -5579.510716 kJ/mol
# Density = 2.114771 g / cm^3
# Si number density = 21.195958 Si / 1000 Ang^3
#
#
#
# Elastic Constant Matrix: (Units=GPa)
#
#
# Indices 1 2 3 4 5 6 
#
# 1 135.6085 39.6757 66.0596 0.0000 -16.0270 0.0000
# 2 39.6757 111.5940 25.5654 0.0000 -0.4213 0.0000
# 3 66.0596 25.5654 140.5878 0.0000 -23.8038 0.0000
# 4 0.0000 0.0000 0.0000 35.1938 0.0000 14.5611
# 5 -16.0270 -0.4213 -23.8038 0.0000 32.9439 0.0000
# 6 0.0000 0.0000 0.0000 14.5611 0.0000 39.3941
#
#
#
# Elastic Compliance Matrix: (Units=1/GPa)
#
#
# Indices 1 2 3 4 5 6 
#
# 1 0.010393 -0.002765 -0.004022 0.000000 0.002114 0.000000
# 2 -0.002765 0.010133 -0.000853 0.000000 -0.001832 0.000000
# 3 -0.004022 -0.000853 0.010055 0.000000 0.005298 0.000000
# 4 0.000000 0.000000 0.000000 0.033544 0.000000 -0.012399
# 5 0.002114 -0.001832 0.005298 0.000000 0.035188 0.000000
# 6 0.000000 0.000000 0.000000 -0.012399 0.000000 0.029967
#
#
# Mechanical properties :
#
#
# Convention : Reuss Voigt Hill
#
# Bulk Modulus (GPa) = 65.36796 72.26573 68.81685
# Shear Modulus (GPa) = 33.40869 38.60568 36.00719
#
# Velocity S-wave (km/s) = 3.97442 4.27238 4.12609
# Velocity P-wave (km/s) = 7.20889 7.64891 7.43216
#
# Compressibility (1/GPa) = 0.01529801
#
# Stress axis : x y z
#
# Youngs Moduli (GPa) = 96.22229 98.68871 99.45058
#
# Poissons Ratio (x) = 0.27292 0.40003
# Poissons Ratio (y) = 0.26610 0.08488
# Poissons Ratio (z) = 0.38705 0.08423
#
# Static dielectric constant tensor:
#      x y z
#    x 1.710380 0.000000 0.011230 
#    y 0.000000 2.050580 0.000000 
#    z 0.011230 0.000000 1.739890 
# 
# From -- ./inp_files/119069.got.cif
#   From: 2010.05.17/outbox.cif.g08.bks.cpg/sg12_60_cif.got.tgz:119069.got - 2010.06.03 13:09:07.
