data_PCOD9216758
_publ_section_title
;
Structure prediction by ZEFSAII (Michael W. Deem and Ramdas Pophale) SiO2 
 PCOD9216758
Probable space group: C 2/M
;
_chemical_formula_sum "Si O2"
_cell_formula_units_Z 42
_cell_length_a 14.592675
_cell_length_b 7.390168
_cell_length_c 18.830754
_cell_angle_alpha 90.000000
_cell_angle_beta 57.126244
_cell_angle_gamma 90.000000
_cell_volume 1705.564951
_symmetry_space_group_name_H-M "C 2/M"
_symmetry_group_IT_number 12
_symmetry_cell_setting 'monoclinic'
loop_
_space_group_symop_operation_xyz
x,y,z
-x,y,-z
-x,-y,-z
x,-y,z
1/2+x,1/2+y,z
1/2-x,1/2+y,-z
1/2-x,1/2-y,-z
1/2+x,1/2-y,z
loop_
_atom_site_type_symbol
_atom_site_label
_atom_site_fract_x
_atom_site_fract_y
_atom_site_fract_z
Si Si1 0.875180 0.785846 0.972106
Si Si2 0.815103 0.715310 0.301956
Si Si3 0.847650 0.213821 0.514553
Si Si4 0.952919 0.707069 0.789982
Si Si5 0.500000 0.000000 0.500000
Si Si6 0.282811 0.283032 0.151493
O O1 0.946475 0.704986 0.878951
O O2 0.899416 0.000000 0.961212
O O3 0.750000 0.750000 0.000000
O O4 0.869791 0.719528 0.055734
O O5 0.817127 0.500000 0.313319
O O6 0.709049 0.780507 0.387738
O O7 0.808683 0.748039 0.221427
O O8 0.931334 0.789582 0.279963
O O9 0.750000 0.250000 0.500000
O O10 0.951889 0.340528 0.465982
O O11 0.872555 0.000000 0.504508
O O12 0.952349 0.500000 0.765167
O O13 0.838850 0.790185 0.813134
O O14 0.278942 0.500000 0.141997
#
# Coordination Sequence:
#
# PCOD9216758 Si02
#       6
#     8   8   8   8   2   8
#     4   9  17  31  51  80 115 162 216 265 313 384
#     4  10  23  40  61  93 131 160 215 278 328 411
#     4  11  25  49  76 112 149 187 243 298 362 449
#     4   9  19  37  56  81 119 169 209 262 333 382
#     4  12  26  48  84 108 144 202 230 290 380 426
#     4   9  19  34  55  82 122 166 216 265 323 392
#
# _framework density 24.625271999999999
#
# number of rings (size 3 to 8) (size 9 to 14) (size 15 to 20)
#    0.000    2.286    0.952    2.000    1.333    6.857 
#    3.429    3.810    0.000    0.000    0.000    0.000 
#    0.000    0.000    0.000    0.000    0.000    0.000 
#
# Total GULP energy -117032.102153 kJ/mol
# GULP energy per Si atom -5572.957245 kJ/mol
# Density = 2.456922 g / cm^3
# Si number density = 24.625272 Si / 1000 Ang^3
#
#
#
# Elastic Constant Matrix: (Units=GPa)
#
#
# Indices 1 2 3 4 5 6 
#
# 1 89.9918 14.9675 27.5340 0.0000 0.4535 0.0001
# 2 14.9675 143.3434 -12.4875 0.0001 -2.2343 0.0003
# 3 27.5340 -12.4875 27.1147 0.0000 -4.5252 0.0000
# 4 0.0000 0.0001 0.0000 0.3834 0.0000 17.5124
# 5 0.4535 -2.2343 -4.5252 0.0000 34.6819 0.0000
# 6 0.0001 0.0003 0.0000 17.5124 0.0000 17.4548
#
#
#
# Elastic Compliance Matrix: (Units=1/GPa)
#
#
# Indices 1 2 3 4 5 6 
#
# 1 0.018037 -0.003724 -0.020558 0.000000 -0.003158 0.000000
# 2 -0.003724 0.008066 0.007760 0.000000 0.001581 0.000000
# 3 -0.020558 0.007760 0.062826 0.000000 0.008966 0.000000
# 4 0.000000 0.000000 0.000000 -0.058184 0.000000 0.058376
# 5 -0.003158 0.001581 0.008966 0.000000 0.030146 0.000000
# 6 0.000000 0.000000 0.000000 0.058376 0.000000 -0.001278
#
#
# Mechanical properties :
#
#
# Convention : Reuss Voigt Hill
#
# Bulk Modulus (GPa) = 17.89389 35.60866 26.75127
# Shear Modulus (GPa) = 44.92923 25.86641 35.39782
#
# Velocity S-wave (km/s) = 4.27607 3.24451 3.79550
# Velocity P-wave (km/s) = 5.62690 5.34110 5.48586
#
# Compressibility (1/GPa) = 0.05588500
#
# Stress axis : x y z
#
# Youngs Moduli (GPa) = 55.44049 123.98205 15.91688
#
# Poissons Ratio (x) = 0.46166 0.32722
# Poissons Ratio (y) = 0.20644 -0.12351
# Poissons Ratio (z) = 1.13976 -0.96205
#
# Static dielectric constant tensor:
#      x y z
#    x 2.021670 0.000000 -0.051890 
#    y 0.000000 1.974360 0.000000 
#    z -0.051890 0.000000 1.999400 
# 
# From -- ./inp_files/267551.got.cif
#   From: 2010.05.17/outbox.cif.g08.bks.cpg/sg12_134_cif.got.tgz:267551.got - 2010.06.03 13:09:07.
