data_PCOD9216369
_publ_section_title
;
Structure prediction by ZEFSAII (Michael W. Deem and Ramdas Pophale) SiO2 
 PCOD9216369
Probable space group: C 2/M
;
_chemical_formula_sum "Si O2"
_cell_formula_units_Z 64
_cell_length_a 8.951408
_cell_length_b 28.822137
_cell_length_c 19.218903
_cell_angle_alpha 90.000000
_cell_angle_beta 141.785352
_cell_angle_gamma 90.000000
_cell_volume 3067.344527
_symmetry_space_group_name_H-M "C 2/M"
_symmetry_group_IT_number 12
_symmetry_cell_setting 'monoclinic'
loop_
_space_group_symop_operation_xyz
x,y,z
-x,y,-z
-x,-y,-z
x,-y,z
1/2+x,1/2+y,z
1/2-x,1/2+y,-z
1/2-x,1/2-y,-z
1/2+x,1/2-y,z
loop_
_atom_site_type_symbol
_atom_site_label
_atom_site_fract_x
_atom_site_fract_y
_atom_site_fract_z
Si Si1 0.740483 0.776103 0.368119
Si Si2 0.225484 0.690650 0.715787
Si Si3 0.935052 0.393236 0.551295
Si Si4 0.637364 0.299318 0.978100
Si Si5 0.098691 0.134606 0.657857
Si Si6 0.739328 0.946416 0.917412
Si Si7 0.473079 0.125567 0.907804
Si Si8 0.840677 0.446432 0.656898
O O1 0.689602 0.728821 0.308647
O O2 0.515053 0.788464 0.334845
O O3 0.783456 0.820046 0.333415
O O4 0.000000 0.769910 0.500000
O O5 0.440850 0.684774 0.849371
O O6 0.139963 0.642586 0.650908
O O7 0.688957 0.363823 0.450333
O O8 0.885249 0.429279 0.594999
O O9 0.000000 0.414175 0.500000
O O10 0.500000 0.295483 0.000000
O O11 0.750000 0.250000 0.000000
O O12 0.857961 0.334766 0.062663
O O13 0.211219 0.129207 0.775947
O O14 0.174014 0.090366 0.637334
O O15 0.588788 0.921668 0.921922
O O16 0.589150 0.943872 0.791294
O O17 0.772315 0.000000 0.948605
O O18 0.000000 0.924278 0.000000
O O19 0.500000 0.129334 0.000000
O O20 0.757279 0.500000 0.629520
#
# Coordination Sequence:
#
# PCOD9216369 Si02
#       8
#     8   8   8   8   8   8   8   8
#     4  12  23  42  64  96 128 173 220 266 325 388
#     4  12  26  41  67  94 134 170 220 273 327 390
#     4  12  27  41  63 100 135 171 216 279 335 389
#     4  12  26  45  65  94 130 177 225 272 326 396
#     4  11  23  45  66  93 133 172 227 268 321 400
#     4   9  20  39  68  99 129 170 221 269 324 394
#     4  11  25  40  66  96 131 175 212 270 333 392
#     4  10  22  44  71  98 130 176 225 272 330 399
#
# _framework density 20.864953
#
# number of rings (size 3 to 8) (size 9 to 14) (size 15 to 20)
#    0.000    0.875    2.500    4.125    7.000    1.500 
#    0.000    0.000    0.000    0.000    0.000    0.000 
#    0.000    0.000    0.000    0.000    0.000    0.000 
#
# Total GULP energy -179042.214541 kJ/mol
# GULP energy per Si atom -5595.069204 kJ/mol
# Density = 2.081746 g / cm^3
# Si number density = 20.864953 Si / 1000 Ang^3
#
#
#
# Elastic Constant Matrix: (Units=GPa)
#
#
# Indices 1 2 3 4 5 6 
#
# 1 61.8118 1.5615 31.8606 0.0000 -18.8381 0.0000
# 2 1.5615 74.5349 29.4570 0.0000 -10.1596 0.0000
# 3 31.8606 29.4570 108.2838 0.0000 -3.2740 0.0000
# 4 0.0000 0.0000 0.0000 30.4665 0.0000 -1.1426
# 5 -18.8381 -10.1596 -3.2740 0.0000 40.1184 0.0000
# 6 0.0000 0.0000 0.0000 -1.1426 0.0000 24.5195
#
#
#
# Elastic Compliance Matrix: (Units=1/GPa)
#
#
# Indices 1 2 3 4 5 6 
#
# 1 0.023535 0.004111 -0.007697 0.000000 0.011464 0.000000
# 2 0.004111 0.016252 -0.005462 0.000000 0.005601 0.000000
# 3 -0.007697 -0.005462 0.012866 0.000000 -0.003947 0.000000
# 4 0.000000 0.000000 0.000000 0.032880 0.000000 0.001532
# 5 0.011464 0.005601 -0.003947 0.000000 0.031406 0.000000
# 6 0.000000 0.000000 0.000000 0.001532 0.000000 0.040855
#
#
# Mechanical properties :
#
#
# Convention : Reuss Voigt Hill
#
# Bulk Modulus (GPa) = 28.93512 41.15429 35.04470
# Shear Modulus (GPa) = 26.67963 31.13763 28.90863
#
# Velocity S-wave (km/s) = 3.57974 3.86727 3.72628
# Velocity P-wave (km/s) = 5.56633 6.30143 5.94525
#
# Compressibility (1/GPa) = 0.03456008
#
# Stress axis : x y z
#
# Youngs Moduli (GPa) = 42.48903 61.52978 77.72410
#
# Poissons Ratio (x) = -0.25298 0.59822
# Poissons Ratio (y) = -0.17469 0.42450
# Poissons Ratio (z) = 0.32703 0.33605
#
# Static dielectric constant tensor:
#      x y z
#    x 1.749200 0.000000 0.002540 
#    y 0.000000 1.839260 0.000000 
#    z 0.002540 0.000000 1.756760 
# 
# From -- ./inp_files/260392.got.cif
#   From: 2010.05.17/outbox.cif.g08.bks.cpg/sg12_131_cif.got.tgz:260392.got - 2010.06.03 13:09:07.
