data_PCOD9216594
_publ_section_title
;
Structure prediction by ZEFSAII (Michael W. Deem and Ramdas Pophale) SiO2 
 PCOD9216594
Probable space group: C 2/M
;
_chemical_formula_sum "Si O2"
_cell_formula_units_Z 64
_cell_length_a 15.372874
_cell_length_b 26.406884
_cell_length_c 8.537389
_cell_angle_alpha 90.000000
_cell_angle_beta 93.696296
_cell_angle_gamma 90.000000
_cell_volume 3458.541012
_symmetry_space_group_name_H-M "C 2/M"
_symmetry_group_IT_number 12
_symmetry_cell_setting 'monoclinic'
loop_
_space_group_symop_operation_xyz
x,y,z
-x,y,-z
-x,-y,-z
x,-y,z
1/2+x,1/2+y,z
1/2-x,1/2+y,-z
1/2-x,1/2-y,-z
1/2+x,1/2-y,z
loop_
_atom_site_type_symbol
_atom_site_label
_atom_site_fract_x
_atom_site_fract_y
_atom_site_fract_z
Si Si1 0.225378 0.440840 0.846363
Si Si2 0.574101 0.843495 0.382996
Si Si3 0.315004 0.783338 0.107893
Si Si4 0.073646 0.941897 0.139292
Si Si5 0.898565 0.619976 0.943597
Si Si6 0.505164 0.747387 0.812697
Si Si7 0.236936 0.350139 0.616656
Si Si8 0.567121 0.650730 0.368040
O O1 0.210950 0.500000 0.811420
O O2 0.326880 0.434298 0.908910
O O3 0.215753 0.405032 0.691924
O O4 0.159835 0.421083 0.972409
O O5 0.500000 0.860042 0.500000
O O6 0.600677 0.880828 0.244573
O O7 0.535749 0.794489 0.287536
O O8 0.661209 0.833807 0.491069
O O9 0.390761 0.750603 0.199397
O O10 0.263515 0.812915 0.235219
O O11 0.250000 0.750000 0.000000
O O12 0.360595 0.826673 0.005849
O O13 0.058708 0.901163 0.271610
O O14 0.068507 0.000000 0.194972
O O15 0.000000 0.935010 0.000000
O O16 0.000000 0.616095 0.000000
O O17 0.457391 0.697331 0.748073
O O18 0.500000 0.750883 0.000000
O O19 0.333619 0.347838 0.560325
O O20 0.500000 0.653108 0.500000
#
# Coordination Sequence:
#
# PCOD9216594 Si02
#       8
#     8   8   8   8   8   8   8   8
#     4   9  20  41  65  91 119 152 208 261 299 362
#     4  12  21  38  60  86 125 160 201 245 298 374
#     4  11  21  38  60  86 114 159 212 244 290 358
#     4   9  19  40  68  90 117 160 203 253 311 364
#     4  11  21  39  61  88 119 163 206 242 307 362
#     4  12  22  40  58  84 120 166 205 254 291 350
#     4  10  23  38  61  87 117 166 199 243 316 359
#     4  11  25  39  55  90 131 155 202 254 301 363
#
# _framework density 18.504912000000001
#
# number of rings (size 3 to 8) (size 9 to 14) (size 15 to 20)
#    0.000    1.375    3.750    2.250    0.000    5.000 
#    0.000    0.625    0.000    1.500    0.000    0.000 
#    0.000    0.000    0.000    0.000    0.000    0.000 
#
# Total GULP energy -178570.772032 kJ/mol
# GULP energy per Si atom -5580.336626 kJ/mol
# Density = 1.846279 g / cm^3
# Si number density = 18.504912 Si / 1000 Ang^3
#
#
#
# Elastic Constant Matrix: (Units=GPa)
#
#
# Indices 1 2 3 4 5 6 
#
# 1 124.6087 40.5369 63.6103 0.0000 6.5742 0.0000
# 2 40.5369 58.6111 36.1272 0.0000 14.4906 0.0000
# 3 63.6103 36.1272 91.6797 0.0000 -2.5612 0.0000
# 4 0.0000 0.0000 0.0000 14.3030 0.0000 0.4509
# 5 6.5742 14.4906 -2.5612 0.0000 40.2903 0.0000
# 6 0.0000 0.0000 0.0000 0.4509 0.0000 20.9312
#
#
#
# Elastic Compliance Matrix: (Units=1/GPa)
#
#
# Indices 1 2 3 4 5 6 
#
# 1 0.013364 -0.004264 -0.007623 0.000000 -0.001132 0.000000
# 2 -0.004264 0.027401 -0.008110 0.000000 -0.009675 0.000000
# 3 -0.007623 -0.008110 0.019544 0.000000 0.005403 0.000000
# 4 0.000000 0.000000 0.000000 0.069963 0.000000 -0.001507
# 5 -0.001132 -0.009675 0.005403 0.000000 0.028828 0.000000
# 6 0.000000 0.000000 0.000000 -0.001507 0.000000 0.047808
#
#
# Mechanical properties :
#
#
# Convention : Reuss Voigt Hill
#
# Bulk Modulus (GPa) = 49.22590 61.71648 55.47119
# Shear Modulus (GPa) = 19.71052 24.07991 21.89521
#
# Velocity S-wave (km/s) = 3.26721 3.61123 3.44352
# Velocity P-wave (km/s) = 6.39469 7.12824 6.77141
#
# Compressibility (1/GPa) = 0.02031451
#
# Stress axis : x y z
#
# Youngs Moduli (GPa) = 74.83059 36.49491 51.16775
#
# Poissons Ratio (x) = 0.15560 0.39008
# Poissons Ratio (y) = 0.31906 0.41495
# Poissons Ratio (z) = 0.57047 0.29596
#
# Static dielectric constant tensor:
#      x y z
#    x 1.671430 0.000000 -0.018510 
#    y 0.000000 1.641920 0.000000 
#    z -0.018510 0.000000 1.627810 
# 
# From -- ./inp_files/66986.got.cif
#   From: 2010.05.17/outbox.cif.g08.bks.cpg/sg12_34_cif.got.tgz:66986.got - 2010.06.03 13:09:07.
