data_PCOD9216627
_publ_section_title
;
Structure prediction by ZEFSAII (Michael W. Deem and Ramdas Pophale) SiO2 
 PCOD9216627
Probable space group: C 2/M
;
_chemical_formula_sum "Si O2"
_cell_formula_units_Z 24
_cell_length_a 15.093462
_cell_length_b 15.537349
_cell_length_c 4.861040
_cell_angle_alpha 90.000000
_cell_angle_beta 75.492414
_cell_angle_gamma 90.000000
_cell_volume 1103.625427
_symmetry_space_group_name_H-M "C 2/M"
_symmetry_group_IT_number 12
_symmetry_cell_setting 'monoclinic'
loop_
_space_group_symop_operation_xyz
x,y,z
-x,y,-z
-x,-y,-z
x,-y,z
1/2+x,1/2+y,z
1/2-x,1/2+y,-z
1/2-x,1/2-y,-z
1/2+x,1/2-y,z
loop_
_atom_site_type_symbol
_atom_site_label
_atom_site_fract_x
_atom_site_fract_y
_atom_site_fract_z
Si Si1 0.000000 0.736276 0.000000
Si Si2 0.137153 0.000000 0.187945
Si Si3 0.910133 0.593472 0.760742
Si Si4 0.758825 0.500000 0.592541
Si Si5 0.000000 0.855820 0.500000
O O1 0.919535 0.673536 0.954042
O O2 0.032056 0.795260 0.723545
O O3 0.167361 0.000000 0.848756
O O4 0.078013 0.917118 0.315333
O O5 0.227929 0.000000 0.304198
O O6 0.914887 0.500000 0.903676
O O7 0.000000 0.599341 0.500000
O O8 0.821138 0.581037 0.638874
#
# Coordination Sequence:
#
# PCOD9216627 Si02
#       5
#     4   4   8   4   4
#     4  12  21  41  66 100 118 166 206 255 309 378
#     4  11  24  48  60  90 117 179 215 251 306 360
#     4   9  21  38  68  97 127 167 190 249 321 387
#     4  10  23  38  72  90 125 161 210 253 305 381
#     4  11  26  42  69  80 128 170 217 256 300 363
#
# _framework density 21.746507999999999
#
# number of rings (size 3 to 8) (size 9 to 14) (size 15 to 20)
#    1.000    0.667    1.667    2.500    4.667    2.667 
#    0.000   10.000    0.000    0.000    0.000    0.000 
#    0.000    0.000    0.000    0.000    0.000    0.000 
#
# Total GULP energy -67008.417053 kJ/mol
# GULP energy per Si atom -5584.034754 kJ/mol
# Density = 2.169701 g / cm^3
# Si number density = 21.746508 Si / 1000 Ang^3
#
#
#
# Elastic Constant Matrix: (Units=GPa)
#
#
# Indices 1 2 3 4 5 6 
#
# 1 57.2450 16.6860 0.8910 0.0000 -4.4251 0.0000
# 2 16.6860 122.7683 32.3635 0.0000 1.3825 0.0000
# 3 0.8910 32.3635 85.3209 0.0000 -11.0877 0.0000
# 4 0.0000 0.0000 0.0000 56.1308 0.0000 31.6211
# 5 -4.4251 1.3825 -11.0877 0.0000 39.8908 0.0000
# 6 0.0000 0.0000 0.0000 31.6211 0.0000 4.9452
#
#
#
# Elastic Compliance Matrix: (Units=1/GPa)
#
#
# Indices 1 2 3 4 5 6 
#
# 1 0.018476 -0.002859 0.001215 0.000000 0.002486 0.000000
# 2 -0.002859 0.009560 -0.003819 0.000000 -0.001710 0.000000
# 3 0.001215 -0.003819 0.013685 0.000000 0.004071 0.000000
# 4 0.000000 0.000000 0.000000 -0.006846 0.000000 0.043777
# 5 0.002486 -0.001710 0.004071 0.000000 0.026535 0.000000
# 6 0.000000 0.000000 0.000000 0.043777 0.000000 -0.077709
#
#
# Mechanical properties :
#
#
# Convention : Reuss Voigt Hill
#
# Bulk Modulus (GPa) = 32.47344 40.57946 36.52645
# Shear Modulus (GPa) = 1022.25667 34.55295 528.40481
#
# Velocity S-wave (km/s) = 21.70482 3.99042 15.60485
# Velocity P-wave (km/s) = 25.35936 6.31918 18.48011
#
# Compressibility (1/GPa) = 0.03079440
#
# Stress axis : x y z
#
# Youngs Moduli (GPa) = 54.12573 104.60328 73.07140
#
# Poissons Ratio (x) = 0.29909 -0.08876
# Poissons Ratio (y) = 0.15476 0.27903
# Poissons Ratio (z) = -0.06575 0.39943
#
# Static dielectric constant tensor:
#      x y z
#    x 1.797780 0.000000 0.018570 
#    y 0.000000 1.799220 0.000000 
#    z 0.018570 0.000000 1.805540 
# 
# From -- ./inp_files/9436.got.cif
#   From: 2010.05.17/outbox.cif.g08.bks.cpg/sg12_5_cif.got.tgz:9436.got - 2010.06.03 13:09:07.
