data_PCOD9216320
_publ_section_title
;
Structure prediction by ZEFSAII (Michael W. Deem and Ramdas Pophale) SiO2 
 PCOD9216320
Probable space group: C 2/M
;
_chemical_formula_sum "Si O2"
_cell_formula_units_Z 50
_cell_length_a 9.444710
_cell_length_b 16.080362
_cell_length_c 29.580255
_cell_angle_alpha 90.000000
_cell_angle_beta 143.849787
_cell_angle_gamma 90.000000
_cell_volume 2650.134277
_symmetry_space_group_name_H-M "C 2/M"
_symmetry_group_IT_number 12
_symmetry_cell_setting 'monoclinic'
loop_
_space_group_symop_operation_xyz
x,y,z
-x,y,-z
-x,-y,-z
x,-y,z
1/2+x,1/2+y,z
1/2-x,1/2+y,-z
1/2-x,1/2-y,-z
1/2+x,1/2-y,z
loop_
_atom_site_type_symbol
_atom_site_label
_atom_site_fract_x
_atom_site_fract_y
_atom_site_fract_z
Si Si1 0.359551 0.654836 0.180380
Si Si2 0.000000 0.000000 0.500000
Si Si3 0.401912 0.683365 0.924623
Si Si4 0.679591 0.258906 0.681070
Si Si5 0.717176 0.593809 0.934639
Si Si6 0.602364 0.905280 0.201168
Si Si7 0.811868 0.825783 0.416284
O O1 0.203294 0.733237 0.123950
O O2 0.600014 0.693703 0.263423
O O3 0.408348 0.606846 0.146284
O O4 0.209068 0.603832 0.178185
O O5 0.152293 0.924399 0.565475
O O6 0.606941 0.652491 0.943841
O O7 0.178231 0.619304 0.869643
O O8 0.500000 0.696005 0.000000
O O9 0.761189 0.334940 0.734397
O O10 0.450729 0.209127 0.640304
O O11 0.629491 0.298197 0.619296
O O12 0.680785 0.500000 0.941060
O O13 0.000000 0.605993 0.000000
O O14 0.636754 0.000000 0.225849
O O15 0.000000 0.785328 0.500000
#
# Coordination Sequence:
#
# PCOD9216320 Si02
#       7
#     8   2   8   8   8   8   8
#     4  11  23  41  60  89 121 167 209 256 312 376
#     4   8  24  40  72 102 126 160 208 254 300 376
#     4  11  23  40  62  86 118 166 217 263 317 378
#     4  11  22  42  66  92 132 168 202 255 310 375
#     4  11  24  40  59  86 123 164 208 267 320 364
#     4  11  24  39  60  91 125 165 211 261 315 367
#     4  10  22  44  67  99 127 166 205 248 311 371
#
# _framework density 18.866968
#
# number of rings (size 3 to 8) (size 9 to 14) (size 15 to 20)
#    0.480    0.800    1.600    4.800    3.360    4.480 
#    2.880    0.000    0.000    1.440    0.000    0.000 
#    0.000    0.000    0.000    0.000    0.000    0.000 
#
# Total GULP energy -139362.838778 kJ/mol
# GULP energy per Si atom -5574.513551 kJ/mol
# Density = 1.882403 g / cm^3
# Si number density = 18.866968 Si / 1000 Ang^3
#
#
#
# Elastic Constant Matrix: (Units=GPa)
#
#
# Indices 1 2 3 4 5 6 
#
# 1 63.8557 3.1877 -0.8954 0.0000 -11.3111 0.0000
# 2 3.1877 64.6217 -5.1494 0.0000 7.4130 0.0000
# 3 -0.8954 -5.1494 54.8411 -0.0003 -9.7815 0.0002
# 4 0.0000 0.0000 -0.0003 24.9201 -0.0001 -20.6352
# 5 -11.3111 7.4130 -9.7815 -0.0001 28.6490 0.0000
# 6 0.0000 0.0000 0.0002 -20.6352 0.0000 40.1013
#
#
#
# Elastic Compliance Matrix: (Units=1/GPa)
#
#
# Indices 1 2 3 4 5 6 
#
# 1 0.017123 -0.001607 0.001500 0.000000 0.007689 0.000000
# 2 -0.001607 0.016133 0.000672 0.000000 -0.004580 0.000000
# 3 0.001500 0.000672 0.019590 0.000000 0.007107 0.000000
# 4 0.000000 0.000000 0.000000 0.069922 0.000000 0.035980
# 5 0.007689 -0.004580 0.007107 0.000000 0.041552 0.000000
# 6 0.000000 0.000000 0.000000 0.035980 0.000000 0.043451
#
#
# Mechanical properties :
#
#
# Convention : Reuss Voigt Hill
#
# Bulk Modulus (GPa) = 18.52702 19.73383 19.13042
# Shear Modulus (GPa) = 22.25846 31.14580 26.70213
#
# Velocity S-wave (km/s) = 3.43849 4.06743 3.76611
# Velocity P-wave (km/s) = 5.06018 5.70445 5.39195
#
# Compressibility (1/GPa) = 0.05397523
#
# Stress axis : x y z
#
# Youngs Moduli (GPa) = 58.39932 61.98546 51.04740
#
# Poissons Ratio (x) = 0.09962 -0.07657
# Poissons Ratio (y) = 0.09386 -0.03429
# Poissons Ratio (z) = -0.08760 -0.04164
#
# Static dielectric constant tensor:
#      x y z
#    x 1.643150 0.000000 -0.001020 
#    y 0.000000 1.648220 0.000000 
#    z -0.001020 0.000000 1.658410 
# 
# From -- ./inp_files/356596.got.cif
#   From: 2010.05.17/outbox.cif.g08.bks.cpg/sg12_179_cif.got.tgz:356596.got - 2010.06.03 13:09:07.
