data_PCOD9216617
_publ_section_title
;
Structure prediction by ZEFSAII (Michael W. Deem and Ramdas Pophale) SiO2 
 PCOD9216617
Probable space group: C 2/M
;
_chemical_formula_sum "Si O2"
_cell_formula_units_Z 52
_cell_length_a 19.548442
_cell_length_b 16.638970
_cell_length_c 8.789750
_cell_angle_alpha 90.000000
_cell_angle_beta 55.561885
_cell_angle_gamma 90.000000
_cell_volume 2357.929652
_symmetry_space_group_name_H-M "C 2/M"
_symmetry_group_IT_number 12
_symmetry_cell_setting 'monoclinic'
loop_
_space_group_symop_operation_xyz
x,y,z
-x,y,-z
-x,-y,-z
x,-y,z
1/2+x,1/2+y,z
1/2-x,1/2+y,-z
1/2-x,1/2-y,-z
1/2+x,1/2-y,z
loop_
_atom_site_type_symbol
_atom_site_label
_atom_site_fract_x
_atom_site_fract_y
_atom_site_fract_z
Si Si1 0.589352 0.169630 0.333473
Si Si2 0.244428 0.847906 0.733245
Si Si3 0.000000 0.784830 0.000000
Si Si4 0.411192 0.410657 0.921971
Si Si5 0.595041 0.643047 0.392520
Si Si6 0.852328 0.691115 0.082426
Si Si7 0.739306 0.591962 0.418510
O O1 0.500000 0.137443 0.500000
O O2 0.670087 0.125475 0.297808
O O3 0.594146 0.260486 0.395143
O O4 0.602725 0.177311 0.135134
O O5 0.216899 0.761693 0.837481
O O6 0.254744 0.848879 0.539850
O O7 0.164510 0.903052 0.865566
O O8 0.920411 0.728137 0.111934
O O9 0.021429 0.844183 0.112931
O O10 0.445784 0.500000 0.876923
O O11 0.370654 0.387063 0.812437
O O12 0.500000 0.614846 0.500000
O O13 0.649482 0.608091 0.458463
O O14 0.806659 0.614148 0.205567
O O15 0.747130 0.500000 0.456890
#
# Coordination Sequence:
#
# PCOD9216617 Si02
#       7
#     8   8   4   8   8   8   8
#     4  11  23  41  72 102 128 170 234 285 326 392
#     4  11  23  42  68  96 131 178 225 274 325 403
#     4  10  23  38  67 102 126 170 222 274 325 394
#     4  11  23  40  64  96 141 179 215 268 337 406
#     4  11  24  40  64  97 138 177 219 271 336 402
#     4  11  23  43  70  98 131 177 226 276 335 398
#     4  12  27  43  66  98 136 180 224 277 341 399
#
# _framework density 22.053243999999999
#
# number of rings (size 3 to 8) (size 9 to 14) (size 15 to 20)
#    0.000    0.923    4.615    3.000    6.462    1.231 
#    0.000    1.154    0.000    2.308    0.000    0.000 
#    0.000    0.000    0.000    0.000    0.000    0.000 
#
# Total GULP energy -145322.180553 kJ/mol
# GULP energy per Si atom -5589.314637 kJ/mol
# Density = 2.200305 g / cm^3
# Si number density = 22.053244 Si / 1000 Ang^3
#
#
#
# Elastic Constant Matrix: (Units=GPa)
#
#
# Indices 1 2 3 4 5 6 
#
# 1 129.8001 8.9592 34.6606 0.0000 -13.3336 0.0000
# 2 8.9592 42.5343 5.2501 0.0000 1.0237 0.0000
# 3 34.6606 5.2501 99.3194 0.0000 -3.8338 0.0000
# 4 0.0000 0.0000 0.0000 17.8073 0.0000 -4.3133
# 5 -13.3336 1.0237 -3.8338 0.0000 37.9957 0.0000
# 6 0.0000 0.0000 0.0000 -4.3133 0.0000 2.8454
#
#
#
# Elastic Compliance Matrix: (Units=1/GPa)
#
#
# Indices 1 2 3 4 5 6 
#
# 1 0.008884 -0.001582 -0.002906 0.000000 0.002867 0.000000
# 2 -0.001582 0.023969 -0.000764 0.000000 -0.001278 0.000000
# 3 -0.002906 -0.000764 0.011128 0.000000 0.000124 0.000000
# 4 0.000000 0.000000 0.000000 0.088742 0.000000 0.134526
# 5 0.002867 -0.001278 0.000124 0.000000 0.027372 0.000000
# 6 0.000000 0.000000 0.000000 0.134526 0.000000 0.555381
#
#
# Mechanical properties :
#
#
# Convention : Reuss Voigt Hill
#
# Bulk Modulus (GPa) = 29.87176 41.04373 35.45775
# Shear Modulus (GPa) = 6.78300 26.58195 16.68247
#
# Velocity S-wave (km/s) = 1.75568 3.47559 2.75337
# Velocity P-wave (km/s) = 4.20530 5.89558 5.12067
#
# Compressibility (1/GPa) = 0.03347643
#
# Stress axis : x y z
#
# Youngs Moduli (GPa) = 112.56432 41.72110 89.86463
#
# Poissons Ratio (x) = 0.06598 0.26115
# Poissons Ratio (y) = 0.17802 0.06869
# Poissons Ratio (z) = 0.32711 0.03189
#
# Static dielectric constant tensor:
#      x y z
#    x 1.815450 0.000000 -0.005790 
#    y 0.000000 1.791300 0.000000 
#    z -0.005790 0.000000 1.887020 
# 
# From -- ./inp_files/75764.got.cif
#   From: 2010.05.17/outbox.cif.g08.bks.cpg/sg12_38_cif.got.tgz:75764.got - 2010.06.03 13:09:07.
