data_PCOD9216858
_publ_section_title
;
Structure prediction by ZEFSAII (Michael W. Deem and Ramdas Pophale) SiO2 
 PCOD9216858
Probable space group: C 2/M
;
_chemical_formula_sum "Si O2"
_cell_formula_units_Z 48
_cell_length_a 14.015367
_cell_length_b 16.785968
_cell_length_c 15.109259
_cell_angle_alpha 90.000000
_cell_angle_beta 37.688377
_cell_angle_gamma 90.000000
_cell_volume 2173.179919
_symmetry_space_group_name_H-M "C 2/M"
_symmetry_group_IT_number 12
_symmetry_cell_setting 'monoclinic'
loop_
_space_group_symop_operation_xyz
x,y,z
-x,y,-z
-x,-y,-z
x,-y,z
1/2+x,1/2+y,z
1/2-x,1/2+y,-z
1/2-x,1/2-y,-z
1/2+x,1/2-y,z
loop_
_atom_site_type_symbol
_atom_site_label
_atom_site_fract_x
_atom_site_fract_y
_atom_site_fract_z
Si Si1 0.905938 0.823001 0.829076
Si Si2 0.326923 0.769869 0.154529
Si Si3 0.255526 0.409221 0.245337
Si Si4 0.875522 0.671246 0.298430
Si Si5 0.166860 0.412514 0.119663
Si Si6 0.715724 0.590255 0.575106
O O1 0.796388 0.796754 0.828504
O O2 0.015060 0.748270 0.770390
O O3 0.031087 0.892771 0.720561
O O4 0.793515 0.850026 0.991355
O O5 0.340532 0.674601 0.163262
O O6 0.278975 0.811415 0.281750
O O7 0.500000 0.796920 0.000000
O O8 0.328096 0.500000 0.187716
O O9 0.140149 0.408384 0.245445
O O10 0.208359 0.401434 0.382592
O O11 0.779857 0.651373 0.456023
O O12 0.002686 0.601808 0.193749
O O13 0.229168 0.500000 0.054294
O O14 0.743456 0.500000 0.524886
#
# Coordination Sequence:
#
# PCOD9216858 Si02
#       6
#     8   8   8   8   8   8
#     4  12  24  44  70 101 137 181 226 279 335 404
#     4  12  24  43  71 103 134 172 237 281 332 405
#     4  10  23  40  67 102 138 175 219 279 345 404
#     4  12  24  44  70 100 138 183 224 277 337 406
#     4  11  23  43  70 102 136 178 225 280 342 398
#     4  11  26  47  67 101 142 179 224 280 343 404
#
# _framework density 22.087448999999999
#
# number of rings (size 3 to 8) (size 9 to 14) (size 15 to 20)
#    0.000    0.667    5.000    3.000    0.000    1.667 
#    0.000    7.500    0.000    0.000    0.000    0.000 
#    0.000    0.000    0.000    0.000    0.000    0.000 
#
# Total GULP energy -133961.809168 kJ/mol
# GULP energy per Si atom -5581.742049 kJ/mol
# Density = 2.203718 g / cm^3
# Si number density = 22.087449 Si / 1000 Ang^3
#
#
#
# Elastic Constant Matrix: (Units=GPa)
#
#
# Indices 1 2 3 4 5 6 
#
# 1 123.9357 43.5256 28.8422 -0.0002 33.3855 0.0002
# 2 43.5256 96.2323 33.9845 0.0005 24.9274 -0.0004
# 3 28.8422 33.9845 80.6863 0.0005 21.2029 -0.0005
# 4 -0.0002 0.0005 0.0005 34.8815 0.0000 4.0450
# 5 33.3855 24.9274 21.2029 0.0000 32.4341 0.0000
# 6 0.0002 -0.0004 -0.0005 4.0450 0.0000 29.8175
#
#
#
# Elastic Compliance Matrix: (Units=1/GPa)
#
#
# Indices 1 2 3 4 5 6 
#
# 1 0.011724 -0.002593 -0.000545 0.000000 -0.009719 0.000000
# 2 -0.002593 0.014387 -0.003536 0.000000 -0.006077 0.000000
# 3 -0.000545 -0.003536 0.015958 0.000000 -0.007153 0.000000
# 4 0.000000 0.000000 0.000000 0.029127 0.000000 -0.003951
# 5 -0.009719 -0.006077 -0.007153 0.000000 0.050183 0.000000
# 6 0.000000 0.000000 0.000000 -0.003951 0.000000 0.034073
#
#
# Mechanical properties :
#
#
# Convention : Reuss Voigt Hill
#
# Bulk Modulus (GPa) = 34.81708 57.06211 45.93959
# Shear Modulus (GPa) = 28.03114 32.39341 30.21228
#
# Velocity S-wave (km/s) = 3.56631 3.83377 3.70246
# Velocity P-wave (km/s) = 5.72325 6.74446 6.25473
#
# Compressibility (1/GPa) = 0.02872154
#
# Stress axis : x y z
#
# Youngs Moduli (GPa) = 85.29354 69.50671 62.66626
#
# Poissons Ratio (x) = 0.18022 0.03414
# Poissons Ratio (y) = 0.22115 0.22159
# Poissons Ratio (z) = 0.04647 0.24578
#
# Static dielectric constant tensor:
#      x y z
#    x 1.810880 0.000000 0.006180 
#    y 0.000000 1.863760 0.000000 
#    z 0.006180 0.000000 1.810760 
# 
# From -- ./inp_files/216229.got.cif
#   From: 2010.05.17/outbox.cif.g08.bks.cpg/sg12_109_cif.got.tgz:216229.got - 2010.06.03 13:09:07.
