data_PCOD9216181
_publ_section_title
;
Structure prediction by ZEFSAII (Michael W. Deem and Ramdas Pophale) SiO2 
 PCOD9216181
Probable space group: C 2/M
;
_chemical_formula_sum "Si O2"
_cell_formula_units_Z 32
_cell_length_a 11.492208
_cell_length_b 18.310679
_cell_length_c 13.330280
_cell_angle_alpha 90.000000
_cell_angle_beta 30.821750
_cell_angle_gamma 90.000000
_cell_volume 1437.242189
_symmetry_space_group_name_H-M "C 2/M"
_symmetry_group_IT_number 12
_symmetry_cell_setting 'monoclinic'
loop_
_space_group_symop_operation_xyz
x,y,z
-x,y,-z
-x,-y,-z
x,-y,z
1/2+x,1/2+y,z
1/2-x,1/2+y,-z
1/2-x,1/2-y,-z
1/2+x,1/2-y,z
loop_
_atom_site_type_symbol
_atom_site_label
_atom_site_fract_x
_atom_site_fract_y
_atom_site_fract_z
Si Si1 0.394953 0.582046 0.283948
Si Si2 0.266739 0.581118 0.614246
Si Si3 0.410122 0.212220 0.468799
Si Si4 0.334137 0.169839 0.905471
O O1 0.353840 0.500000 0.275916
O O2 0.344124 0.581473 0.440780
O O3 0.230524 0.647460 0.375006
O O4 0.644649 0.610465 0.072425
O O5 0.500000 0.588749 0.500000
O O6 0.171284 0.500000 0.706921
O O7 0.070552 0.640517 0.777605
O O8 0.500000 0.255853 0.500000
O O9 0.250000 0.250000 0.500000
O O10 0.610500 0.179162 0.252767
O O11 0.250000 0.250000 0.000000
#
# Coordination Sequence:
#
# PCOD9216181 Si02
#       4
#     8   8   8   8
#     4  10  22  43  67  99 138 180 230 288 351 418
#     4   9  20  39  64  96 138 185 231 287 354 420
#     4  11  25  47  70 100 141 186 235 290 354 419
#     4  11  22  42  63 100 135 183 230 287 348 418
#
# _framework density 22.264862000000001
#
# number of rings (size 3 to 8) (size 9 to 14) (size 15 to 20)
#    0.000    1.750    2.500    0.750    0.000    7.500 
#    4.500    5.000    0.000    0.000    0.000    0.000 
#    0.000    0.000    0.000    0.000    0.000    0.000 
#
# Total GULP energy -89200.997998 kJ/mol
# GULP energy per Si atom -5575.062375 kJ/mol
# Density = 2.221419 g / cm^3
# Si number density = 22.264862 Si / 1000 Ang^3
#
#
#
# Elastic Constant Matrix: (Units=GPa)
#
#
# Indices 1 2 3 4 5 6 
#
# 1 107.6380 35.3989 22.3576 -0.0234 -15.8841 -0.0089
# 2 35.3989 167.1604 52.1242 0.0122 -14.0010 0.0272
# 3 22.3576 52.1242 131.9600 -0.0166 -17.6190 0.0364
# 4 -0.0234 0.0122 -0.0166 51.2514 0.0114 -6.2245
# 5 -15.8841 -14.0010 -17.6190 0.0114 6.4377 -0.0098
# 6 -0.0089 0.0272 0.0364 -6.2245 -0.0098 15.7644
#
#
#
# Elastic Compliance Matrix: (Units=1/GPa)
#
#
# Indices 1 2 3 4 5 6 
#
# 1 0.015877 -0.000512 0.004088 0.000002 0.049248 0.000032
# 2 -0.000512 0.007455 -0.001358 -0.000006 0.011233 -0.000005
# 3 0.004088 -0.001358 0.013196 -0.000003 0.043248 0.000000
# 4 0.000002 -0.000006 -0.000003 0.020494 -0.000041 0.008092
# 5 0.049248 0.011233 0.043248 -0.000041 0.419638 0.000153
# 6 0.000032 -0.000005 0.000000 0.008092 0.000153 0.066629
#
#
# Mechanical properties :
#
#
# Convention : Reuss Voigt Hill
#
# Bulk Modulus (GPa) = 24.41185 69.61330 47.01258
# Shear Modulus (GPa) = 9.04961 34.48256 21.76609
#
# Velocity S-wave (km/s) = 2.01825 3.93968 3.13005
# Velocity P-wave (km/s) = 4.05207 7.21309 5.85012
#
# Compressibility (1/GPa) = 0.04096371
#
# Stress axis : x y z
#
# Youngs Moduli (GPa) = 62.98312 134.13693 75.77877
#
# Poissons Ratio (x) = 0.06867 -0.30976
# Poissons Ratio (y) = 0.03225 0.10292
# Poissons Ratio (z) = -0.25746 0.18218
#
# Static dielectric constant tensor:
#      x y z
#    x 1.933520 0.000040 -0.044010 
#    y 0.000040 1.920920 0.000090 
#    z -0.044010 0.000090 1.827140 
# 
# From -- ./inp_files/6057.got.cif
#   From: 2010.05.17/outbox.cif.g08.bks.cpg/sg12_4_cif.got.tgz:6057.got - 2010.06.03 13:09:07.
