data_PCOD9216687
_publ_section_title
;
Structure prediction by ZEFSAII (Michael W. Deem and Ramdas Pophale) SiO2 
 PCOD9216687
Probable space group: C 2/M
;
_chemical_formula_sum "Si O2"
_cell_formula_units_Z 32
_cell_length_a 11.092141
_cell_length_b 8.208316
_cell_length_c 21.285804
_cell_angle_alpha 90.000000
_cell_angle_beta 49.696294
_cell_angle_gamma 90.000000
_cell_volume 1477.989660
_symmetry_space_group_name_H-M "C 2/M"
_symmetry_group_IT_number 12
_symmetry_cell_setting 'monoclinic'
loop_
_space_group_symop_operation_xyz
x,y,z
-x,y,-z
-x,-y,-z
x,-y,z
1/2+x,1/2+y,z
1/2-x,1/2+y,-z
1/2-x,1/2-y,-z
1/2+x,1/2-y,z
loop_
_atom_site_type_symbol
_atom_site_label
_atom_site_fract_x
_atom_site_fract_y
_atom_site_fract_z
Si Si1 0.750651 0.500000 0.131986
Si Si2 0.591666 0.000000 0.059459
Si Si3 0.211401 0.195300 0.319720
Si Si4 0.646222 0.304000 0.594390
Si Si5 0.477082 0.683883 0.848543
O O1 0.632495 0.650967 0.175778
O O2 0.901845 0.500000 0.121694
O O3 0.829398 0.500000 0.035313
O O4 0.615312 0.827059 0.084829
O O5 0.269025 0.238429 0.371048
O O6 0.347942 0.271153 0.230156
O O7 0.035114 0.250371 0.359208
O O8 0.214373 0.000000 0.312961
O O9 0.643787 0.500000 0.599995
O O10 0.750000 0.250000 0.500000
O O11 0.480908 0.500000 0.877123
#
# Coordination Sequence:
#
# PCOD9216687 Si02
#       5
#     4   4   8   8   8
#     4   9  24  40  65  95 124 170 222 258 329 399
#     4  11  20  46  63  87 138 166 204 288 319 371
#     4  11  24  42  65  93 133 173 211 273 330 379
#     4  11  25  43  66  95 129 168 219 268 325 393
#     4  10  23  39  63  95 125 168 218 261 322 392
#
# _framework density 21.651029999999999
#
# number of rings (size 3 to 8) (size 9 to 14) (size 15 to 20)
#    0.750    0.750    1.250    3.000    3.500    7.000 
#    2.250    1.250    0.000    0.000    0.000    0.000 
#    0.000    0.000    0.000    0.000    0.000    0.000 
#
# Total GULP energy -89122.550332 kJ/mol
# GULP energy per Si atom -5570.159396 kJ/mol
# Density = 2.160175 g / cm^3
# Si number density = 21.651030 Si / 1000 Ang^3
#
#
#
# Elastic Constant Matrix: (Units=GPa)
#
#
# Indices 1 2 3 4 5 6 
#
# 1 128.9924 17.7565 29.3945 0.0000 -27.5150 0.0000
# 2 17.7565 102.7176 24.5491 0.0000 -0.0510 0.0000
# 3 29.3945 24.5491 91.9803 0.0000 -11.9496 0.0000
# 4 0.0000 0.0000 0.0000 76.4048 0.0000 -4.8736
# 5 -27.5150 -0.0510 -11.9496 0.0000 43.5863 0.0000
# 6 0.0000 0.0000 0.0000 -4.8736 0.0000 34.7175
#
#
#
# Elastic Compliance Matrix: (Units=1/GPa)
#
#
# Indices 1 2 3 4 5 6 
#
# 1 0.009540 -0.001162 -0.002029 0.000000 0.005465 0.000000
# 2 -0.001162 0.010566 -0.002636 0.000000 -0.001444 0.000000
# 3 -0.002029 -0.002636 0.012502 0.000000 0.002144 0.000000
# 4 0.000000 0.000000 0.000000 0.013206 0.000000 0.001854
# 5 0.005465 -0.001444 0.002144 0.000000 0.026979 0.000000
# 6 0.000000 0.000000 0.000000 0.001854 0.000000 0.029064
#
#
# Mechanical properties :
#
#
# Convention : Reuss Voigt Hill
#
# Bulk Modulus (GPa) = 47.72147 51.89892 49.81020
# Shear Modulus (GPa) = 41.49510 47.74108 44.61809
#
# Velocity S-wave (km/s) = 4.38258 4.70086 4.54451
# Velocity P-wave (km/s) = 6.90640 7.31347 7.11285
#
# Compressibility (1/GPa) = 0.02095493
#
# Stress axis : x y z
#
# Youngs Moduli (GPa) = 104.81800 94.64708 79.98484
#
# Poissons Ratio (x) = 0.10994 0.16228
# Poissons Ratio (y) = 0.12176 0.21086
# Poissons Ratio (z) = 0.21266 0.24951
#
# Static dielectric constant tensor:
#      x y z
#    x 1.864660 0.000000 0.017470 
#    y 0.000000 1.668520 0.000000 
#    z 0.017470 0.000000 1.792060 
# 
# From -- ./inp_files/303375.got.cif
#   From: 2010.05.17/outbox.cif.g08.bks.cpg/sg12_152_cif.got.tgz:303375.got - 2010.06.03 13:09:07.
