data_PCOD9216997
_publ_section_title
;
Structure prediction by ZEFSAII (Michael W. Deem and Ramdas Pophale) SiO2 
 PCOD9216997
Probable space group: C 2/M
;
_chemical_formula_sum "Si O2"
_cell_formula_units_Z 64
_cell_length_a 31.738914
_cell_length_b 16.417586
_cell_length_c 9.036918
_cell_angle_alpha 90.000000
_cell_angle_beta 41.157816
_cell_angle_gamma 90.000000
_cell_volume 3099.109350
_symmetry_space_group_name_H-M "C 2/M"
_symmetry_group_IT_number 12
_symmetry_cell_setting 'monoclinic'
loop_
_space_group_symop_operation_xyz
x,y,z
-x,y,-z
-x,-y,-z
x,-y,z
1/2+x,1/2+y,z
1/2-x,1/2+y,-z
1/2-x,1/2-y,-z
1/2+x,1/2-y,z
loop_
_atom_site_type_symbol
_atom_site_label
_atom_site_fract_x
_atom_site_fract_y
_atom_site_fract_z
Si Si1 0.757784 0.907034 0.275966
Si Si2 0.219345 0.596009 0.719594
Si Si3 0.358286 0.158811 0.591909
Si Si4 0.011302 0.411136 0.645532
Si Si5 0.903108 0.713208 0.952539
Si Si6 0.342755 0.404303 0.584268
Si Si7 0.423565 0.710148 0.198142
Si Si8 0.844441 0.208941 0.856460
O O1 0.745965 0.896185 0.481923
O O2 0.690931 0.896925 0.365802
O O3 0.782371 0.000000 0.187258
O O4 0.799178 0.833475 0.097550
O O5 0.203420 0.500000 0.784951
O O6 0.275086 0.619842 0.687342
O O7 0.157586 0.652860 0.897661
O O8 0.415516 0.108279 0.513046
O O9 0.391170 0.221694 0.389801
O O10 0.324497 0.213040 0.809300
O O11 0.993949 0.500000 0.753048
O O12 0.000000 0.412907 0.500000
O O13 0.964812 0.341062 0.825205
O O14 0.905053 0.759605 0.790870
O O15 0.897511 0.774520 0.103046
O O16 0.341471 0.500000 0.606723
O O17 0.398000 0.374788 0.328152
O O18 0.354614 0.360016 0.707549
O O19 0.500000 0.715158 0.000000
#
# Coordination Sequence:
#
# PCOD9216997 Si02
#       8
#     8   8   8   8   8   8   8   8
#     4  11  23  40  61  92 127 163 206 255 311 372
#     4  10  23  41  63  92 129 165 201 253 316 373
#     4  11  22  41  60  93 126 166 210 253 304 367
#     4  11  23  40  62  92 132 174 207 250 308 369
#     4  12  23  40  63  96 129 163 209 256 302 375
#     4  10  24  45  65  91 124 160 208 264 318 372
#     4  11  23  40  67  94 125 164 209 255 311 369
#     4  11  25  38  64  90 122 163 212 258 312 361
#
# _framework density 20.651095000000002
#
# number of rings (size 3 to 8) (size 9 to 14) (size 15 to 20)
#    0.000    1.125    3.750    2.250    5.250    1.250 
#    0.000    1.250    0.000    0.750    0.000    0.000 
#    0.000    0.000    0.000    0.000    0.000    0.000 
#
# Total GULP energy -178824.882144 kJ/mol
# GULP energy per Si atom -5588.277567 kJ/mol
# Density = 2.060409 g / cm^3
# Si number density = 20.651095 Si / 1000 Ang^3
#
#
#
# Elastic Constant Matrix: (Units=GPa)
#
#
# Indices 1 2 3 4 5 6 
#
# 1 109.9865 44.6655 24.1817 0.0000 8.0338 0.0000
# 2 44.6655 69.8785 25.5804 0.0000 1.2289 0.0000
# 3 24.1817 25.5804 51.7195 0.0000 -0.4180 0.0000
# 4 0.0000 0.0000 0.0000 71.9056 0.0000 -13.0914
# 5 8.0338 1.2289 -0.4180 0.0000 33.3586 0.0000
# 6 0.0000 0.0000 0.0000 -13.0914 0.0000 32.1965
#
#
#
# Elastic Compliance Matrix: (Units=1/GPa)
#
#
# Indices 1 2 3 4 5 6 
#
# 1 0.012765 -0.007224 -0.002418 0.000000 -0.002838 0.000000
# 2 -0.007224 0.021581 -0.007290 0.000000 0.000853 0.000000
# 3 -0.002418 -0.007290 0.024081 0.000000 0.001153 0.000000
# 4 0.000000 0.000000 0.000000 0.015019 0.000000 0.006107
# 5 -0.002838 0.000853 0.001153 0.000000 0.030644 0.000000
# 6 0.000000 0.000000 0.000000 0.006107 0.000000 0.033542
#
#
# Mechanical properties :
#
#
# Convention : Reuss Voigt Hill
#
# Bulk Modulus (GPa) = 40.71154 46.71555 43.71354
# Shear Modulus (GPa) = 27.82679 36.63595 32.23137
#
# Velocity S-wave (km/s) = 3.67478 4.21651 3.95493
# Velocity P-wave (km/s) = 6.14509 6.80997 6.48605
#
# Compressibility (1/GPa) = 0.02456306
#
# Stress axis : x y z
#
# Youngs Moduli (GPa) = 78.34159 46.33603 41.52737
#
# Poissons Ratio (x) = 0.33472 0.10042
# Poissons Ratio (y) = 0.56593 0.30272
# Poissons Ratio (z) = 0.18945 0.33778
#
# Static dielectric constant tensor:
#      x y z
#    x 1.718690 0.000000 0.006280 
#    y 0.000000 1.736700 0.000000 
#    z 0.006280 0.000000 1.750930 
# 
# From -- ./inp_files/112836.got.cif
#   From: 2010.05.17/outbox.cif.g08.bks.cpg/sg12_57_cif.got.tgz:112836.got - 2010.06.03 13:09:07.
