data_PCOD9216422
_publ_section_title
;
Structure prediction by ZEFSAII (Michael W. Deem and Ramdas Pophale) SiO2 
 PCOD9216422
Probable space group: C 2/M
;
_chemical_formula_sum "Si O2"
_cell_formula_units_Z 40
_cell_length_a 34.424417
_cell_length_b 7.626741
_cell_length_c 16.456087
_cell_angle_alpha 90.000000
_cell_angle_beta 150.602118
_cell_angle_gamma 90.000000
_cell_volume 2120.801525
_symmetry_space_group_name_H-M "C 2/M"
_symmetry_group_IT_number 12
_symmetry_cell_setting 'monoclinic'
loop_
_space_group_symop_operation_xyz
x,y,z
-x,y,-z
-x,-y,-z
x,-y,z
1/2+x,1/2+y,z
1/2-x,1/2+y,-z
1/2-x,1/2-y,-z
1/2+x,1/2-y,z
loop_
_atom_site_type_symbol
_atom_site_label
_atom_site_fract_x
_atom_site_fract_y
_atom_site_fract_z
Si Si1 0.906279 0.000000 0.348201
Si Si2 0.182795 0.000000 0.984762
Si Si3 0.576970 0.500000 0.085071
Si Si4 0.473670 0.500000 0.192429
Si Si5 0.100004 0.704930 0.406358
Si Si6 0.203379 0.197931 0.743109
Si Si7 0.841966 0.294380 0.670163
O O1 0.875700 0.165430 0.346221
O O2 0.000000 0.000000 0.500000
O O3 0.850100 0.000000 0.166709
O O4 0.236676 0.167828 0.106063
O O5 0.102969 0.000000 0.891788
O O6 0.622822 0.673542 0.195759
O O7 0.500000 0.500000 0.000000
O O8 0.556011 0.500000 0.953700
O O9 0.529597 0.331318 0.305930
O O10 0.079261 0.500000 0.372168
O O11 0.173845 0.738268 0.601238
O O12 0.121730 0.748901 0.352479
O O13 0.237328 0.000000 0.798278
O O14 0.854827 0.500000 0.708251
O O15 0.750000 0.250000 0.500000
#
# Coordination Sequence:
#
# PCOD9216422 Si02
#       7
#     4   4   4   4   8   8   8
#     4  10  22  45  70  95 133 172 201 257 326 376
#     4  12  24  44  66  99 132 164 216 264 307 385
#     4  12  24  43  62  94 129 166 215 277 316 367
#     4  12  26  42  65  92 135 169 211 267 324 377
#     4  11  22  42  64  91 127 172 214 259 320 383
#     4  10  23  39  70  96 128 164 211 260 313 368
#     4  11  24  39  65  90 124 170 218 264 323 381
#
# _framework density 18.860793000000001
#
# number of rings (size 3 to 8) (size 9 to 14) (size 15 to 20)
#    0.600    0.400    5.000    1.800    2.800    2.000 
#    0.000    0.500    0.000    0.000    0.000    0.000 
#    0.000    0.000    0.000    0.000    0.000    0.000 
#
# Total GULP energy -111644.376938 kJ/mol
# GULP energy per Si atom -5582.218847 kJ/mol
# Density = 1.881787 g / cm^3
# Si number density = 18.860793 Si / 1000 Ang^3
#
#
#
# Elastic Constant Matrix: (Units=GPa)
#
#
# Indices 1 2 3 4 5 6 
#
# 1 57.3124 23.3985 14.2943 0.0000 -3.3409 0.0000
# 2 23.3985 119.1645 45.2346 0.0000 0.9642 0.0000
# 3 14.2943 45.2346 99.5187 0.0000 -14.6639 0.0000
# 4 0.0000 0.0000 0.0000 40.0758 0.0000 0.3252
# 5 -3.3409 0.9642 -14.6639 0.0000 51.1400 0.0000
# 6 0.0000 0.0000 0.0000 0.3252 0.0000 16.2164
#
#
#
# Elastic Compliance Matrix: (Units=1/GPa)
#
#
# Indices 1 2 3 4 5 6 
#
# 1 0.019147 -0.003360 -0.001075 0.000000 0.001006 0.000000
# 2 -0.003360 0.010855 -0.004713 0.000000 -0.001776 0.000000
# 3 -0.001075 -0.004713 0.012892 0.000000 0.003715 0.000000
# 4 0.000000 0.000000 0.000000 0.024957 0.000000 -0.000500
# 5 0.001006 -0.001776 0.003715 0.000000 0.020719 0.000000
# 6 0.000000 0.000000 0.000000 -0.000500 0.000000 0.061676
#
#
# Mechanical properties :
#
#
# Convention : Reuss Voigt Hill
#
# Bulk Modulus (GPa) = 40.65209 49.09450 44.87329
# Shear Modulus (GPa) = 28.29017 34.35765 31.32391
#
# Velocity S-wave (km/s) = 3.87711 4.27270 4.07971
# Velocity P-wave (km/s) = 6.45316 7.10125 6.78495
#
# Compressibility (1/GPa) = 0.02459898
#
# Stress axis : x y z
#
# Youngs Moduli (GPa) = 52.22865 92.12482 77.56508
#
# Poissons Ratio (x) = 0.30951 0.08337
# Poissons Ratio (y) = 0.17547 0.36556
# Poissons Ratio (z) = 0.05614 0.43418
#
# Static dielectric constant tensor:
#      x y z
#    x 1.688010 0.000000 0.037430 
#    y 0.000000 1.636540 0.000000 
#    z 0.037430 0.000000 1.461780 
# 
# From -- ./inp_files/250276.got.cif
#   From: 2010.05.17/outbox.cif.g08.bks.cpg/sg12_126_cif.got.tgz:250276.got - 2010.06.03 13:09:07.
