data_PCOD9216837
_publ_section_title
;
Structure prediction by ZEFSAII (Michael W. Deem and Ramdas Pophale) SiO2 
 PCOD9216837
Probable space group: C 2/M
;
_chemical_formula_sum "Si O2"
_cell_formula_units_Z 64
_cell_length_a 24.268293
_cell_length_b 21.667769
_cell_length_c 18.514749
_cell_angle_alpha 90.000000
_cell_angle_beta 161.502232
_cell_angle_gamma 90.000000
_cell_volume 3088.852244
_symmetry_space_group_name_H-M "C 2/M"
_symmetry_group_IT_number 12
_symmetry_cell_setting 'monoclinic'
loop_
_space_group_symop_operation_xyz
x,y,z
-x,y,-z
-x,-y,-z
x,-y,z
1/2+x,1/2+y,z
1/2-x,1/2+y,-z
1/2-x,1/2-y,-z
1/2+x,1/2-y,z
loop_
_atom_site_type_symbol
_atom_site_label
_atom_site_fract_x
_atom_site_fract_y
_atom_site_fract_z
Si Si1 0.810129 0.176277 0.777679
Si Si2 0.446861 0.064906 0.517578
Si Si3 0.696112 0.804474 0.487310
Si Si4 0.189888 0.347091 0.031663
Si Si5 0.660942 0.571253 0.401667
Si Si6 0.708140 0.389101 0.993402
Si Si7 0.312797 0.780154 0.232252
Si Si8 0.508279 0.072201 0.927234
O O1 0.676596 0.120633 0.617858
O O2 0.743930 0.215746 0.627736
O O3 0.815859 0.211878 0.860213
O O4 0.000000 0.151484 0.000000
O O5 0.500000 0.067300 0.500000
O O6 0.357278 0.000000 0.420946
O O7 0.625970 0.069050 0.782900
O O8 0.750000 0.750000 0.500000
O O9 0.492548 0.819460 0.225645
O O10 0.793853 0.870072 0.593467
O O11 0.133129 0.389405 0.028774
O O12 0.286766 0.379660 0.085827
O O13 0.305871 0.289443 0.198310
O O14 0.665518 0.500000 0.378415
O O15 0.471903 0.584226 0.200587
O O16 0.815367 0.574991 0.652790
O O17 0.755059 0.326489 0.096906
O O18 0.500000 0.794469 0.500000
O O19 0.561424 0.000000 0.993924
O O20 0.500000 0.094236 0.000000
#
# Coordination Sequence:
#
# PCOD9216837 Si02
#       8
#     8   8   8   8   8   8   8   8
#     4  12  23  41  63  90 128 168 215 268 316 384
#     4  11  23  41  64  90 130 178 212 258 324 386
#     4  11  23  42  62  93 129 169 219 272 327 382
#     4  11  24  38  66  95 118 168 213 266 326 386
#     4  10  23  40  65  96 129 173 216 265 327 393
#     4  12  21  43  62  94 132 166 214 265 322 385
#     4  12  24  43  64  91 132 169 213 265 330 387
#     4   9  21  44  66  89 128 165 207 267 326 382
#
# _framework density 20.719671000000002
#
# number of rings (size 3 to 8) (size 9 to 14) (size 15 to 20)
#    0.000    1.000    3.750    3.000    0.000    6.250 
#    0.000    0.000    0.000    2.625    0.000    0.000 
#    0.000    0.000    0.000    0.000    0.000    0.000 
#
# Total GULP energy -178759.306872 kJ/mol
# GULP energy per Si atom -5586.228340 kJ/mol
# Density = 2.067251 g / cm^3
# Si number density = 20.719671 Si / 1000 Ang^3
#
#
#
# Elastic Constant Matrix: (Units=GPa)
#
#
# Indices 1 2 3 4 5 6 
#
# 1 97.9633 24.9481 1.9262 0.0001 -22.2801 0.0000
# 2 24.9481 79.0537 3.5426 0.0000 -13.8660 0.0000
# 3 1.9262 3.5426 31.0339 0.0001 4.3647 0.0001
# 4 0.0001 0.0000 0.0001 29.2681 0.0001 -5.4877
# 5 -22.2801 -13.8660 4.3647 0.0001 32.2876 0.0001
# 6 0.0000 0.0000 0.0001 -5.4877 0.0001 16.7032
#
#
#
# Elastic Compliance Matrix: (Units=1/GPa)
#
#
# Indices 1 2 3 4 5 6 
#
# 1 0.012679 -0.002549 -0.001603 0.000000 0.007871 0.000000
# 2 -0.002549 0.014375 -0.002144 0.000000 0.004705 0.000000
# 3 -0.001603 -0.002144 0.033489 0.000000 -0.006554 0.000000
# 4 0.000000 0.000000 0.000000 0.036410 0.000000 0.011962
# 5 0.007871 0.004705 -0.006554 0.000000 0.039310 0.000000
# 6 0.000000 0.000000 0.000000 0.011962 0.000000 0.063799
#
#
# Mechanical properties :
#
#
# Convention : Reuss Voigt Hill
#
# Bulk Modulus (GPa) = 20.85489 29.87610 25.36549
# Shear Modulus (GPa) = 21.86872 27.49404 24.68138
#
# Velocity S-wave (km/s) = 3.25230 3.64669 3.45513
# Velocity P-wave (km/s) = 4.91838 5.67288 5.30905
#
# Compressibility (1/GPa) = 0.04795039
#
# Stress axis : x y z
#
# Youngs Moduli (GPa) = 78.87271 69.56391 29.86059
#
# Poissons Ratio (x) = 0.17730 0.04787
# Poissons Ratio (y) = 0.20103 0.06404
# Poissons Ratio (z) = 0.12643 0.14918
#
# Static dielectric constant tensor:
#      x y z
#    x 1.809770 0.000000 -0.017910 
#    y 0.000000 1.760920 0.000000 
#    z -0.017910 0.000000 1.738200 
# 
# From -- ./inp_files/290964.got.cif
#   From: 2010.05.17/outbox.cif.g08.bks.cpg/sg12_146_cif.got.tgz:290964.got - 2010.06.03 13:09:07.
