data_PCOD9216045
_publ_section_title
;
Structure prediction by ZEFSAII (Michael W. Deem and Ramdas Pophale) SiO2 
 PCOD9216045
Probable space group: C 2/M
;
_chemical_formula_sum "Si O2"
_cell_formula_units_Z 44
_cell_length_a 9.650001
_cell_length_b 14.388517
_cell_length_c 15.613810
_cell_angle_alpha 90.000000
_cell_angle_beta 97.809627
_cell_angle_gamma 90.000000
_cell_volume 2147.857255
_symmetry_space_group_name_H-M "C 2/M"
_symmetry_group_IT_number 12
_symmetry_cell_setting 'monoclinic'
loop_
_space_group_symop_operation_xyz
x,y,z
-x,y,-z
-x,-y,-z
x,-y,z
1/2+x,1/2+y,z
1/2-x,1/2+y,-z
1/2-x,1/2-y,-z
1/2+x,1/2-y,z
loop_
_atom_site_type_symbol
_atom_site_label
_atom_site_fract_x
_atom_site_fract_y
_atom_site_fract_z
Si Si1 0.149525 0.799609 0.557953
Si Si2 0.614619 0.500000 0.274190
Si Si3 0.735695 0.807733 0.727442
Si Si4 0.002319 0.500000 0.898223
Si Si5 0.500000 0.665729 0.000000
Si Si6 0.669656 0.500000 0.084320
Si Si7 0.394652 0.500000 0.409748
Si Si8 0.014485 0.699323 0.163613
O O1 0.250000 0.750000 0.500000
O O2 0.152704 0.740252 0.644042
O O3 0.189728 0.904731 0.587220
O O4 0.000000 0.802630 0.500000
O O5 0.704936 0.407352 0.296202
O O6 0.587169 0.500000 0.168751
O O7 0.484372 0.500000 0.328928
O O8 0.868719 0.747409 0.767921
O O9 0.629339 0.812978 0.797191
O O10 0.937388 0.596421 0.860428
O O11 0.165897 0.500000 0.885662
O O12 0.000000 0.500000 0.000000
O O13 0.625809 0.592951 0.029466
O O14 0.487349 0.732919 0.080637
O O15 0.500000 0.500000 0.500000
#
# Coordination Sequence:
#
# PCOD9216045 Si02
#       8
#     8   4   8   4   4   4   4   8
#     4  11  24  46  72 103 135 173 221 271 337 404
#     4  12  21  44  66  96 139 176 222 276 330 405
#     4  12  25  42  69  98 133 173 224 276 334 396
#     4  12  25  40  61  94 140 174 222 288 346 380
#     4  11  24  41  68  88 130 181 240 265 326 402
#     4  11  24  44  64  96 130 184 231 277 334 404
#     4  10  22  42  71  98 131 177 217 263 329 407
#     4  12  24  42  63  95 133 180 223 277 333 396
#
# _framework density 20.485533
#
# number of rings (size 3 to 8) (size 9 to 14) (size 15 to 20)
#    0.000    0.545    4.545    4.364    2.545    2.182 
#    0.000    4.545    0.000    0.000    0.000    0.000 
#    0.000    0.000    0.000    0.000    0.000    0.000 
#
# Total GULP energy -122989.097980 kJ/mol
# GULP energy per Si atom -5590.413545 kJ/mol
# Density = 2.043891 g / cm^3
# Si number density = 20.485533 Si / 1000 Ang^3
#
#
#
# Elastic Constant Matrix: (Units=GPa)
#
#
# Indices 1 2 3 4 5 6 
#
# 1 64.3507 36.9970 17.9369 0.0000 -15.1962 0.0000
# 2 36.9970 212.7122 55.4764 0.0000 -2.4793 0.0000
# 3 17.9369 55.4764 95.3042 0.0000 -6.1995 0.0000
# 4 0.0000 0.0000 0.0000 -5.2936 0.0000 -7.1430
# 5 -15.1962 -2.4793 -6.1995 0.0000 39.5608 0.0000
# 6 0.0000 0.0000 0.0000 -7.1430 0.0000 26.1591
#
#
#
# Elastic Compliance Matrix: (Units=1/GPa)
#
#
# Indices 1 2 3 4 5 6 
#
# 1 0.019261 -0.002879 -0.001495 0.000000 0.006984 0.000000
# 2 -0.002879 0.005974 -0.003014 0.000000 -0.001204 0.000000
# 3 -0.001495 -0.003014 0.012607 0.000000 0.001213 0.000000
# 4 0.000000 0.000000 0.000000 -0.138045 0.000000 -0.037694
# 5 0.006984 -0.001204 0.001213 0.000000 0.028075 0.000000
# 6 0.000000 0.000000 0.000000 -0.037694 0.000000 0.027935
#
#
# Mechanical properties :
#
#
# Convention : Reuss Voigt Hill
#
# Bulk Modulus (GPa) = 43.35240 65.90974 54.63107
# Shear Modulus (GPa) = -230.11149 29.54904 -100.28123
#
# Velocity S-wave (km/s) = -10.61003 3.80206 -7.00418
# Velocity P-wave (km/s) = 11.35291 7.17759 6.21975
#
# Compressibility (1/GPa) = 0.02306677
#
# Stress axis : x y z
#
# Youngs Moduli (GPa) = 51.91885 167.39496 79.31880
#
# Poissons Ratio (x) = 0.48188 0.11858
# Poissons Ratio (y) = 0.14946 0.23906
# Poissons Ratio (z) = 0.07762 0.50451
#
# Static dielectric constant tensor:
#      x y z
#    x 1.717170 0.000000 -0.021220 
#    y 0.000000 1.769840 0.000000 
#    z -0.021220 0.000000 1.739520 
# 
# From -- ./inp_files/255492.got.cif
#   From: 2010.05.17/outbox.cif.g08.bks.cpg/sg12_128_cif.got.tgz:255492.got - 2010.06.03 13:09:07.
