data_PCOD9216671
_publ_section_title
;
Structure prediction by ZEFSAII (Michael W. Deem and Ramdas Pophale) SiO2 
 PCOD9216671
Probable space group: C 2/M
;
_chemical_formula_sum "Si O2"
_cell_formula_units_Z 56
_cell_length_a 24.278141
_cell_length_b 19.779287
_cell_length_c 12.012393
_cell_angle_alpha 90.000000
_cell_angle_beta 28.317430
_cell_angle_gamma 90.000000
_cell_volume 2736.276790
_symmetry_space_group_name_H-M "C 2/M"
_symmetry_group_IT_number 12
_symmetry_cell_setting 'monoclinic'
loop_
_space_group_symop_operation_xyz
x,y,z
-x,y,-z
-x,-y,-z
x,-y,z
1/2+x,1/2+y,z
1/2-x,1/2+y,-z
1/2-x,1/2-y,-z
1/2+x,1/2-y,z
loop_
_atom_site_type_symbol
_atom_site_label
_atom_site_fract_x
_atom_site_fract_y
_atom_site_fract_z
Si Si1 0.918915 0.727318 0.243912
Si Si2 0.196439 0.161855 0.883201
Si Si3 0.492527 0.420364 0.645436
Si Si4 0.768156 0.075755 0.649751
Si Si5 0.313041 0.641704 0.351357
Si Si6 0.364495 0.797437 0.760654
Si Si7 0.114531 0.314219 0.034060
O O1 0.801256 0.687562 0.446165
O O2 0.903242 0.806903 0.250388
O O3 0.983170 0.706091 0.240873
O O4 0.000000 0.703217 0.000000
O O5 0.174814 0.127037 0.801293
O O6 0.316719 0.161384 0.739283
O O7 0.100640 0.129622 0.134795
O O8 0.176952 0.242219 0.898155
O O9 0.500000 0.409151 0.500000
O O10 0.462056 0.500000 0.717588
O O11 0.616711 0.408959 0.482954
O O12 0.797890 0.082253 0.466112
O O13 0.730232 0.000000 0.743314
O O14 0.671786 0.129964 0.854642
O O15 0.500000 0.771000 0.500000
O O16 0.374998 0.837367 0.857698
O O17 0.250000 0.750000 0.000000
#
# Coordination Sequence:
#
# PCOD9216671 Si02
#       7
#     8   8   8   8   8   8   8
#     4  11  19  36  59  86 120 163 204 256 324 384
#     4  11  22  37  64  94 126 168 211 270 327 375
#     4  10  23  43  65  92 130 174 218 263 324 397
#     4  11  24  40  61  91 128 171 213 266 327 393
#     4  11  22  36  58  90 126 157 212 262 324 390
#     4  10  23  39  61  97 135 170 213 274 332 386
#     4  11  21  38  62  89 127 164 217 267 319 386
#
# _framework density 20.465765000000001
#
# number of rings (size 3 to 8) (size 9 to 14) (size 15 to 20)
#    0.000    1.286    2.857    3.429    0.000    8.571 
#    0.000    2.857    0.000    3.429    0.000    0.000 
#    0.000    0.000    0.000    0.000    0.000    0.000 
#
# Total GULP energy -155985.885789 kJ/mol
# GULP energy per Si atom -5570.924492 kJ/mol
# Density = 2.041918 g / cm^3
# Si number density = 20.465765 Si / 1000 Ang^3
#
#
#
# Elastic Constant Matrix: (Units=GPa)
#
#
# Indices 1 2 3 4 5 6 
#
# 1 145.5338 28.2023 22.2560 0.0000 9.2960 0.0000
# 2 28.2023 60.6730 31.0100 0.0000 -2.6394 0.0000
# 3 22.2560 31.0100 82.6472 0.0000 6.0113 0.0000
# 4 0.0000 0.0000 0.0000 58.6899 0.0000 31.2114
# 5 9.2960 -2.6394 6.0113 0.0000 39.9256 0.0000
# 6 0.0000 0.0000 0.0000 31.2114 0.0000 44.8927
#
#
#
# Elastic Compliance Matrix: (Units=1/GPa)
#
#
# Indices 1 2 3 4 5 6 
#
# 1 0.007745 -0.003327 -0.000698 0.000000 -0.001918 0.000000
# 2 -0.003327 0.022077 -0.007634 0.000000 0.003383 0.000000
# 3 -0.000698 -0.007634 0.015345 0.000000 -0.002652 0.000000
# 4 0.000000 0.000000 0.000000 0.027034 0.000000 -0.018795
# 5 -0.001918 0.003383 -0.002652 0.000000 0.026116 0.000000
# 6 0.000000 0.000000 0.000000 -0.018795 0.000000 0.035343
#
#
# Mechanical properties :
#
#
# Convention : Reuss Voigt Hill
#
# Bulk Modulus (GPa) = 45.76673 50.19896 47.98284
# Shear Modulus (GPa) = 30.43951 42.52734 36.48343
#
# Velocity S-wave (km/s) = 3.86079 4.56343 4.22673
# Velocity P-wave (km/s) = 6.50272 7.23519 6.87871
#
# Compressibility (1/GPa) = 0.02184994
#
# Stress axis : x y z
#
# Youngs Moduli (GPa) = 129.11193 45.29603 65.16904
#
# Poissons Ratio (x) = 0.15070 0.04548
# Poissons Ratio (y) = 0.42955 0.49748
# Poissons Ratio (z) = 0.09011 0.34578
#
# Static dielectric constant tensor:
#      x y z
#    x 1.841150 0.000000 -0.018090 
#    y 0.000000 1.681690 0.000000 
#    z -0.018090 0.000000 1.793170 
# 
# From -- ./inp_files/177879.got.cif
#   From: 2010.05.17/outbox.cif.g08.bks.cpg/sg12_89_cif.got.tgz:177879.got - 2010.06.03 13:09:07.
