data_PCOD9216644
_publ_section_title
;
Structure prediction by ZEFSAII (Michael W. Deem and Ramdas Pophale) SiO2 
 PCOD9216644
Probable space group: C 2/M
;
_chemical_formula_sum "Si O2"
_cell_formula_units_Z 48
_cell_length_a 15.944350
_cell_length_b 23.174810
_cell_length_c 12.299315
_cell_angle_alpha 90.000000
_cell_angle_beta 34.938015
_cell_angle_gamma 90.000000
_cell_volume 2602.696065
_symmetry_space_group_name_H-M "C 2/M"
_symmetry_group_IT_number 12
_symmetry_cell_setting 'monoclinic'
loop_
_space_group_symop_operation_xyz
x,y,z
-x,y,-z
-x,-y,-z
x,-y,z
1/2+x,1/2+y,z
1/2-x,1/2+y,-z
1/2-x,1/2-y,-z
1/2+x,1/2-y,z
loop_
_atom_site_type_symbol
_atom_site_label
_atom_site_fract_x
_atom_site_fract_y
_atom_site_fract_z
Si Si1 0.420072 0.500000 0.252317
Si Si2 0.141183 0.376013 0.278501
Si Si3 0.574291 0.626653 0.660362
Si Si4 0.343969 0.302767 0.213966
Si Si5 0.246541 0.817751 0.037274
Si Si6 0.760570 0.000000 0.198093
Si Si7 0.333196 0.307143 0.638853
O O1 0.414944 0.559108 0.325285
O O2 0.295943 0.500000 0.289753
O O3 0.578960 0.500000 0.026153
O O4 0.274966 0.344039 0.195991
O O5 0.174948 0.443471 0.250834
O O6 0.000000 0.362318 0.500000
O O7 0.136202 0.350827 0.162220
O O8 0.638112 0.661461 0.695047
O O9 0.408236 0.650693 0.824067
O O10 0.654904 0.643172 0.463094
O O11 0.237914 0.248707 0.339956
O O12 0.500000 0.283729 0.000000
O O13 0.257894 0.820717 0.155328
O O14 0.250000 0.750000 0.000000
O O15 0.500000 0.293957 0.500000
#
# Coordination Sequence:
#
# PCOD9216644 Si02
#       7
#     4   8   8   8   8   4   8
#     4  11  20  38  66  88 123 155 202 263 297 355
#     4  12  24  38  63  91 121 161 197 250 312 357
#     4  11  22  38  63  90 119 160 207 248 304 360
#     4  12  20  38  60  92 122 157 199 251 311 357
#     4  11  21  39  59  86 125 159 198 248 304 364
#     4  11  21  40  61  91 122 155 205 253 304 356
#     4  10  23  39  58  87 126 162 198 244 301 371
#
# _framework density 18.442415
#
# number of rings (size 3 to 8) (size 9 to 14) (size 15 to 20)
#    0.000    0.833    6.667    1.250    2.333    0.000 
#    3.000    4.583    0.000    0.000    0.000    1.750 
#    0.000    0.000    0.000    0.000    0.000    0.000 
#
# Total GULP energy -134050.906498 kJ/mol
# GULP energy per Si atom -5585.454437 kJ/mol
# Density = 1.840044 g / cm^3
# Si number density = 18.442415 Si / 1000 Ang^3
#
#
#
# Elastic Constant Matrix: (Units=GPa)
#
#
# Indices 1 2 3 4 5 6 
#
# 1 57.9179 48.0829 30.0218 0.0051 18.6463 -0.0008
# 2 48.0829 162.7270 47.9411 0.0070 20.9381 -0.0003
# 3 30.0218 47.9411 103.9826 0.0100 33.7698 0.0006
# 4 0.0051 0.0070 0.0100 -68.5390 -0.0099 2.0116
# 5 18.6463 20.9381 33.7698 -0.0099 33.3105 -0.0004
# 6 -0.0008 -0.0003 0.0006 2.0116 -0.0004 25.6165
#
#
#
# Elastic Compliance Matrix: (Units=1/GPa)
#
#
# Indices 1 2 3 4 5 6 
#
# 1 0.026102 -0.006014 -0.001857 0.000002 -0.008948 0.000000
# 2 -0.006014 0.008563 -0.002321 0.000000 0.000337 0.000000
# 3 -0.001857 -0.002321 0.015523 0.000004 -0.013238 -0.000001
# 4 0.000002 0.000000 0.000004 -0.014557 -0.000009 0.001143
# 5 -0.008948 0.000337 -0.013238 -0.000009 0.048238 0.000002
# 6 0.000000 0.000000 -0.000001 0.001143 0.000002 0.038948
#
#
# Mechanical properties :
#
#
# Convention : Reuss Voigt Hill
#
# Bulk Modulus (GPa) = 33.55435 64.07991 48.81713
# Shear Modulus (GPa) = 32.65079 11.31638 21.98358
#
# Velocity S-wave (km/s) = 4.21220 2.47979 3.45630
# Velocity P-wave (km/s) = 6.47228 6.55900 6.51579
#
# Compressibility (1/GPa) = 0.02980240
#
# Stress axis : x y z
#
# Youngs Moduli (GPa) = 38.31083 116.78512 64.42243
#
# Poissons Ratio (x) = 0.70237 0.11966
# Poissons Ratio (y) = 0.23041 0.14952
# Poissons Ratio (z) = 0.07116 0.27105
#
# Static dielectric constant tensor:
#      x y z
#    x 1.646380 0.000000 0.002750 
#    y 0.000000 1.625030 0.000000 
#    z 0.002750 0.000000 1.672410 
# 
# From -- ./inp_files/78916.got.cif
#   From: 2010.05.17/outbox.cif.g08.bks.cpg/sg12_40_cif.got.tgz:78916.got - 2010.06.03 13:09:07.
