data_PCOD9216101
_publ_section_title
;
Structure prediction by ZEFSAII (Michael W. Deem and Ramdas Pophale) SiO2 
 PCOD9216101
Probable space group: C 2/M
;
_chemical_formula_sum "Si O2"
_cell_formula_units_Z 52
_cell_length_a 19.660537
_cell_length_b 9.646058
_cell_length_c 17.469267
_cell_angle_alpha 90.000000
_cell_angle_beta 50.168512
_cell_angle_gamma 90.000000
_cell_volume 2544.148630
_symmetry_space_group_name_H-M "C 2/M"
_symmetry_group_IT_number 12
_symmetry_cell_setting 'monoclinic'
loop_
_space_group_symop_operation_xyz
x,y,z
-x,y,-z
-x,-y,-z
x,-y,z
1/2+x,1/2+y,z
1/2-x,1/2+y,-z
1/2-x,1/2-y,-z
1/2+x,1/2-y,z
loop_
_atom_site_type_symbol
_atom_site_label
_atom_site_fract_x
_atom_site_fract_y
_atom_site_fract_z
Si Si1 0.870007 0.234048 0.410785
Si Si2 0.239675 0.832682 0.761252
Si Si3 0.250032 0.500000 0.467980
Si Si4 0.396439 0.339308 0.566303
Si Si5 0.035849 0.835526 0.888265
Si Si6 0.026030 0.342285 0.204321
Si Si7 0.769877 0.344355 0.913504
O O1 0.817971 0.377518 0.454864
O O2 0.820749 0.122708 0.393928
O O3 0.874111 0.167285 0.492223
O O4 0.965499 0.267042 0.309795
O O5 0.321850 0.754054 0.661749
O O6 0.140242 0.798321 0.805767
O O7 0.238737 0.798582 0.852412
O O8 0.253132 0.000000 0.742629
O O9 0.500000 0.293909 0.500000
O O10 0.390792 0.500000 0.596251
O O11 0.980844 0.744928 0.868287
O O12 0.026666 0.000000 0.879965
O O13 0.000000 0.811578 0.000000
O O14 0.995059 0.500000 0.212942
O O15 0.124295 0.349554 0.165536
O O16 0.734446 0.500000 0.951862
O O17 0.750000 0.250000 0.000000
#
# Coordination Sequence:
#
# PCOD9216101 Si02
#       7
#     8   8   4   8   8   8   8
#     4  11  23  41  61  92 124 162 203 251 297 365
#     4  10  23  40  65  90 120 161 204 248 305 361
#     4  10  24  38  64  86 128 160 206 244 304 354
#     4  11  25  42  60  87 125 161 204 252 302 360
#     4  10  23  41  63  92 123 156 201 253 304 361
#     4  11  24  39  63  91 125 159 200 249 305 362
#     4  10  22  43  65  90 119 158 205 253 302 362
#
# _framework density 20.439056999999998
#
# number of rings (size 3 to 8) (size 9 to 14) (size 15 to 20)
#    0.000    1.538    1.538    1.846    6.462    3.692 
#    0.000    0.000    0.000    0.000    0.000    0.000 
#    0.000    0.000    0.000    0.000    0.000    0.000 
#
# Total GULP energy -144735.697595 kJ/mol
# GULP energy per Si atom -5566.757600 kJ/mol
# Density = 2.039254 g / cm^3
# Si number density = 20.439057 Si / 1000 Ang^3
#
#
#
# Elastic Constant Matrix: (Units=GPa)
#
#
# Indices 1 2 3 4 5 6 
#
# 1 38.5971 -5.2834 -15.2153 0.0000 0.7728 0.0000
# 2 -5.2834 61.6990 5.3408 0.0000 -4.6429 0.0000
# 3 -15.2153 5.3408 68.7248 0.0000 -2.7134 0.0000
# 4 0.0000 0.0000 0.0000 38.6964 0.0000 -12.4812
# 5 0.7728 -4.6429 -2.7134 0.0000 37.8947 0.0000
# 6 0.0000 0.0000 0.0000 -12.4812 0.0000 23.2429
#
#
#
# Elastic Compliance Matrix: (Units=1/GPa)
#
#
# Indices 1 2 3 4 5 6 
#
# 1 0.028609 0.001921 0.006188 0.000000 0.000095 0.000000
# 2 0.001921 0.016586 -0.000787 0.000000 0.001937 0.000000
# 3 0.006188 -0.000787 0.016019 0.000000 0.000924 0.000000
# 4 0.000000 0.000000 0.000000 0.031256 0.000000 0.016784
# 5 0.000095 0.001937 0.000924 0.000000 0.026690 0.000000
# 6 0.000000 0.000000 0.000000 0.016784 0.000000 0.052037
#
#
# Mechanical properties :
#
#
# Convention : Reuss Voigt Hill
#
# Bulk Modulus (GPa) = 13.18233 15.41168 14.29700
# Shear Modulus (GPa) = 27.49698 32.24537 29.87118
#
# Velocity S-wave (km/s) = 3.67183 3.97625 3.82707
# Velocity P-wave (km/s) = 4.94369 5.35140 5.15158
#
# Compressibility (1/GPa) = 0.07585914
#
# Stress axis : x y z
#
# Youngs Moduli (GPa) = 34.95364 60.29137 62.42777
#
# Poissons Ratio (x) = -0.11584 -0.38633
# Poissons Ratio (y) = -0.06716 0.04914
# Poissons Ratio (z) = -0.21631 0.04746
#
# Static dielectric constant tensor:
#      x y z
#    x 1.729950 0.000000 0.059540 
#    y 0.000000 1.698680 0.000000 
#    z 0.059540 0.000000 1.632520 
# 
# From -- ./inp_files/282078.got.cif
#   From: 2010.05.17/outbox.cif.g08.bks.cpg/sg12_142_cif.got.tgz:282078.got - 2010.06.03 13:09:07.
