data_PCOD9216736
_publ_section_title
;
Structure prediction by ZEFSAII (Michael W. Deem and Ramdas Pophale) SiO2 
 PCOD9216736
Probable space group: C 2/M
;
_chemical_formula_sum "Si O2"
_cell_formula_units_Z 64
_cell_length_a 32.514420
_cell_length_b 8.711592
_cell_length_c 18.449012
_cell_angle_alpha 90.000000
_cell_angle_beta 40.965593
_cell_angle_gamma 90.000000
_cell_volume 3426.015869
_symmetry_space_group_name_H-M "C 2/M"
_symmetry_group_IT_number 12
_symmetry_cell_setting 'monoclinic'
loop_
_space_group_symop_operation_xyz
x,y,z
-x,y,-z
-x,-y,-z
x,-y,z
1/2+x,1/2+y,z
1/2-x,1/2+y,-z
1/2-x,1/2-y,-z
1/2+x,1/2-y,z
loop_
_atom_site_type_symbol
_atom_site_label
_atom_site_fract_x
_atom_site_fract_y
_atom_site_fract_z
Si Si1 0.552692 0.317669 0.165726
Si Si2 0.207756 0.815690 0.491549
Si Si3 0.573654 0.680174 0.882317
Si Si4 0.854977 0.315805 0.075249
Si Si5 0.421119 0.816643 0.284316
Si Si6 0.906203 0.315584 0.578414
Si Si7 0.460172 0.185313 0.662526
Si Si8 0.276719 0.684680 0.692516
O O1 0.546845 0.500000 0.167328
O O2 0.487545 0.241849 0.225995
O O3 0.563136 0.266149 0.234300
O O4 0.608021 0.259277 0.040225
O O5 0.250000 0.750000 0.500000
O O6 0.137117 0.754585 0.594828
O O7 0.232243 0.768119 0.379514
O O8 0.208174 0.000000 0.495277
O O9 0.590558 0.500000 0.855557
O O10 0.611120 0.762942 0.896161
O O11 0.584751 0.760235 0.790696
O O12 0.500000 0.689404 0.000000
O O13 0.858464 0.500000 0.064423
O O14 0.782584 0.267499 0.180264
O O15 0.418649 0.000000 0.291358
O O16 0.902371 0.500000 0.580239
O O17 0.921743 0.274666 0.641082
O O18 0.842386 0.245759 0.634362
O O19 0.967350 0.271190 0.450058
O O20 0.457977 0.000000 0.674119
O O21 0.278527 0.500000 0.690526
#
# Coordination Sequence:
#
# PCOD9216736 Si02
#       8
#     8   8   8   8   8   8   8   8
#     4  12  24  38  57  87 118 150 194 244 294 345
#     4  11  23  40  60  87 121 156 196 246 295 349
#     4  11  22  37  58  85 115 148 195 250 295 343
#     4  11  23  40  60  83 115 158 200 241 291 353
#     4  12  24  38  59  85 116 157 198 241 295 352
#     4   9  19  37  64  92 118 150 190 233 287 351
#     4   9  19  38  62  91 121 149 186 236 290 351
#     4  10  23  40  59  85 118 154 196 239 288 348
#
# _framework density 18.680589999999999
#
# number of rings (size 3 to 8) (size 9 to 14) (size 15 to 20)
#    0.000    1.375    1.250    5.625    0.000    6.500 
#    0.000    1.875    0.000    0.000    0.000    0.000 
#    0.000    0.000    0.000    0.000    0.000    0.000 
#
# Total GULP energy -178934.493245 kJ/mol
# GULP energy per Si atom -5591.702914 kJ/mol
# Density = 1.863807 g / cm^3
# Si number density = 18.680590 Si / 1000 Ang^3
#
#
#
# Elastic Constant Matrix: (Units=GPa)
#
#
# Indices 1 2 3 4 5 6 
#
# 1 81.7014 13.8644 51.0682 0.0002 2.2486 0.0032
# 2 13.8644 60.9678 35.9052 0.0196 8.3611 -0.0055
# 3 51.0682 35.9052 125.4731 0.0081 7.6231 -0.0076
# 4 0.0002 0.0196 0.0081 23.0214 -0.0095 -12.6388
# 5 2.2486 8.3611 7.6231 -0.0095 29.8744 -0.0032
# 6 0.0032 -0.0055 -0.0076 -12.6388 -0.0032 14.0073
#
#
#
# Elastic Compliance Matrix: (Units=1/GPa)
#
#
# Indices 1 2 3 4 5 6 
#
# 1 0.016424 0.000189 -0.006766 -0.000003 0.000437 -0.000010
# 2 0.000189 0.020247 -0.005613 -0.000029 -0.004249 -0.000023
# 3 -0.006766 -0.005613 0.012395 0.000006 -0.001083 0.000012
# 4 -0.000003 -0.000029 0.000006 0.086078 0.000043 0.077668
# 5 0.000437 -0.004249 -0.001083 0.000043 0.034906 0.000044
# 6 -0.000010 -0.000023 0.000012 0.077668 0.000044 0.141471
#
#
# Mechanical properties :
#
#
# Convention : Reuss Voigt Hill
#
# Bulk Modulus (GPa) = 40.50384 52.20198 46.35291
# Shear Modulus (GPa) = 14.52939 24.53428 19.53183
#
# Velocity S-wave (km/s) = 2.79190 3.62796 3.23703
# Velocity P-wave (km/s) = 5.66765 6.74942 6.23205
#
# Compressibility (1/GPa) = 0.02468902
#
# Stress axis : x y z
#
# Youngs Moduli (GPa) = 60.88507 49.38939 80.67492
#
# Poissons Ratio (x) = -0.00936 0.54581
# Poissons Ratio (y) = -0.01154 0.45282
# Poissons Ratio (z) = 0.41192 0.27722
#
# Static dielectric constant tensor:
#      x y z
#    x 1.625140 0.000000 0.005370 
#    y 0.000000 1.626520 0.000000 
#    z 0.005370 0.000000 1.644100 
# 
# From -- ./inp_files/295567.got.cif
#   From: 2010.05.17/outbox.cif.g08.bks.cpg/sg12_148_cif.got.tgz:295567.got - 2010.06.03 13:09:07.
