data_PCOD9216745
_publ_section_title
;
Structure prediction by ZEFSAII (Michael W. Deem and Ramdas Pophale) SiO2 
 PCOD9216745
Probable space group: C 2/M
;
_chemical_formula_sum "Si O2"
_cell_formula_units_Z 56
_cell_length_a 17.468448
_cell_length_b 13.711630
_cell_length_c 14.870782
_cell_angle_alpha 90.000000
_cell_angle_beta 143.276944
_cell_angle_gamma 90.000000
_cell_volume 2129.807929
_symmetry_space_group_name_H-M "C 2/M"
_symmetry_group_IT_number 12
_symmetry_cell_setting 'monoclinic'
loop_
_space_group_symop_operation_xyz
x,y,z
-x,y,-z
-x,-y,-z
x,-y,z
1/2+x,1/2+y,z
1/2-x,1/2+y,-z
1/2-x,1/2-y,-z
1/2+x,1/2-y,z
loop_
_atom_site_type_symbol
_atom_site_label
_atom_site_fract_x
_atom_site_fract_y
_atom_site_fract_z
Si Si1 0.455034 0.397660 0.761928
Si Si2 0.108039 0.715690 0.846055
Si Si3 0.289530 0.107788 0.593316
Si Si4 0.377934 0.185712 0.949061
Si Si5 0.785767 0.115489 0.780702
Si Si6 0.147020 0.115845 0.628891
Si Si7 0.053311 0.382767 0.428420
O O1 0.527268 0.500000 0.835332
O O2 0.534101 0.315491 0.789526
O O3 0.336857 0.407107 0.583795
O O4 0.388800 0.379526 0.795457
O O5 0.082415 0.664257 0.726318
O O6 0.250000 0.750000 0.000000
O O7 0.077034 0.657126 0.908830
O O8 0.235370 0.159111 0.631050
O O9 0.377815 0.153081 0.599372
O O10 0.341489 0.000000 0.666397
O O11 0.339412 0.300481 0.897151
O O12 0.243957 0.131688 0.801942
O O13 0.500000 0.164237 0.000000
O O14 0.646767 0.136765 0.600770
O O15 0.782498 0.000000 0.805830
O O16 0.000000 0.152468 0.500000
O O17 0.134427 0.000000 0.598134
O O18 0.042721 0.500000 0.417212
#
# Coordination Sequence:
#
# PCOD9216745 Si02
#       7
#     8   8   8   8   8   8   8
#     4   9  19  37  62  90 118 155 204 257 315 374
#     4  12  27  39  57  92 131 171 207 257 333 393
#     4   8  16  33  61  88 107 145 205 255 302 359
#     4  12  25  41  63  99 132 172 214 266 338 392
#     4   9  20  41  71  97 120 160 220 278 319 374
#     4  10  23  40  60  88 125 171 218 266 318 381
#     4   9  20  41  66  91 120 166 220 268 315 380
#
# _framework density 26.29345
#
# number of rings (size 3 to 8) (size 9 to 14) (size 15 to 20)
#    0.000    2.143    1.429    2.571    4.000    3.429 
#    0.000    0.000    0.000    2.143    0.000    0.000 
#    0.000    0.000    0.000    0.000    0.000    0.000 
#
# Total GULP energy -156327.701600 kJ/mol
# GULP energy per Si atom -5583.132200 kJ/mol
# Density = 2.623361 g / cm^3
# Si number density = 26.293450 Si / 1000 Ang^3
#
#
#
# Elastic Constant Matrix: (Units=GPa)
#
#
# Indices 1 2 3 4 5 6 
#
# 1 83.0930 16.2037 36.0265 0.0000 -19.4937 0.0000
# 2 16.2037 92.9245 29.6706 0.0000 2.9415 0.0000
# 3 36.0265 29.6706 148.6850 0.0000 -9.3839 0.0000
# 4 0.0000 0.0000 0.0000 31.4537 0.0000 -6.1482
# 5 -19.4937 2.9415 -9.3839 0.0000 49.6552 0.0000
# 6 0.0000 0.0000 0.0000 -6.1482 0.0000 10.9119
#
#
#
# Elastic Compliance Matrix: (Units=1/GPa)
#
#
# Indices 1 2 3 4 5 6 
#
# 1 0.014926 -0.001846 -0.002906 0.000000 0.005420 0.000000
# 2 -0.001846 0.011785 -0.002018 0.000000 -0.001804 0.000000
# 3 -0.002906 -0.002018 0.007862 0.000000 0.000464 0.000000
# 4 0.000000 0.000000 0.000000 0.035728 0.000000 0.020130
# 5 0.005420 -0.001804 0.000464 0.000000 0.022461 0.000000
# 6 0.000000 0.000000 0.000000 0.020130 0.000000 0.102985
#
#
# Mechanical properties :
#
#
# Convention : Reuss Voigt Hill
#
# Bulk Modulus (GPa) = 47.54763 54.27825 50.91294
# Shear Modulus (GPa) = 23.11613 34.59093 28.85353
#
# Velocity S-wave (km/s) = 2.96828 3.63102 3.31624
# Velocity P-wave (km/s) = 5.46537 6.18604 5.83684
#
# Compressibility (1/GPa) = 0.02103154
#
# Stress axis : x y z
#
# Youngs Moduli (GPa) = 66.99575 84.85412 127.19673
#
# Poissons Ratio (x) = 0.15668 0.36965
# Poissons Ratio (y) = 0.12370 0.25671
# Poissons Ratio (z) = 0.19470 0.17125
#
# Static dielectric constant tensor:
#      x y z
#    x 2.257500 0.000000 0.202780 
#    y 0.000000 2.142010 0.000000 
#    z 0.202780 0.000000 1.837670 
# 
# From -- ./inp_files/284584.got.cif
#   From: 2010.05.17/outbox.cif.g08.bks.cpg/sg12_143_cif.got.tgz:284584.got - 2010.06.03 13:09:07.
