data_PCOD9216713
_publ_section_title
;
Structure prediction by ZEFSAII (Michael W. Deem and Ramdas Pophale) SiO2 
 PCOD9216713
Probable space group: C 2/M
;
_chemical_formula_sum "Si O2"
_cell_formula_units_Z 48
_cell_length_a 8.814502
_cell_length_b 16.937633
_cell_length_c 29.111745
_cell_angle_alpha 90.000000
_cell_angle_beta 146.602061
_cell_angle_gamma 90.000000
_cell_volume 2392.418616
_symmetry_space_group_name_H-M "C 2/M"
_symmetry_group_IT_number 12
_symmetry_cell_setting 'monoclinic'
loop_
_space_group_symop_operation_xyz
x,y,z
-x,y,-z
-x,-y,-z
x,-y,z
1/2+x,1/2+y,z
1/2-x,1/2+y,-z
1/2-x,1/2-y,-z
1/2+x,1/2-y,z
loop_
_atom_site_type_symbol
_atom_site_label
_atom_site_fract_x
_atom_site_fract_y
_atom_site_fract_z
Si Si1 0.882683 0.150686 0.551395
Si Si2 0.550827 0.000000 0.190361
Si Si3 0.196077 0.306726 0.606957
Si Si4 0.248748 0.000000 0.654490
Si Si5 0.415794 0.500000 0.056994
Si Si6 0.367311 0.631160 0.213021
Si Si7 0.629163 0.500000 0.216116
Si Si8 0.595897 0.168147 0.971551
O O1 0.575752 0.139346 0.453453
O O2 0.824908 0.173759 0.590080
O O3 0.055524 0.221011 0.572193
O O4 0.068365 0.074789 0.596388
O O5 0.674122 0.923971 0.195896
O O6 0.681605 0.000000 0.273879
O O7 0.218520 0.000000 0.109779
O O8 0.426960 0.318483 0.703710
O O9 0.545844 0.000000 0.706995
O O10 0.480002 0.500000 0.128388
O O11 0.253074 0.582396 0.004205
O O12 0.539117 0.574855 0.222879
O O13 0.163329 0.675340 0.127741
O O14 0.500000 0.166657 0.000000
O O15 0.750000 0.250000 0.000000
#
# Coordination Sequence:
#
# PCOD9216713 Si02
#       8
#     8   4   8   4   4   8   4   8
#     4  10  23  43  66  94 134 171 215 262 331 384
#     4  10  23  39  71 103 126 173 223 267 330 389
#     4  10  23  42  67  93 132 175 211 268 329 385
#     4  11  22  41  65 102 129 168 222 269 315 382
#     4  11  23  50  70  90 144 178 211 279 335 389
#     4  11  23  43  67  98 133 169 224 270 324 391
#     4  10  23  40  69  97 132 178 217 266 334 387
#     4  12  28  46  70 102 133 176 225 270 335 392
#
# _framework density 20.063379999999999
#
# number of rings (size 3 to 8) (size 9 to 14) (size 15 to 20)
#    0.000    1.333    3.333    1.250    4.667    7.333 
#    0.000    0.833    0.000    0.000    0.000    0.000 
#    0.000    0.000    0.000    0.000    0.000    0.000 
#
# Total GULP energy -134048.862287 kJ/mol
# GULP energy per Si atom -5585.369262 kJ/mol
# Density = 2.001771 g / cm^3
# Si number density = 20.063380 Si / 1000 Ang^3
#
#
#
# Elastic Constant Matrix: (Units=GPa)
#
#
# Indices 1 2 3 4 5 6 
#
# 1 81.0445 33.9799 38.2524 0.0028 17.2709 -0.0003
# 2 33.9799 94.7660 53.1839 -0.0002 14.9459 -0.0011
# 3 38.2524 53.1839 156.3356 0.0137 1.4042 0.0034
# 4 0.0028 -0.0002 0.0137 432.3808 0.0001 61.9527
# 5 17.2709 14.9459 1.4042 0.0001 17.5598 -0.0011
# 6 -0.0003 -0.0011 0.0034 61.9527 -0.0011 -26.1834
#
#
#
# Elastic Compliance Matrix: (Units=1/GPa)
#
#
# Indices 1 2 3 4 5 6 
#
# 1 0.018316 -0.001983 -0.003663 0.000000 -0.016034 0.000000
# 2 -0.001983 0.015660 -0.004743 0.000000 -0.010999 0.000000
# 3 -0.003663 -0.004743 0.008844 0.000000 0.006933 0.000000
# 4 0.000000 0.000000 0.000000 0.001727 0.000000 0.004087
# 5 -0.016034 -0.010999 0.006933 0.000000 0.081526 -0.000002
# 6 0.000000 0.000000 0.000000 0.004087 -0.000002 -0.028522
#
#
# Mechanical properties :
#
#
# Convention : Reuss Voigt Hill
#
# Bulk Modulus (GPa) = 45.36882 64.77538 55.07210
# Shear Modulus (GPa) = 39.78428 98.53343 69.15886
#
# Velocity S-wave (km/s) = 4.45784 7.01553 5.87750
# Velocity P-wave (km/s) = 7.01130 9.89844 8.57722
#
# Compressibility (1/GPa) = 0.02204157
#
# Stress axis : x y z
#
# Youngs Moduli (GPa) = 54.59649 63.85623 113.06897
#
# Poissons Ratio (x) = 0.12663 0.41417
# Poissons Ratio (y) = 0.10827 0.53633
# Poissons Ratio (z) = 0.19999 0.30290
#
# Static dielectric constant tensor:
#      x y z
#    x 1.710280 0.000000 0.005860 
#    y 0.000000 1.697690 0.000000 
#    z 0.005860 0.000000 1.740590 
# 
# From -- ./inp_files/373056.got.cif
#   From: 2010.05.17/outbox.cif.g08.bks.cpg/sg12_187_cif.got.tgz:373056.got - 2010.06.03 13:09:07.
