data_PCOD9216910
_publ_section_title
;
Structure prediction by ZEFSAII (Michael W. Deem and Ramdas Pophale) SiO2 
 PCOD9216910
Probable space group: C 2/M
;
_chemical_formula_sum "Si O2"
_cell_formula_units_Z 56
_cell_length_a 19.878277
_cell_length_b 8.927919
_cell_length_c 27.598582
_cell_angle_alpha 90.000000
_cell_angle_beta 141.714825
_cell_angle_gamma 90.000000
_cell_volume 3034.661833
_symmetry_space_group_name_H-M "C 2/M"
_symmetry_group_IT_number 12
_symmetry_cell_setting 'monoclinic'
loop_
_space_group_symop_operation_xyz
x,y,z
-x,y,-z
-x,-y,-z
x,-y,z
1/2+x,1/2+y,z
1/2-x,1/2+y,-z
1/2-x,1/2-y,-z
1/2+x,1/2-y,z
loop_
_atom_site_type_symbol
_atom_site_label
_atom_site_fract_x
_atom_site_fract_y
_atom_site_fract_z
Si Si1 0.347863 0.320096 0.821339
Si Si2 0.741760 0.180221 0.862850
Si Si3 0.944218 0.671655 0.021822
Si Si4 0.311292 0.320571 0.692292
Si Si5 0.508986 0.180099 0.271351
Si Si6 0.869844 0.178786 0.568914
Si Si7 0.397629 0.321428 0.474416
O O1 0.354519 0.500000 0.826739
O O2 0.277368 0.272667 0.828333
O O3 0.468819 0.255005 0.895574
O O4 0.299387 0.277172 0.742007
O O5 0.617745 0.221577 0.803001
O O6 0.750702 0.000000 0.870031
O O7 0.828716 0.250008 0.948828
O O8 0.931254 0.500000 0.029513
O O9 0.000000 0.674537 0.000000
O O10 0.317894 0.500000 0.692643
O O11 0.419421 0.248151 0.731241
O O12 0.209753 0.262300 0.604011
O O13 0.560295 0.244697 0.349748
O O14 0.517943 0.000000 0.276516
O O15 0.750000 0.250000 0.500000
O O16 0.918208 0.204861 0.542785
O O17 0.862508 0.000000 0.573173
O O18 0.500000 0.276061 0.500000
O O19 0.379859 0.500000 0.458201
#
# Coordination Sequence:
#
# PCOD9216910 Si02
#       7
#     8   8   8   8   8   8   8
#     4   9  19  36  57  82 111 145 184 226 276 332
#     4   9  19  36  58  82 110 146 186 228 274 328
#     4   9  17  31  54  85 114 142 179 225 277 328
#     4  11  23  38  58  83 113 149 187 231 281 333
#     4  11  23  38  58  82 113 150 189 232 279 332
#     4  11  22  38  60  83 111 149 189 228 276 332
#     4  10  23  41  59  82 113 148 185 229 281 333
#
# _framework density 18.453457
#
# number of rings (size 3 to 8) (size 9 to 14) (size 15 to 20)
#    0.000    2.000    1.429    1.714    2.000    4.857 
#    0.000    0.714    0.000    0.000    0.000    0.000 
#    0.000    0.000    0.000    0.000    0.000    0.000 
#
# Total GULP energy -156318.090919 kJ/mol
# GULP energy per Si atom -5582.788961 kJ/mol
# Density = 1.841146 g / cm^3
# Si number density = 18.453457 Si / 1000 Ang^3
#
#
#
# Elastic Constant Matrix: (Units=GPa)
#
#
# Indices 1 2 3 4 5 6 
#
# 1 68.8050 15.9236 -1.9434 0.0000 16.9149 0.0000
# 2 15.9236 24.5996 2.9139 0.0000 6.7191 -0.0001
# 3 -1.9434 2.9139 32.1495 0.0000 16.6981 0.0000
# 4 0.0000 0.0000 0.0000 22.2390 0.0000 -3.1708
# 5 16.9149 6.7191 16.6981 0.0000 34.9013 0.0000
# 6 0.0000 -0.0001 0.0000 -3.1708 0.0000 20.4093
#
#
#
# Elastic Compliance Matrix: (Units=1/GPa)
#
#
# Indices 1 2 3 4 5 6 
#
# 1 0.020126 -0.010832 0.008225 0.000000 -0.011604 0.000000
# 2 -0.010832 0.048745 -0.003893 0.000000 -0.002272 0.000000
# 3 0.008225 -0.003893 0.044758 0.000000 -0.024651 0.000000
# 4 0.000000 0.000000 0.000000 0.045985 0.000000 0.007144
# 5 -0.011604 -0.002272 -0.024651 0.000000 0.046507 0.000000
# 6 0.000000 0.000000 0.000000 0.007144 0.000000 0.050107
#
#
# Mechanical properties :
#
#
# Convention : Reuss Voigt Hill
#
# Bulk Modulus (GPa) = 9.93756 17.70470 13.82113
# Shear Modulus (GPa) = 16.51414 22.75390 19.63402
#
# Velocity S-wave (km/s) = 2.99475 3.51528 3.26540
# Velocity P-wave (km/s) = 4.16592 5.10797 4.66081
#
# Compressibility (1/GPa) = 0.10062836
#
# Stress axis : x y z
#
# Youngs Moduli (GPa) = 49.68750 20.51512 22.34227
#
# Poissons Ratio (x) = 0.22223 -0.18377
# Poissons Ratio (y) = 0.53824 0.08698
# Poissons Ratio (z) = -0.40869 0.07986
#
# Static dielectric constant tensor:
#      x y z
#    x 1.641300 0.000000 -0.008770 
#    y 0.000000 1.620040 0.000000 
#    z -0.008770 0.000000 1.601840 
# 
# From -- ./inp_files/363094.got.cif
#   From: 2010.05.17/outbox.cif.g08.bks.cpg/sg12_182_cif.got.tgz:363094.got - 2010.06.03 13:09:07.
