data_PCOD9216747
_publ_section_title
;
Structure prediction by ZEFSAII (Michael W. Deem and Ramdas Pophale) SiO2 
 PCOD9216747
Probable space group: C 2/M
;
_chemical_formula_sum "Si O2"
_cell_formula_units_Z 40
_cell_length_a 13.998003
_cell_length_b 19.090509
_cell_length_c 9.957409
_cell_angle_alpha 90.000000
_cell_angle_beta 50.704404
_cell_angle_gamma 90.000000
_cell_volume 2059.247509
_symmetry_space_group_name_H-M "C 2/M"
_symmetry_group_IT_number 12
_symmetry_cell_setting 'monoclinic'
loop_
_space_group_symop_operation_xyz
x,y,z
-x,y,-z
-x,-y,-z
x,-y,z
1/2+x,1/2+y,z
1/2-x,1/2+y,-z
1/2-x,1/2-y,-z
1/2+x,1/2-y,z
loop_
_atom_site_type_symbol
_atom_site_label
_atom_site_fract_x
_atom_site_fract_y
_atom_site_fract_z
Si Si1 0.720984 0.081064 0.980736
Si Si2 0.001577 0.081728 0.153108
Si Si3 0.062133 0.295641 0.157529
Si Si4 0.685109 0.189180 0.792483
Si Si5 0.432612 0.319019 0.434775
O O1 0.859650 0.087541 0.912285
O O2 0.711797 0.113830 0.838810
O O3 0.685346 0.000000 0.016507
O O4 0.629622 0.133336 0.141732
O O5 0.917779 0.129440 0.322695
O O6 0.965258 0.000000 0.190109
O O7 0.000000 0.104691 0.000000
O O8 0.934210 0.312914 0.195235
O O9 0.026971 0.240765 0.301394
O O10 0.150274 0.266550 0.958000
O O11 0.803415 0.210353 0.602419
O O12 0.500000 0.356055 0.500000
#
# Coordination Sequence:
#
# PCOD9216747 Si02
#       5
#     8   8   8   8   8
#     4   9  18  38  65  86 118 160 202 247 299 359
#     4  10  23  40  60  89 123 160 199 251 313 361
#     4   9  21  38  57  92 126 151 198 251 306 356
#     4   9  20  37  58  93 118 160 197 249 304 351
#     4  12  22  38  63  92 119 163 204 251 302 359
#
# _framework density 19.424569999999999
#
# number of rings (size 3 to 8) (size 9 to 14) (size 15 to 20)
#    1.200    1.000    2.000    0.600    2.800    6.000 
#    3.600    0.000    0.000    0.600    0.000    0.000 
#    0.000    0.000    0.000    0.000    0.000    0.000 
#
# Total GULP energy -111424.200126 kJ/mol
# GULP energy per Si atom -5571.210006 kJ/mol
# Density = 1.938036 g / cm^3
# Si number density = 19.424570 Si / 1000 Ang^3
#
#
#
# Elastic Constant Matrix: (Units=GPa)
#
#
# Indices 1 2 3 4 5 6 
#
# 1 52.6303 4.8995 23.4389 0.0000 15.8901 0.0000
# 2 4.8995 77.9954 44.7310 0.0000 7.4189 0.0000
# 3 23.4389 44.7310 144.7779 0.0000 -5.6838 0.0000
# 4 0.0000 0.0000 0.0000 7.9131 0.0000 9.9057
# 5 15.8901 7.4189 -5.6838 0.0000 27.2201 0.0000
# 6 0.0000 0.0000 0.0000 9.9057 0.0000 22.5193
#
#
#
# Elastic Compliance Matrix: (Units=1/GPa)
#
#
# Indices 1 2 3 4 5 6 
#
# 1 0.026806 0.003536 -0.006135 0.000000 -0.017893 0.000000
# 2 0.003536 0.016845 -0.006088 0.000000 -0.007927 0.000000
# 3 -0.006135 -0.006088 0.010070 0.000000 0.007343 0.000000
# 4 0.000000 0.000000 0.000000 0.281227 0.000000 -0.123705
# 5 -0.017893 -0.007927 0.007343 0.000000 0.050877 0.000000
# 6 0.000000 0.000000 0.000000 -0.123705 0.000000 0.098821
#
#
# Mechanical properties :
#
#
# Convention : Reuss Voigt Hill
#
# Bulk Modulus (GPa) = 27.51255 46.83804 37.17530
# Shear Modulus (GPa) = 9.72511 25.01945 17.37228
#
# Velocity S-wave (km/s) = 2.23997 3.59281 2.99381
# Velocity P-wave (km/s) = 4.56996 6.43243 5.57946
#
# Compressibility (1/GPa) = 0.03634704
#
# Stress axis : x y z
#
# Youngs Moduli (GPa) = 37.30554 59.36596 99.30868
#
# Poissons Ratio (x) = -0.20995 0.60924
# Poissons Ratio (y) = -0.13193 0.60460
# Poissons Ratio (z) = 0.22886 0.36143
#
# Static dielectric constant tensor:
#      x y z
#    x 1.691760 0.000000 0.002850 
#    y 0.000000 1.683110 0.000000 
#    z 0.002850 0.000000 1.714570 
# 
# From -- ./inp_files/157604.got.cif
#   From: 2010.05.17/outbox.cif.g08.bks.cpg/sg12_79_cif.got.tgz:157604.got - 2010.06.03 13:09:07.
