data_PCOD9216590
_publ_section_title
;
Structure prediction by ZEFSAII (Michael W. Deem and Ramdas Pophale) SiO2 
 PCOD9216590
Probable space group: C 2/M
;
_chemical_formula_sum "Si O2"
_cell_formula_units_Z 56
_cell_length_a 28.640585
_cell_length_b 25.528944
_cell_length_c 12.589638
_cell_angle_alpha 90.000000
_cell_angle_beta 160.757458
_cell_angle_gamma 90.000000
_cell_volume 3033.700405
_symmetry_space_group_name_H-M "C 2/M"
_symmetry_group_IT_number 12
_symmetry_cell_setting 'monoclinic'
loop_
_space_group_symop_operation_xyz
x,y,z
-x,y,-z
-x,-y,-z
x,-y,z
1/2+x,1/2+y,z
1/2-x,1/2+y,-z
1/2-x,1/2-y,-z
1/2+x,1/2-y,z
loop_
_atom_site_type_symbol
_atom_site_label
_atom_site_fract_x
_atom_site_fract_y
_atom_site_fract_z
Si Si1 0.350561 0.640236 0.345853
Si Si2 0.941037 0.306108 0.755245
Si Si3 0.800106 0.269779 0.838875
Si Si4 0.797088 0.201950 0.029542
Si Si5 0.861023 0.613437 0.425472
Si Si6 0.935077 0.059870 0.240329
Si Si7 0.399987 0.940864 0.182347
O O1 0.287084 0.683250 0.290339
O O2 0.374820 0.667462 0.284553
O O3 0.488982 0.605447 0.665247
O O4 0.229819 0.596638 0.073537
O O5 0.816077 0.263344 0.475641
O O6 0.876334 0.360877 0.573890
O O7 0.000000 0.309034 0.000000
O O8 0.070745 0.290390 0.954789
O O9 0.858671 0.229793 0.056373
O O10 0.750000 0.250000 0.000000
O O11 0.670674 0.164565 0.716307
O O12 0.004348 0.584408 0.703238
O O13 0.730059 0.575011 0.120348
O O14 0.000000 0.061659 0.500000
O O15 0.956721 0.000000 0.250258
O O16 0.500000 0.941892 0.500000
O O17 0.354641 0.000000 0.061252
#
# Coordination Sequence:
#
# PCOD9216590 Si02
#       7
#     8   8   8   8   8   8   8
#     4  11  20  36  55  85 125 160 191 229 286 361
#     4  11  24  43  64  88 113 151 206 258 301 350
#     4  10  23  38  60  88 120 153 192 244 301 354
#     4   9  19  34  50  81 121 159 184 219 282 359
#     4  11  21  38  56  83 120 155 195 246 298 345
#     4  11  22  36  56  86 123 162 199 233 283 355
#     4  11  20  33  56  84 116 156 197 238 285 351
#
# _framework density 18.459305000000001
#
# number of rings (size 3 to 8) (size 9 to 14) (size 15 to 20)
#    0.000    1.429    4.286    1.286    4.000    2.286 
#    2.571    0.000    0.000    1.714    0.000    1.000 
#    0.000    0.000    0.000    0.000    0.000    0.000 
#
# Total GULP energy -156195.438652 kJ/mol
# GULP energy per Si atom -5578.408523 kJ/mol
# Density = 1.841729 g / cm^3
# Si number density = 18.459305 Si / 1000 Ang^3
#
#
#
# Elastic Constant Matrix: (Units=GPa)
#
#
# Indices 1 2 3 4 5 6 
#
# 1 63.3237 22.5435 28.2883 0.0000 -4.2454 0.0000
# 2 22.5435 116.6052 19.2744 0.0000 -3.6556 0.0000
# 3 28.2883 19.2744 58.1979 0.0000 3.6356 0.0000
# 4 0.0000 0.0000 0.0000 30.2144 0.0000 18.9805
# 5 -4.2454 -3.6556 3.6356 0.0000 33.5290 0.0000
# 6 0.0000 0.0000 0.0000 18.9805 0.0000 33.0051
#
#
#
# Elastic Compliance Matrix: (Units=1/GPa)
#
#
# Indices 1 2 3 4 5 6 
#
# 1 0.021228 -0.002384 -0.009747 0.000000 0.003485 0.000000
# 2 -0.002384 0.009399 -0.002013 0.000000 0.000941 0.000000
# 3 -0.009747 -0.002013 0.022832 0.000000 -0.003929 0.000000
# 4 0.000000 0.000000 0.000000 0.051816 0.000000 -0.029798
# 5 0.003485 0.000941 -0.003929 0.000000 0.030795 0.000000
# 6 0.000000 0.000000 0.000000 -0.029798 0.000000 0.047435
#
#
# Mechanical properties :
#
#
# Convention : Reuss Voigt Hill
#
# Bulk Modulus (GPa) = 39.72515 42.03769 40.88142
# Shear Modulus (GPa) = 22.70840 30.55107 26.62974
#
# Velocity S-wave (km/s) = 3.51121 4.07264 3.80230
# Velocity P-wave (km/s) = 6.16484 6.70357 6.43984
#
# Compressibility (1/GPa) = 0.02517297
#
# Stress axis : x y z
#
# Youngs Moduli (GPa) = 47.10713 106.39375 43.79731
#
# Poissons Ratio (x) = 0.25362 0.42688
# Poissons Ratio (y) = 0.11229 0.08816
# Poissons Ratio (z) = 0.45914 0.21417
#
# Static dielectric constant tensor:
#      x y z
#    x 1.655660 0.000000 0.050990 
#    y 0.000000 1.669690 0.000000 
#    z 0.050990 0.000000 1.695020 
# 
# From -- ./inp_files/185152.got.cif
#   From: 2010.05.17/outbox.cif.g08.bks.cpg/sg12_93_cif.got.tgz:185152.got - 2010.06.03 13:09:07.
