data_PCOD9216482
_publ_section_title
;
Structure prediction by ZEFSAII (Michael W. Deem and Ramdas Pophale) SiO2 
 PCOD9216482
Probable space group: C 2/M
;
_chemical_formula_sum "Si O2"
_cell_formula_units_Z 52
_cell_length_a 13.690766
_cell_length_b 31.098018
_cell_length_c 8.712838
_cell_angle_alpha 90.000000
_cell_angle_beta 138.165401
_cell_angle_gamma 90.000000
_cell_volume 2474.198547
_symmetry_space_group_name_H-M "C 2/M"
_symmetry_group_IT_number 12
_symmetry_cell_setting 'monoclinic'
loop_
_space_group_symop_operation_xyz
x,y,z
-x,y,-z
-x,-y,-z
x,-y,z
1/2+x,1/2+y,z
1/2-x,1/2+y,-z
1/2-x,1/2-y,-z
1/2+x,1/2-y,z
loop_
_atom_site_type_symbol
_atom_site_label
_atom_site_fract_x
_atom_site_fract_y
_atom_site_fract_z
Si Si1 0.350355 0.196812 0.738058
Si Si2 0.407913 0.425968 0.032365
Si Si3 0.384771 0.377538 0.492217
Si Si4 0.153391 0.727103 0.615268
Si Si5 0.222584 0.500000 0.985910
Si Si6 0.157153 0.362616 0.761414
Si Si7 0.370068 0.083781 0.968664
O O1 0.230785 0.158952 0.598928
O O2 0.276795 0.237224 0.739221
O O3 0.376552 0.208987 0.591209
O O4 0.500000 0.186211 0.000000
O O5 0.518491 0.396744 0.259561
O O6 0.331893 0.462444 0.043691
O O7 0.500000 0.444180 0.000000
O O8 0.277616 0.393920 0.828481
O O9 0.500000 0.361618 0.500000
O O10 0.284515 0.415087 0.302047
O O11 0.196774 0.686911 0.774696
O O12 0.000000 0.744843 0.500000
O O13 0.116531 0.538532 0.929576
O O14 0.142155 0.378007 0.919850
O O15 0.000000 0.369354 0.500000
O O16 0.500000 0.089419 0.000000
#
# Coordination Sequence:
#
# PCOD9216482 Si02
#       7
#     8   8   8   8   4   8   8
#     4  11  26  43  67 100 137 182 235 277 337 404
#     4  11  24  42  70  98 137 178 228 285 338 418
#     4  12  24  43  68 100 132 181 227 281 340 398
#     4  10  24  44  64  98 138 179 226 286 341 389
#     4  10  22  47  65 102 134 176 225 277 358 402
#     4  10  23  42  68  98 136 178 225 278 343 400
#     4  11  25  43  72  99 134 177 224 283 337 419
#
# _framework density 21.016908000000001
#
# number of rings (size 3 to 8) (size 9 to 14) (size 15 to 20)
#    0.000    1.231    3.077    2.308   10.769    4.923 
#    0.000    6.154    0.000    0.000    0.000    0.000 
#    0.000    0.000    0.000    0.000    0.000    0.000 
#
# Total GULP energy -144812.701020 kJ/mol
# GULP energy per Si atom -5569.719270 kJ/mol
# Density = 2.096907 g / cm^3
# Si number density = 21.016908 Si / 1000 Ang^3
#
#
#
# Elastic Constant Matrix: (Units=GPa)
#
#
# Indices 1 2 3 4 5 6 
#
# 1 163.0159 39.7590 11.6138 0.0000 -1.5155 0.0000
# 2 39.7590 126.8608 26.9802 0.0000 -1.0289 0.0000
# 3 11.6138 26.9802 52.0538 0.0000 12.9124 0.0000
# 4 0.0000 0.0000 0.0000 -13.9743 0.0000 1.6101
# 5 -1.5155 -1.0289 12.9124 0.0000 23.6670 0.0000
# 6 0.0000 0.0000 0.0000 1.6101 0.0000 23.4772
#
#
#
# Elastic Compliance Matrix: (Units=1/GPa)
#
#
# Indices 1 2 3 4 5 6 
#
# 1 0.006661 -0.001943 -0.000652 0.000000 0.000698 0.000000
# 2 -0.001943 0.009661 -0.005374 0.000000 0.003228 0.000000
# 3 -0.000652 -0.005374 0.025687 0.000000 -0.014290 0.000000
# 4 0.000000 0.000000 0.000000 -0.070999 0.000000 0.004869
# 5 0.000698 0.003228 -0.014290 0.000000 0.050234 0.000000
# 6 0.000000 0.000000 0.000000 0.004869 0.000000 0.042261
#
#
# Mechanical properties :
#
#
# Convention : Reuss Voigt Hill
#
# Bulk Modulus (GPa) = 38.35950 55.40405 46.88178
# Shear Modulus (GPa) = 56.73159 24.20581 40.46870
#
# Velocity S-wave (km/s) = 5.20114 3.39740 4.39285
# Velocity P-wave (km/s) = 7.37296 6.46596 6.93431
#
# Compressibility (1/GPa) = 0.02606916
#
# Stress axis : x y z
#
# Youngs Moduli (GPa) = 150.12106 103.50975 38.93063
#
# Poissons Ratio (x) = 0.20116 0.02538
# Poissons Ratio (y) = 0.29174 0.20923
# Poissons Ratio (z) = 0.09788 0.55631
#
# Static dielectric constant tensor:
#      x y z
#    x 1.774810 0.000000 -0.029460 
#    y 0.000000 1.766600 0.000000 
#    z -0.029460 0.000000 1.755950 
# 
# From -- ./inp_files/68662.got.cif
#   From: 2010.05.17/outbox.cif.g08.bks.cpg/sg12_35_cif.got.tgz:68662.got - 2010.06.03 13:09:07.
