data_PCOD9216689
_publ_section_title
;
Structure prediction by ZEFSAII (Michael W. Deem and Ramdas Pophale) SiO2 
 PCOD9216689
Probable space group: C 2/M
;
_chemical_formula_sum "Si O2"
_cell_formula_units_Z 64
_cell_length_a 18.940031
_cell_length_b 17.718243
_cell_length_c 17.084192
_cell_angle_alpha 90.000000
_cell_angle_beta 31.307370
_cell_angle_gamma 90.000000
_cell_volume 2979.128099
_symmetry_space_group_name_H-M "C 2/M"
_symmetry_group_IT_number 12
_symmetry_cell_setting 'monoclinic'
loop_
_space_group_symop_operation_xyz
x,y,z
-x,y,-z
-x,-y,-z
x,-y,z
1/2+x,1/2+y,z
1/2-x,1/2+y,-z
1/2-x,1/2-y,-z
1/2+x,1/2-y,z
loop_
_atom_site_type_symbol
_atom_site_label
_atom_site_fract_x
_atom_site_fract_y
_atom_site_fract_z
Si Si1 0.841151 0.911954 0.163163
Si Si2 0.967089 0.321606 0.824039
Si Si3 0.463332 0.648469 0.773595
Si Si4 0.848372 0.286325 0.614141
Si Si5 0.225934 0.816882 0.463066
Si Si6 0.386584 0.915880 0.043430
Si Si7 0.126443 0.850913 0.320598
Si Si8 0.723978 0.085423 0.100623
O O1 0.756977 0.854217 0.296826
O O2 0.836842 0.000000 0.192434
O O3 0.764549 0.905512 0.152445
O O4 0.000000 0.891875 0.000000
O O5 0.959973 0.231793 0.816509
O O6 0.122650 0.346876 0.693214
O O7 0.889289 0.354156 0.972672
O O8 0.892590 0.358950 0.820090
O O9 0.620621 0.628423 0.607135
O O10 0.410857 0.648999 0.734549
O O11 0.362941 0.598513 0.920102
O O12 0.839949 0.228904 0.547989
O O13 0.806126 0.229811 0.723400
O O14 0.000000 0.310648 0.500000
O O15 0.250000 0.750000 0.500000
O O16 0.241901 0.912259 0.223044
O O17 0.408272 0.000000 0.990127
O O18 0.500000 0.899736 0.000000
O O19 0.000000 0.861285 0.500000
O O20 0.676997 0.000000 0.132579
#
# Coordination Sequence:
#
# PCOD9216689 Si02
#       8
#     8   8   8   8   8   8   8   8
#     4  10  25  44  64  95 133 170 215 265 322 386
#     4  11  23  40  67  95 128 165 216 269 320 378
#     4  11  22  41  64  95 125 166 212 266 318 384
#     4  11  22  40  67  94 130 169 217 267 320 385
#     4  10  23  39  63  96 129 164 210 273 324 375
#     4  11  25  42  61  91 130 170 215 261 315 381
#     4  11  22  39  64  92 128 164 212 262 318 378
#     4  11  24  43  67  95 130 173 214 263 322 390
#
# _framework density 21.482794999999999
#
# number of rings (size 3 to 8) (size 9 to 14) (size 15 to 20)
#    0.000    1.250    3.750    2.250    7.000    1.000 
#    0.000    1.250    0.000    0.000    0.000    0.000 
#    0.000    0.000    0.000    0.000    0.000    0.000 
#
# Total GULP energy -178416.186686 kJ/mol
# GULP energy per Si atom -5575.505834 kJ/mol
# Density = 2.143390 g / cm^3
# Si number density = 21.482795 Si / 1000 Ang^3
#
#
#
# Elastic Constant Matrix: (Units=GPa)
#
#
# Indices 1 2 3 4 5 6 
#
# 1 66.9842 1.4100 15.7757 -0.0007 -13.0572 0.0004
# 2 1.4100 39.9950 19.0652 -0.0012 -9.3449 0.0009
# 3 15.7757 19.0652 85.3782 -0.0009 -21.5201 0.0009
# 4 -0.0007 -0.0012 -0.0009 17.1484 0.0008 -1.9258
# 5 -13.0572 -9.3449 -21.5201 0.0008 39.2384 -0.0006
# 6 0.0004 0.0009 0.0009 -1.9258 -0.0006 9.4260
#
#
#
# Elastic Compliance Matrix: (Units=1/GPa)
#
#
# Indices 1 2 3 4 5 6 
#
# 1 0.016309 0.001547 -0.002203 0.000000 0.004588 0.000000
# 2 0.001547 0.028614 -0.005602 0.000001 0.004257 -0.000002
# 3 -0.002203 -0.005602 0.014911 0.000000 0.006111 0.000000
# 4 0.000000 0.000001 0.000000 0.059684 -0.000001 0.012194
# 5 0.004588 0.004257 0.006111 -0.000001 0.031377 0.000001
# 6 0.000000 -0.000002 0.000000 0.012194 0.000001 0.108581
#
#
# Mechanical properties :
#
#
# Convention : Reuss Voigt Hill
#
# Bulk Modulus (GPa) = 21.13383 29.42882 25.28132
# Shear Modulus (GPa) = 17.37529 23.56965 20.47247
#
# Velocity S-wave (km/s) = 2.84703 3.31590 3.09037
# Velocity P-wave (km/s) = 4.54602 5.32812 4.95253
#
# Compressibility (1/GPa) = 0.04731750
#
# Stress axis : x y z
#
# Youngs Moduli (GPa) = 61.31460 34.94821 67.06536
#
# Poissons Ratio (x) = -0.05406 0.14772
# Poissons Ratio (y) = -0.09485 0.37573
# Poissons Ratio (z) = 0.13505 0.19580
#
# Static dielectric constant tensor:
#      x y z
#    x 1.779180 0.000000 -0.024530 
#    y 0.000000 1.799660 0.000000 
#    z -0.024530 0.000000 1.854550 
# 
# From -- ./inp_files/285198.got.cif
#   From: 2010.05.17/outbox.cif.g08.bks.cpg/sg12_143_cif.got.tgz:285198.got - 2010.06.03 13:09:07.
