data_PCOD9217384
_publ_section_title
;
Structure prediction by ZEFSAII (Michael W. Deem and Ramdas Pophale) SiO2 
 PCOD9217384
Probable space group: C 2/M
;
_chemical_formula_sum "Si O2"
_cell_formula_units_Z 24
_cell_length_a 5.311368
_cell_length_b 17.892792
_cell_length_c 10.147855
_cell_angle_alpha 90.000000
_cell_angle_beta 86.633364
_cell_angle_gamma 90.000000
_cell_volume 962.739085
_symmetry_space_group_name_H-M "C 2/M"
_symmetry_group_IT_number 12
_symmetry_cell_setting 'monoclinic'
loop_
_space_group_symop_operation_xyz
x,y,z
-x,y,-z
-x,-y,-z
x,-y,z
1/2+x,1/2+y,z
1/2-x,1/2+y,-z
1/2-x,1/2-y,-z
1/2+x,1/2-y,z
loop_
_atom_site_type_symbol
_atom_site_label
_atom_site_fract_x
_atom_site_fract_y
_atom_site_fract_z
Si Si1 0.686899 0.821032 0.090163
Si Si2 0.961242 0.661108 0.363639
Si Si3 0.040977 0.086901 0.719320
O O1 0.536156 0.796063 0.227560
O O2 0.908771 0.870974 0.143637
O O3 0.500000 0.867271 0.000000
O O4 0.750000 0.750000 0.000000
O O5 0.688710 0.626166 0.348647
O O6 0.000000 0.703354 0.500000
O O7 0.187224 0.599416 0.359430
O O8 0.988087 0.000000 0.736371
#
# Coordination Sequence:
#
# PCOD9217384 Si02
#       3
#     8   8   8
#     4  10  26  44  72  99 143 197 241 296 359 423
#     4  10  23  43  71 107 146 186 238 292 361 435
#     4  10  23  42  73 109 146 186 236 294 361 432
#
# _framework density 24.928871000000001
#
# number of rings (size 3 to 8) (size 9 to 14) (size 15 to 20)
#    2.000    0.000    0.000    2.000    4.667    4.667 
#    0.000    3.333    0.000    0.000    0.000    0.000 
#    0.000    1.333    0.000    0.667    0.000    0.000 
#
# Total GULP energy -67005.848563 kJ/mol
# GULP energy per Si atom -5583.820714 kJ/mol
# Density = 2.487213 g / cm^3
# Si number density = 24.928871 Si / 1000 Ang^3
#
#
#
# Elastic Constant Matrix: (Units=GPa)
#
#
# Indices 1 2 3 4 5 6 
#
# 1 171.7319 37.8254 54.5145 0.0000 53.9728 0.0000
# 2 37.8254 98.3070 43.2418 0.0000 24.5288 0.0000
# 3 54.5145 43.2418 238.8150 0.0000 31.0452 0.0000
# 4 0.0000 0.0000 0.0000 7.3003 0.0000 -5.3504
# 5 53.9728 24.5288 31.0452 0.0000 45.6231 0.0000
# 6 0.0000 0.0000 0.0000 -5.3504 0.0000 27.0577
#
#
#
# Elastic Compliance Matrix: (Units=1/GPa)
#
#
# Indices 1 2 3 4 5 6 
#
# 1 0.009444 -0.000766 -0.000678 0.000000 -0.010299 0.000000
# 2 -0.000766 0.012275 -0.001435 0.000000 -0.004718 0.000000
# 3 -0.000678 -0.001435 0.004824 0.000000 -0.001709 0.000000
# 4 0.000000 0.000000 0.000000 0.160197 0.000000 0.031678
# 5 -0.010299 -0.004718 -0.001709 0.000000 0.037802 0.000000
# 6 0.000000 0.000000 0.000000 0.031678 0.000000 0.043222
#
#
# Mechanical properties :
#
#
# Convention : Reuss Voigt Hill
#
# Bulk Modulus (GPa) = 48.10957 86.66858 67.38907
# Shear Modulus (GPa) = 17.82853 40.88104 29.35478
#
# Velocity S-wave (km/s) = 2.67718 4.05397 3.43526
# Velocity P-wave (km/s) = 5.37559 7.53357 6.54415
#
# Compressibility (1/GPa) = 0.02078589
#
# Stress axis : x y z
#
# Youngs Moduli (GPa) = 105.88983 81.46703 207.29312
#
# Poissons Ratio (x) = 0.06237 0.14060
# Poissons Ratio (y) = 0.08107 0.29737
# Poissons Ratio (z) = 0.07182 0.11687
#
# Static dielectric constant tensor:
#      x y z
#    x 2.251740 0.000000 -0.043330 
#    y 0.000000 1.887640 0.000000 
#    z -0.043330 0.000000 2.070530 
# 
# From -- ./inp_files/33822.got.cif
#   From: 2010.05.17/outbox.cif.g08.bks.cpg/sg12_17_cif.got.tgz:33822.got - 2010.06.03 13:09:07.
