data_PCOD9217106
_publ_section_title
;
Structure prediction by ZEFSAII (Michael W. Deem and Ramdas Pophale) SiO2 
 PCOD9217106
Probable space group: C 2/M
;
_chemical_formula_sum "Si O2"
_cell_formula_units_Z 58
_cell_length_a 9.384811
_cell_length_b 24.191094
_cell_length_c 21.699520
_cell_angle_alpha 90.000000
_cell_angle_beta 36.287940
_cell_angle_gamma 90.000000
_cell_volume 2915.667999
_symmetry_space_group_name_H-M "C 2/M"
_symmetry_group_IT_number 12
_symmetry_cell_setting 'monoclinic'
loop_
_space_group_symop_operation_xyz
x,y,z
-x,y,-z
-x,-y,-z
x,-y,z
1/2+x,1/2+y,z
1/2-x,1/2+y,-z
1/2-x,1/2-y,-z
1/2+x,1/2-y,z
loop_
_atom_site_type_symbol
_atom_site_label
_atom_site_fract_x
_atom_site_fract_y
_atom_site_fract_z
Si Si1 0.560820 0.410807 0.086863
Si Si2 0.246769 0.329621 0.374759
Si Si3 0.984633 0.268113 0.071850
Si Si4 0.031941 0.741404 0.623163
Si Si5 0.000000 0.000000 0.000000
Si Si6 0.962119 0.626903 0.149388
Si Si7 0.866137 0.331940 0.784191
Si Si8 0.542611 0.563376 0.233531
O O1 0.339656 0.369355 0.174183
O O2 0.615226 0.433793 0.135897
O O3 0.483940 0.453066 0.060415
O O4 0.793565 0.383449 0.974340
O O5 0.440461 0.299640 0.351190
O O6 0.348030 0.388153 0.315431
O O7 0.000000 0.337761 0.500000
O O8 0.184372 0.284489 0.342627
O O9 0.890979 0.312312 0.152098
O O10 0.795126 0.218257 0.132030
O O11 0.000000 0.295642 0.000000
O O12 0.250000 0.250000 0.000000
O O13 0.250000 0.750000 0.500000
O O14 0.046276 0.694770 0.671845
O O15 0.771942 0.580984 0.195065
O O16 0.011731 0.632965 0.204379
O O17 0.467074 0.500000 0.272995
#
# Coordination Sequence:
#
# PCOD9217106 Si02
#       8
#     8   8   8   8   2   8   8   8
#     4  12  23  43  64  92 132 183 232 282 326 408
#     4  10  23  46  71 101 132 173 227 284 354 423
#     4  12  22  37  56  89 128 170 214 263 329 403
#     4  10  23  41  69 103 133 169 218 284 357 420
#     4  12  24  40  70  92 134 182 256 278 334 392
#     4  12  26  39  59  95 134 178 227 273 332 403
#     4  12  23  39  64  90 133 177 217 271 341 413
#     4  12  27  43  67  97 134 188 234 285 347 400
#
# _framework density 19.892527000000001
#
# number of rings (size 3 to 8) (size 9 to 14) (size 15 to 20)
#    0.000    0.552    6.207    2.069    4.828    0.828 
#    0.000    0.000    0.000    0.000    0.000    1.931 
#    0.000    0.000    0.000    0.000    0.000    0.000 
#
# Total GULP energy -161449.423918 kJ/mol
# GULP energy per Si atom -5567.221514 kJ/mol
# Density = 1.984725 g / cm^3
# Si number density = 19.892527 Si / 1000 Ang^3
#
#
#
# Elastic Constant Matrix: (Units=GPa)
#
#
# Indices 1 2 3 4 5 6 
#
# 1 81.6447 30.4168 53.9091 -0.0047 11.8318 0.0091
# 2 30.4168 108.5423 52.1846 0.0021 -4.7896 -0.0041
# 3 53.9091 52.1846 115.8770 0.0075 4.3427 -0.0134
# 4 -0.0047 0.0021 0.0075 841.7263 0.0036-1554.0479
# 5 11.8318 -4.7896 4.3427 0.0036 21.4916 -0.0066
# 6 0.0091 -0.0041 -0.0134-1554.0479 -0.0066 2952.3407
#
#
#
# Elastic Compliance Matrix: (Units=1/GPa)
#
#
# Indices 1 2 3 4 5 6 
#
# 1 0.019600 -0.002185 -0.007771 0.000000 -0.009707 0.000000
# 2 -0.002185 0.012305 -0.004709 0.000000 0.004897 0.000000
# 3 -0.007771 -0.004709 0.014353 0.000000 0.000328 0.000000
# 4 0.000000 0.000000 0.000000 0.042178 0.000000 0.022201
# 5 -0.009707 0.004897 0.000328 0.000000 0.052899 0.000000
# 6 0.000000 0.000000 0.000000 0.022201 0.000000 0.012025
#
#
# Mechanical properties :
#
#
# Convention : Reuss Voigt Hill
#
# Bulk Modulus (GPa) = 59.06720 64.34276 61.70498
# Shear Modulus (GPa) = 26.54907 774.41529 400.48218
#
# Velocity S-wave (km/s) = 3.65722 19.75208 14.20422
# Velocity P-wave (km/s) = 6.89864 23.50762 17.32339
#
# Compressibility (1/GPa) = 0.01692987
#
# Stress axis : x y z
#
# Youngs Moduli (GPa) = 51.02112 81.26709 69.67131
#
# Poissons Ratio (x) = 0.17756 0.54139
# Poissons Ratio (y) = 0.11147 0.32805
# Poissons Ratio (z) = 0.39646 0.38265
#
# Static dielectric constant tensor:
#      x y z
#    x 1.544120 0.000110 0.010420 
#    y 0.000110 2.153620 -0.000030 
#    z 0.010420 -0.000030 1.710910 
# 
# From -- ./inp_files/302450.got.cif
#   From: 2010.05.17/outbox.cif.g08.bks.cpg/sg12_152_cif.got.tgz:302450.got - 2010.06.03 13:09:07.
