data_PCOD9217568
_publ_section_title
;
Structure prediction by ZEFSAII (Michael W. Deem and Ramdas Pophale) SiO2 
 PCOD9217568
Probable space group: C 2/M
;
_chemical_formula_sum "Si O2"
_cell_formula_units_Z 36
_cell_length_a 19.964864
_cell_length_b 10.849099
_cell_length_c 20.701748
_cell_angle_alpha 90.000000
_cell_angle_beta 20.171524
_cell_angle_gamma 90.000000
_cell_volume 1546.230591
_symmetry_space_group_name_H-M "C 2/M"
_symmetry_group_IT_number 12
_symmetry_cell_setting 'monoclinic'
loop_
_space_group_symop_operation_xyz
x,y,z
-x,y,-z
-x,-y,-z
x,-y,z
1/2+x,1/2+y,z
1/2-x,1/2+y,-z
1/2-x,1/2-y,-z
1/2+x,1/2-y,z
loop_
_atom_site_type_symbol
_atom_site_label
_atom_site_fract_x
_atom_site_fract_y
_atom_site_fract_z
Si Si1 0.984102 0.500000 0.266287
Si Si2 0.458447 0.751107 0.611730
Si Si3 0.302969 0.000000 0.798011
Si Si4 0.091104 0.359937 0.986349
Si Si5 0.073567 0.000000 0.132846
Si Si6 0.626097 0.250918 0.698707
O O1 0.021620 0.500000 0.308579
O O2 0.888906 0.627981 0.330921
O O3 0.208018 0.500000 0.036605
O O4 0.500000 0.719001 0.500000
O O5 0.333847 0.877631 0.728706
O O6 0.321038 0.651890 0.770162
O O7 0.659240 0.765194 0.467547
O O8 0.118355 0.000000 0.013870
O O9 0.027878 0.500000 0.055916
O O10 0.000000 0.323188 0.000000
O O11 0.013157 0.277594 0.114327
O O12 0.959282 0.876189 0.253847
#
# Coordination Sequence:
#
# PCOD9217568 Si02
#       6
#     4   8   4   8   4   8
#     4  10  24  45  74  98 133 183 240 275 345 406
#     4  12  25  42  68 104 140 177 226 280 345 412
#     4  10  24  44  66  97 137 177 236 274 334 408
#     4  11  23  41  65  99 139 178 225 277 336 412
#     4  10  23  43  69  95 137 174 231 280 335 403
#     4  12  23  44  73 101 135 187 222 285 350 399
#
# _framework density 23.282426000000001
#
# number of rings (size 3 to 8) (size 9 to 14) (size 15 to 20)
#    0.667    0.222    5.556    1.667    1.556    1.333 
#    0.000    4.444    0.000    0.000    0.000    0.000 
#    0.000    0.000    0.000    0.000    0.000    0.000 
#
# Total GULP energy -100717.296554 kJ/mol
# GULP energy per Si atom -5595.405364 kJ/mol
# Density = 2.322943 g / cm^3
# Si number density = 23.282426 Si / 1000 Ang^3
#
#
#
# Elastic Constant Matrix: (Units=GPa)
#
#
# Indices 1 2 3 4 5 6 
#
# 1 48.2605 19.2658 18.0507 0.0007 -1.4061 -0.0018
# 2 19.2658 150.5418 21.9404 -0.0053 -6.8634 -0.0026
# 3 18.0507 21.9404 108.8678 0.0019 -2.1988 -0.0034
# 4 0.0007 -0.0053 0.0019 5.8091 0.0005 -15.6597
# 5 -1.4061 -6.8634 -2.1988 0.0005 43.1830 0.0021
# 6 -0.0018 -0.0026 -0.0034 -15.6597 0.0021 7.9462
#
#
#
# Elastic Compliance Matrix: (Units=1/GPa)
#
#
# Indices 1 2 3 4 5 6 
#
# 1 0.022939 -0.002445 -0.003307 -0.000001 0.000190 0.000001
# 2 -0.002445 0.007149 -0.001015 -0.000002 0.001005 -0.000003
# 3 -0.003307 -0.001015 0.009943 -0.000001 0.000237 0.000001
# 4 -0.000001 -0.000002 -0.000001 -0.039917 0.000004 -0.078666
# 5 0.000190 0.001005 0.000237 0.000004 0.023335 0.000002
# 6 0.000001 -0.000003 0.000001 -0.078666 0.000002 -0.029182
#
#
# Mechanical properties :
#
#
# Convention : Reuss Voigt Hill
#
# Bulk Modulus (GPa) = 37.73908 47.35377 42.54642
# Shear Modulus (GPa) = 300.57365 27.94853 164.26109
#
# Velocity S-wave (km/s) = 11.37450 3.46846 8.40861
# Velocity P-wave (km/s) = 13.73863 6.03517 10.61069
#
# Compressibility (1/GPa) = 0.02649773
#
# Stress axis : x y z
#
# Youngs Moduli (GPa) = 43.59318 139.87281 100.57212
#
# Poissons Ratio (x) = 0.34200 0.33258
# Poissons Ratio (y) = 0.10659 0.10209
# Poissons Ratio (z) = 0.14416 0.14199
#
# Static dielectric constant tensor:
#      x y z
#    x 1.857620 -0.000010 0.009350 
#    y -0.000010 1.875870 0.000000 
#    z 0.009350 0.000000 1.862240 
# 
# From -- ./inp_files/321473.got.cif
#   From: 2010.05.17/outbox.cif.g08.bks.cpg/sg12_161_cif.got.tgz:321473.got - 2010.06.03 13:09:07.
