data_PCOD9217250
_publ_section_title
;
Structure prediction by ZEFSAII (Michael W. Deem and Ramdas Pophale) SiO2 
 PCOD9217250
Probable space group: C 2/M
;
_chemical_formula_sum "Si O2"
_cell_formula_units_Z 56
_cell_length_a 17.883953
_cell_length_b 15.221315
_cell_length_c 12.254033
_cell_angle_alpha 90.000000
_cell_angle_beta 58.365254
_cell_angle_gamma 90.000000
_cell_volume 2840.095761
_symmetry_space_group_name_H-M "C 2/M"
_symmetry_group_IT_number 12
_symmetry_cell_setting 'monoclinic'
loop_
_space_group_symop_operation_xyz
x,y,z
-x,y,-z
-x,-y,-z
x,-y,z
1/2+x,1/2+y,z
1/2-x,1/2+y,-z
1/2-x,1/2-y,-z
1/2+x,1/2-y,z
loop_
_atom_site_type_symbol
_atom_site_label
_atom_site_fract_x
_atom_site_fract_y
_atom_site_fract_z
Si Si1 0.076969 0.357379 0.070646
Si Si2 0.196673 0.395068 0.180208
Si Si3 0.108931 0.156270 0.993884
Si Si4 0.560517 0.598906 0.784768
Si Si5 0.624782 0.905687 0.807848
Si Si6 0.402630 0.897413 0.524144
Si Si7 0.846050 0.266216 0.381761
O O1 0.119962 0.370501 0.154663
O O2 0.979172 0.395775 0.138969
O O3 0.076458 0.255628 0.036274
O O4 0.132630 0.402155 0.931992
O O5 0.209167 0.500000 0.167510
O O6 0.287009 0.351094 0.072349
O O7 0.166106 0.373468 0.326741
O O8 0.091347 0.120666 0.885125
O O9 0.045386 0.103846 0.124749
O O10 0.588275 0.500000 0.734091
O O11 0.601028 0.676475 0.680657
O O12 0.665023 0.820762 0.721388
O O13 0.656654 0.000000 0.742247
O O14 0.500000 0.892199 0.500000
O O15 0.393358 0.831872 0.430277
O O16 0.387874 0.000000 0.504589
O O17 0.750000 0.250000 0.500000
#
# Coordination Sequence:
#
# PCOD9217250 Si02
#       7
#     8   8   8   8   8   8   8
#     4  11  20  37  61  93 122 155 191 249 317 370
#     4  11  22  36  59  93 123 155 201 251 303 364
#     4  11  20  38  60  90 120 156 201 251 311 361
#     4  11  22  40  63  87 119 160 204 252 302 358
#     4  11  21  38  62  89 123 157 192 247 313 370
#     4  10  23  42  65  92 125 167 209 252 307 367
#     4  12  24  40  61  89 125 162 211 254 298 362
#
# _framework density 19.717645999999998
#
# number of rings (size 3 to 8) (size 9 to 14) (size 15 to 20)
#    0.000    1.000    2.857    6.857    0.000    3.429 
#    0.000    0.000    0.000    0.429    0.000    0.000 
#    0.000    0.000    0.000    0.000    0.000    0.000 
#
# Total GULP energy -156429.824221 kJ/mol
# GULP energy per Si atom -5586.779436 kJ/mol
# Density = 1.967277 g / cm^3
# Si number density = 19.717646 Si / 1000 Ang^3
#
#
#
# Elastic Constant Matrix: (Units=GPa)
#
#
# Indices 1 2 3 4 5 6 
#
# 1 30.6122 3.7106 12.3402 0.0000 -2.1392 0.0000
# 2 3.7106 147.3082 44.0017 0.0000 1.1357 0.0000
# 3 12.3402 44.0017 98.1438 0.0000 -6.2895 0.0000
# 4 0.0000 0.0000 0.0000 -57.3733 0.0000 225.2417
# 5 -2.1392 1.1357 -6.2895 0.0000 33.1472 0.0000
# 6 0.0000 0.0000 0.0000 225.2417 0.0000 -582.8959
#
#
#
# Elastic Compliance Matrix: (Units=1/GPa)
#
#
# Indices 1 2 3 4 5 6 
#
# 1 0.034502 0.000450 -0.004453 0.000000 0.001366 0.000000
# 2 0.000450 0.007874 -0.003646 0.000000 -0.000933 0.000000
# 3 -0.004453 -0.003646 0.012526 0.000000 0.002214 0.000000
# 4 0.000000 0.000000 0.000000 0.033711 0.000000 0.013026
# 5 0.001366 -0.000933 0.002214 0.000000 0.030709 0.000000
# 6 0.000000 0.000000 0.000000 0.013026 0.000000 0.003318
#
#
# Mechanical properties :
#
#
# Convention : Reuss Voigt Hill
#
# Bulk Modulus (GPa) = 25.24963 44.01880 34.63421
# Shear Modulus (GPa) = 33.08239 -107.02361 -36.97061
#
# Velocity S-wave (km/s) = 4.10055 -7.37536 -4.33483
# Velocity P-wave (km/s) = 5.93740 7.08201 2.72967
#
# Compressibility (1/GPa) = 0.03960455
#
# Stress axis : x y z
#
# Youngs Moduli (GPa) = 28.98343 127.00777 79.83588
#
# Poissons Ratio (x) = -0.05720 0.35547
# Poissons Ratio (y) = -0.01305 0.29111
# Poissons Ratio (z) = 0.12905 0.46312
#
# Static dielectric constant tensor:
#      x y z
#    x 1.697300 0.000000 -0.015020 
#    y 0.000000 1.720700 0.000000 
#    z -0.015020 0.000000 1.722100 
# 
# From -- ./inp_files/156532.got.cif
#   From: 2010.05.17/outbox.cif.g08.bks.cpg/sg12_79_cif.got.tgz:156532.got - 2010.06.03 13:09:07.
