data_PCOD9217435
_publ_section_title
;
Structure prediction by ZEFSAII (Michael W. Deem and Ramdas Pophale) SiO2 
 PCOD9217435
Probable space group: C 2/M
;
_chemical_formula_sum "Si O2"
_cell_formula_units_Z 58
_cell_length_a 30.643153
_cell_length_b 7.808882
_cell_length_c 24.109193
_cell_angle_alpha 90.000000
_cell_angle_beta 151.385344
_cell_angle_gamma 90.000000
_cell_volume 2762.897138
_symmetry_space_group_name_H-M "C 2/M"
_symmetry_group_IT_number 12
_symmetry_cell_setting 'monoclinic'
loop_
_space_group_symop_operation_xyz
x,y,z
-x,y,-z
-x,-y,-z
x,-y,z
1/2+x,1/2+y,z
1/2-x,1/2+y,-z
1/2-x,1/2-y,-z
1/2+x,1/2-y,z
loop_
_atom_site_type_symbol
_atom_site_label
_atom_site_fract_x
_atom_site_fract_y
_atom_site_fract_z
Si Si1 0.284420 0.805317 0.598786
Si Si2 0.184530 0.805026 0.876446
Si Si3 0.500000 0.000000 0.000000
Si Si4 0.667936 0.297256 0.041709
Si Si5 0.347240 0.292239 0.843277
Si Si6 0.522956 0.301011 0.217790
Si Si7 0.820935 0.307117 0.414893
Si Si8 0.516825 0.198754 0.336377
O O1 0.250000 0.750000 0.500000
O O2 0.393247 0.789821 0.718479
O O3 0.238963 0.694080 0.595656
O O4 0.256944 0.000000 0.578507
O O5 0.244398 0.786985 0.888082
O O6 0.089593 0.706414 0.768379
O O7 0.158232 0.000000 0.857458
O O8 0.250000 0.750000 0.000000
O O9 0.421709 0.155135 0.905982
O O10 0.675117 0.500000 0.037047
O O11 0.657398 0.277020 0.095389
O O12 0.575434 0.231253 0.909626
O O13 0.363199 0.500000 0.848328
O O14 0.249327 0.238677 0.708721
O O15 0.526982 0.500000 0.206051
O O16 0.532435 0.286280 0.294492
O O17 0.841835 0.500000 0.419393
O O18 0.916767 0.228640 0.541830
O O19 0.542894 0.000000 0.357285
#
# Coordination Sequence:
#
# PCOD9217435 Si02
#       8
#     8   8   2   8   8   8   8   8
#     4  12  24  36  56  86 125 168 210 260 319 389
#     4  12  24  39  64  96 131 169 215 274 336 396
#     4  12  26  44  72 102 130 176 242 268 336 394
#     4  10  23  43  66  91 129 168 213 272 334 393
#     4  10  25  47  69  98 137 179 224 283 334 391
#     4  11  22  36  58  89 124 162 207 259 321 387
#     4  10  23  43  65  89 127 173 219 267 327 396
#     4  11  22  39  63  92 125 167 212 261 324 396
#
# _framework density 20.992456000000001
#
# number of rings (size 3 to 8) (size 9 to 14) (size 15 to 20)
#    0.000    1.103    2.759    3.517    3.862    1.103 
#    0.000    0.690    0.000    4.138    0.000    0.000 
#    0.000    0.000    0.000    0.000    0.000    0.000 
#
# Total GULP energy -161740.623359 kJ/mol
# GULP energy per Si atom -5577.262874 kJ/mol
# Density = 2.094468 g / cm^3
# Si number density = 20.992456 Si / 1000 Ang^3
#
#
#
# Elastic Constant Matrix: (Units=GPa)
#
#
# Indices 1 2 3 4 5 6 
#
# 1 19.9198 6.6422 28.7853 0.0000 9.5974 0.0000
# 2 6.6422 81.5002 18.4663 0.0000 -0.5210 0.0000
# 3 28.7853 18.4663 163.8116 0.0000 10.1250 0.0000
# 4 0.0000 0.0000 0.0000 24.3351 0.0000 6.6015
# 5 9.5974 -0.5210 10.1250 0.0000 35.1147 0.0000
# 6 0.0000 0.0000 0.0000 6.6015 0.0000 21.9212
#
#
#
# Elastic Compliance Matrix: (Units=1/GPa)
#
#
# Indices 1 2 3 4 5 6 
#
# 1 0.077461 -0.003685 -0.012100 0.000000 -0.017737 0.000000
# 2 -0.003685 0.012780 -0.000883 0.000000 0.001451 0.000000
# 3 -0.012100 -0.000883 0.008274 0.000000 0.000908 0.000000
# 4 0.000000 0.000000 0.000000 0.044748 0.000000 -0.013476
# 5 -0.017737 0.001451 0.000908 0.000000 0.033086 0.000000
# 6 0.000000 0.000000 0.000000 -0.013476 0.000000 0.049676
#
#
# Mechanical properties :
#
#
# Convention : Reuss Voigt Hill
#
# Bulk Modulus (GPa) = 15.34222 41.44656 28.39439
# Shear Modulus (GPa) = 17.78813 30.36338 24.07576
#
# Velocity S-wave (km/s) = 2.91410 3.80728 3.39023
# Velocity P-wave (km/s) = 4.31821 6.25408 5.37403
#
# Compressibility (1/GPa) = 0.06517962
#
# Stress axis : x y z
#
# Youngs Moduli (GPa) = 12.90974 78.25015 120.85807
#
# Poissons Ratio (x) = 0.28833 1.46237
# Poissons Ratio (y) = 0.04757 0.10670
# Poissons Ratio (z) = 0.15621 0.06908
#
# Static dielectric constant tensor:
#      x y z
#    x 1.732980 0.000000 0.010080 
#    y 0.000000 1.754050 0.000000 
#    z 0.010080 0.000000 1.824650 
# 
# From -- ./inp_files/353093.got.cif
#   From: 2010.05.17/outbox.cif.g08.bks.cpg/sg12_177_cif.got.tgz:353093.got - 2010.06.03 13:09:07.
