data_PCOD9217533
_publ_section_title
;
Structure prediction by ZEFSAII (Michael W. Deem and Ramdas Pophale) SiO2 
 PCOD9217533
Probable space group: C 2/M
;
_chemical_formula_sum "Si O2"
_cell_formula_units_Z 56
_cell_length_a 20.252936
_cell_length_b 8.804490
_cell_length_c 25.506798
_cell_angle_alpha 90.000000
_cell_angle_beta 39.692894
_cell_angle_gamma 90.000000
_cell_volume 2904.867175
_symmetry_space_group_name_H-M "C 2/M"
_symmetry_group_IT_number 12
_symmetry_cell_setting 'monoclinic'
loop_
_space_group_symop_operation_xyz
x,y,z
-x,y,-z
-x,-y,-z
x,-y,z
1/2+x,1/2+y,z
1/2-x,1/2+y,-z
1/2-x,1/2-y,-z
1/2+x,1/2-y,z
loop_
_atom_site_type_symbol
_atom_site_label
_atom_site_fract_x
_atom_site_fract_y
_atom_site_fract_z
Si Si1 0.136260 0.319938 0.566347
Si Si2 0.494326 0.321277 0.442660
Si Si3 0.944628 0.681656 0.978098
Si Si4 0.232150 0.319229 0.140346
Si Si5 0.274045 0.677965 0.741907
Si Si6 0.912650 0.180964 0.199663
Si Si7 0.491091 0.318442 0.745345
O O1 0.140484 0.500000 0.570398
O O2 0.250000 0.250000 0.500000
O O3 0.062621 0.248175 0.655779
O O4 0.085304 0.276237 0.542042
O O5 0.500000 0.278751 0.500000
O O6 0.534867 0.500000 0.542756
O O7 0.608000 0.305721 0.348236
O O8 0.944217 0.500000 0.971913
O O9 0.008796 0.757785 0.892305
O O10 0.828666 0.745091 0.051486
O O11 0.000000 0.715933 0.000000
O O12 0.234595 0.500000 0.133784
O O13 0.243332 0.270999 0.194346
O O14 0.122377 0.254278 0.188576
O O15 0.253365 0.500000 0.765191
O O16 0.195841 0.737706 0.745770
O O17 0.956714 0.212562 0.230430
O O18 0.900544 0.000000 0.201554
O O19 0.481911 0.500000 0.743818
#
# Coordination Sequence:
#
# PCOD9217533 Si02
#       7
#     8   8   8   8   8   8   8
#     4  12  26  44  68  96 130 172 215 264 321 380
#     4  10  23  43  67  98 132 169 213 264 320 379
#     4  11  23  40  65  95 128 169 214 263 322 380
#     4  12  24  40  67  96 127 170 216 262 318 380
#     4  11  22  39  65  94 131 171 212 264 320 379
#     4  11  25  42  65  96 130 168 215 269 318 377
#     4  11  25  46  67  94 132 171 214 263 320 382
#
# _framework density 19.277989999999999
#
# number of rings (size 3 to 8) (size 9 to 14) (size 15 to 20)
#    0.000    0.857    2.857    4.286    2.000    4.286 
#    0.000    0.000    0.000    0.000    0.000    0.000 
#    0.000    0.000    0.000    0.000    0.000    0.000 
#
# Total GULP energy -156711.790184 kJ/mol
# GULP energy per Si atom -5596.849649 kJ/mol
# Density = 1.923411 g / cm^3
# Si number density = 19.277990 Si / 1000 Ang^3
#
#
#
# Elastic Constant Matrix: (Units=GPa)
#
#
# Indices 1 2 3 4 5 6 
#
# 1 103.0187 49.1347 27.4631 -0.0003 -15.7458 0.0002
# 2 49.1347 73.4934 22.6596 -0.0003 -8.7125 0.0004
# 3 27.4631 22.6596 55.5062 -0.0001 -15.0789 0.0001
# 4 -0.0003 -0.0003 -0.0001 26.0285 0.0000 -5.1688
# 5 -15.7458 -8.7125 -15.0789 0.0000 39.9076 -0.0001
# 6 0.0002 0.0004 0.0001 -5.1688 -0.0001 33.2388
#
#
#
# Elastic Compliance Matrix: (Units=1/GPa)
#
#
# Indices 1 2 3 4 5 6 
#
# 1 0.015207 -0.008862 -0.003122 0.000000 0.002886 0.000000
# 2 -0.008862 0.020775 -0.004250 0.000000 -0.000567 0.000000
# 3 -0.003122 -0.004250 0.023078 0.000000 0.006560 0.000000
# 4 0.000000 0.000000 0.000000 0.039644 0.000000 0.006165
# 5 0.002886 -0.000567 0.006560 0.000000 0.028551 0.000000
# 6 0.000000 0.000000 0.000000 0.006165 0.000000 0.031044
#
#
# Mechanical properties :
#
#
# Convention : Reuss Voigt Hill
#
# Bulk Modulus (GPa) = 37.60751 47.83699 42.72225
# Shear Modulus (GPa) = 25.04608 28.68571 26.86590
#
# Velocity S-wave (km/s) = 3.60836 3.86165 3.73715
# Velocity P-wave (km/s) = 6.07542 6.68964 6.38991
#
# Compressibility (1/GPa) = 0.02659044
#
# Stress axis : x y z
#
# Youngs Moduli (GPa) = 65.75844 48.13539 43.33107
#
# Poissons Ratio (x) = 0.42658 0.13530
# Poissons Ratio (y) = 0.58276 0.18417
# Poissons Ratio (z) = 0.20532 0.20459
#
# Static dielectric constant tensor:
#      x y z
#    x 1.655390 0.000000 -0.001630 
#    y 0.000000 1.643880 0.000000 
#    z -0.001630 0.000000 1.643490 
# 
# From -- ./inp_files/362900.got.cif
#   From: 2010.05.17/outbox.cif.g08.bks.cpg/sg12_182_cif.got.tgz:362900.got - 2010.06.03 13:09:07.
