data_PCOD9217474
_publ_section_title
;
Structure prediction by ZEFSAII (Michael W. Deem and Ramdas Pophale) SiO2 
 PCOD9217474
Probable space group: C 2/M
;
_chemical_formula_sum "Si O2"
_cell_formula_units_Z 48
_cell_length_a 27.262737
_cell_length_b 8.818836
_cell_length_c 16.941614
_cell_angle_alpha 90.000000
_cell_angle_beta 36.636863
_cell_angle_gamma 90.000000
_cell_volume 2430.645236
_symmetry_space_group_name_H-M "C 2/M"
_symmetry_group_IT_number 12
_symmetry_cell_setting 'monoclinic'
loop_
_space_group_symop_operation_xyz
x,y,z
-x,y,-z
-x,-y,-z
x,-y,z
1/2+x,1/2+y,z
1/2-x,1/2+y,-z
1/2-x,1/2-y,-z
1/2+x,1/2-y,z
loop_
_atom_site_type_symbol
_atom_site_label
_atom_site_fract_x
_atom_site_fract_y
_atom_site_fract_z
Si Si1 0.853966 0.680496 0.510634
Si Si2 0.510711 0.321788 0.392705
Si Si3 0.313313 0.818540 0.237617
Si Si4 0.569517 0.820365 0.061467
Si Si5 0.840031 0.679856 0.888758
Si Si6 0.109844 0.819802 0.703407
O O1 0.848869 0.500000 0.514827
O O2 0.777105 0.749808 0.656920
O O3 0.852399 0.746357 0.424054
O O4 0.939156 0.732608 0.439682
O O5 0.500000 0.303847 0.500000
O O6 0.503961 0.500000 0.381752
O O7 0.598087 0.258877 0.251929
O O8 0.349351 0.748551 0.271136
O O9 0.307569 0.000000 0.252063
O O10 0.374293 0.784076 0.086516
O O11 0.621088 0.796717 0.074586
O O12 0.486341 0.724685 0.170804
O O13 0.547324 0.000000 0.086114
O O14 0.836908 0.500000 0.878194
O O15 0.750000 0.750000 0.000000
O O16 0.120568 0.000000 0.687376
#
# Coordination Sequence:
#
# PCOD9217474 Si02
#       6
#     8   8   8   8   8   8
#     4  12  25  43  66  95 131 168 215 266 320 379
#     4  11  25  45  69  97 130 168 212 262 322 383
#     4  11  24  42  65  94 131 172 215 263 320 379
#     4  10  23  43  66  93 129 172 213 262 320 380
#     4  11  24  43  68  98 131 169 215 262 317 379
#     4  12  24  41  66  95 129 170 217 265 320 379
#
# _framework density 19.747843
#
# number of rings (size 3 to 8) (size 9 to 14) (size 15 to 20)
#    0.000    0.833    1.667    5.500    2.333    5.333 
#    0.000    0.000    0.000    0.000    0.000    0.000 
#    0.000    0.000    0.000    0.000    0.000    0.000 
#
# Total GULP energy -134385.492508 kJ/mol
# GULP energy per Si atom -5599.395521 kJ/mol
# Density = 1.970290 g / cm^3
# Si number density = 19.747843 Si / 1000 Ang^3
#
#
#
# Elastic Constant Matrix: (Units=GPa)
#
#
# Indices 1 2 3 4 5 6 
#
# 1 42.5846 30.8634 15.9432 -0.0023 -11.1906 0.0004
# 2 30.8634 116.4082 50.1152 -0.0030 1.6804 0.0022
# 3 15.9432 50.1152 70.9056 -0.0028 -2.7437 0.0016
# 4 -0.0023 -0.0030 -0.0028 32.8768 0.0022 -6.5107
# 5 -11.1906 1.6804 -2.7437 0.0022 33.9374 -0.0008
# 6 0.0004 0.0022 0.0016 -6.5107 -0.0008 37.7388
#
#
#
# Elastic Compliance Matrix: (Units=1/GPa)
#
#
# Indices 1 2 3 4 5 6 
#
# 1 0.032932 -0.008469 -0.000986 0.000001 0.011199 0.000001
# 2 -0.008469 0.014585 -0.008567 0.000000 -0.004207 0.000000
# 3 -0.000986 -0.008567 0.020448 0.000001 0.001752 0.000000
# 4 0.000001 0.000000 0.000001 0.031493 -0.000002 0.005433
# 5 0.011199 -0.004207 0.001752 -0.000002 0.033509 0.000000
# 6 0.000001 0.000000 0.000000 0.005433 0.000000 0.027435
#
#
# Mechanical properties :
#
#
# Convention : Reuss Voigt Hill
#
# Bulk Modulus (GPa) = 31.32663 47.08244 39.20453
# Shear Modulus (GPa) = 24.14472 29.77570 26.96021
#
# Velocity S-wave (km/s) = 3.50044 3.88725 3.69890
# Velocity P-wave (km/s) = 5.67760 6.63635 6.17561
#
# Compressibility (1/GPa) = 0.03192173
#
# Stress axis : x y z
#
# Youngs Moduli (GPa) = 30.36530 68.56551 48.90518
#
# Poissons Ratio (x) = 0.58065 0.04823
# Poissons Ratio (y) = 0.25715 0.41896
# Poissons Ratio (z) = 0.02994 0.58739
#
# Static dielectric constant tensor:
#      x y z
#    x 1.668630 0.000000 -0.004180 
#    y 0.000000 1.660800 0.000000 
#    z -0.004180 0.000000 1.672730 
# 
# From -- ./inp_files/244643.got.cif
#   From: 2010.05.17/outbox.cif.g08.bks.cpg/sg12_123_cif.got.tgz:244643.got - 2010.06.03 13:09:07.
