data_PCOD9217081
_publ_section_title
;
Structure prediction by ZEFSAII (Michael W. Deem and Ramdas Pophale) SiO2 
 PCOD9217081
Probable space group: C 2/M
;
_chemical_formula_sum "Si O2"
_cell_formula_units_Z 54
_cell_length_a 5.365932
_cell_length_b 29.405275
_cell_length_c 16.832313
_cell_angle_alpha 90.000000
_cell_angle_beta 122.312152
_cell_angle_gamma 90.000000
_cell_volume 2244.642720
_symmetry_space_group_name_H-M "C 2/M"
_symmetry_group_IT_number 12
_symmetry_cell_setting 'monoclinic'
loop_
_space_group_symop_operation_xyz
x,y,z
-x,y,-z
-x,-y,-z
x,-y,z
1/2+x,1/2+y,z
1/2-x,1/2+y,-z
1/2-x,1/2-y,-z
1/2+x,1/2-y,z
loop_
_atom_site_type_symbol
_atom_site_label
_atom_site_fract_x
_atom_site_fract_y
_atom_site_fract_z
Si Si1 0.807859 0.077226 0.163581
Si Si2 0.500000 0.000000 0.000000
Si Si3 0.292399 0.138963 0.604744
Si Si4 0.500000 0.902947 0.500000
Si Si5 0.661363 0.266461 0.652435
Si Si6 0.899065 0.231762 0.863594
Si Si7 0.784039 0.128142 0.888707
Si Si8 0.585252 0.550670 0.643035
O O1 0.543510 0.111856 0.143576
O O2 0.068863 0.101211 0.159368
O O3 0.933164 0.055047 0.265288
O O4 0.657358 0.039582 0.082156
O O5 0.542956 0.130737 0.582180
O O6 0.273325 0.182472 0.656671
O O7 0.000000 0.142836 0.500000
O O8 0.291106 0.091853 0.651097
O O9 0.220531 0.936044 0.451767
O O10 0.311247 0.261567 0.606138
O O11 0.772009 0.246790 0.755728
O O12 0.744362 0.262874 0.903939
O O13 0.807998 0.181139 0.871528
O O14 0.000000 0.119184 0.000000
O O15 0.681672 0.500000 0.637966
#
# Coordination Sequence:
#
# PCOD9217081 Si02
#       8
#     8   2   8   4   8   8   8   8
#     4  12  28  46  80 111 155 200 254 312 384 458
#     4  12  24  58  72 124 154 198 256 330 376 452
#     4  10  25  45  70 100 146 189 247 308 377 452
#     4  10  25  48  74 106 156 190 252 320 377 468
#     4  10  24  40  67 100 137 189 237 304 362 437
#     4  10  23  41  67 101 142 191 249 305 369 443
#     4  12  26  47  73 110 150 205 249 318 383 450
#     4  11  26  46  74 114 144 202 251 314 388 462
#
# _framework density 24.057278
#
# number of rings (size 3 to 8) (size 9 to 14) (size 15 to 20)
#    0.000    1.185    2.222    1.111   14.519    5.630 
#    0.000    0.000    0.000    0.000    0.000    0.000 
#    0.000    0.000    0.000    0.000    0.000    0.000 
#
# Total GULP energy -150654.867721 kJ/mol
# GULP energy per Si atom -5579.809916 kJ/mol
# Density = 2.400252 g / cm^3
# Si number density = 24.057278 Si / 1000 Ang^3
#
#
#
# Elastic Constant Matrix: (Units=GPa)
#
#
# Indices 1 2 3 4 5 6 
#
# 1 122.8474 54.5319 21.6455 0.0000 -25.1806 0.0000
# 2 54.5319 179.7742 9.6320 0.0000 -17.7616 0.0000
# 3 21.6455 9.6320 82.5593 0.0000 10.2743 0.0000
# 4 0.0000 0.0000 0.0000 29.6746 0.0000 3.9864
# 5 -25.1806 -17.7616 10.2743 0.0000 30.9902 0.0000
# 6 0.0000 0.0000 0.0000 3.9864 0.0000 10.5081
#
#
#
# Elastic Compliance Matrix: (Units=1/GPa)
#
#
# Indices 1 2 3 4 5 6 
#
# 1 0.011906 -0.002446 -0.004032 0.000000 0.009609 0.000000
# 2 -0.002446 0.006507 -0.000349 0.000000 0.001857 0.000000
# 3 -0.004032 -0.000349 0.014230 0.000000 -0.008194 0.000000
# 4 0.000000 0.000000 0.000000 0.035508 0.000000 -0.013470
# 5 0.009609 0.001857 -0.008194 0.000000 0.043857 0.000000
# 6 0.000000 0.000000 0.000000 -0.013470 0.000000 0.100274
#
#
# Mechanical properties :
#
#
# Convention : Reuss Voigt Hill
#
# Bulk Modulus (GPa) = 52.66281 61.86661 57.26471
# Shear Modulus (GPa) = 21.52705 34.19269 27.85987
#
# Velocity S-wave (km/s) = 2.99461 3.77411 3.40673
# Velocity P-wave (km/s) = 5.82194 6.69059 6.27133
#
# Compressibility (1/GPa) = 0.01898873
#
# Stress axis : x y z
#
# Youngs Moduli (GPa) = 83.99130 153.68687 70.27407
#
# Poissons Ratio (x) = 0.37594 0.28334
# Poissons Ratio (y) = 0.20545 0.02452
# Poissons Ratio (z) = 0.33865 0.05363
#
# Static dielectric constant tensor:
#      x y z
#    x 2.099350 0.000000 0.090040 
#    y 0.000000 1.894530 0.000000 
#    z 0.090040 0.000000 2.052000 
# 
# From -- ./inp_files/253668.got.cif
#   From: 2010.05.17/outbox.cif.g08.bks.cpg/sg12_127_cif.got.tgz:253668.got - 2010.06.03 13:09:07.
