data_PCOD9217223
_publ_section_title
;
Structure prediction by ZEFSAII (Michael W. Deem and Ramdas Pophale) SiO2 
 PCOD9217223
Probable space group: C 2/M
;
_chemical_formula_sum "Si O2"
_cell_formula_units_Z 56
_cell_length_a 14.088765
_cell_length_b 8.682197
_cell_length_c 25.450179
_cell_angle_alpha 90.000000
_cell_angle_beta 124.853256
_cell_angle_gamma 90.000000
_cell_volume 2554.669026
_symmetry_space_group_name_H-M "C 2/M"
_symmetry_group_IT_number 12
_symmetry_cell_setting 'monoclinic'
loop_
_space_group_symop_operation_xyz
x,y,z
-x,y,-z
-x,-y,-z
x,-y,z
1/2+x,1/2+y,z
1/2-x,1/2+y,-z
1/2-x,1/2-y,-z
1/2+x,1/2-y,z
loop_
_atom_site_type_symbol
_atom_site_label
_atom_site_fract_x
_atom_site_fract_y
_atom_site_fract_z
Si Si1 0.751693 0.678321 0.368063
Si Si2 0.133174 0.681611 0.486623
Si Si3 0.485989 0.247074 0.722008
Si Si4 0.186579 0.683674 0.929612
Si Si5 0.924332 0.167872 0.359226
Si Si6 0.929036 0.683739 0.816579
Si Si7 0.758380 0.326513 0.168482
O O1 0.710466 0.500000 0.356933
O O2 0.844915 0.695599 0.444151
O O3 0.642661 0.792377 0.340707
O O4 0.820709 0.714232 0.336884
O O5 0.117481 0.500000 0.470106
O O6 0.250000 0.750000 0.500000
O O7 0.031026 0.777095 0.428271
O O8 0.533578 0.339749 0.687155
O O9 0.443872 0.284781 0.768092
O O10 0.605911 0.161313 0.773075
O O11 0.201300 0.500000 0.933666
O O12 0.237905 0.739190 0.889783
O O13 0.048521 0.711272 0.885715
O O14 0.250000 0.750000 0.000000
O O15 0.883471 0.000000 0.363439
O O16 0.924192 0.500000 0.800400
O O17 0.818854 0.726856 0.816607
O O18 0.710378 0.500000 0.153207
#
# Coordination Sequence:
#
# PCOD9217223 Si02
#       7
#     8   8   8   8   8   8   8
#     4  11  25  44  64  91 124 162 206 259 319 382
#     4  11  23  43  67  91 123 162 205 259 321 384
#     4  11  23  41  64  88 122 164 209 259 309 372
#     4   9  20  40  64  94 131 168 210 256 306 368
#     4  12  26  43  64  95 125 160 209 261 318 385
#     4  10  23  42  64  93 128 167 213 260 310 370
#     4  10  23  42  64  93 129 168 212 260 314 371
#
# _framework density 21.920648
#
# number of rings (size 3 to 8) (size 9 to 14) (size 15 to 20)
#    0.000    1.429    1.429    3.857    0.000   12.571 
#    0.000    7.143    0.000    0.000    0.000    0.000 
#    0.000    0.000    0.000    0.000    0.000    0.000 
#
# Total GULP energy -155987.419191 kJ/mol
# GULP energy per Si atom -5570.979257 kJ/mol
# Density = 2.187076 g / cm^3
# Si number density = 21.920648 Si / 1000 Ang^3
#
#
#
# Elastic Constant Matrix: (Units=GPa)
#
#
# Indices 1 2 3 4 5 6 
#
# 1 148.5120 25.9828 39.7732 0.0000 -17.4069 0.0000
# 2 25.9828 39.0305 39.7385 0.0000 -9.6261 0.0000
# 3 39.7732 39.7385 125.4804 0.0000 -6.2961 0.0000
# 4 0.0000 0.0000 0.0000 -18.2900 0.0000 4.8941
# 5 -17.4069 -9.6261 -6.2961 0.0000 28.9963 0.0000
# 6 0.0000 0.0000 0.0000 4.8941 0.0000 16.5288
#
#
#
# Elastic Compliance Matrix: (Units=1/GPa)
#
#
# Indices 1 2 3 4 5 6 
#
# 1 0.008059 -0.003065 -0.001407 0.000000 0.003515 0.000000
# 2 -0.003065 0.042125 -0.011889 0.000000 0.009563 0.000000
# 3 -0.001407 -0.011889 0.012072 0.000000 -0.002171 0.000000
# 4 0.000000 0.000000 0.000000 -0.050661 0.000000 0.015000
# 5 0.003515 0.009563 -0.002171 0.000000 0.039300 0.000000
# 6 0.000000 0.000000 0.000000 0.015000 0.000000 0.056059
#
#
# Mechanical properties :
#
#
# Convention : Reuss Voigt Hill
#
# Bulk Modulus (GPa) = 33.86148 58.22354 46.04251
# Shear Modulus (GPa) = 33.44018 19.28223 26.36120
#
# Velocity S-wave (km/s) = 3.91002 2.96909 3.47158
# Velocity P-wave (km/s) = 5.98875 6.19457 6.09253
#
# Compressibility (1/GPa) = 0.02953208
#
# Stress axis : x y z
#
# Youngs Moduli (GPa) = 124.09234 23.73899 82.83811
#
# Poissons Ratio (x) = 0.07276 0.11658
# Poissons Ratio (y) = 0.38034 0.98488
# Poissons Ratio (z) = 0.17463 0.28224
#
# Static dielectric constant tensor:
#      x y z
#    x 1.770880 0.000000 -0.021210 
#    y 0.000000 1.813380 0.000000 
#    z -0.021210 0.000000 1.829520 
# 
# From -- ./inp_files/339062.got.cif
#   From: 2010.05.17/outbox.cif.g08.bks.cpg/sg12_170_cif.got.tgz:339062.got - 2010.06.03 13:09:07.
