data_PCOD9217744
_publ_section_title
;
Structure prediction by ZEFSAII (Michael W. Deem and Ramdas Pophale) SiO2 
 PCOD9217744
Probable space group: C 2/M
;
_chemical_formula_sum "Si O2"
_cell_formula_units_Z 48
_cell_length_a 23.670514
_cell_length_b 9.930252
_cell_length_c 12.574156
_cell_angle_alpha 90.000000
_cell_angle_beta 134.864526
_cell_angle_gamma 90.000000
_cell_volume 2094.866036
_symmetry_space_group_name_H-M "C 2/M"
_symmetry_group_IT_number 12
_symmetry_cell_setting 'monoclinic'
loop_
_space_group_symop_operation_xyz
x,y,z
-x,y,-z
-x,-y,-z
x,-y,z
1/2+x,1/2+y,z
1/2-x,1/2+y,-z
1/2-x,1/2-y,-z
1/2+x,1/2-y,z
loop_
_atom_site_type_symbol
_atom_site_label
_atom_site_fract_x
_atom_site_fract_y
_atom_site_fract_z
Si Si1 0.355858 0.157754 0.227700
Si Si2 0.890974 0.760704 0.496170
Si Si3 0.326588 0.842290 0.617715
Si Si4 0.919581 0.711750 0.938826
Si Si5 0.254204 0.856708 0.819919
Si Si6 0.447138 0.649481 0.190966
O O1 0.405113 0.188191 0.402016
O O2 0.271328 0.228247 0.144453
O O3 0.397049 0.237918 0.187240
O O4 0.350697 0.000000 0.202058
O O5 0.871039 0.658188 0.563737
O O6 0.810265 0.844113 0.361891
O O7 0.965714 0.842813 0.638955
O O8 0.250000 0.750000 0.500000
O O9 0.376655 0.757664 0.770677
O O10 0.315582 0.000000 0.634723
O O11 0.844285 0.645030 0.898942
O O12 0.947858 0.817518 0.065857
O O13 0.000000 0.643440 0.000000
O O14 0.238625 0.000000 0.853304
O O15 0.414279 0.500000 0.163514
#
# Coordination Sequence:
#
# PCOD9217744 Si02
#       6
#     8   8   8   8   8   8
#     4  10  24  46  76 111 148 187 241 302 367 435
#     4  10  23  44  73 107 141 189 243 296 357 426
#     4  12  25  46  75 105 144 194 245 302 357 435
#     4  12  27  48  67 110 146 194 238 304 367 430
#     4  10  23  45  74 104 141 190 245 295 353 430
#     4  12  27  47  75 108 148 192 243 305 365 434
#
# _framework density 22.913160999999999
#
# number of rings (size 3 to 8) (size 9 to 14) (size 15 to 20)
#    1.000    0.000    3.333    2.500    0.000    8.333 
#    0.000    0.000    0.000    0.000    0.000    0.000 
#    0.000    0.000    0.000    0.000    0.000    0.000 
#
# Total GULP energy -133679.945793 kJ/mol
# GULP energy per Si atom -5569.997741 kJ/mol
# Density = 2.286101 g / cm^3
# Si number density = 22.913161 Si / 1000 Ang^3
#
#
#
# Elastic Constant Matrix: (Units=GPa)
#
#
# Indices 1 2 3 4 5 6 
#
# 1 124.2169 65.9543 52.1026 0.0000 0.3024 0.0000
# 2 65.9543 173.7752 35.4139 0.0000 3.1524 0.0000
# 3 52.1026 35.4139 170.2310 0.0000 -13.8361 0.0000
# 4 0.0000 0.0000 0.0000 -13.2161 0.0000 -12.3730
# 5 0.3024 3.1524 -13.8361 0.0000 58.1746 0.0000
# 6 0.0000 0.0000 0.0000 -12.3730 0.0000 -3.7223
#
#
#
# Elastic Compliance Matrix: (Units=1/GPa)
#
#
# Indices 1 2 3 4 5 6 
#
# 1 0.011123 -0.003666 -0.002682 0.000000 -0.000497 0.000000
# 2 -0.003666 0.007241 -0.000423 0.000000 -0.000474 0.000000
# 3 -0.002682 -0.000423 0.006920 0.000000 0.001683 0.000000
# 4 0.000000 0.000000 0.000000 0.035827 0.000000 -0.119089
# 5 -0.000497 -0.000474 0.001683 0.000000 0.017618 0.000000
# 6 0.000000 0.000000 0.000000 -0.119089 0.000000 0.127204
#
#
# Mechanical properties :
#
#
# Convention : Reuss Voigt Hill
#
# Bulk Modulus (GPa) = 85.16510 86.12941 85.64725
# Shear Modulus (GPa) = 22.38247 29.23072 25.80660
#
# Velocity S-wave (km/s) = 3.12883 3.57559 3.35965
# Velocity P-wave (km/s) = 7.09240 7.39713 7.24637
#
# Compressibility (1/GPa) = 0.01174190
#
# Stress axis : x y z
#
# Youngs Moduli (GPa) = 89.90191 138.10783 144.50790
#
# Poissons Ratio (x) = 0.50631 0.38760
# Poissons Ratio (y) = 0.32959 0.06109
# Poissons Ratio (z) = 0.24114 0.05839
#
# Static dielectric constant tensor:
#      x y z
#    x 1.892740 0.000000 0.019040 
#    y 0.000000 1.977450 0.000000 
#    z 0.019040 0.000000 1.902880 
# 
# From -- ./inp_files/244870.got.cif
#   From: 2010.05.17/outbox.cif.g08.bks.cpg/sg12_123_cif.got.tgz:244870.got - 2010.06.03 13:09:07.
