data_PCOD9217095
_publ_section_title
;
Structure prediction by ZEFSAII (Michael W. Deem and Ramdas Pophale) SiO2 
 PCOD9217095
Probable space group: C 2/M
;
_chemical_formula_sum "Si O2"
_cell_formula_units_Z 60
_cell_length_a 24.440525
_cell_length_b 15.691884
_cell_length_c 14.673956
_cell_angle_alpha 90.000000
_cell_angle_beta 147.905557
_cell_angle_gamma 90.000000
_cell_volume 2990.102437
_symmetry_space_group_name_H-M "C 2/M"
_symmetry_group_IT_number 12
_symmetry_cell_setting 'monoclinic'
loop_
_space_group_symop_operation_xyz
x,y,z
-x,y,-z
-x,-y,-z
x,-y,z
1/2+x,1/2+y,z
1/2-x,1/2+y,-z
1/2-x,1/2-y,-z
1/2+x,1/2-y,z
loop_
_atom_site_type_symbol
_atom_site_label
_atom_site_fract_x
_atom_site_fract_y
_atom_site_fract_z
Si Si1 0.353772 0.846292 0.960256
Si Si2 0.466774 0.772888 0.553124
Si Si3 0.272150 0.093498 0.655032
Si Si4 0.243824 0.836494 0.185101
Si Si5 0.944740 0.707293 0.824538
Si Si6 0.458349 0.642433 0.705249
Si Si7 0.649863 0.100639 0.844274
Si Si8 0.619738 0.500000 0.005457
O O1 0.298566 0.891420 0.798351
O O2 0.329086 0.745741 0.917896
O O3 0.476716 0.853400 0.120563
O O4 0.318122 0.880259 0.007219
O O5 0.500000 0.739399 0.500000
O O6 0.349049 0.805199 0.382394
O O7 0.484488 0.702625 0.655691
O O8 0.541003 0.853045 0.675877
O O9 0.335772 0.163845 0.689279
O O10 0.151004 0.100077 0.470481
O O11 0.309715 0.000000 0.681126
O O12 0.274571 0.859548 0.124253
O O13 0.193409 0.922761 0.151220
O O14 0.937981 0.794854 0.761383
O O15 0.000000 0.719207 0.000000
O O16 0.545338 0.574757 0.854031
O O17 0.645205 0.000000 0.821419
#
# Coordination Sequence:
#
# PCOD9217095 Si02
#       8
#     8   8   8   8   8   8   8   4
#     4  11  21  40  66  91 131 168 215 266 336 390
#     4  10  23  41  68  96 133 176 219 260 328 402
#     4  11  24  42  67  95 123 166 216 282 332 386
#     4  11  22  40  63  96 132 175 212 264 330 388
#     4  10  23  41  68  90 124 167 217 273 333 391
#     4  12  22  46  66  94 132 174 217 265 333 403
#     4  11  22  37  62  96 131 170 220 266 313 391
#     4  12  24  40  71  96 133 176 222 270 328 384
#
# _framework density 20.066201
#
# number of rings (size 3 to 8) (size 9 to 14) (size 15 to 20)
#    0.000    1.067    5.333    1.200    0.933    4.800 
#    0.000    0.667    2.933    0.000    0.000    0.000 
#    0.000    0.000    0.000    0.000    0.000    0.000 
#
# Total GULP energy -167079.121476 kJ/mol
# GULP energy per Si atom -5569.304049 kJ/mol
# Density = 2.002053 g / cm^3
# Si number density = 20.066201 Si / 1000 Ang^3
#
#
#
# Elastic Constant Matrix: (Units=GPa)
#
#
# Indices 1 2 3 4 5 6 
#
# 1 35.1928 22.7026 -1.2993 0.0000 -5.5272 0.0000
# 2 22.7026 92.7414 18.4160 0.0000 -1.1005 0.0000
# 3 -1.2993 18.4160 44.1279 0.0000 18.0632 0.0000
# 4 0.0000 0.0000 0.0000 23.0779 0.0000 6.8613
# 5 -5.5272 -1.1005 18.0632 0.0000 25.9127 0.0000
# 6 0.0000 0.0000 0.0000 6.8613 0.0000 6.3093
#
#
#
# Elastic Compliance Matrix: (Units=1/GPa)
#
#
# Indices 1 2 3 4 5 6 
#
# 1 0.035201 -0.009086 0.002677 0.000000 0.005257 0.000000
# 2 -0.009086 0.014687 -0.008198 0.000000 0.004400 0.000000
# 3 0.002677 -0.008198 0.036479 0.000000 -0.025206 0.000000
# 4 0.000000 0.000000 0.000000 0.064036 0.000000 -0.069639
# 5 0.005257 0.004400 -0.025206 0.000000 0.057470 0.000000
# 6 0.000000 0.000000 0.000000 -0.069639 0.000000 0.234228
#
#
# Mechanical properties :
#
#
# Convention : Reuss Voigt Hill
#
# Bulk Modulus (GPa) = 17.49722 27.96674 22.73198
# Shear Modulus (GPa) = 10.19645 19.87617 15.03631
#
# Velocity S-wave (km/s) = 2.25664 3.15068 2.74037
# Velocity P-wave (km/s) = 3.94063 5.21567 4.62233
#
# Compressibility (1/GPa) = 0.05715193
#
# Stress axis : x y z
#
# Youngs Moduli (GPa) = 28.40854 68.08714 27.41273
#
# Poissons Ratio (x) = 0.61865 -0.07337
# Poissons Ratio (y) = 0.25812 0.22473
# Poissons Ratio (z) = -0.07604 0.55819
#
# Static dielectric constant tensor:
#      x y z
#    x 1.740930 0.000000 0.007360 
#    y 0.000000 1.678350 0.000000 
#    z 0.007360 0.000000 1.720040 
# 
# From -- ./inp_files/246741.got.cif
#   From: 2010.05.17/outbox.cif.g08.bks.cpg/sg12_124_cif.got.tgz:246741.got - 2010.06.03 13:09:07.
