data_PCOD9217225
_publ_section_title
;
Structure prediction by ZEFSAII (Michael W. Deem and Ramdas Pophale) SiO2 
 PCOD9217225
Probable space group: C 2/M
;
_chemical_formula_sum "Si O2"
_cell_formula_units_Z 48
_cell_length_a 29.288389
_cell_length_b 8.308212
_cell_length_c 14.779324
_cell_angle_alpha 90.000000
_cell_angle_beta 38.915363
_cell_angle_gamma 90.000000
_cell_volume 2259.102818
_symmetry_space_group_name_H-M "C 2/M"
_symmetry_group_IT_number 12
_symmetry_cell_setting 'monoclinic'
loop_
_space_group_symop_operation_xyz
x,y,z
-x,y,-z
-x,-y,-z
x,-y,z
1/2+x,1/2+y,z
1/2-x,1/2+y,-z
1/2-x,1/2-y,-z
1/2+x,1/2-y,z
loop_
_atom_site_type_symbol
_atom_site_label
_atom_site_fract_x
_atom_site_fract_y
_atom_site_fract_z
Si Si1 0.112521 0.309294 0.072780
Si Si2 0.496273 0.808313 0.607874
Si Si3 0.070221 0.192253 0.950756
Si Si4 0.850829 0.811406 0.583843
Si Si5 0.774433 0.305881 0.363131
Si Si6 0.236236 0.314343 0.121509
O O1 0.129389 0.500000 0.054947
O O2 0.069516 0.251301 0.227739
O O3 0.067356 0.279060 0.052002
O O4 0.186731 0.211661 0.948618
O O5 0.500000 0.741463 0.500000
O O6 0.571963 0.774474 0.541290
O O7 0.486476 0.000000 0.615815
O O8 0.146504 0.238895 0.785873
O O9 0.068937 0.000000 0.966342
O O10 0.000000 0.236851 0.000000
O O11 0.788179 0.753689 0.611728
O O12 0.821724 0.781569 0.730158
O O13 0.861670 0.000000 0.551321
O O14 0.778323 0.500000 0.353187
O O15 0.750000 0.250000 0.500000
O O16 0.214238 0.500000 0.152665
O O17 0.250000 0.250000 0.000000
#
# Coordination Sequence:
#
# PCOD9217225 Si02
#       6
#     8   8   8   8   8   8
#     4  11  23  41  65  96 131 168 216 267 321 385
#     4  10  23  42  64  93 130 173 216 262 319 383
#     4  11  25  44  67  96 130 170 216 266 326 389
#     4  11  24  42  65  95 130 168 214 267 320 384
#     4  11  25  44  68  97 131 169 216 268 326 390
#     4  12  24  40  66  95 128 169 213 264 322 383
#
# _framework density 21.247371999999999
#
# number of rings (size 3 to 8) (size 9 to 14) (size 15 to 20)
#    0.000    1.000    1.667    4.500    2.333    6.333 
#    0.000    0.000    0.000    0.000    0.000    0.000 
#    0.000    0.000    0.000    0.000    0.000    0.000 
#
# Total GULP energy -134266.711990 kJ/mol
# GULP energy per Si atom -5594.446333 kJ/mol
# Density = 2.119901 g / cm^3
# Si number density = 21.247372 Si / 1000 Ang^3
#
#
#
# Elastic Constant Matrix: (Units=GPa)
#
#
# Indices 1 2 3 4 5 6 
#
# 1 84.2242 3.0976 6.8203 -0.0001 2.3626 0.0000
# 2 3.0976 20.0964 -3.4635 -0.0012 2.4556 0.0001
# 3 6.8203 -3.4635 92.4747 -0.0004 4.5783 0.0000
# 4 -0.0001 -0.0012 -0.0004 28.4249 0.0001 -2.2941
# 5 2.3626 2.4556 4.5783 0.0001 39.1868 0.0000
# 6 0.0000 0.0001 0.0000 -2.2941 0.0000 32.5953
#
#
#
# Elastic Compliance Matrix: (Units=1/GPa)
#
#
# Indices 1 2 3 4 5 6 
#
# 1 0.012035 -0.001956 -0.000936 0.000000 -0.000494 0.000000
# 2 -0.001956 0.050850 0.002214 0.000002 -0.003327 0.000000
# 3 -0.000936 0.002214 0.011034 0.000000 -0.001371 0.000000
# 4 0.000000 0.000002 0.000000 0.035381 0.000000 0.002490
# 5 -0.000494 -0.003327 -0.001371 0.000000 0.025917 0.000000
# 6 0.000000 0.000000 0.000000 0.002490 0.000000 0.030855
#
#
# Mechanical properties :
#
#
# Convention : Reuss Voigt Hill
#
# Bulk Modulus (GPa) = 13.78171 23.30045 18.54108
# Shear Modulus (GPa) = 26.09390 32.73081 29.41235
#
# Velocity S-wave (km/s) = 3.50823 3.92913 3.72463
# Velocity P-wave (km/s) = 4.78650 5.61909 5.21943
#
# Compressibility (1/GPa) = 0.07255996
#
# Stress axis : x y z
#
# Youngs Moduli (GPa) = 83.09314 19.66584 90.63198
#
# Poissons Ratio (x) = 0.03847 0.08487
# Poissons Ratio (y) = 0.16253 -0.20061
# Poissons Ratio (z) = 0.07781 -0.04353
#
# Static dielectric constant tensor:
#      x y z
#    x 1.809190 0.000000 0.003810 
#    y 0.000000 1.741500 0.000000 
#    z 0.003810 0.000000 1.742950 
# 
# From -- ./inp_files/244679.got.cif
#   From: 2010.05.17/outbox.cif.g08.bks.cpg/sg12_123_cif.got.tgz:244679.got - 2010.06.03 13:09:07.
