data_PCOD9217883
_publ_section_title
;
Structure prediction by ZEFSAII (Michael W. Deem and Ramdas Pophale) SiO2 
 PCOD9217883
Probable space group: C 2/M
;
_chemical_formula_sum "Si O2"
_cell_formula_units_Z 26
_cell_length_a 5.294689
_cell_length_b 28.999900
_cell_length_c 8.039849
_cell_angle_alpha 90.000000
_cell_angle_beta 118.043793
_cell_angle_gamma 90.000000
_cell_volume 1089.539836
_symmetry_space_group_name_H-M "C 2/M"
_symmetry_group_IT_number 12
_symmetry_cell_setting 'monoclinic'
loop_
_space_group_symop_operation_xyz
x,y,z
-x,y,-z
-x,-y,-z
x,-y,z
1/2+x,1/2+y,z
1/2-x,1/2+y,-z
1/2-x,1/2-y,-z
1/2+x,1/2-y,z
loop_
_atom_site_type_symbol
_atom_site_label
_atom_site_fract_x
_atom_site_fract_y
_atom_site_fract_z
Si Si1 0.736819 0.422137 0.823427
Si Si2 0.383615 0.780613 0.780141
Si Si3 0.000000 0.854895 0.500000
Si Si4 0.000000 0.000000 0.000000
Si Si5 0.662929 0.000000 0.380969
O O1 0.511779 0.389022 0.662556
O O2 0.581537 0.459599 0.888488
O O3 0.904641 0.453992 0.740725
O O4 0.000000 0.398089 0.000000
O O5 0.624171 0.753344 0.751917
O O6 0.262912 0.821434 0.627106
O O7 0.500000 0.794892 0.000000
O O8 0.500000 0.000000 0.500000
O O9 0.000000 0.000000 0.500000
#
# Coordination Sequence:
#
# PCOD9217883 Si02
#       5
#     8   8   4   2   4
#     4  11  26  43  69  99 146 197 246 311 356 440
#     4  10  23  49  78 106 150 192 230 294 376 446
#     4  12  24  45  68 118 140 188 252 307 356 436
#     4  10  24  50  66  96 146 206 250 294 384 416
#     4  11  24  45  71  99 134 194 247 299 373 426
#
# _framework density 23.863285999999999
#
# number of rings (size 3 to 8) (size 9 to 14) (size 15 to 20)
#    0.000    1.231    1.538    3.692    8.615    0.000 
#   24.923    0.000    0.000    0.000    0.000    0.000 
#    0.000    0.000    0.000    0.000    0.000    0.000 
#
# Total GULP energy -72413.362417 kJ/mol
# GULP energy per Si atom -5570.258647 kJ/mol
# Density = 2.380897 g / cm^3
# Si number density = 23.863286 Si / 1000 Ang^3
#
#
#
# Elastic Constant Matrix: (Units=GPa)
#
#
# Indices 1 2 3 4 5 6 
#
# 1 95.0208 25.6589 49.9874 0.0000 -3.0772 0.0000
# 2 25.6589 142.5749 82.5541 0.0000 14.2595 0.0000
# 3 49.9874 82.5541 183.2156 0.0000 20.8576 0.0000
# 4 0.0000 0.0000 0.0000 92.5176 0.0000 6.4637
# 5 -3.0772 14.2595 20.8576 0.0000 39.1286 0.0000
# 6 0.0000 0.0000 0.0000 6.4637 0.0000 -5.5962
#
#
#
# Elastic Compliance Matrix: (Units=1/GPa)
#
#
# Indices 1 2 3 4 5 6 
#
# 1 0.012640 -0.000518 -0.003566 0.000000 0.003084 0.000000
# 2 -0.000518 0.009569 -0.004012 0.000000 -0.001389 0.000000
# 3 -0.003566 -0.004012 0.008628 0.000000 -0.003417 0.000000
# 4 0.000000 0.000000 0.000000 0.010002 0.000000 0.011552
# 5 0.003084 -0.001389 -0.003417 0.000000 0.028127 0.000000
# 6 0.000000 0.000000 0.000000 0.011552 0.000000 -0.165351
#
#
# Mechanical properties :
#
#
# Convention : Reuss Voigt Hill
#
# Bulk Modulus (GPa) = 68.28851 81.91246 75.10048
# Shear Modulus (GPa) = -66.39190 42.71741 -11.83725
#
# Velocity S-wave (km/s) = -5.28036 4.23553 -2.22962
# Velocity P-wave (km/s) = 2.91506 7.63675 4.99111
#
# Compressibility (1/GPa) = 0.01464375
#
# Stress axis : x y z
#
# Youngs Moduli (GPa) = 79.11483 104.50173 115.90366
#
# Poissons Ratio (x) = 0.05417 0.41332
# Poissons Ratio (y) = 0.04101 0.46502
# Poissons Ratio (z) = 0.28213 0.41928
#
# Static dielectric constant tensor:
#      x y z
#    x 1.911680 0.000000 0.095500 
#    y 0.000000 1.851350 0.000000 
#    z 0.095500 0.000000 2.072130 
# 
# From -- ./inp_files/34451.got.cif
#   From: 2010.05.17/outbox.cif.g08.bks.cpg/sg12_18_cif.got.tgz:34451.got - 2010.06.03 13:09:07.
