data_PCOD9217017
_publ_section_title
;
Structure prediction by ZEFSAII (Michael W. Deem and Ramdas Pophale) SiO2 
 PCOD9217017
Probable space group: C 2/M
;
_chemical_formula_sum "Si O2"
_cell_formula_units_Z 64
_cell_length_a 14.061637
_cell_length_b 24.315175
_cell_length_c 12.105102
_cell_angle_alpha 90.000000
_cell_angle_beta 48.282529
_cell_angle_gamma 90.000000
_cell_volume 3089.398317
_symmetry_space_group_name_H-M "C 2/M"
_symmetry_group_IT_number 12
_symmetry_cell_setting 'monoclinic'
loop_
_space_group_symop_operation_xyz
x,y,z
-x,y,-z
-x,-y,-z
x,-y,z
1/2+x,1/2+y,z
1/2-x,1/2+y,-z
1/2-x,1/2-y,-z
1/2+x,1/2-y,z
loop_
_atom_site_type_symbol
_atom_site_label
_atom_site_fract_x
_atom_site_fract_y
_atom_site_fract_z
Si Si1 0.989305 0.336305 0.391826
Si Si2 0.011213 0.838572 0.719221
Si Si3 0.571620 0.434992 0.059969
Si Si4 0.612771 0.254354 0.826341
Si Si5 0.063605 0.436299 0.838403
Si Si6 0.771261 0.347376 0.398699
Si Si7 0.630911 0.062119 0.216150
Si Si8 0.673046 0.753745 0.171501
O O1 0.070819 0.391782 0.339791
O O2 0.061693 0.298391 0.248048
O O3 0.000000 0.305962 0.500000
O O4 0.849663 0.347334 0.454097
O O5 0.060846 0.799412 0.781019
O O6 0.124110 0.844597 0.543689
O O7 0.973577 0.895588 0.806616
O O8 0.892519 0.805352 0.758557
O O9 0.549755 0.500000 0.099778
O O10 0.500000 0.421661 0.000000
O O11 0.722339 0.426851 0.924501
O O12 0.675219 0.204349 0.710480
O O13 0.729548 0.274622 0.811542
O O14 0.500000 0.238868 0.000000
O O15 0.099850 0.500000 0.827747
O O16 0.181199 0.400497 0.705065
O O17 0.955270 0.434490 0.827548
O O18 0.000000 0.414971 0.000000
O O19 0.621269 0.000000 0.267890
O O20 0.750000 0.750000 0.000000
#
# Coordination Sequence:
#
# PCOD9217017 Si02
#       8
#     8   8   8   8   8   8   8   8
#     4  11  23  38  61  88 124 164 204 255 312 379
#     4  12  25  41  64  93 130 168 208 263 325 374
#     4  10  23  41  64  91 122 166 213 256 312 380
#     4  12  24  42  64  88 127 167 211 262 306 373
#     4   9  19  39  68  93 120 164 211 259 312 372
#     4  11  24  40  58  92 131 160 203 260 318 373
#     4   9  20  39  62  92 124 158 212 265 309 372
#     4  12  25  41  63  91 118 167 216 253 315 378
#
# _framework density 20.716007000000001
#
# number of rings (size 3 to 8) (size 9 to 14) (size 15 to 20)
#    0.000    1.250    2.500    2.625    5.250    3.750 
#    0.000    0.000    0.000    0.000    0.000    5.250 
#    0.000    0.000    0.000    0.000    0.000    0.000 
#
# Total GULP energy -178846.224745 kJ/mol
# GULP energy per Si atom -5588.944523 kJ/mol
# Density = 2.066886 g / cm^3
# Si number density = 20.716007 Si / 1000 Ang^3
#
#
#
# Elastic Constant Matrix: (Units=GPa)
#
#
# Indices 1 2 3 4 5 6 
#
# 1 29.6922 -3.9755 2.7977 0.0000 -8.8648 0.0000
# 2 -3.9755 67.4128 37.6155 0.0000 -7.3835 0.0000
# 3 2.7977 37.6155 124.8028 0.0000 -14.1954 0.0000
# 4 0.0000 0.0000 0.0000 3.2514 0.0000 -9.7404
# 5 -8.8648 -7.3835 -14.1954 0.0000 30.3691 0.0000
# 6 0.0000 0.0000 0.0000 -9.7404 0.0000 23.0359
#
#
#
# Elastic Compliance Matrix: (Units=1/GPa)
#
#
# Indices 1 2 3 4 5 6 
#
# 1 0.037739 0.003887 -0.000694 0.000000 0.011637 0.000000
# 2 0.003887 0.018341 -0.005258 0.000000 0.003136 0.000000
# 3 -0.000694 -0.005258 0.009975 0.000000 0.003182 0.000000
# 4 0.000000 0.000000 0.000000 -1.153177 0.000000 -0.487604
# 5 0.011637 0.003136 0.003182 0.000000 0.038575 0.000000
# 6 0.000000 0.000000 0.000000 -0.487604 0.000000 -0.162766
#
#
# Mechanical properties :
#
#
# Convention : Reuss Voigt Hill
#
# Bulk Modulus (GPa) = 16.14867 32.75369 24.45118
# Shear Modulus (GPa) = -4.21393 23.69596 9.74102
#
# Velocity S-wave (km/s) = -1.42778 3.38575 2.17080
# Velocity P-wave (km/s) = 2.25701 5.57939 4.25580
#
# Compressibility (1/GPa) = 0.06192460
#
# Stress axis : x y z
#
# Youngs Moduli (GPa) = 26.49783 54.52332 100.25123
#
# Poissons Ratio (x) = -0.21195 0.06958
# Poissons Ratio (y) = -0.10301 0.52716
# Poissons Ratio (z) = 0.01839 0.28670
#
# Static dielectric constant tensor:
#      x y z
#    x 1.769110 0.000000 0.023720 
#    y 0.000000 1.754630 0.000000 
#    z 0.023720 0.000000 1.731320 
# 
# From -- ./inp_files/149721.got.cif
#   From: 2010.05.17/outbox.cif.g08.bks.cpg/sg12_75_cif.got.tgz:149721.got - 2010.06.03 13:09:07.
