data_PCOD9217262
_publ_section_title
;
Structure prediction by ZEFSAII (Michael W. Deem and Ramdas Pophale) SiO2 
 PCOD9217262
Probable space group: C 2/M
;
_chemical_formula_sum "Si O2"
_cell_formula_units_Z 56
_cell_length_a 25.646707
_cell_length_b 8.814278
_cell_length_c 14.774719
_cell_angle_alpha 90.000000
_cell_angle_beta 121.819761
_cell_angle_gamma 90.000000
_cell_volume 2837.976353
_symmetry_space_group_name_H-M "C 2/M"
_symmetry_group_IT_number 12
_symmetry_cell_setting 'monoclinic'
loop_
_space_group_symop_operation_xyz
x,y,z
-x,y,-z
-x,-y,-z
x,-y,z
1/2+x,1/2+y,z
1/2-x,1/2+y,-z
1/2-x,1/2-y,-z
1/2+x,1/2-y,z
loop_
_atom_site_type_symbol
_atom_site_label
_atom_site_fract_x
_atom_site_fract_y
_atom_site_fract_z
Si Si1 0.453025 0.682898 0.377407
Si Si2 0.498650 0.681603 0.219593
Si Si3 0.222079 0.179965 0.065221
Si Si4 0.383266 0.680337 0.779602
Si Si5 0.754936 0.319609 0.604068
Si Si6 0.323653 0.178677 0.314551
Si Si7 0.406367 0.180447 0.990245
O O1 0.500000 0.725581 0.500000
O O2 0.446472 0.500000 0.372633
O O3 0.479832 0.725790 0.303789
O O4 0.387350 0.756313 0.336152
O O5 0.488688 0.500000 0.200999
O O6 0.569452 0.709799 0.258802
O O7 0.456572 0.765652 0.108190
O O8 0.271393 0.199103 0.190408
O O9 0.159651 0.264851 0.033550
O O10 0.210084 0.000000 0.043231
O O11 0.250000 0.250000 0.000000
O O12 0.372612 0.500000 0.777169
O O13 0.318779 0.762145 0.705510
O O14 0.413764 0.739790 0.899847
O O15 0.754324 0.500000 0.598735
O O16 0.750000 0.250000 0.500000
O O17 0.699978 0.262405 0.617513
O O18 0.329403 0.000000 0.337993
O O19 0.407942 0.000000 0.980861
#
# Coordination Sequence:
#
# PCOD9217262 Si02
#       7
#     8   8   8   8   8   8   8
#     4  10  23  43  67  95 127 170 218 267 324 388
#     4  10  23  42  65  93 130 174 217 267 327 388
#     4  11  23  39  63  92 130 170 214 267 324 387
#     4  11  23  42  67  97 132 172 217 268 326 388
#     4  12  26  44  69  99 132 172 216 269 326 387
#     4  11  24  43  66  96 130 170 215 268 322 382
#     4  12  24  39  62  94 130 170 217 267 324 388
#
# _framework density 19.73237
#
# number of rings (size 3 to 8) (size 9 to 14) (size 15 to 20)
#    0.000    1.000    1.429    5.143    2.000    7.714 
#    0.000    0.000    0.000    0.000    0.000    0.000 
#    0.000    0.000    0.000    0.000    0.000    0.000 
#
# Total GULP energy -156713.102491 kJ/mol
# GULP energy per Si atom -5596.896518 kJ/mol
# Density = 1.968746 g / cm^3
# Si number density = 19.732370 Si / 1000 Ang^3
#
#
#
# Elastic Constant Matrix: (Units=GPa)
#
#
# Indices 1 2 3 4 5 6 
#
# 1 134.3965 45.7415 21.0838 0.0000 -24.8127 0.0000
# 2 45.7415 72.8284 24.5228 0.0000 -15.8704 0.0000
# 3 21.0838 24.5228 64.0855 0.0000 -23.8985 0.0000
# 4 0.0000 0.0000 0.0000 31.3052 0.0000 4.7455
# 5 -24.8127 -15.8704 -23.8985 0.0000 38.9194 0.0000
# 6 0.0000 0.0000 0.0000 4.7455 0.0000 31.7248
#
#
#
# Elastic Compliance Matrix: (Units=1/GPa)
#
#
# Indices 1 2 3 4 5 6 
#
# 1 0.010065 -0.005504 0.000455 0.000000 0.004451 0.000000
# 2 -0.005504 0.019156 -0.005078 0.000000 0.001184 0.000000
# 3 0.000455 -0.005078 0.021703 0.000000 0.011547 0.000000
# 4 0.000000 0.000000 0.000000 0.032685 0.000000 -0.004889
# 5 0.004451 0.001184 0.011547 0.000000 0.036105 0.000000
# 6 0.000000 0.000000 0.000000 -0.004889 0.000000 0.032252
#
#
# Mechanical properties :
#
#
# Convention : Reuss Voigt Hill
#
# Bulk Modulus (GPa) = 32.60534 50.44519 41.52526
# Shear Modulus (GPa) = 27.40578 32.38737 29.89657
#
# Velocity S-wave (km/s) = 3.73080 4.05573 3.89666
# Velocity P-wave (km/s) = 5.92606 6.89580 6.42924
#
# Compressibility (1/GPa) = 0.03066982
#
# Stress axis : x y z
#
# Youngs Moduli (GPa) = 99.35864 52.20324 46.07588
#
# Poissons Ratio (x) = 0.28735 -0.02097
# Poissons Ratio (y) = 0.54692 0.23396
# Poissons Ratio (z) = -0.04523 0.26507
#
# Static dielectric constant tensor:
#      x y z
#    x 1.679950 0.000000 -0.007900 
#    y 0.000000 1.660730 0.000000 
#    z -0.007900 0.000000 1.671060 
# 
# From -- ./inp_files/239005.got.cif
#   From: 2010.05.17/outbox.cif.g08.bks.cpg/sg12_120_cif.got.tgz:239005.got - 2010.06.03 13:09:07.
