data_PCOD9217841
_publ_section_title
;
Structure prediction by ZEFSAII (Michael W. Deem and Ramdas Pophale) SiO2 
 PCOD9217841
Probable space group: C 2/M
;
_chemical_formula_sum "Si O2"
_cell_formula_units_Z 52
_cell_length_a 22.037751
_cell_length_b 23.570704
_cell_length_c 5.485146
_cell_angle_alpha 90.000000
_cell_angle_beta 51.577774
_cell_angle_gamma 90.000000
_cell_volume 2232.238826
_symmetry_space_group_name_H-M "C 2/M"
_symmetry_group_IT_number 12
_symmetry_cell_setting 'monoclinic'
loop_
_space_group_symop_operation_xyz
x,y,z
-x,y,-z
-x,-y,-z
x,-y,z
1/2+x,1/2+y,z
1/2-x,1/2+y,-z
1/2-x,1/2-y,-z
1/2+x,1/2-y,z
loop_
_atom_site_type_symbol
_atom_site_label
_atom_site_fract_x
_atom_site_fract_y
_atom_site_fract_z
Si Si1 0.181600 0.280356 0.021837
Si Si2 0.500000 0.890259 0.500000
Si Si3 0.763418 0.000000 0.130552
Si Si4 0.421450 0.189420 0.105241
Si Si5 0.357276 0.500000 0.389857
Si Si6 0.591324 0.322287 0.304172
Si Si7 0.090302 0.125439 0.799960
Si Si8 0.651843 0.104143 0.321567
O O1 0.153292 0.276316 0.809729
O O2 0.108203 0.244118 0.304358
O O3 0.186354 0.347106 0.059664
O O4 0.250000 0.250000 0.000000
O O5 0.538529 0.848817 0.204528
O O6 0.426320 0.924034 0.588755
O O7 0.795229 0.000000 0.325826
O O8 0.712554 0.056631 0.232076
O O9 0.823344 0.000000 0.750921
O O10 0.500000 0.221432 0.000000
O O11 0.382663 0.144073 0.381010
O O12 0.403290 0.557780 0.225255
O O13 0.500000 0.331466 0.500000
O O14 0.625076 0.352328 0.458991
O O15 0.623630 0.348393 0.968374
O O16 0.000000 0.141046 0.000000
#
# Coordination Sequence:
#
# PCOD9217841 Si02
#       8
#     8   4   4   8   4   8   8   8
#     4  11  26  39  66  99 144 185 225 290 357 433
#     4   8  18  41  68  94 122 168 232 291 328 408
#     4  12  30  45  70 101 138 188 229 294 353 430
#     4   9  20  40  67  95 127 178 235 284 347 419
#     4  12  27  46  76  94 143 186 225 290 355 423
#     4  10  24  42  69 105 142 178 232 290 346 421
#     4  10  23  46  72 105 134 179 238 288 344 415
#     4  10  24  44  66  97 132 181 239 283 357 408
#
# _framework density 23.294998
#
# number of rings (size 3 to 8) (size 9 to 14) (size 15 to 20)
#    0.000    1.846    0.000    1.154   17.231    1.538 
#    0.000    6.538    0.000    0.000    0.000    0.000 
#    0.000    0.000    0.000    0.000    0.000    0.000 
#
# Total GULP energy -144802.716207 kJ/mol
# GULP energy per Si atom -5569.335239 kJ/mol
# Density = 2.324198 g / cm^3
# Si number density = 23.294998 Si / 1000 Ang^3
#
#
#
# Elastic Constant Matrix: (Units=GPa)
#
#
# Indices 1 2 3 4 5 6 
#
# 1 109.9600 7.0407 20.6784 0.0000 6.9866 0.0000
# 2 7.0407 112.0346 4.4383 0.0000 9.5299 0.0000
# 3 20.6784 4.4383 51.6120 0.0000 6.3192 0.0000
# 4 0.0000 0.0000 0.0000 34.0059 0.0000 17.2367
# 5 6.9866 9.5299 6.3192 0.0000 17.6923 0.0000
# 6 0.0000 0.0000 0.0000 17.2367 0.0000 125.9908
#
#
#
# Elastic Compliance Matrix: (Units=1/GPa)
#
#
# Indices 1 2 3 4 5 6 
#
# 1 0.009958 -0.000270 -0.003663 0.000000 -0.002479 0.000000
# 2 -0.000270 0.009364 -0.000097 0.000000 -0.004903 0.000000
# 3 -0.003663 -0.000097 0.021613 0.000000 -0.006221 0.000000
# 4 0.000000 0.000000 0.000000 0.031598 0.000000 -0.004323
# 5 -0.002479 -0.004903 -0.006221 0.000000 0.062363 0.000000
# 6 0.000000 0.000000 0.000000 -0.004323 0.000000 0.008528
#
#
# Mechanical properties :
#
#
# Convention : Reuss Voigt Hill
#
# Bulk Modulus (GPa) = 30.41819 37.54683 33.98251
# Shear Modulus (GPa) = 30.78033 51.63441 41.20737
#
# Velocity S-wave (km/s) = 3.63895 4.71313 4.21044
# Velocity P-wave (km/s) = 5.54456 6.76543 6.18519
#
# Compressibility (1/GPa) = 0.03287507
#
# Stress axis : x y z
#
# Youngs Moduli (GPa) = 100.42369 106.79613 46.26871
#
# Poissons Ratio (x) = 0.02882 0.16948
# Poissons Ratio (y) = 0.02710 0.00448
# Poissons Ratio (z) = 0.36785 0.01034
#
# Static dielectric constant tensor:
#      x y z
#    x 2.077000 0.000000 0.132580 
#    y 0.000000 1.841090 0.000000 
#    z 0.132580 0.000000 2.018820 
# 
# From -- ./inp_files/26182.got.cif
#   From: 2010.05.17/outbox.cif.g08.bks.cpg/sg12_14_cif.got.tgz:26182.got - 2010.06.03 13:09:07.
