data_PCOD9217054
_publ_section_title
;
Structure prediction by ZEFSAII (Michael W. Deem and Ramdas Pophale) SiO2 
 PCOD9217054
Probable space group: C 2/M
;
_chemical_formula_sum "Si O2"
_cell_formula_units_Z 52
_cell_length_a 14.338326
_cell_length_b 9.359486
_cell_length_c 28.445414
_cell_angle_alpha 90.000000
_cell_angle_beta 144.005030
_cell_angle_gamma 90.000000
_cell_volume 2243.514661
_symmetry_space_group_name_H-M "C 2/M"
_symmetry_group_IT_number 12
_symmetry_cell_setting 'monoclinic'
loop_
_space_group_symop_operation_xyz
x,y,z
-x,y,-z
-x,-y,-z
x,-y,z
1/2+x,1/2+y,z
1/2-x,1/2+y,-z
1/2-x,1/2-y,-z
1/2+x,1/2-y,z
loop_
_atom_site_type_symbol
_atom_site_label
_atom_site_fract_x
_atom_site_fract_y
_atom_site_fract_z
Si Si1 0.781369 0.666965 0.839786
Si Si2 0.195131 0.168007 0.637739
Si Si3 0.297801 0.000000 0.032626
Si Si4 0.089063 0.664345 0.443361
Si Si5 0.104992 0.836278 0.203024
Si Si6 0.515535 0.161110 0.306093
Si Si7 0.732949 0.215146 0.059878
O O1 0.795831 0.500000 0.832683
O O2 0.862216 0.770592 0.834789
O O3 0.597466 0.718981 0.761149
O O4 0.829587 0.691853 0.913189
O O5 0.307481 0.233947 0.724218
O O6 0.302561 0.182568 0.635209
O O7 0.031945 0.254091 0.572032
O O8 0.165386 0.000000 0.634069
O O9 0.346631 0.877685 0.013221
O O10 0.240856 0.876108 0.046168
O O11 0.118154 0.500000 0.469071
O O12 0.250000 0.750000 0.500000
O O13 0.005239 0.663876 0.357906
O O14 0.917089 0.837162 0.134925
O O15 0.161824 0.000000 0.229705
O O16 0.471373 0.000000 0.271307
#
# Coordination Sequence:
#
# PCOD9217054 Si02
#       7
#     8   8   4   8   8   8   8
#     4  12  24  39  65 100 128 167 222 274 321 377
#     4  11  23  40  66  99 130 170 221 271 322 383
#     4  10  24  46  70  92 132 176 214 260 334 398
#     4  11  24  44  66  94 138 179 215 268 329 387
#     4  12  24  40  64  98 130 169 218 271 328 379
#     4  10  23  41  65  96 132 172 217 269 324 384
#     4  11  24  46  69  92 132 176 215 268 326 392
#
# _framework density 23.17792
#
# number of rings (size 3 to 8) (size 9 to 14) (size 15 to 20)
#    0.000    0.923    4.615    1.846    4.308    1.846 
#    0.000    7.692    0.000    0.000    0.000    0.000 
#    0.000    0.000    0.000    0.000    0.000    0.000 
#
# Total GULP energy -145057.095014 kJ/mol
# GULP energy per Si atom -5579.119039 kJ/mol
# Density = 2.312517 g / cm^3
# Si number density = 23.177920 Si / 1000 Ang^3
#
#
#
# Elastic Constant Matrix: (Units=GPa)
#
#
# Indices 1 2 3 4 5 6 
#
# 1 103.0376 21.1965 -0.9647 0.0000 -0.9625 0.0000
# 2 21.1965 184.5702 20.1459 0.0000 2.4645 0.0000
# 3 -0.9647 20.1459 46.0025 0.0000 17.2464 0.0000
# 4 0.0000 0.0000 0.0000 11.2408 0.0000 -0.1279
# 5 -0.9625 2.4645 17.2464 0.0000 39.3932 0.0000
# 6 0.0000 0.0000 0.0000 -0.1279 0.0000 29.2613
#
#
#
# Elastic Compliance Matrix: (Units=1/GPa)
#
#
# Indices 1 2 3 4 5 6 
#
# 1 0.009964 -0.001226 0.000749 0.000000 -0.000008 0.000000
# 2 -0.001226 0.005866 -0.002926 0.000000 0.000884 0.000000
# 3 0.000749 -0.002926 0.027468 0.000000 -0.011824 0.000000
# 4 0.000000 0.000000 0.000000 0.088966 0.000000 0.000389
# 5 -0.000008 0.000884 -0.011824 0.000000 0.030506 0.000000
# 6 0.000000 0.000000 0.000000 0.000389 0.000000 0.034176
#
#
# Mechanical properties :
#
#
# Convention : Reuss Voigt Hill
#
# Bulk Modulus (GPa) = 27.40344 46.04065 36.72204
# Shear Modulus (GPa) = 23.15692 35.52791 29.34241
#
# Velocity S-wave (km/s) = 3.16427 3.91939 3.56190
# Velocity P-wave (km/s) = 5.01985 6.35526 5.72661
#
# Compressibility (1/GPa) = 0.03649177
#
# Stress axis : x y z
#
# Youngs Moduli (GPa) = 100.35802 170.46291 36.40589
#
# Poissons Ratio (x) = 0.20898 -0.02726
# Poissons Ratio (y) = 0.12303 0.10653
# Poissons Ratio (z) = -0.07514 0.49882
#
# Static dielectric constant tensor:
#      x y z
#    x 1.875620 0.000000 0.048730 
#    y 0.000000 1.808180 0.000000 
#    z 0.048730 0.000000 1.931850 
# 
# From -- ./inp_files/375329.got.cif
#   From: 2010.05.17/outbox.cif.g08.bks.cpg/sg12_188_cif.got.tgz:375329.got - 2010.06.03 13:09:07.
