data_PCOD9217862
_publ_section_title
;
Structure prediction by ZEFSAII (Michael W. Deem and Ramdas Pophale) SiO2 
 PCOD9217862
Probable space group: C 2/M
;
_chemical_formula_sum "Si O2"
_cell_formula_units_Z 56
_cell_length_a 19.213413
_cell_length_b 14.348123
_cell_length_c 22.407180
_cell_angle_alpha 90.000000
_cell_angle_beta 153.232885
_cell_angle_gamma 90.000000
_cell_volume 2781.964628
_symmetry_space_group_name_H-M "C 2/M"
_symmetry_group_IT_number 12
_symmetry_cell_setting 'monoclinic'
loop_
_space_group_symop_operation_xyz
x,y,z
-x,y,-z
-x,-y,-z
x,-y,z
1/2+x,1/2+y,z
1/2-x,1/2+y,-z
1/2-x,1/2-y,-z
1/2+x,1/2-y,z
loop_
_atom_site_type_symbol
_atom_site_label
_atom_site_fract_x
_atom_site_fract_y
_atom_site_fract_z
Si Si1 0.689073 0.398599 0.219898
Si Si2 0.352912 0.709620 0.348131
Si Si3 0.744700 0.713748 0.929385
Si Si4 0.667528 0.600664 0.059793
Si Si5 0.438945 0.109918 0.819945
Si Si6 0.344537 0.111393 0.609442
Si Si7 0.982476 0.207698 0.652749
O O1 0.743724 0.500000 0.282362
O O2 0.796542 0.314295 0.320779
O O3 0.676628 0.400536 0.138280
O O4 0.508499 0.387873 0.098204
O O5 0.500000 0.682020 0.500000
O O6 0.203850 0.648500 0.250641
O O7 0.410567 0.707095 0.324256
O O8 0.745050 0.809388 0.893169
O O9 0.585873 0.667897 0.786494
O O10 0.750000 0.750000 0.000000
O O11 0.899950 0.656265 0.037243
O O12 0.726013 0.500000 0.082759
O O13 0.407818 0.128246 0.725408
O O14 0.449238 0.000000 0.835166
O O15 0.421337 0.188070 0.623716
O O16 0.165007 0.142025 0.471646
O O17 0.363969 0.000000 0.610646
#
# Coordination Sequence:
#
# PCOD9217862 Si02
#       7
#     8   8   8   8   8   8   8
#     4   9  18  34  58  87 119 158 200 248 316 385
#     4  12  23  39  66  96 131 169 217 271 327 390
#     4  12  23  39  66  97 130 167 220 276 324 380
#     4   9  18  34  59  85 116 160 202 247 315 387
#     4  11  25  44  67  96 133 177 222 269 326 391
#     4  10  23  47  70  93 130 176 225 269 321 396
#     4  11  24  41  70 100 127 172 220 272 331 387
#
# _framework density 20.129660000000001
#
# number of rings (size 3 to 8) (size 9 to 14) (size 15 to 20)
#    0.000    1.429    5.714    0.857    0.000    4.000 
#    0.000    0.714    0.000    0.000    0.000    0.000 
#    0.000    0.000    0.000    0.000    0.000    0.000 
#
# Total GULP energy -156209.743214 kJ/mol
# GULP energy per Si atom -5578.919400 kJ/mol
# Density = 2.008384 g / cm^3
# Si number density = 20.129660 Si / 1000 Ang^3
#
#
#
# Elastic Constant Matrix: (Units=GPa)
#
#
# Indices 1 2 3 4 5 6 
#
# 1 60.6373 20.0152 6.1415 -0.0002 4.4518 -0.0002
# 2 20.0152 81.6199 27.9523 0.0008 13.7342 -0.0003
# 3 6.1415 27.9523 105.4844 0.0042 14.5085 0.0016
# 4 -0.0002 0.0008 0.0042 8.0772 0.0010 -14.3433
# 5 4.4518 13.7342 14.5085 0.0010 26.6270 0.0001
# 6 -0.0002 -0.0003 0.0016 -14.3433 0.0001 13.4693
#
#
#
# Elastic Compliance Matrix: (Units=1/GPa)
#
#
# Indices 1 2 3 4 5 6 
#
# 1 0.017964 -0.004332 0.000225 -0.000001 -0.000891 -0.000001
# 2 -0.004332 0.015281 -0.003041 -0.000002 -0.005501 -0.000002
# 3 0.000225 -0.003041 0.010877 0.000008 -0.004396 0.000007
# 4 -0.000001 -0.000002 0.000008 -0.138948 0.000003 -0.147964
# 5 -0.000891 -0.005501 -0.004396 0.000003 0.042938 0.000003
# 6 -0.000001 -0.000002 0.000007 -0.147964 0.000003 -0.083323
#
#
# Mechanical properties :
#
#
# Convention : Reuss Voigt Hill
#
# Bulk Modulus (GPa) = 33.52712 39.55108 36.53910
# Shear Modulus (GPa) = -45.05618 22.54354 -11.25632
#
# Velocity S-wave (km/s) = -4.73620 3.35015 -2.36729
# Velocity P-wave (km/s) = 3.63552 5.88689 3.27402
#
# Compressibility (1/GPa) = 0.02982660
#
# Stress axis : x y z
#
# Youngs Moduli (GPa) = 55.66638 65.43977 91.93422
#
# Poissons Ratio (x) = 0.28350 -0.02066
# Poissons Ratio (y) = 0.24116 0.27953
# Poissons Ratio (z) = -0.01251 0.19897
#
# Static dielectric constant tensor:
#      x y z
#    x 1.713290 0.000000 0.032500 
#    y 0.000000 1.708680 0.000000 
#    z 0.032500 0.000000 1.737430 
# 
# From -- ./inp_files/316798.got.cif
#   From: 2010.05.17/outbox.cif.g08.bks.cpg/sg12_159_cif.got.tgz:316798.got - 2010.06.03 13:09:07.
