data_PCOD9217178
_publ_section_title
;
Structure prediction by ZEFSAII (Michael W. Deem and Ramdas Pophale) SiO2 
 PCOD9217178
Probable space group: C 2/M
;
_chemical_formula_sum "Si O2"
_cell_formula_units_Z 56
_cell_length_a 27.104224
_cell_length_b 8.892998
_cell_length_c 12.826346
_cell_angle_alpha 90.000000
_cell_angle_beta 67.872655
_cell_angle_gamma 90.000000
_cell_volume 2863.932289
_symmetry_space_group_name_H-M "C 2/M"
_symmetry_group_IT_number 12
_symmetry_cell_setting 'monoclinic'
loop_
_space_group_symop_operation_xyz
x,y,z
-x,y,-z
-x,-y,-z
x,-y,z
1/2+x,1/2+y,z
1/2-x,1/2+y,-z
1/2-x,1/2-y,-z
1/2+x,1/2-y,z
loop_
_atom_site_type_symbol
_atom_site_label
_atom_site_fract_x
_atom_site_fract_y
_atom_site_fract_z
Si Si1 0.299662 0.679626 0.400005
Si Si2 0.152077 0.680454 0.836621
Si Si3 0.996641 0.319826 0.315656
Si Si4 0.116553 0.681055 0.286692
Si Si5 0.808192 0.681258 0.965378
Si Si6 0.392388 0.678770 0.490346
Si Si7 0.539112 0.675434 0.870343
O O1 0.293864 0.500000 0.396828
O O2 0.250000 0.750000 0.500000
O O3 0.307631 0.751295 0.280200
O O4 0.352662 0.711967 0.426204
O O5 0.152044 0.500000 0.828941
O O6 0.094133 0.744027 0.854633
O O7 0.167313 0.724092 0.942234
O O8 0.992868 0.500000 0.315832
O O9 0.949147 0.255623 0.423977
O O10 0.987266 0.253197 0.208392
O O11 0.055313 0.279518 0.309280
O O12 0.119643 0.500000 0.295332
O O13 0.153960 0.726821 0.160723
O O14 0.131340 0.758043 0.383481
O O15 0.804699 0.500000 0.966297
O O16 0.750000 0.750000 0.000000
O O17 0.398940 0.500000 0.491671
O O18 0.549635 0.500000 0.837669
O O19 0.500000 0.684116 0.000000
#
# Coordination Sequence:
#
# PCOD9217178 Si02
#       7
#     8   8   8   8   8   8   8
#     4  11  25  43  65  94 129 166 211 262 316 374
#     4  11  23  42  67  94 127 164 209 259 313 375
#     4  11  22  39  64  92 125 165 210 256 311 377
#     4  10  23  42  63  91 126 166 212 257 308 372
#     4  10  24  44  65  92 125 162 208 259 309 367
#     4  11  24  41  63  94 130 164 207 259 315 373
#     4  11  23  38  60  92 129 166 208 257 311 371
#
# _framework density 19.553535
#
# number of rings (size 3 to 8) (size 9 to 14) (size 15 to 20)
#    0.000    1.286    1.429    3.429    2.000    8.571 
#    0.000    0.000    0.000    0.000    0.000    0.000 
#    0.000    0.000    0.000    0.000    0.000    0.000 
#
# Total GULP energy -156646.813379 kJ/mol
# GULP energy per Si atom -5594.529049 kJ/mol
# Density = 1.950903 g / cm^3
# Si number density = 19.553535 Si / 1000 Ang^3
#
#
#
# Elastic Constant Matrix: (Units=GPa)
#
#
# Indices 1 2 3 4 5 6 
#
# 1 46.8293 27.8685 24.2559 0.0000 -5.4894 0.0000
# 2 27.8685 47.3793 39.5539 0.0000 -1.2463 0.0000
# 3 24.2559 39.5539 146.4737 0.0000 0.0827 0.0000
# 4 0.0000 0.0000 0.0000 35.7952 0.0000 -1.6558
# 5 -5.4894 -1.2463 0.0827 0.0000 38.1230 0.0000
# 6 0.0000 0.0000 0.0000 -1.6558 0.0000 32.7571
#
#
#
# Elastic Compliance Matrix: (Units=1/GPa)
#
#
# Indices 1 2 3 4 5 6 
#
# 1 0.033521 -0.019328 -0.000334 0.000000 0.004196 0.000000
# 2 -0.019328 0.038425 -0.007175 0.000000 -0.001511 0.000000
# 3 -0.000334 -0.007175 0.008820 0.000000 -0.000302 0.000000
# 4 0.000000 0.000000 0.000000 0.028002 0.000000 0.001415
# 5 0.004196 -0.001511 -0.000302 0.000000 0.026786 0.000000
# 6 0.000000 0.000000 0.000000 0.001415 0.000000 0.030599
#
#
# Mechanical properties :
#
#
# Convention : Reuss Voigt Hill
#
# Bulk Modulus (GPa) = 36.91026 47.11543 42.01285
# Shear Modulus (GPa) = 21.84757 31.26864 26.55811
#
# Velocity S-wave (km/s) = 3.34626 4.00325 3.68941
# Velocity P-wave (km/s) = 5.81786 6.74655 6.29934
#
# Compressibility (1/GPa) = 0.02709273
#
# Stress axis : x y z
#
# Youngs Moduli (GPa) = 29.83189 26.02482 113.37674
#
# Poissons Ratio (x) = 0.50300 0.03788
# Poissons Ratio (y) = 0.57659 0.81345
# Poissons Ratio (z) = 0.00997 0.18672
#
# Static dielectric constant tensor:
#      x y z
#    x 1.654990 0.000000 0.000090 
#    y 0.000000 1.653000 0.000000 
#    z 0.000090 0.000000 1.679990 
# 
# From -- ./inp_files/180799.got.cif
#   From: 2010.05.17/outbox.cif.g08.bks.cpg/sg12_91_cif.got.tgz:180799.got - 2010.06.03 13:09:07.
