data_PCOD9217227
_publ_section_title
;
Structure prediction by ZEFSAII (Michael W. Deem and Ramdas Pophale) SiO2 
 PCOD9217227
Probable space group: C 2/M
;
_chemical_formula_sum "Si O2"
_cell_formula_units_Z 48
_cell_length_a 26.653493
_cell_length_b 12.697204
_cell_length_c 20.794486
_cell_angle_alpha 90.000000
_cell_angle_beta 19.414168
_cell_angle_gamma 90.000000
_cell_volume 2339.182283
_symmetry_space_group_name_H-M "C 2/M"
_symmetry_group_IT_number 12
_symmetry_cell_setting 'monoclinic'
loop_
_space_group_symop_operation_xyz
x,y,z
-x,y,-z
-x,-y,-z
x,-y,z
1/2+x,1/2+y,z
1/2-x,1/2+y,-z
1/2-x,1/2-y,-z
1/2+x,1/2-y,z
loop_
_atom_site_type_symbol
_atom_site_label
_atom_site_fract_x
_atom_site_fract_y
_atom_site_fract_z
Si Si1 0.344636 0.111571 0.725683
Si Si2 0.911220 0.794102 0.742740
Si Si3 0.588572 0.309374 0.950923
Si Si4 0.871969 0.304452 0.305947
Si Si5 0.911392 0.383058 0.847391
Si Si6 0.743017 0.620466 0.327422
O O1 0.500000 0.110735 0.500000
O O2 0.347804 0.212353 0.766940
O O3 0.218208 0.123350 0.825173
O O4 0.324774 0.000000 0.784856
O O5 0.950610 0.716640 0.754760
O O6 0.065682 0.850859 0.536264
O O7 0.769983 0.870780 0.925740
O O8 0.663098 0.203262 0.829608
O O9 0.500000 0.362212 0.000000
O O10 0.472469 0.281371 0.147379
O O11 0.750000 0.250000 0.500000
O O12 0.792775 0.365143 0.342095
O O13 0.990563 0.368966 0.206278
O O14 0.946366 0.500000 0.779551
O O15 0.770878 0.500000 0.274174
#
# Coordination Sequence:
#
# PCOD9217227 Si02
#       6
#     8   8   8   8   8   8
#     4  11  22  40  65  90 120 164 206 254 319 375
#     4  11  22  41  61  94 131 156 212 264 313 378
#     4  10  23  42  64  93 132 161 211 267 313 374
#     4  11  22  42  64  91 129 170 213 262 309 372
#     4  11  23  39  64  91 125 169 208 258 319 375
#     4  11  23  41  68  96 130 169 209 263 326 377
#
# _framework density 20.51999
#
# number of rings (size 3 to 8) (size 9 to 14) (size 15 to 20)
#    0.000    1.167    5.000    1.500    0.000    4.000 
#    0.000    4.167    0.000    0.000    0.000    0.000 
#    0.000    0.000    0.000    0.000    0.000    0.000 
#
# Total GULP energy -133980.413548 kJ/mol
# GULP energy per Si atom -5582.517231 kJ/mol
# Density = 2.047329 g / cm^3
# Si number density = 20.519990 Si / 1000 Ang^3
#
#
#
# Elastic Constant Matrix: (Units=GPa)
#
#
# Indices 1 2 3 4 5 6 
#
# 1 106.2932 21.5592 20.3748 -0.0002 -17.1570 0.0001
# 2 21.5592 72.1039 5.3253 -0.0002 -1.3897 0.0001
# 3 20.3748 5.3253 97.2014 -0.0005 -3.5109 0.0001
# 4 -0.0002 -0.0002 -0.0005 61.2109 0.0003 -43.6827
# 5 -17.1570 -1.3897 -3.5109 0.0003 38.9692 -0.0001
# 6 0.0001 0.0001 0.0001 -43.6827 -0.0001 18.0795
#
#
#
# Elastic Compliance Matrix: (Units=1/GPa)
#
#
# Indices 1 2 3 4 5 6 
#
# 1 0.011168 -0.003102 -0.002004 0.000000 0.004626 0.000000
# 2 -0.003102 0.014794 -0.000191 0.000000 -0.000855 0.000000
# 3 -0.002004 -0.000191 0.010721 0.000000 0.000077 0.000000
# 4 0.000000 0.000000 0.000000 -0.022557 0.000000 -0.054500
# 5 0.004626 -0.000855 0.000077 0.000000 0.027674 0.000000
# 6 0.000000 0.000000 0.000000 -0.054500 0.000000 -0.076369
#
#
# Mechanical properties :
#
#
# Convention : Reuss Voigt Hill
#
# Bulk Modulus (GPa) = 38.33056 41.12411 39.72734
# Shear Modulus (GPa) = -327.28579 38.87452 -144.20563
#
# Velocity S-wave (km/s) = -12.64288 4.35727 -8.39215
# Velocity P-wave (km/s) = 13.94285 6.73787 8.63145
#
# Compressibility (1/GPa) = 0.02608884
#
# Stress axis : x y z
#
# Youngs Moduli (GPa) = 89.54247 67.59485 93.27303
#
# Poissons Ratio (x) = 0.20968 0.18691
# Poissons Ratio (y) = 0.27777 0.01783
# Poissons Ratio (z) = 0.17944 0.01292
#
# Static dielectric constant tensor:
#      x y z
#    x 1.723730 0.000000 -0.005650 
#    y 0.000000 1.716180 0.000000 
#    z -0.005650 0.000000 1.704780 
# 
# From -- ./inp_files/327967.got.cif
#   From: 2010.05.17/outbox.cif.g08.bks.cpg/sg12_164_cif.got.tgz:327967.got - 2010.06.03 13:09:07.
