data_PCOD9217001
_publ_section_title
;
Structure prediction by ZEFSAII (Michael W. Deem and Ramdas Pophale) SiO2 
 PCOD9217001
Probable space group: C 2/M
;
_chemical_formula_sum "Si O2"
_cell_formula_units_Z 56
_cell_length_a 25.543376
_cell_length_b 8.821213
_cell_length_c 14.758078
_cell_angle_alpha 90.000000
_cell_angle_beta 57.454697
_cell_angle_gamma 90.000000
_cell_volume 2803.151970
_symmetry_space_group_name_H-M "C 2/M"
_symmetry_group_IT_number 12
_symmetry_cell_setting 'monoclinic'
loop_
_space_group_symop_operation_xyz
x,y,z
-x,y,-z
-x,-y,-z
x,-y,z
1/2+x,1/2+y,z
1/2-x,1/2+y,-z
1/2-x,1/2-y,-z
1/2+x,1/2-y,z
loop_
_atom_site_type_symbol
_atom_site_label
_atom_site_fract_x
_atom_site_fract_y
_atom_site_fract_z
Si Si1 0.177921 0.180276 0.806880
Si Si2 0.952136 0.320483 0.126955
Si Si3 0.727520 0.318914 0.426364
Si Si4 0.752441 0.680870 0.097503
Si Si5 0.887622 0.179473 0.712832
Si Si6 0.596828 0.180358 0.492651
Si Si7 0.487875 0.818744 0.737212
O O1 0.110151 0.229990 0.836698
O O2 0.227763 0.254665 0.692911
O O3 0.194413 0.244561 0.890623
O O4 0.184252 0.000000 0.800030
O O5 0.936408 0.500000 0.149350
O O6 0.984492 0.274655 0.191105
O O7 0.000000 0.302471 0.000000
O O8 0.730923 0.500000 0.424697
O O9 0.750000 0.250000 0.500000
O O10 0.657752 0.265499 0.471528
O O11 0.761158 0.500000 0.085559
O O12 0.685416 0.711230 0.206233
O O13 0.750000 0.750000 0.000000
O O14 0.912897 0.266294 0.601188
O O15 0.925779 0.234256 0.764572
O O16 0.895167 0.000000 0.692841
O O17 0.539470 0.213005 0.612274
O O18 0.607635 0.000000 0.484248
O O19 0.476498 0.000000 0.749425
#
# Coordination Sequence:
#
# PCOD9217001 Si02
#       7
#     8   8   8   8   8   8   8
#     4  12  25  43  68  98 132 172 215 269 327 384
#     4  10  23  44  68  95 128 172 219 268 327 385
#     4  12  24  40  64  95 131 171 216 267 324 387
#     4  11  25  44  67  97 131 171 217 272 327 388
#     4  11  24  41  64  95 130 169 213 266 324 383
#     4  11  22  39  63  93 129 170 215 263 322 388
#     4  10  23  41  63  93 129 170 216 266 321 386
#
# _framework density 19.977511
#
# number of rings (size 3 to 8) (size 9 to 14) (size 15 to 20)
#    0.000    1.000    1.429    5.143    2.000    6.571 
#    0.000    0.000    0.000    0.000    0.000    0.000 
#    0.000    0.000    0.000    0.000    0.000    0.000 
#
# Total GULP energy -156725.502097 kJ/mol
# GULP energy per Si atom -5597.339361 kJ/mol
# Density = 1.993204 g / cm^3
# Si number density = 19.977511 Si / 1000 Ang^3
#
#
#
# Elastic Constant Matrix: (Units=GPa)
#
#
# Indices 1 2 3 4 5 6 
#
# 1 131.8041 49.2192 19.4563 0.0000 22.8182 0.0000
# 2 49.2192 90.9345 33.0630 0.0000 -0.4942 0.0001
# 3 19.4563 33.0630 56.7335 0.0000 26.9283 0.0000
# 4 0.0000 0.0000 0.0000 22.9586 0.0000 3.6210
# 5 22.8182 -0.4942 26.9283 0.0000 36.6076 0.0000
# 6 0.0000 0.0001 0.0000 3.6210 0.0000 40.8408
#
#
#
# Elastic Compliance Matrix: (Units=1/GPa)
#
#
# Indices 1 2 3 4 5 6 
#
# 1 0.012375 -0.009609 0.007803 0.000000 -0.013583 0.000000
# 2 -0.009609 0.023944 -0.020980 0.000000 0.021746 0.000000
# 3 0.007803 -0.020980 0.045510 0.000000 -0.038624 0.000000
# 4 0.000000 0.000000 0.000000 0.044174 0.000000 -0.003917
# 5 -0.013583 0.021746 -0.038624 0.000000 0.064488 0.000000
# 6 0.000000 0.000000 0.000000 -0.003917 0.000000 0.024833
#
#
# Mechanical properties :
#
#
# Convention : Reuss Voigt Hill
#
# Bulk Modulus (GPa) = 27.58119 53.66102 40.62110
# Shear Modulus (GPa) = 18.31620 31.93030 25.12325
#
# Velocity S-wave (km/s) = 3.03122 4.00223 3.55008
# Velocity P-wave (km/s) = 5.10756 6.94810 6.09768
#
# Compressibility (1/GPa) = 0.03625659
#
# Stress axis : x y z
#
# Youngs Moduli (GPa) = 80.80802 41.76333 21.97338
#
# Poissons Ratio (x) = 0.40131 -0.17147
# Poissons Ratio (y) = 0.77650 0.46101
# Poissons Ratio (z) = -0.63057 0.87621
#
# Static dielectric constant tensor:
#      x y z
#    x 1.682590 0.000000 -0.001680 
#    y 0.000000 1.669530 0.000000 
#    z -0.001680 0.000000 1.672140 
# 
# From -- ./inp_files/238228.got.cif
#   From: 2010.05.17/outbox.cif.g08.bks.cpg/sg12_120_cif.got.tgz:238228.got - 2010.06.03 13:09:07.
