data_PCOD9217502
_publ_section_title
;
Structure prediction by ZEFSAII (Michael W. Deem and Ramdas Pophale) SiO2 
 PCOD9217502
Probable space group: C 2/M
;
_chemical_formula_sum "Si O2"
_cell_formula_units_Z 44
_cell_length_a 8.341836
_cell_length_b 20.046669
_cell_length_c 16.020766
_cell_angle_alpha 90.000000
_cell_angle_beta 53.005174
_cell_angle_gamma 90.000000
_cell_volume 2139.761213
_symmetry_space_group_name_H-M "C 2/M"
_symmetry_group_IT_number 12
_symmetry_cell_setting 'monoclinic'
loop_
_space_group_symop_operation_xyz
x,y,z
-x,y,-z
-x,-y,-z
x,-y,z
1/2+x,1/2+y,z
1/2-x,1/2+y,-z
1/2-x,1/2-y,-z
1/2+x,1/2-y,z
loop_
_atom_site_type_symbol
_atom_site_label
_atom_site_fract_x
_atom_site_fract_y
_atom_site_fract_z
Si Si1 0.416289 0.692202 0.434539
Si Si2 0.912869 0.354271 0.751431
Si Si3 0.188013 0.265365 0.783738
Si Si4 0.222849 0.078015 0.960949
Si Si5 0.500000 0.162626 0.000000
Si Si6 0.152187 0.574246 0.528287
O O1 0.500000 0.682170 0.500000
O O2 0.250000 0.750000 0.500000
O O3 0.595858 0.710706 0.317465
O O4 0.322640 0.622142 0.439457
O O5 0.719222 0.314455 0.776615
O O6 0.853553 0.410101 0.836690
O O7 0.033604 0.298574 0.767115
O O8 0.045482 0.386152 0.637180
O O9 0.118839 0.292340 0.895434
O O10 0.212188 0.000000 0.987136
O O11 0.336782 0.119091 0.998407
O O12 0.000000 0.099991 0.000000
O O13 0.216535 0.500000 0.534041
O O14 0.000000 0.568205 0.500000
#
# Coordination Sequence:
#
# PCOD9217502 Si02
#       6
#     8   8   8   8   4   8
#     4  12  22  41  65  96 127 171 218 268 331 397
#     4  11  24  41  63  95 131 169 218 276 336 400
#     4  11  24  40  65  99 128 173 213 278 337 386
#     4  10  23  43  67  92 131 182 223 276 340 403
#     4  10  25  42  66 102 133 170 232 278 332 402
#     4  11  25  42  63  93 131 172 219 273 330 401
#
# _framework density 20.563044000000001
#
# number of rings (size 3 to 8) (size 9 to 14) (size 15 to 20)
#    0.000    1.091    3.636    1.364    6.364    1.818 
#    0.000    3.636    0.000    0.000    0.000    0.000 
#    0.000    0.000    0.000    0.000    0.000    0.000 
#
# Total GULP energy -122802.862725 kJ/mol
# GULP energy per Si atom -5581.948306 kJ/mol
# Density = 2.051624 g / cm^3
# Si number density = 20.563044 Si / 1000 Ang^3
#
#
#
# Elastic Constant Matrix: (Units=GPa)
#
#
# Indices 1 2 3 4 5 6 
#
# 1 75.7683 19.2737 9.9507 0.0000 -2.0901 0.0000
# 2 19.2737 86.6946 9.2021 0.0000 1.2275 0.0000
# 3 9.9507 9.2021 119.2101 0.0000 0.7333 0.0000
# 4 0.0000 0.0000 0.0000 20.0114 0.0000 -12.1903
# 5 -2.0901 1.2275 0.7333 0.0000 25.9991 0.0000
# 6 0.0000 0.0000 0.0000 -12.1903 0.0000 -34.4806
#
#
#
# Elastic Compliance Matrix: (Units=1/GPa)
#
#
# Indices 1 2 3 4 5 6 
#
# 1 0.014138 -0.003061 -0.000952 0.000000 0.001308 0.000000
# 2 -0.003061 0.012300 -0.000689 0.000000 -0.000807 0.000000
# 3 -0.000952 -0.000689 0.008523 0.000000 -0.000284 0.000000
# 4 0.000000 0.000000 0.000000 0.041116 0.000000 -0.014536
# 5 0.001308 -0.000807 -0.000284 0.000000 0.038614 0.000000
# 6 0.000000 0.000000 0.000000 -0.014536 0.000000 -0.023863
#
#
# Mechanical properties :
#
#
# Convention : Reuss Voigt Hill
#
# Bulk Modulus (GPa) = 39.12744 39.83622 39.48183
# Shear Modulus (GPa) = 45.97687 18.52244 32.24965
#
# Velocity S-wave (km/s) = 4.73366 3.00453 3.96451
# Velocity P-wave (km/s) = 6.99614 5.60812 6.34023
#
# Compressibility (1/GPa) = 0.02555751
#
# Stress axis : x y z
#
# Youngs Moduli (GPa) = 70.73264 81.30269 117.33042
#
# Poissons Ratio (x) = 0.24883 0.11169
# Poissons Ratio (y) = 0.21648 0.08084
# Poissons Ratio (z) = 0.06733 0.05602
#
# Static dielectric constant tensor:
#      x y z
#    x 1.812670 0.000000 -0.019710 
#    y 0.000000 1.656070 0.000000 
#    z -0.019710 0.000000 1.727750 
# 
# From -- ./inp_files/196822.got.cif
#   From: 2010.05.17/outbox.cif.g08.bks.cpg/sg12_99_cif.got.tgz:196822.got - 2010.06.03 13:09:07.
