data_PCOD9217900
_publ_section_title
;
Structure prediction by ZEFSAII (Michael W. Deem and Ramdas Pophale) SiO2 
 PCOD9217900
Probable space group: C 2/M
;
_chemical_formula_sum "Si O2"
_cell_formula_units_Z 38
_cell_length_a 18.524286
_cell_length_b 19.950769
_cell_length_c 10.166655
_cell_angle_alpha 90.000000
_cell_angle_beta 28.173732
_cell_angle_gamma 90.000000
_cell_volume 1774.010292
_symmetry_space_group_name_H-M "C 2/M"
_symmetry_group_IT_number 12
_symmetry_cell_setting 'monoclinic'
loop_
_space_group_symop_operation_xyz
x,y,z
-x,y,-z
-x,-y,-z
x,-y,z
1/2+x,1/2+y,z
1/2-x,1/2+y,-z
1/2-x,1/2-y,-z
1/2+x,1/2-y,z
loop_
_atom_site_type_symbol
_atom_site_label
_atom_site_fract_x
_atom_site_fract_y
_atom_site_fract_z
Si Si1 0.000000 0.500000 0.000000
Si Si2 0.586889 0.425877 0.723357
Si Si3 0.407849 0.888070 0.316424
Si Si4 0.500000 0.237123 0.000000
Si Si5 0.725806 0.800208 0.273414
Si Si6 0.489132 0.322209 0.661002
O O1 0.968683 0.440331 0.935094
O O2 0.546941 0.500000 0.738511
O O3 0.762382 0.422788 0.482206
O O4 0.554379 0.370042 0.669101
O O5 0.500000 0.415215 0.000000
O O6 0.354740 0.869078 0.548967
O O7 0.441247 0.814399 0.204892
O O8 0.358742 0.278530 0.165710
O O9 0.597967 0.742793 0.474564
O O10 0.819146 0.806397 0.987517
O O11 0.500000 0.354462 0.500000
#
# Coordination Sequence:
#
# PCOD9217900 Si02
#       6
#     2   8   8   4   8   8
#     4  10  24  36  54 100 130 158 198 266 332 370
#     4  11  22  39  65  92 122 163 214 266 315 373
#     4  11  20  36  61  91 127 160 204 268 319 378
#     4  11  20  33  64  97 124 157 208 274 327 366
#     4  12  22  39  63  94 128 168 214 263 324 376
#     4  12  26  42  62  93 135 175 213 258 317 388
#
# _framework density 21.420394000000002
#
# number of rings (size 3 to 8) (size 9 to 14) (size 15 to 20)
#    0.000    0.632    7.368    2.526    0.000    0.421 
#    0.000    0.000    0.000    0.000    0.000    2.211 
#    0.000    0.000    0.000    0.000    0.000    0.000 
#
# Total GULP energy -105780.679361 kJ/mol
# GULP energy per Si atom -5567.404177 kJ/mol
# Density = 2.137164 g / cm^3
# Si number density = 21.420394 Si / 1000 Ang^3
#
#
#
# Elastic Constant Matrix: (Units=GPa)
#
#
# Indices 1 2 3 4 5 6 
#
# 1 24.8405 2.1788 9.6572 -0.0005 13.5992 0.0007
# 2 2.1788 93.1428 27.0029 -0.0009 9.8736 0.0005
# 3 9.6572 27.0029 156.7276 -0.0019 18.1013 0.0010
# 4 -0.0005 -0.0009 -0.0019 96.0262 0.0012 -30.3533
# 5 13.5992 9.8736 18.1013 0.0012 25.1119 -0.0008
# 6 0.0007 0.0005 0.0010 -30.3533 -0.0008 23.7129
#
#
#
# Elastic Compliance Matrix: (Units=1/GPa)
#
#
# Indices 1 2 3 4 5 6 
#
# 1 0.057600 0.002096 -0.000232 0.000000 -0.031850 -0.000003
# 2 0.002096 0.011636 -0.001608 0.000000 -0.004551 0.000000
# 3 -0.000232 -0.001608 0.007182 0.000000 -0.004419 0.000000
# 4 0.000000 0.000000 0.000000 0.017491 0.000000 0.022389
# 5 -0.031850 -0.004551 -0.004419 0.000000 0.062045 0.000003
# 6 -0.000003 0.000000 0.000000 0.022389 0.000003 0.070830
#
#
# Mechanical properties :
#
#
# Convention : Reuss Voigt Hill
#
# Bulk Modulus (GPa) = 12.99881 39.15429 26.07655
# Shear Modulus (GPa) = 19.84797 44.69499 32.27148
#
# Velocity S-wave (km/s) = 3.04730 4.57285 3.88568
# Velocity P-wave (km/s) = 4.29686 6.79705 5.68607
#
# Compressibility (1/GPa) = 0.07693011
#
# Stress axis : x y z
#
# Youngs Moduli (GPa) = 17.36113 85.94133 139.23134
#
# Poissons Ratio (x) = -0.18014 0.03227
# Poissons Ratio (y) = -0.03639 0.22393
# Poissons Ratio (z) = 0.00402 0.13822
#
# Static dielectric constant tensor:
#      x y z
#    x 1.827000 0.000000 -0.028030 
#    y 0.000000 1.871350 0.000000 
#    z -0.028030 0.000000 2.091720 
# 
# From -- ./inp_files/90283.got.cif
#   From: 2010.05.17/outbox.cif.g08.bks.cpg/sg12_46_cif.got.tgz:90283.got - 2010.06.03 13:09:07.
