data_PCOD9217120
_publ_section_title
;
Structure prediction by ZEFSAII (Michael W. Deem and Ramdas Pophale) SiO2 
 PCOD9217120
Probable space group: C 2/M
;
_chemical_formula_sum "Si O2"
_cell_formula_units_Z 48
_cell_length_a 13.103321
_cell_length_b 28.228435
_cell_length_c 12.180554
_cell_angle_alpha 90.000000
_cell_angle_beta 148.246530
_cell_angle_gamma 90.000000
_cell_volume 2371.046435
_symmetry_space_group_name_H-M "C 2/M"
_symmetry_group_IT_number 12
_symmetry_cell_setting 'monoclinic'
loop_
_space_group_symop_operation_xyz
x,y,z
-x,y,-z
-x,-y,-z
x,-y,z
1/2+x,1/2+y,z
1/2-x,1/2+y,-z
1/2-x,1/2-y,-z
1/2+x,1/2-y,z
loop_
_atom_site_type_symbol
_atom_site_label
_atom_site_fract_x
_atom_site_fract_y
_atom_site_fract_z
Si Si1 0.087734 0.200591 0.371585
Si Si2 0.444889 0.846832 0.568083
Si Si3 0.189198 0.946320 0.015312
Si Si4 0.759000 0.445508 0.340909
Si Si5 0.205362 0.644907 0.998736
Si Si6 0.928520 0.721867 0.819769
O O1 0.259519 0.177301 0.455201
O O2 0.200051 0.214707 0.585912
O O3 0.909116 0.165787 0.222605
O O4 0.013774 0.244571 0.230212
O O5 0.500000 0.828074 0.500000
O O6 0.383857 0.902254 0.501765
O O7 0.638977 0.840218 0.815758
O O8 0.276906 0.910935 0.005625
O O9 0.955663 0.941201 0.804595
O O10 0.240736 0.000000 0.035954
O O11 0.240531 0.939196 0.191854
O O12 0.825388 0.500000 0.421560
O O13 0.037235 0.671082 0.912540
O O14 0.000000 0.743334 0.000000
#
# Coordination Sequence:
#
# PCOD9217120 Si02
#       6
#     8   8   8   8   8   8
#     4  10  23  42  57  86 118 142 192 238 275 349
#     4  11  21  30  52  85 116 162 189 223 279 333
#     4   9  17  30  52  79 115 157 191 230 283 338
#     4   9  17  30  47  78 121 160 192 225 276 342
#     4  11  21  36  58  81 114 151 194 229 285 337
#     4  10  24  42  61  85 110 147 191 236 289 339
#
# _framework density 20.244228
#
# number of rings (size 3 to 8) (size 9 to 14) (size 15 to 20)
#    0.000    2.000    3.333    1.500    2.333    1.667 
#    0.000    0.000    0.000    0.500    0.000    1.167 
#    0.000    0.000    0.000    0.000    0.000    0.000 
#
# Total GULP energy -133727.082259 kJ/mol
# GULP energy per Si atom -5571.961761 kJ/mol
# Density = 2.019815 g / cm^3
# Si number density = 20.244228 Si / 1000 Ang^3
#
#
#
# Elastic Constant Matrix: (Units=GPa)
#
#
# Indices 1 2 3 4 5 6 
#
# 1 25.7412 15.0915 19.1566 0.0000 1.0066 0.0000
# 2 15.0915 107.2301 19.9666 0.0000 5.2104 0.0000
# 3 19.1566 19.9666 120.7035 0.0000 -3.8682 0.0000
# 4 0.0000 0.0000 0.0000 28.2558 0.0000 1.3616
# 5 1.0066 5.2104 -3.8682 0.0000 24.0607 0.0000
# 6 0.0000 0.0000 0.0000 1.3616 0.0000 20.3877
#
#
#
# Elastic Compliance Matrix: (Units=1/GPa)
#
#
# Indices 1 2 3 4 5 6 
#
# 1 0.046959 -0.005281 -0.006640 0.000000 -0.001889 0.000000
# 2 -0.005281 0.010350 -0.000944 0.000000 -0.002172 0.000000
# 3 -0.006640 -0.000944 0.009559 0.000000 0.002019 0.000000
# 4 0.000000 0.000000 0.000000 0.035505 0.000000 -0.002371
# 5 -0.001889 -0.002172 0.002019 0.000000 0.042436 0.000000
# 6 0.000000 0.000000 0.000000 -0.002371 0.000000 0.049208
#
#
# Mechanical properties :
#
#
# Convention : Reuss Voigt Hill
#
# Bulk Modulus (GPa) = 24.30702 40.23380 32.27041
# Shear Modulus (GPa) = 21.41699 27.83817 24.62758
#
# Velocity S-wave (km/s) = 3.25611 3.71228 3.49165
# Velocity P-wave (km/s) = 5.11560 6.18806 5.67721
#
# Compressibility (1/GPa) = 0.04114038
#
# Stress axis : x y z
#
# Youngs Moduli (GPa) = 21.29495 96.61618 104.60973
#
# Poissons Ratio (x) = 0.51023 0.69459
# Poissons Ratio (y) = 0.11246 0.09871
# Poissons Ratio (z) = 0.14139 0.09117
#
# Static dielectric constant tensor:
#      x y z
#    x 1.724080 0.000000 0.010560 
#    y 0.000000 1.782920 0.000000 
#    z 0.010560 0.000000 1.773850 
# 
# From -- ./inp_files/149844.got.cif
#   From: 2010.05.17/outbox.cif.g08.bks.cpg/sg12_75_cif.got.tgz:149844.got - 2010.06.03 13:09:07.
