data_PCOD9217927
_publ_section_title
;
Structure prediction by ZEFSAII (Michael W. Deem and Ramdas Pophale) SiO2 
 PCOD9217927
Probable space group: C 2/M
;
_chemical_formula_sum "Si O2"
_cell_formula_units_Z 44
_cell_length_a 9.335462
_cell_length_b 26.212071
_cell_length_c 11.631502
_cell_angle_alpha 90.000000
_cell_angle_beta 125.554778
_cell_angle_gamma 90.000000
_cell_volume 2315.594546
_symmetry_space_group_name_H-M "C 2/M"
_symmetry_group_IT_number 12
_symmetry_cell_setting 'monoclinic'
loop_
_space_group_symop_operation_xyz
x,y,z
-x,y,-z
-x,-y,-z
x,-y,z
1/2+x,1/2+y,z
1/2-x,1/2+y,-z
1/2-x,1/2-y,-z
1/2+x,1/2-y,z
loop_
_atom_site_type_symbol
_atom_site_label
_atom_site_fract_x
_atom_site_fract_y
_atom_site_fract_z
Si Si1 0.167280 0.000000 0.167417
Si Si2 0.845770 0.181906 0.611387
Si Si3 0.199741 0.558801 0.130509
Si Si4 0.794216 0.090545 0.416263
Si Si5 0.000000 0.254340 0.500000
Si Si6 0.991259 0.896876 0.861935
Si Si7 0.945989 0.500000 0.607974
O O1 0.137501 0.945894 0.216184
O O2 0.373832 0.000000 0.231229
O O3 0.000000 0.000000 0.000000
O O4 0.784951 0.141892 0.485125
O O5 0.976649 0.219553 0.603251
O O6 0.677141 0.211958 0.581609
O O7 0.934843 0.148857 0.753201
O O8 0.253791 0.500000 0.182170
O O9 0.227263 0.593287 0.254976
O O10 0.320859 0.581025 0.087604
O O11 0.000000 0.558188 0.000000
O O12 0.000000 0.075622 0.500000
O O13 0.673548 0.048433 0.419505
O O14 0.000000 0.883002 0.000000
O O15 0.000000 0.500000 0.500000
#
# Coordination Sequence:
#
# PCOD9217927 Si02
#       7
#     4   8   8   8   4   8   4
#     4  10  24  38  58  92 143 178 205 250 303 384
#     4  11  23  44  67  98 119 171 216 282 340 395
#     4  11  24  38  59  89 137 188 217 254 312 387
#     4  12  24  42  66  94 135 172 224 268 324 396
#     4  10  24  44  70  88 128 156 222 290 350 386
#     4  11  23  40  66  94 136 174 218 261 323 390
#     4  12  27  36  60 102 137 173 220 267 312 380
#
# _framework density 19.001598999999999
#
# number of rings (size 3 to 8) (size 9 to 14) (size 15 to 20)
#    0.000    0.909    4.545    1.364    8.909    0.000 
#    0.000    0.909    0.000    4.364    0.000    0.000 
#    0.000    0.000    0.000    0.000    0.000    0.000 
#
# Total GULP energy -122882.882363 kJ/mol
# GULP energy per Si atom -5585.585562 kJ/mol
# Density = 1.895835 g / cm^3
# Si number density = 19.001599 Si / 1000 Ang^3
#
#
#
# Elastic Constant Matrix: (Units=GPa)
#
#
# Indices 1 2 3 4 5 6 
#
# 1 153.1592 79.8331 47.7549 0.0000 -0.8850 0.0000
# 2 79.8331 105.0078 51.8325 0.0000 9.3931 0.0000
# 3 47.7549 51.8325 97.4393 0.0000 -10.0884 0.0000
# 4 0.0000 0.0000 0.0000 132.0675 0.0000 86.7026
# 5 -0.8850 9.3931 -10.0884 0.0000 35.4222 0.0000
# 6 0.0000 0.0000 0.0000 86.7026 0.0000 71.6247
#
#
#
# Elastic Compliance Matrix: (Units=1/GPa)
#
#
# Indices 1 2 3 4 5 6 
#
# 1 0.011083 -0.008213 -0.000833 0.000000 0.002217 0.000000
# 2 -0.008213 0.020151 -0.007489 0.000000 -0.007682 0.000000
# 3 -0.000833 -0.007489 0.015310 0.000000 0.006326 0.000000
# 4 0.000000 0.000000 0.000000 0.036883 0.000000 -0.044647
# 5 0.002217 -0.007682 0.006326 0.000000 0.032125 0.000000
# 6 0.000000 0.000000 0.000000 -0.044647 0.000000 0.068008
#
#
# Mechanical properties :
#
#
# Convention : Reuss Voigt Hill
#
# Bulk Modulus (GPa) = 74.22431 79.38304 76.80368
# Shear Modulus (GPa) = 22.61210 59.56860 41.09035
#
# Velocity S-wave (km/s) = 3.45340 5.60511 4.65528
# Velocity P-wave (km/s) = 7.41945 9.15191 8.33084
#
# Compressibility (1/GPa) = 0.01347267
#
# Stress axis : x y z
#
# Youngs Moduli (GPa) = 90.23188 49.62575 65.31624
#
# Poissons Ratio (x) = 0.40756 0.05443
# Poissons Ratio (y) = 0.74104 0.48919
# Poissons Ratio (z) = 0.07519 0.37167
#
# Static dielectric constant tensor:
#      x y z
#    x 1.656990 0.000000 -0.024940 
#    y 0.000000 1.668510 0.000000 
#    z -0.024940 0.000000 1.674060 
# 
# From -- ./inp_files/124495.got.cif
#   From: 2010.05.17/outbox.cif.g08.bks.cpg/sg12_63_cif.got.tgz:124495.got - 2010.06.03 13:09:07.
