data_PCOD9217203
_publ_section_title
;
Structure prediction by ZEFSAII (Michael W. Deem and Ramdas Pophale) SiO2 
 PCOD9217203
Probable space group: C 2/M
;
_chemical_formula_sum "Si O2"
_cell_formula_units_Z 52
_cell_length_a 14.016991
_cell_length_b 14.434330
_cell_length_c 19.874408
_cell_angle_alpha 90.000000
_cell_angle_beta 31.272792
_cell_angle_gamma 90.000000
_cell_volume 2087.410094
_symmetry_space_group_name_H-M "C 2/M"
_symmetry_group_IT_number 12
_symmetry_cell_setting 'monoclinic'
loop_
_space_group_symop_operation_xyz
x,y,z
-x,y,-z
-x,-y,-z
x,-y,z
1/2+x,1/2+y,z
1/2-x,1/2+y,-z
1/2-x,1/2-y,-z
1/2+x,1/2-y,z
loop_
_atom_site_type_symbol
_atom_site_label
_atom_site_fract_x
_atom_site_fract_y
_atom_site_fract_z
Si Si1 0.713724 0.500000 0.522213
Si Si2 0.358410 0.894923 0.023569
Si Si3 0.205006 0.365772 0.398768
Si Si4 0.614546 0.106883 0.140783
Si Si5 0.943171 0.895306 0.125595
Si Si6 0.357974 0.692024 0.491259
Si Si7 0.669670 0.239933 0.216499
O O1 0.746754 0.420006 0.561922
O O2 0.674431 0.583586 0.491420
O O3 0.444543 0.868221 0.899549
O O4 0.216049 0.819241 0.134610
O O5 0.283000 0.000000 0.060675
O O6 0.500000 0.897994 0.000000
O O7 0.352865 0.389393 0.253178
O O8 0.192662 0.254643 0.414497
O O9 0.000000 0.394873 0.500000
O O10 0.837937 0.116700 0.003007
O O11 0.569382 0.000000 0.180440
O O12 0.556416 0.165868 0.240142
O O13 0.840523 0.818328 0.142991
O O14 0.902967 0.000000 0.124033
O O15 0.250000 0.750000 0.500000
O O16 0.565513 0.713781 0.340984
#
# Coordination Sequence:
#
# PCOD9217203 Si02
#       7
#     4   8   8   8   8   8   8
#     4  10  23  42  69  90 136 181 227 284 331 408
#     4  10  23  42  64  89 126 175 225 264 322 409
#     4  11  21  42  68 102 131 176 232 277 341 407
#     4  10  23  42  66  98 130 170 220 276 344 400
#     4  11  23  38  69 100 134 172 218 284 341 404
#     4  10  25  42  65  99 134 175 226 276 334 404
#     4  12  23  40  65  96 136 169 217 281 338 396
#
# _framework density 24.911252000000001
#
# number of rings (size 3 to 8) (size 9 to 14) (size 15 to 20)
#    0.000    1.385    2.308    2.538    5.385    1.231 
#    5.538    0.385    1.692    0.000    0.000    0.000 
#    0.000    0.000    0.000    0.000    0.000    0.000 
#
# Total GULP energy -144979.947301 kJ/mol
# GULP energy per Si atom -5576.151819 kJ/mol
# Density = 2.485455 g / cm^3
# Si number density = 24.911252 Si / 1000 Ang^3
#
#
#
# Elastic Constant Matrix: (Units=GPa)
#
#
# Indices 1 2 3 4 5 6 
#
# 1 72.2791 37.3213 5.6724 -0.0014 11.0029 -0.0004
# 2 37.3213 208.1336 61.9980 -0.0058 18.4944 0.0000
# 3 5.6724 61.9980 81.0175 -0.0060 2.7488 0.0009
# 4 -0.0014 -0.0058 -0.0060 17.2291 0.0052 17.8918
# 5 11.0029 18.4944 2.7488 0.0052 32.5756 0.0006
# 6 -0.0004 0.0000 0.0009 17.8918 0.0006 19.9763
#
#
#
# Elastic Compliance Matrix: (Units=1/GPa)
#
#
# Indices 1 2 3 4 5 6 
#
# 1 0.015794 -0.002852 0.001206 0.000021 -0.003817 -0.000019
# 2 -0.002852 0.007076 -0.005126 0.000013 -0.002621 -0.000011
# 3 0.001206 -0.005126 0.016143 0.000063 0.001141 -0.000057
# 4 0.000021 0.000013 0.000063 0.830376 -0.000140 -0.743726
# 5 -0.003817 -0.002621 0.001141 -0.000140 0.033379 0.000125
# 6 -0.000019 -0.000011 -0.000057 -0.743726 0.000125 0.716178
#
#
# Mechanical properties :
#
#
# Convention : Reuss Voigt Hill
#
# Bulk Modulus (GPa) = 39.26367 63.49039 51.37703
# Shear Modulus (GPa) = 3.04696 31.05211 17.04953
#
# Velocity S-wave (km/s) = 1.10715 3.53442 2.61896
# Velocity P-wave (km/s) = 4.17493 6.49601 5.46023
#
# Compressibility (1/GPa) = 0.02546884
#
# Stress axis : x y z
#
# Youngs Moduli (GPa) = 63.31325 141.32346 61.94777
#
# Poissons Ratio (x) = 0.40310 -0.07473
# Poissons Ratio (y) = 0.18059 0.31756
# Poissons Ratio (z) = -0.07638 0.72445
#
# Static dielectric constant tensor:
#      x y z
#    x 2.027560 0.000000 -0.066200 
#    y 0.000000 1.979110 -0.000050 
#    z -0.066200 -0.000050 2.350830 
# 
# From -- ./inp_files/270575.got.cif
#   From: 2010.05.17/outbox.cif.g08.bks.cpg/sg12_136_cif.got.tgz:270575.got - 2010.06.03 13:09:07.
