data_PCOD9217829
_publ_section_title
;
Structure prediction by ZEFSAII (Michael W. Deem and Ramdas Pophale) SiO2 
 PCOD9217829
Probable space group: C 2/M
;
_chemical_formula_sum "Si O2"
_cell_formula_units_Z 28
_cell_length_a 5.360275
_cell_length_b 19.298252
_cell_length_c 13.768576
_cell_angle_alpha 90.000000
_cell_angle_beta 67.198580
_cell_angle_gamma 90.000000
_cell_volume 1312.973623
_symmetry_space_group_name_H-M "C 2/M"
_symmetry_group_IT_number 12
_symmetry_cell_setting 'monoclinic'
loop_
_space_group_symop_operation_xyz
x,y,z
-x,y,-z
-x,-y,-z
x,-y,z
1/2+x,1/2+y,z
1/2-x,1/2+y,-z
1/2-x,1/2-y,-z
1/2+x,1/2-y,z
loop_
_atom_site_type_symbol
_atom_site_label
_atom_site_fract_x
_atom_site_fract_y
_atom_site_fract_z
Si Si1 0.500000 0.795291 0.000000
Si Si2 0.325909 0.922327 0.687145
Si Si3 0.365691 0.682008 0.430261
Si Si4 0.249601 0.866709 0.224170
O O1 0.390066 0.838319 0.107713
O O2 0.750000 0.750000 0.000000
O O3 0.338738 0.863323 0.602842
O O4 0.531793 0.904920 0.741856
O O5 0.009329 0.913846 0.764206
O O6 0.373651 0.000000 0.644260
O O7 0.500000 0.640175 0.500000
O O8 0.250000 0.750000 0.500000
O O9 0.609500 0.692384 0.314781
#
# Coordination Sequence:
#
# PCOD9217829 Si02
#       4
#     4   8   8   8
#     4  12  26  44  71 104 147 184 230 304 360 424
#     4  10  23  46  70 102 145 188 240 293 351 432
#     4  10  26  40  71 102 140 185 239 292 359 422
#     4  10  25  43  68 103 140 185 240 284 369 415
#
# _framework density 21.325637
#
# number of rings (size 3 to 8) (size 9 to 14) (size 15 to 20)
#    1.714    0.000    0.000    2.571    8.000    0.571 
#    0.000    5.714    0.000    0.000    0.000    0.000 
#    0.000    0.000    0.000    0.286    0.000    0.000 
#
# Total GULP energy -78055.218538 kJ/mol
# GULP energy per Si atom -5575.372753 kJ/mol
# Density = 2.127710 g / cm^3
# Si number density = 21.325637 Si / 1000 Ang^3
#
#
#
# Elastic Constant Matrix: (Units=GPa)
#
#
# Indices 1 2 3 4 5 6 
#
# 1 171.0098 49.2228 32.6923 0.0000 7.8717 0.0000
# 2 49.2228 132.5328 57.9627 0.0000 1.9099 0.0000
# 3 32.6923 57.9627 160.9331 0.0000 -15.6427 0.0000
# 4 0.0000 0.0000 0.0000 14.1195 0.0000 1.1377
# 5 7.8717 1.9099 -15.6427 0.0000 27.7875 0.0000
# 6 0.0000 0.0000 0.0000 1.1377 0.0000 17.4299
#
#
#
# Elastic Compliance Matrix: (Units=1/GPa)
#
#
# Indices 1 2 3 4 5 6 
#
# 1 0.006712 -0.002101 -0.000822 0.000000 -0.002220 0.000000
# 2 -0.002101 0.009791 -0.003287 0.000000 -0.001928 0.000000
# 3 -0.000822 -0.003287 0.008050 0.000000 0.004990 0.000000
# 4 0.000000 0.000000 0.000000 0.071198 0.000000 -0.004647
# 5 -0.002220 -0.001928 0.004990 0.000000 0.039558 0.000000
# 6 0.000000 0.000000 0.000000 -0.004647 0.000000 0.057676
#
#
# Mechanical properties :
#
#
# Convention : Reuss Voigt Hill
#
# Bulk Modulus (GPa) = 82.43021 82.69238 82.56129
# Shear Modulus (GPa) = 23.87205 33.50724 28.68964
#
# Velocity S-wave (km/s) = 3.34938 3.96816 3.67183
# Velocity P-wave (km/s) = 7.32768 7.73662 7.53492
#
# Compressibility (1/GPa) = 0.01213148
#
# Stress axis : x y z
#
# Youngs Moduli (GPa) = 148.99126 102.13485 124.22696
#
# Poissons Ratio (x) = 0.21459 0.10218
# Poissons Ratio (y) = 0.31304 0.40833
# Poissons Ratio (z) = 0.12254 0.33572
#
# Static dielectric constant tensor:
#      x y z
#    x 1.565390 0.000000 0.320870 
#    y 0.000000 1.792830 0.000000 
#    z 0.320870 0.000000 1.401630 
# 
# From -- ./inp_files/114368.got.cif
#   From: 2010.05.17/outbox.cif.g08.bks.cpg/sg12_58_cif.got.tgz:114368.got - 2010.06.03 13:09:07.
