data_PCOD9217302
_publ_section_title
;
Structure prediction by ZEFSAII (Michael W. Deem and Ramdas Pophale) SiO2 
 PCOD9217302
Probable space group: C 2/M
;
_chemical_formula_sum "Si O2"
_cell_formula_units_Z 56
_cell_length_a 23.794930
_cell_length_b 21.207484
_cell_length_c 11.693509
_cell_angle_alpha 90.000000
_cell_angle_beta 25.918215
_cell_angle_gamma 90.000000
_cell_volume 2579.212144
_symmetry_space_group_name_H-M "C 2/M"
_symmetry_group_IT_number 12
_symmetry_cell_setting 'monoclinic'
loop_
_space_group_symop_operation_xyz
x,y,z
-x,y,-z
-x,-y,-z
x,-y,z
1/2+x,1/2+y,z
1/2-x,1/2+y,-z
1/2-x,1/2-y,-z
1/2+x,1/2-y,z
loop_
_atom_site_type_symbol
_atom_site_label
_atom_site_fract_x
_atom_site_fract_y
_atom_site_fract_z
Si Si1 0.226914 0.073002 0.459359
Si Si2 0.788708 0.825869 0.068670
Si Si3 0.730649 0.928496 0.368085
Si Si4 0.691127 0.179076 0.001522
Si Si5 0.895445 0.244871 0.281719
Si Si6 0.475344 0.125546 0.878788
Si Si7 0.426519 0.355174 0.426090
O O1 0.197699 0.088917 0.644584
O O2 0.108475 0.086711 0.592019
O O3 0.260518 0.000000 0.395385
O O4 0.350277 0.110407 0.183916
O O5 0.694820 0.825270 0.131136
O O6 0.931732 0.851692 0.784266
O O7 0.744344 0.871707 0.252101
O O8 0.809574 0.750611 0.047084
O O9 0.580795 0.928423 0.679060
O O10 0.766546 0.000000 0.265329
O O11 0.823214 0.149305 0.714874
O O12 0.576945 0.141903 0.151059
O O13 0.750000 0.250000 0.500000
O O14 0.901385 0.202924 0.384698
O O15 0.950513 0.313304 0.211818
O O16 0.000000 0.218578 0.000000
#
# Coordination Sequence:
#
# PCOD9217302 Si02
#       7
#     8   8   8   8   8   8   8
#     4  10  23  42  66  95 131 178 221 263 323 402
#     4  11  24  41  64  91 131 169 218 270 329 388
#     4  11  24  41  63  94 132 170 213 264 324 392
#     4  10  23  43  64  93 122 171 220 273 329 388
#     4  12  24  36  62 101 140 171 212 276 346 407
#     4  11  21  40  66  95 128 170 218 272 326 389
#     4  11  23  39  64  90 129 166 214 267 328 394
#
# _framework density 21.712057000000001
#
# number of rings (size 3 to 8) (size 9 to 14) (size 15 to 20)
#    0.000    1.143    1.429    5.571    4.000    2.286 
#    0.000    6.429    0.000    4.286    0.000    0.000 
#    0.000    0.000    0.000    0.000    0.000    0.000 
#
# Total GULP energy -156452.929502 kJ/mol
# GULP energy per Si atom -5587.604625 kJ/mol
# Density = 2.166264 g / cm^3
# Si number density = 21.712057 Si / 1000 Ang^3
#
#
#
# Elastic Constant Matrix: (Units=GPa)
#
#
# Indices 1 2 3 4 5 6 
#
# 1 78.7112 24.9630 10.7082 -0.0011 -9.6124 0.0010
# 2 24.9630 81.6479 1.0259 -0.0007 5.7389 0.0006
# 3 10.7082 1.0259 40.2633 -0.0004 -13.8451 0.0003
# 4 -0.0011 -0.0007 -0.0004 28.3456 -0.0001 5.1687
# 5 -9.6124 5.7389 -13.8451 -0.0001 36.1493 -0.0001
# 6 0.0010 0.0006 0.0003 5.1687 -0.0001 6.4284
#
#
#
# Elastic Compliance Matrix: (Units=1/GPa)
#
#
# Indices 1 2 3 4 5 6 
#
# 1 0.015051 -0.004835 -0.002579 0.000001 0.003782 -0.000002
# 2 -0.004835 0.013985 -0.000318 0.000000 -0.003628 -0.000001
# 3 -0.002579 -0.000318 0.029151 0.000001 0.010530 -0.000002
# 4 0.000001 0.000000 0.000001 0.041340 0.000000 -0.033239
# 5 0.003782 -0.003628 0.010530 0.000000 0.033277 -0.000001
# 6 -0.000002 -0.000001 -0.000002 -0.033239 -0.000001 0.182286
#
#
# Mechanical properties :
#
#
# Convention : Reuss Voigt Hill
#
# Bulk Modulus (GPa) = 23.40662 30.44628 26.92645
# Shear Modulus (GPa) = 14.50137 25.11300 19.80719
#
# Velocity S-wave (km/s) = 2.58717 3.40463 3.02365
# Velocity P-wave (km/s) = 4.44167 5.43217 4.96170
#
# Compressibility (1/GPa) = 0.04272296
#
# Stress axis : x y z
#
# Youngs Moduli (GPa) = 66.44147 71.50539 34.30382
#
# Poissons Ratio (x) = 0.34573 0.08848
# Poissons Ratio (y) = 0.32125 0.01090
# Poissons Ratio (z) = 0.17136 0.02273
#
# Static dielectric constant tensor:
#      x y z
#    x 1.798230 0.000000 0.033520 
#    y 0.000000 1.823600 0.000000 
#    z 0.033520 0.000000 1.818580 
# 
# From -- ./inp_files/177869.got.cif
#   From: 2010.05.17/outbox.cif.g08.bks.cpg/sg12_89_cif.got.tgz:177869.got - 2010.06.03 13:09:07.
