data_PCOD9217247
_publ_section_title
;
Structure prediction by ZEFSAII (Michael W. Deem and Ramdas Pophale) SiO2 
 PCOD9217247
Probable space group: C 2/M
;
_chemical_formula_sum "Si O2"
_cell_formula_units_Z 40
_cell_length_a 16.651430
_cell_length_b 8.350635
_cell_length_c 14.503451
_cell_angle_alpha 90.000000
_cell_angle_beta 120.030616
_cell_angle_gamma 90.000000
_cell_volume 1745.978757
_symmetry_space_group_name_H-M "C 2/M"
_symmetry_group_IT_number 12
_symmetry_cell_setting 'monoclinic'
loop_
_space_group_symop_operation_xyz
x,y,z
-x,y,-z
-x,-y,-z
x,-y,z
1/2+x,1/2+y,z
1/2-x,1/2+y,-z
1/2-x,1/2-y,-z
1/2+x,1/2-y,z
loop_
_atom_site_type_symbol
_atom_site_label
_atom_site_fract_x
_atom_site_fract_y
_atom_site_fract_z
Si Si1 0.386574 0.817119 0.331480
Si Si2 0.475930 0.194890 0.739575
Si Si3 0.263842 0.809274 0.611500
Si Si4 0.416966 0.678803 0.021233
Si Si5 0.241998 0.182473 0.891836
O O1 0.482248 0.755868 0.337743
O O2 0.324290 0.740810 0.376542
O O3 0.316730 0.799061 0.205011
O O4 0.403120 0.000000 0.367723
O O5 0.369395 0.246265 0.696971
O O6 0.542883 0.265267 0.857281
O O7 0.481025 0.000000 0.745343
O O8 0.250000 0.750000 0.500000
O O9 0.267250 0.000000 0.616498
O O10 0.374462 0.500000 0.005288
O O11 0.500000 0.663439 0.000000
O O12 0.349778 0.802852 0.931294
O O13 0.210533 0.000000 0.862229
O O14 0.250000 0.250000 0.000000
#
# Coordination Sequence:
#
# PCOD9217247 Si02
#       5
#     8   8   8   8   8
#     4  11  23  42  67  96 129 170 215 267 322 382
#     4  10  23  42  65  91 125 169 215 262 321 388
#     4  11  25  46  69  96 127 166 213 270 332 389
#     4  11  23  37  58  90 127 168 214 263 314 376
#     4  12  23  37  59  90 128 169 210 256 309 372
#
# _framework density 22.909786
#
# number of rings (size 3 to 8) (size 9 to 14) (size 15 to 20)
#    0.000    1.000    2.000    4.800    0.000    8.000 
#    0.000    4.000    0.000    0.000    0.000    0.000 
#    0.000    0.000    0.000    0.000    0.000    0.000 
#
# Total GULP energy -111551.152568 kJ/mol
# GULP energy per Si atom -5577.557628 kJ/mol
# Density = 2.285764 g / cm^3
# Si number density = 22.909786 Si / 1000 Ang^3
#
#
#
# Elastic Constant Matrix: (Units=GPa)
#
#
# Indices 1 2 3 4 5 6 
#
# 1 126.2383 23.7712 11.1311 0.0000 -31.5623 0.0000
# 2 23.7712 53.2830 -5.0749 0.0000 -2.4485 0.0000
# 3 11.1311 -5.0749 55.6398 0.0000 -11.7142 0.0000
# 4 0.0000 0.0000 0.0000 27.0700 0.0000 -5.3935
# 5 -31.5623 -2.4485 -11.7142 0.0000 41.9165 0.0000
# 6 0.0000 0.0000 0.0000 -5.3935 0.0000 34.7027
#
#
#
# Elastic Compliance Matrix: (Units=1/GPa)
#
#
# Indices 1 2 3 4 5 6 
#
# 1 0.010753 -0.004543 -0.000974 0.000000 0.007559 0.000000
# 2 -0.004543 0.020964 0.002506 0.000000 -0.001495 0.000000
# 3 -0.000974 0.002506 0.019415 0.000000 0.004839 0.000000
# 4 0.000000 0.000000 0.000000 0.038122 0.000000 0.005925
# 5 0.007559 -0.001495 0.004839 0.000000 0.030814 0.000000
# 6 0.000000 0.000000 0.000000 0.005925 0.000000 0.029737
#
#
# Mechanical properties :
#
#
# Convention : Reuss Voigt Hill
#
# Bulk Modulus (GPa) = 22.16761 32.75732 27.46246
# Shear Modulus (GPa) = 29.26333 34.42674 31.84504
#
# Velocity S-wave (km/s) = 3.57785 3.88068 3.73234
# Velocity P-wave (km/s) = 5.17350 5.86592 5.53056
#
# Compressibility (1/GPa) = 0.04511087
#
# Stress axis : x y z
#
# Youngs Moduli (GPa) = 92.99983 47.70027 51.50681
#
# Poissons Ratio (x) = 0.21668 0.05017
# Poissons Ratio (y) = 0.42245 -0.12908
# Poissons Ratio (z) = 0.09058 -0.11954
#
# Static dielectric constant tensor:
#      x y z
#    x 2.898900 0.000000 0.026090 
#    y 0.000000 2.063180 0.000000 
#    z 0.026090 0.000000 1.819700 
# 
# From -- ./inp_files/221215.got.cif
#   From: 2010.05.17/outbox.cif.g08.bks.cpg/sg12_111_cif.got.tgz:221215.got - 2010.06.03 13:09:07.
