data_PCOD9217365
_publ_section_title
;
Structure prediction by ZEFSAII (Michael W. Deem and Ramdas Pophale) SiO2 
 PCOD9217365
Probable space group: C 2/M
;
_chemical_formula_sum "Si O2"
_cell_formula_units_Z 32
_cell_length_a 8.098586
_cell_length_b 20.377684
_cell_length_c 8.860872
_cell_angle_alpha 90.000000
_cell_angle_beta 84.646092
_cell_angle_gamma 90.000000
_cell_volume 1455.933920
_symmetry_space_group_name_H-M "C 2/M"
_symmetry_group_IT_number 12
_symmetry_cell_setting 'monoclinic'
loop_
_space_group_symop_operation_xyz
x,y,z
-x,y,-z
-x,-y,-z
x,-y,z
1/2+x,1/2+y,z
1/2-x,1/2+y,-z
1/2-x,1/2-y,-z
1/2+x,1/2-y,z
loop_
_atom_site_type_symbol
_atom_site_label
_atom_site_fract_x
_atom_site_fract_y
_atom_site_fract_z
Si Si1 0.401467 0.763935 0.378146
Si Si2 0.532170 0.868325 0.170886
Si Si3 0.432032 0.360205 0.177767
Si Si4 0.451249 0.500000 0.324659
Si Si5 0.555224 0.000000 0.327520
O O1 0.500000 0.802797 0.500000
O O2 0.250000 0.750000 0.500000
O O3 0.407536 0.812395 0.238888
O O4 0.472421 0.696529 0.298832
O O5 0.729019 0.855538 0.184862
O O6 0.490101 0.935887 0.252980
O O7 0.500000 0.875698 0.000000
O O8 0.496337 0.430802 0.237004
O O9 0.500000 0.349952 0.000000
O O10 0.500000 0.500000 0.500000
O O11 0.253532 0.500000 0.317307
O O12 0.500000 0.000000 0.500000
#
# Coordination Sequence:
#
# PCOD9217365 Si02
#       5
#     8   8   8   4   4
#     4  12  25  43  67  96 131 171 221 271 323 383
#     4  11  25  43  66  98 132 172 219 267 327 388
#     4  11  25  43  67  97 133 173 215 270 327 386
#     4  10  23  44  68 100 129 168 218 265 325 390
#     4  10  23  42  70  96 131 168 216 270 323 386
#
# _framework density 21.979018
#
# number of rings (size 3 to 8) (size 9 to 14) (size 15 to 20)
#    0.000    1.000    2.500    3.000    7.000    4.000 
#    0.000    0.000    0.000    0.000    0.000    0.000 
#    0.000    0.000    0.000    0.000    0.000    0.000 
#
# Total GULP energy -89115.246420 kJ/mol
# GULP energy per Si atom -5569.702901 kJ/mol
# Density = 2.192899 g / cm^3
# Si number density = 21.979018 Si / 1000 Ang^3
#
#
#
# Elastic Constant Matrix: (Units=GPa)
#
#
# Indices 1 2 3 4 5 6 
#
# 1 22.8896 11.8064 6.3542 0.0000 -15.4346 0.0000
# 2 11.8064 165.0018 88.4619 0.0000 -24.7929 0.0000
# 3 6.3542 88.4619 199.6563 0.0000 -22.3818 0.0000
# 4 0.0000 0.0000 0.0000 44.4816 0.0000 -3.5692
# 5 -15.4346 -24.7929 -22.3818 0.0000 47.5802 0.0000
# 6 0.0000 0.0000 0.0000 -3.5692 0.0000 20.9894
#
#
#
# Elastic Compliance Matrix: (Units=1/GPa)
#
#
# Indices 1 2 3 4 5 6 
#
# 1 0.056379 -0.001927 0.001053 0.000000 0.017780 0.000000
# 2 -0.001927 0.008337 -0.003395 0.000000 0.002122 0.000000
# 3 0.001053 -0.003395 0.006671 0.000000 0.001711 0.000000
# 4 0.000000 0.000000 0.000000 0.022792 0.000000 0.003876
# 5 0.017780 0.002122 0.001711 0.000000 0.028695 0.000000
# 6 0.000000 0.000000 0.000000 0.003876 0.000000 0.048302
#
#
# Mechanical properties :
#
#
# Convention : Reuss Voigt Hill
#
# Bulk Modulus (GPa) = 15.91114 66.75475 41.33295
# Shear Modulus (GPa) = 24.91720 41.33859 33.12789
#
# Velocity S-wave (km/s) = 3.37067 4.34155 3.88654
# Velocity P-wave (km/s) = 4.73324 7.45453 6.24394
#
# Compressibility (1/GPa) = 0.06284903
#
# Stress axis : x y z
#
# Youngs Moduli (GPa) = 17.73718 119.94195 149.90263
#
# Poissons Ratio (x) = 0.23111 -0.15779
# Poissons Ratio (y) = 0.03418 0.50889
# Poissons Ratio (z) = -0.01867 0.40718
#
# Static dielectric constant tensor:
#      x y z
#    x 1.881870 0.000000 0.070640 
#    y 0.000000 1.782410 0.000000 
#    z 0.070640 0.000000 1.699210 
# 
# From -- ./inp_files/37695.got.cif
#   From: 2010.05.17/outbox.cif.g08.bks.cpg/sg12_19_cif.got.tgz:37695.got - 2010.06.03 13:09:07.
