data_PCOD9217842
_publ_section_title
;
Structure prediction by ZEFSAII (Michael W. Deem and Ramdas Pophale) SiO2 
 PCOD9217842
Probable space group: C 2/M
;
_chemical_formula_sum "Si O2"
_cell_formula_units_Z 36
_cell_length_a 13.137980
_cell_length_b 20.883613
_cell_length_c 5.871523
_cell_angle_alpha 90.000000
_cell_angle_beta 84.939722
_cell_angle_gamma 90.000000
_cell_volume 1604.682106
_symmetry_space_group_name_H-M "C 2/M"
_symmetry_group_IT_number 12
_symmetry_cell_setting 'monoclinic'
loop_
_space_group_symop_operation_xyz
x,y,z
-x,y,-z
-x,-y,-z
x,-y,z
1/2+x,1/2+y,z
1/2-x,1/2+y,-z
1/2-x,1/2-y,-z
1/2+x,1/2-y,z
loop_
_atom_site_type_symbol
_atom_site_label
_atom_site_fract_x
_atom_site_fract_y
_atom_site_fract_z
Si Si1 0.554214 0.924125 0.243855
Si Si2 0.500000 0.318024 0.500000
Si Si3 0.391952 0.247086 0.159411
Si Si4 0.263369 0.855857 0.983144
Si Si5 0.085036 0.069482 0.181113
O O1 0.500000 0.910575 0.500000
O O2 0.654297 0.879675 0.214965
O O3 0.578328 0.000000 0.244581
O O4 0.500000 0.914893 0.000000
O O5 0.419974 0.271296 0.401103
O O6 0.442847 0.367790 0.672902
O O7 0.319410 0.303474 0.079230
O O8 0.500000 0.243708 0.000000
O O9 0.330487 0.181426 0.157028
O O10 0.198531 0.917078 0.070512
O O11 0.082220 0.000000 0.298534
O O12 0.000000 0.067925 0.000000
#
# Coordination Sequence:
#
# PCOD9217842 Si02
#       5
#     8   4   8   8   8
#     4  10  23  46  72 105 148 188 241 306 364 432
#     4  12  21  44  68 102 139 186 234 300 356 432
#     4  11  24  45  65  97 143 180 235 298 359 421
#     4  11  22  45  69 100 137 190 237 286 366 441
#     4  11  23  43  69 103 147 181 227 298 364 430
#
# _framework density 22.434348
#
# number of rings (size 3 to 8) (size 9 to 14) (size 15 to 20)
#    0.000    1.111    4.444    1.667    0.000    2.667 
#    8.000    2.222    0.000    0.000    0.000    0.000 
#    0.000    0.000    0.000    0.000    0.000    0.000 
#
# Total GULP energy -100425.533041 kJ/mol
# GULP energy per Si atom -5579.196280 kJ/mol
# Density = 2.238329 g / cm^3
# Si number density = 22.434348 Si / 1000 Ang^3
#
#
#
# Elastic Constant Matrix: (Units=GPa)
#
#
# Indices 1 2 3 4 5 6 
#
# 1 127.6742 67.1441 50.3043 0.0000 -5.9528 0.0000
# 2 67.1441 114.9199 41.3098 0.0000 4.2194 0.0000
# 3 50.3043 41.3098 88.5688 0.0000 -1.9858 0.0000
# 4 0.0000 0.0000 0.0000 40.7079 0.0000 -42.0910
# 5 -5.9528 4.2194 -1.9858 0.0000 33.1194 0.0000
# 6 0.0000 0.0000 0.0000 -42.0910 0.0000 180.1251
#
#
#
# Elastic Compliance Matrix: (Units=1/GPa)
#
#
# Indices 1 2 3 4 5 6 
#
# 1 0.012889 -0.006038 -0.004441 0.000000 0.002820 0.000000
# 2 -0.006038 0.013371 -0.002874 0.000000 -0.002961 0.000000
# 3 -0.004441 -0.002874 0.015164 0.000000 0.000477 0.000000
# 4 0.000000 0.000000 0.000000 0.032392 0.000000 0.007569
# 5 0.002820 -0.002961 0.000477 0.000000 0.031106 0.000000
# 6 0.000000 0.000000 0.000000 0.007569 0.000000 0.007320
#
#
# Mechanical properties :
#
#
# Convention : Reuss Voigt Hill
#
# Bulk Modulus (GPa) = 67.93915 72.07544 70.00730
# Shear Modulus (GPa) = 34.75745 62.28412 48.52078
#
# Velocity S-wave (km/s) = 3.94038 5.27476 4.65563
# Velocity P-wave (km/s) = 7.14503 8.32433 7.75712
#
# Compressibility (1/GPa) = 0.01471905
#
# Stress axis : x y z
#
# Youngs Moduli (GPa) = 77.58549 74.78862 65.94496
#
# Poissons Ratio (x) = 0.45155 0.29288
# Poissons Ratio (y) = 0.46844 0.18950
# Poissons Ratio (z) = 0.34458 0.21491
#
# Static dielectric constant tensor:
#      x y z
#    x 1.870900 0.000000 -0.054710 
#    y 0.000000 1.794450 0.000000 
#    z -0.054710 0.000000 2.064000 
# 
# From -- ./inp_files/7000.got.cif
#   From: 2010.05.17/outbox.cif.g08.bks.cpg/sg12_4_cif.got.tgz:7000.got - 2010.06.03 13:09:07.
