data_PCOD9217934
_publ_section_title
;
Structure prediction by ZEFSAII (Michael W. Deem and Ramdas Pophale) SiO2 
 PCOD9217934
Probable space group: C 2/M
;
_chemical_formula_sum "Si O2"
_cell_formula_units_Z 36
_cell_length_a 9.040245
_cell_length_b 20.160859
_cell_length_c 16.298039
_cell_angle_alpha 90.000000
_cell_angle_beta 144.253804
_cell_angle_gamma 90.000000
_cell_volume 1735.333707
_symmetry_space_group_name_H-M "C 2/M"
_symmetry_group_IT_number 12
_symmetry_cell_setting 'monoclinic'
loop_
_space_group_symop_operation_xyz
x,y,z
-x,y,-z
-x,-y,-z
x,-y,z
1/2+x,1/2+y,z
1/2-x,1/2+y,-z
1/2-x,1/2-y,-z
1/2+x,1/2-y,z
loop_
_atom_site_type_symbol
_atom_site_label
_atom_site_fract_x
_atom_site_fract_y
_atom_site_fract_z
Si Si1 0.500000 0.742153 0.000000
Si Si2 0.038571 0.728065 0.202261
Si Si3 0.954768 0.500000 0.855376
Si Si4 0.800386 0.130261 0.652767
Si Si5 0.631715 0.388620 0.638386
Si Si6 0.444423 0.500000 0.171431
O O1 0.477309 0.780715 0.903568
O O2 0.233627 0.705686 0.886756
O O3 0.094339 0.803743 0.254265
O O4 0.258218 0.682747 0.335128
O O5 0.866359 0.434331 0.769147
O O6 0.762557 0.500000 0.847309
O O7 0.250432 0.500000 0.008565
O O8 0.500000 0.134225 0.500000
O O9 0.943046 0.121083 0.629784
O O10 0.883873 0.065375 0.741916
O O11 0.500000 0.418685 0.500000
#
# Coordination Sequence:
#
# PCOD9217934 Si02
#       6
#     4   8   4   8   8   4
#     4  10  24  38  62  96 130 160 202 264 308 364
#     4  11  23  40  66  92 130 160 210 252 316 364
#     4   9  21  40  65  89 120 161 212 257 308 366
#     4  11  24  41  64  92 126 167 207 255 310 368
#     4  11  24  41  64  92 126 167 207 255 310 368
#     4   9  21  40  65  89 120 161 212 257 308 366
#
# _framework density 20.745289
#
# number of rings (size 3 to 8) (size 9 to 14) (size 15 to 20)
#    0.000    1.556    2.222    1.333    9.333    1.778 
#    0.000    0.000    0.000    2.667    0.000    0.000 
#    0.000    0.000    0.000    0.000    0.000    0.000 
#
# Total GULP energy -100430.852395 kJ/mol
# GULP energy per Si atom -5579.491800 kJ/mol
# Density = 2.069807 g / cm^3
# Si number density = 20.745289 Si / 1000 Ang^3
#
#
#
# Elastic Constant Matrix: (Units=GPa)
#
#
# Indices 1 2 3 4 5 6 
#
# 1 82.1293 20.8720 42.1401 0.0008 17.3012 0.0026
# 2 20.8720 126.6548 52.2839 -0.0034 7.5502 0.0011
# 3 42.1401 52.2839 151.1414 -0.0084 19.1160 0.0046
# 4 0.0008 -0.0034 -0.0084 3.6416 -0.0024 0.2966
# 5 17.3012 7.5502 19.1160 -0.0024 37.6906 0.0029
# 6 0.0026 0.0011 0.0046 0.2966 0.0029 11.6806
#
#
#
# Elastic Compliance Matrix: (Units=1/GPa)
#
#
# Indices 1 2 3 4 5 6 
#
# 1 0.015154 -0.000834 -0.003289 -0.000015 -0.005121 0.000000
# 2 -0.000834 0.009259 -0.002975 0.000002 0.000037 0.000000
# 3 -0.003289 -0.002975 0.008865 0.000017 -0.002390 -0.000002
# 4 -0.000015 0.000002 0.000017 0.275177 0.000016 -0.006988
# 5 -0.005121 0.000037 -0.002390 0.000016 0.030088 -0.000006
# 6 0.000000 0.000000 -0.000002 -0.006988 -0.000006 0.085790
#
#
# Mechanical properties :
#
#
# Convention : Reuss Voigt Hill
#
# Bulk Modulus (GPa) = 52.40686 65.61306 59.00996
# Shear Modulus (GPa) = 11.23876 26.91118 19.07497
#
# Velocity S-wave (km/s) = 2.33008 3.60560 3.03559
# Velocity P-wave (km/s) = 5.70578 7.00217 6.38695
#
# Compressibility (1/GPa) = 0.01908147
#
# Stress axis : x y z
#
# Youngs Moduli (GPa) = 65.98806 108.00491 112.80648
#
# Poissons Ratio (x) = 0.09012 0.37100
# Poissons Ratio (y) = 0.05506 0.33559
# Poissons Ratio (z) = 0.21703 0.32131
#
# Static dielectric constant tensor:
#      x y z
#    x 1.750110 0.000000 -0.033250 
#    y 0.000000 1.728920 0.000000 
#    z -0.033250 0.000000 1.744630 
# 
# From -- ./inp_files/197629.got.cif
#   From: 2010.05.17/outbox.cif.g08.bks.cpg/sg12_99_cif.got.tgz:197629.got - 2010.06.03 13:09:07.
