data_PCOD9217579
_publ_section_title
;
Structure prediction by ZEFSAII (Michael W. Deem and Ramdas Pophale) SiO2 
 PCOD9217579
Probable space group: C 2/M
;
_chemical_formula_sum "Si O2"
_cell_formula_units_Z 40
_cell_length_a 14.208872
_cell_length_b 22.037069
_cell_length_c 9.464422
_cell_angle_alpha 90.000000
_cell_angle_beta 33.180546
_cell_angle_gamma 90.000000
_cell_volume 1621.871257
_symmetry_space_group_name_H-M "C 2/M"
_symmetry_group_IT_number 12
_symmetry_cell_setting 'monoclinic'
loop_
_space_group_symop_operation_xyz
x,y,z
-x,y,-z
-x,-y,-z
x,-y,z
1/2+x,1/2+y,z
1/2-x,1/2+y,-z
1/2-x,1/2-y,-z
1/2+x,1/2-y,z
loop_
_atom_site_type_symbol
_atom_site_label
_atom_site_fract_x
_atom_site_fract_y
_atom_site_fract_z
Si Si1 0.513289 0.758660 0.152839
Si Si2 0.286031 0.068947 0.380696
Si Si3 0.572859 0.381213 0.101262
Si Si4 0.299027 0.646484 0.782487
Si Si5 0.123309 0.642259 0.481854
O O1 0.384055 0.795067 0.419307
O O2 0.500000 0.764014 0.000000
O O3 0.508103 0.688325 0.196572
O O4 0.693991 0.793202 0.950868
O O5 0.089076 0.075103 0.684051
O O6 0.284363 0.112101 0.245519
O O7 0.405960 0.094002 0.355708
O O8 0.323243 0.000000 0.298440
O O9 0.693860 0.376370 0.813848
O O10 0.692581 0.393693 0.086594
O O11 0.500000 0.658394 0.500000
O O12 0.000000 0.645897 0.500000
#
# Coordination Sequence:
#
# PCOD9217579 Si02
#       5
#     8   8   8   8   8
#     4  12  24  43  70 105 149 179 224 284 353 425
#     4  11  26  50  72  96 138 193 240 279 333 416
#     4  11  26  42  70 108 140 184 226 284 350 415
#     4  10  23  43  70 102 139 183 228 278 341 418
#     4  12  26  42  70 105 140 183 227 294 357 396
#
# _framework density 24.662869000000001
#
# number of rings (size 3 to 8) (size 9 to 14) (size 15 to 20)
#    0.000    0.800    4.000    2.400    5.600    7.200 
#    0.000    2.000    0.000    0.000    0.000    0.000 
#    0.000    0.000    0.000    0.000    0.000    0.000 
#
# Total GULP energy -111890.894003 kJ/mol
# GULP energy per Si atom -5594.544700 kJ/mol
# Density = 2.460674 g / cm^3
# Si number density = 24.662869 Si / 1000 Ang^3
#
#
#
# Elastic Constant Matrix: (Units=GPa)
#
#
# Indices 1 2 3 4 5 6 
#
# 1 167.3907 28.6347 27.5395 -0.0003 37.8992 0.0003
# 2 28.6347 97.5488 11.6281 -0.0002 5.8969 0.0002
# 3 27.5395 11.6281 148.4318 -0.0002 20.0479 0.0003
# 4 -0.0003 -0.0002 -0.0002 8.2816 0.0002 2.8307
# 5 37.8992 5.8969 20.0479 0.0002 42.5554 -0.0002
# 6 0.0003 0.0002 0.0003 2.8307 -0.0002 16.7932
#
#
#
# Elastic Compliance Matrix: (Units=1/GPa)
#
#
# Indices 1 2 3 4 5 6 
#
# 1 0.007839 -0.001856 -0.000428 0.000001 -0.006522 0.000000
# 2 -0.001856 0.010838 -0.000561 0.000000 0.000415 0.000000
# 3 -0.000428 -0.000561 0.007260 0.000000 -0.002961 0.000000
# 4 0.000001 0.000000 0.000000 0.128132 -0.000001 -0.021598
# 5 -0.006522 0.000415 -0.002961 -0.000001 0.030645 0.000001
# 6 0.000000 0.000000 0.000000 -0.021598 0.000001 0.063188
#
#
# Mechanical properties :
#
#
# Convention : Reuss Voigt Hill
#
# Bulk Modulus (GPa) = 49.38816 60.99729 55.19272
# Shear Modulus (GPa) = 19.20566 36.56399 27.88482
#
# Velocity S-wave (km/s) = 2.79360 3.85457 3.36615
# Velocity P-wave (km/s) = 5.52036 6.67805 6.12661
#
# Compressibility (1/GPa) = 0.02024777
#
# Stress axis : x y z
#
# Youngs Moduli (GPa) = 127.57376 92.27007 137.73265
#
# Poissons Ratio (x) = 0.17122 0.05896
# Poissons Ratio (y) = 0.23673 0.07724
# Poissons Ratio (z) = 0.05461 0.05174
#
# Static dielectric constant tensor:
#      x y z
#    x 2.043970 0.000000 -0.030020 
#    y 0.000000 1.861050 0.000000 
#    z -0.030020 0.000000 2.015440 
# 
# From -- ./inp_files/65064.got.cif
#   From: 2010.05.17/outbox.cif.g08.bks.cpg/sg12_33_cif.got.tgz:65064.got - 2010.06.03 13:09:07.
