data_PCOD9217067
_publ_section_title
;
Structure prediction by ZEFSAII (Michael W. Deem and Ramdas Pophale) SiO2 
 PCOD9217067
Probable space group: C 2/M
;
_chemical_formula_sum "Si O2"
_cell_formula_units_Z 28
_cell_length_a 18.083282
_cell_length_b 18.302687
_cell_length_c 9.696966
_cell_angle_alpha 90.000000
_cell_angle_beta 153.857049
_cell_angle_gamma 90.000000
_cell_volume 1414.114379
_symmetry_space_group_name_H-M "C 2/M"
_symmetry_group_IT_number 12
_symmetry_cell_setting 'monoclinic'
loop_
_space_group_symop_operation_xyz
x,y,z
-x,y,-z
-x,-y,-z
x,-y,z
1/2+x,1/2+y,z
1/2-x,1/2+y,-z
1/2-x,1/2-y,-z
1/2+x,1/2-y,z
loop_
_atom_site_type_symbol
_atom_site_label
_atom_site_fract_x
_atom_site_fract_y
_atom_site_fract_z
Si Si1 0.500000 0.128106 0.500000
Si Si2 0.221263 0.844794 0.548333
Si Si3 0.630835 0.500000 0.509587
Si Si4 0.753587 0.000000 0.987656
Si Si5 0.526046 0.204071 0.252323
O O1 0.516898 0.177680 0.393167
O O2 0.655852 0.072621 0.777722
O O3 0.317999 0.833973 0.566152
O O4 0.065044 0.789827 0.300000
O O5 0.172993 0.927437 0.496104
O O6 0.357456 0.818673 0.890395
O O7 0.735207 0.500000 0.827366
O O8 0.438143 0.500000 0.233462
#
# Coordination Sequence:
#
# PCOD9217067 Si02
#       5
#     4   8   4   4   8
#     4  11  22  42  62  95 124 170 198 265 312 366
#     4  10  23  43  65  93 125 166 209 254 305 375
#     4  11  22  43  64  92 125 171 200 262 310 368
#     4  10  24  38  61  97 133 150 216 262 304 373
#     4  10  23  41  66  91 128 162 213 251 307 373
#
# _framework density 19.800379
#
# number of rings (size 3 to 8) (size 9 to 14) (size 15 to 20)
#    0.000    1.714    2.857    0.000    4.000    8.000 
#    0.000    1.429    0.000    0.000    0.000    0.000 
#    0.000    0.000    0.000    0.000    0.000    0.000 
#
# Total GULP energy -78280.526219 kJ/mol
# GULP energy per Si atom -5591.466159 kJ/mol
# Density = 1.975531 g / cm^3
# Si number density = 19.800379 Si / 1000 Ang^3
#
#
#
# Elastic Constant Matrix: (Units=GPa)
#
#
# Indices 1 2 3 4 5 6 
#
# 1 100.8083 52.1258 29.9860 0.0000 -32.2182 0.0000
# 2 52.1258 161.7917 23.9962 0.0000 4.5641 0.0000
# 3 29.9860 23.9962 45.1250 0.0000 -1.4633 0.0000
# 4 0.0000 0.0000 0.0000 16.9247 0.0000 -10.0195
# 5 -32.2182 4.5641 -1.4633 0.0000 24.8825 0.0000
# 6 0.0000 0.0000 0.0000 -10.0195 0.0000 19.2798
#
#
#
# Elastic Compliance Matrix: (Units=1/GPa)
#
#
# Indices 1 2 3 4 5 6 
#
# 1 0.034335 -0.009961 -0.016049 0.000000 0.045341 0.000000
# 2 -0.009961 0.009652 0.001013 0.000000 -0.014608 0.000000
# 3 -0.016049 0.001013 0.031667 0.000000 -0.019104 0.000000
# 4 0.000000 0.000000 0.000000 0.085341 0.000000 0.044351
# 5 0.045341 -0.014608 -0.019104 0.000000 0.100453 0.000000
# 6 0.000000 0.000000 0.000000 0.044351 0.000000 0.074917
#
#
# Mechanical properties :
#
#
# Convention : Reuss Voigt Hill
#
# Bulk Modulus (GPa) = 38.97054 57.77123 48.37089
# Shear Modulus (GPa) = 12.66106 25.65852 19.15979
#
# Velocity S-wave (km/s) = 2.53145 3.60371 3.11408
# Velocity P-wave (km/s) = 5.31684 6.82318 6.11656
#
# Compressibility (1/GPa) = 0.02566041
#
# Stress axis : x y z
#
# Youngs Moduli (GPa) = 29.12483 103.60736 31.57842
#
# Poissons Ratio (x) = 1.03201 0.50679
# Poissons Ratio (y) = 0.29011 -0.03198
# Poissons Ratio (z) = 0.46742 -0.10493
#
# Static dielectric constant tensor:
#      x y z
#    x 1.661720 0.000000 -0.004790 
#    y 0.000000 1.661760 0.000000 
#    z -0.004790 0.000000 1.709100 
# 
# From -- ./inp_files/36666.got.cif
#   From: 2010.05.17/outbox.cif.g08.bks.cpg/sg12_19_cif.got.tgz:36666.got - 2010.06.03 13:09:07.
