data_PCOD9217079
_publ_section_title
;
Structure prediction by ZEFSAII (Michael W. Deem and Ramdas Pophale) SiO2 
 PCOD9217079
Probable space group: C 2/M
;
_chemical_formula_sum "Si O2"
_cell_formula_units_Z 42
_cell_length_a 14.663154
_cell_length_b 18.654094
_cell_length_c 8.609163
_cell_angle_alpha 90.000000
_cell_angle_beta 59.840843
_cell_angle_gamma 90.000000
_cell_volume 2036.077822
_symmetry_space_group_name_H-M "C 2/M"
_symmetry_group_IT_number 12
_symmetry_cell_setting 'monoclinic'
loop_
_space_group_symop_operation_xyz
x,y,z
-x,y,-z
-x,-y,-z
x,-y,z
1/2+x,1/2+y,z
1/2-x,1/2+y,-z
1/2-x,1/2-y,-z
1/2+x,1/2-y,z
loop_
_atom_site_type_symbol
_atom_site_label
_atom_site_fract_x
_atom_site_fract_y
_atom_site_fract_z
Si Si1 0.422141 0.358677 0.770259
Si Si2 0.837625 0.625133 0.520949
Si Si3 0.990163 0.703198 0.825588
Si Si4 0.633527 0.419027 0.504937
Si Si5 0.000000 0.500000 0.500000
Si Si6 0.277067 0.827021 0.900495
O O1 0.464315 0.278747 0.766662
O O2 0.524950 0.408127 0.692053
O O3 0.376661 0.367367 0.635354
O O4 0.324772 0.373756 0.968550
O O5 0.735223 0.596159 0.520316
O O6 0.913230 0.562900 0.523048
O O7 0.797725 0.672655 0.700154
O O8 0.907471 0.670200 0.340561
O O9 0.888719 0.652203 0.881544
O O10 0.000000 0.714572 0.000000
O O11 0.637861 0.500000 0.440665
O O12 0.250000 0.750000 0.000000
#
# Coordination Sequence:
#
# PCOD9217079 Si02
#       6
#     8   8   8   8   2   8
#     4  10  24  43  67  99 140 175 229 290 339 421
#     4  12  25  47  73  99 142 183 232 296 342 418
#     4  11  24  43  70 105 133 178 232 291 358 405
#     4  11  25  45  68  98 137 190 233 271 350 418
#     4  12  24  48  70 104 140 186 242 280 350 414
#     4  10  23  41  66  99 136 174 227 282 349 407
#
# _framework density 20.627894999999999
#
# number of rings (size 3 to 8) (size 9 to 14) (size 15 to 20)
#    0.000    1.143    2.857    2.286   16.000    0.762 
#    3.429    1.429    0.000    0.000    0.000    0.000 
#    0.000    0.000    0.000    0.000    0.000    0.000 
#
# Total GULP energy -117009.294517 kJ/mol
# GULP energy per Si atom -5571.871167 kJ/mol
# Density = 2.058094 g / cm^3
# Si number density = 20.627895 Si / 1000 Ang^3
#
#
#
# Elastic Constant Matrix: (Units=GPa)
#
#
# Indices 1 2 3 4 5 6 
#
# 1 175.5843 37.5240 63.5949 0.0000 -7.3051 0.0000
# 2 37.5240 75.2050 52.0772 0.0000 16.2895 0.0000
# 3 63.5949 52.0772 152.4927 0.0000 -6.3775 0.0000
# 4 0.0000 0.0000 0.0000 2.9398 0.0000 -2.4962
# 5 -7.3051 16.2895 -6.3775 0.0000 31.7294 0.0000
# 6 0.0000 0.0000 0.0000 -2.4962 0.0000 30.6152
#
#
#
# Elastic Compliance Matrix: (Units=1/GPa)
#
#
# Indices 1 2 3 4 5 6 
#
# 1 0.007092 -0.002822 -0.001881 0.000000 0.002703 0.000000
# 2 -0.002822 0.022591 -0.007110 0.000000 -0.013677 0.000000
# 3 -0.001881 -0.007110 0.009989 0.000000 0.005225 0.000000
# 4 0.000000 0.000000 0.000000 0.365462 0.000000 0.029797
# 5 0.002703 -0.013677 0.005225 0.000000 0.040211 0.000000
# 6 0.000000 0.000000 0.000000 0.029797 0.000000 0.035093
#
#
# Mechanical properties :
#
#
# Convention : Reuss Voigt Hill
#
# Bulk Modulus (GPa) = 62.32040 78.85269 70.58655
# Shear Modulus (GPa) = 9.81525 29.72926 19.77225
#
# Velocity S-wave (km/s) = 2.18371 3.80045 3.09936
# Velocity P-wave (km/s) = 6.05272 7.58730 6.86304
#
# Compressibility (1/GPa) = 0.01604611
#
# Stress axis : x y z
#
# Youngs Moduli (GPa) = 141.00356 44.26578 100.11222
#
# Poissons Ratio (x) = 0.12490 0.18831
# Poissons Ratio (y) = 0.39786 0.71181
# Poissons Ratio (z) = 0.26522 0.31474
#
# Static dielectric constant tensor:
#      x y z
#    x 1.761880 0.000000 -0.033900 
#    y 0.000000 1.709820 0.000000 
#    z -0.033900 0.000000 1.759930 
# 
# From -- ./inp_files/61627.got.cif
#   From: 2010.05.17/outbox.cif.g08.bks.cpg/sg12_31_cif.got.tgz:61627.got - 2010.06.03 13:09:07.
