data_PCOD9217903
_publ_section_title
;
Structure prediction by ZEFSAII (Michael W. Deem and Ramdas Pophale) SiO2 
 PCOD9217903
Probable space group: C 2/M
;
_chemical_formula_sum "Si O2"
_cell_formula_units_Z 48
_cell_length_a 7.827058
_cell_length_b 30.850704
_cell_length_c 9.970521
_cell_angle_alpha 90.000000
_cell_angle_beta 78.736442
_cell_angle_gamma 90.000000
_cell_volume 2361.211928
_symmetry_space_group_name_H-M "C 2/M"
_symmetry_group_IT_number 12
_symmetry_cell_setting 'monoclinic'
loop_
_space_group_symop_operation_xyz
x,y,z
-x,y,-z
-x,-y,-z
x,-y,z
1/2+x,1/2+y,z
1/2-x,1/2+y,-z
1/2-x,1/2-y,-z
1/2+x,1/2-y,z
loop_
_atom_site_type_symbol
_atom_site_label
_atom_site_fract_x
_atom_site_fract_y
_atom_site_fract_z
Si Si1 0.451752 0.500000 0.792276
Si Si2 0.557676 0.593574 0.217606
Si Si3 0.714206 0.903028 0.077855
Si Si4 0.700866 0.204027 0.445660
Si Si5 0.000000 0.761839 0.000000
Si Si6 0.337167 0.807169 0.858669
Si Si7 0.000000 0.144292 0.500000
Si Si8 0.709635 0.000000 0.095309
O O1 0.414038 0.545084 0.731009
O O2 0.654416 0.500000 0.803087
O O3 0.334746 0.500000 0.945392
O O4 0.380893 0.595684 0.154051
O O5 0.537130 0.621274 0.352847
O O6 0.708568 0.601811 0.084605
O O7 0.617892 0.857763 0.125822
O O8 0.626504 0.951303 0.106125
O O9 0.500000 0.194114 0.500000
O O10 0.750000 0.250000 0.500000
O O11 0.722790 0.200881 0.283154
O O12 0.827907 0.171401 0.498498
O O13 0.831801 0.792653 0.028717
O O14 0.016787 0.727793 0.120883
#
# Coordination Sequence:
#
# PCOD9217903 Si02
#       8
#     4   8   8   8   4   8   4   4
#     4   7  12  25  46  80 123 146 192 247 296 349
#     4   9  17  30  53  88 118 156 197 250 298 364
#     4   9  16  31  57  81 121 152 201 252 305 358
#     4  12  26  43  62  84 121 165 210 248 303 374
#     4  10  24  36  60  86 116 146 206 254 308 366
#     4  11  22  40  59  88 116 160 197 258 308 358
#     4  12  24  37  62  90 120 166 206 245 312 354
#     4   7  12  24  48  85 110 152 191 249 303 356
#
# _framework density 20.328544000000001
#
# number of rings (size 3 to 8) (size 9 to 14) (size 15 to 20)
#    0.000    2.167    2.500    4.000    0.000    3.000 
#    0.000    0.000    0.000    0.500    0.000    5.250 
#    0.000    0.000    0.000    0.000    0.000    0.000 
#
# Total GULP energy -133722.864546 kJ/mol
# GULP energy per Si atom -5571.786023 kJ/mol
# Density = 2.028228 g / cm^3
# Si number density = 20.328544 Si / 1000 Ang^3
#
#
#
# Elastic Constant Matrix: (Units=GPa)
#
#
# Indices 1 2 3 4 5 6 
#
# 1 57.3442 30.6973 17.0784 0.0000 14.1555 0.0000
# 2 30.6973 171.7971 62.7053 0.0000 5.7341 0.0000
# 3 17.0784 62.7053 105.2025 0.0000 15.3096 0.0000
# 4 0.0000 0.0000 0.0000 9.4069 0.0000 -2.8203
# 5 14.1555 5.7341 15.3096 0.0000 20.4185 0.0000
# 6 0.0000 0.0000 0.0000 -2.8203 0.0000 8.0759
#
#
#
# Elastic Compliance Matrix: (Units=1/GPa)
#
#
# Indices 1 2 3 4 5 6 
#
# 1 0.023129 -0.003923 0.000849 0.000000 -0.015570 0.000000
# 2 -0.003923 0.008140 -0.004802 0.000000 0.004034 0.000000
# 3 0.000849 -0.004802 0.013604 0.000000 -0.009440 0.000000
# 4 0.000000 0.000000 0.000000 0.118737 0.000000 0.041466
# 5 -0.015570 0.004034 -0.009440 0.000000 0.065714 0.000000
# 6 0.000000 0.000000 0.000000 0.041466 0.000000 0.138307
#
#
# Mechanical properties :
#
#
# Convention : Reuss Voigt Hill
#
# Bulk Modulus (GPa) = 34.33926 61.70063 48.01995
# Shear Modulus (GPa) = 12.71977 22.50444 17.61210
#
# Velocity S-wave (km/s) = 2.50413 3.33083 2.94661
# Velocity P-wave (km/s) = 5.02889 6.72385 5.93717
#
# Compressibility (1/GPa) = 0.02912118
#
# Stress axis : x y z
#
# Youngs Moduli (GPa) = 43.23550 122.85235 73.51045
#
# Poissons Ratio (x) = 0.48197 -0.06244
# Poissons Ratio (y) = 0.16962 0.35299
# Poissons Ratio (z) = -0.03672 0.58993
#
# Static dielectric constant tensor:
#      x y z
#    x 1.756400 0.000000 -0.052250 
#    y 0.000000 1.780570 0.000000 
#    z -0.052250 0.000000 1.820630 
# 
# From -- ./inp_files/42317.got.cif
#   From: 2010.05.17/outbox.cif.g08.bks.cpg/sg12_22_cif.got.tgz:42317.got - 2010.06.03 13:09:07.
