data_PCOD9217180
_publ_section_title
;
Structure prediction by ZEFSAII (Michael W. Deem and Ramdas Pophale) SiO2 
 PCOD9217180
Probable space group: C 2/M
;
_chemical_formula_sum "Si O2"
_cell_formula_units_Z 64
_cell_length_a 15.569709
_cell_length_b 26.465129
_cell_length_c 11.865614
_cell_angle_alpha 90.000000
_cell_angle_beta 38.963913
_cell_angle_gamma 90.000000
_cell_volume 3074.528520
_symmetry_space_group_name_H-M "C 2/M"
_symmetry_group_IT_number 12
_symmetry_cell_setting 'monoclinic'
loop_
_space_group_symop_operation_xyz
x,y,z
-x,y,-z
-x,-y,-z
x,-y,z
1/2+x,1/2+y,z
1/2-x,1/2+y,-z
1/2-x,1/2-y,-z
1/2+x,1/2-y,z
loop_
_atom_site_type_symbol
_atom_site_label
_atom_site_fract_x
_atom_site_fract_y
_atom_site_fract_z
Si Si1 0.931872 0.942305 0.444732
Si Si2 0.794308 0.679333 0.625594
Si Si3 0.317026 0.882428 0.222760
Si Si4 0.630027 0.705934 0.436025
Si Si5 0.229160 0.060473 0.085497
Si Si6 0.727552 0.146855 0.113868
Si Si7 0.515680 0.178935 0.785660
Si Si8 0.520265 0.296791 0.802903
O O1 0.797741 0.908462 0.578921
O O2 0.000000 0.942145 0.500000
O O3 0.066728 0.926793 0.240543
O O4 0.894279 0.000000 0.456816
O O5 0.836049 0.736081 0.617923
O O6 0.824318 0.647232 0.705281
O O7 0.874529 0.670827 0.427270
O O8 0.633003 0.677797 0.766974
O O9 0.253628 0.827493 0.265837
O O10 0.296684 0.916836 0.131563
O O11 0.450176 0.865684 0.159261
O O12 0.500000 0.688438 0.500000
O O13 0.586935 0.700126 0.609823
O O14 0.243222 0.000000 0.073415
O O15 0.284155 0.090389 0.922917
O O16 0.628396 0.176336 0.129813
O O17 0.874200 0.175620 0.958113
O O18 0.522514 0.236241 0.825568
#
# Coordination Sequence:
#
# PCOD9217180 Si02
#       8
#     8   8   8   8   8   8   8   8
#     4   8  15  31  58  89 118 154 206 261 305 368
#     4  11  22  42  61  88 128 171 217 257 296 371
#     4  11  18  34  61  92 128 165 206 249 326 381
#     4  11  19  33  61  90 127 167 207 252 312 375
#     4  10  23  42  63  92 127 163 213 278 333 375
#     4  12  25  40  63  91 123 177 213 258 321 376
#     4  11  23  40  61  94 135 169 210 255 306 388
#     4  11  21  41  60  94 131 170 213 258 302 370
#
# _framework density 20.816199999999998
#
# number of rings (size 3 to 8) (size 9 to 14) (size 15 to 20)
#    0.000    1.375    2.500    7.125    0.000    1.500 
#    2.250    1.875    0.000    4.500    0.000    0.000 
#    0.000    0.000    0.000    0.000    0.000    0.000 
#
# Total GULP energy -178509.302776 kJ/mol
# GULP energy per Si atom -5578.415712 kJ/mol
# Density = 2.076882 g / cm^3
# Si number density = 20.816200 Si / 1000 Ang^3
#
#
#
# Elastic Constant Matrix: (Units=GPa)
#
#
# Indices 1 2 3 4 5 6 
#
# 1 102.5506 35.1742 33.5042 0.0000 -6.4992 0.0000
# 2 35.1742 90.3545 37.7483 0.0000 11.5117 0.0000
# 3 33.5042 37.7483 59.9067 0.0000 1.5226 0.0000
# 4 0.0000 0.0000 0.0000 26.8855 0.0000 -3.5590
# 5 -6.4992 11.5117 1.5226 0.0000 32.9177 0.0000
# 6 0.0000 0.0000 0.0000 -3.5590 0.0000 21.2114
#
#
#
# Elastic Compliance Matrix: (Units=1/GPa)
#
#
# Indices 1 2 3 4 5 6 
#
# 1 0.012837 -0.003336 -0.005177 0.000000 0.003941 0.000000
# 2 -0.003336 0.016694 -0.008498 0.000000 -0.006104 0.000000
# 3 -0.005177 -0.008498 0.024923 0.000000 0.000797 0.000000
# 4 0.000000 0.000000 0.000000 0.038040 0.000000 0.006383
# 5 0.003941 -0.006104 0.000797 0.000000 0.033255 0.000000
# 6 0.000000 0.000000 0.000000 0.006383 0.000000 0.048215
#
#
# Mechanical properties :
#
#
# Convention : Reuss Voigt Hill
#
# Bulk Modulus (GPa) = 48.94706 51.74057 50.34382
# Shear Modulus (GPa) = 23.27773 25.96193 24.61983
#
# Velocity S-wave (km/s) = 3.34765 3.53540 3.44281
# Velocity P-wave (km/s) = 6.20543 6.44789 6.32782
#
# Compressibility (1/GPa) = 0.02043024
#
# Stress axis : x y z
#
# Youngs Moduli (GPa) = 77.90089 59.89999 40.12399
#
# Poissons Ratio (x) = 0.19985 0.20773
# Poissons Ratio (y) = 0.25991 0.34099
# Poissons Ratio (z) = 0.40330 0.50905
#
# Static dielectric constant tensor:
#      x y z
#    x 1.771910 0.000000 -0.006750 
#    y 0.000000 1.757410 0.000000 
#    z -0.006750 0.000000 1.858390 
# 
# From -- ./inp_files/149738.got.cif
#   From: 2010.05.17/outbox.cif.g08.bks.cpg/sg12_75_cif.got.tgz:149738.got - 2010.06.03 13:09:07.
