data_PCOD9217061
_publ_section_title
;
Structure prediction by ZEFSAII (Michael W. Deem and Ramdas Pophale) SiO2 
 PCOD9217061
Probable space group: C 2/M
;
_chemical_formula_sum "Si O2"
_cell_formula_units_Z 48
_cell_length_a 29.094667
_cell_length_b 15.413212
_cell_length_c 5.132032
_cell_angle_alpha 90.000000
_cell_angle_beta 115.620830
_cell_angle_gamma 90.000000
_cell_volume 2075.133830
_symmetry_space_group_name_H-M "C 2/M"
_symmetry_group_IT_number 12
_symmetry_cell_setting 'monoclinic'
loop_
_space_group_symop_operation_xyz
x,y,z
-x,y,-z
-x,-y,-z
x,-y,z
1/2+x,1/2+y,z
1/2-x,1/2+y,-z
1/2-x,1/2-y,-z
1/2+x,1/2-y,z
loop_
_atom_site_type_symbol
_atom_site_label
_atom_site_fract_x
_atom_site_fract_y
_atom_site_fract_z
Si Si1 0.036065 0.899199 0.839498
Si Si2 0.252882 0.904890 0.171555
Si Si3 0.882352 0.752081 0.904224
Si Si4 0.142492 0.598017 0.799843
Si Si5 0.559417 0.904942 0.202485
Si Si6 0.784042 0.821420 0.434081
O O1 0.000000 0.895141 0.500000
O O2 0.053452 0.000000 0.914458
O O3 0.082271 0.831353 0.914512
O O4 0.000000 0.877516 0.000000
O O5 0.230899 0.841186 0.897369
O O6 0.241475 0.000000 0.038865
O O7 0.314479 0.894886 0.321170
O O8 0.228552 0.898347 0.395581
O O9 0.918958 0.681283 0.867701
O O10 0.842156 0.793180 0.607062
O O11 0.852195 0.686766 0.025484
O O12 0.152475 0.500000 0.933582
O O13 0.084511 0.597793 0.551192
O O14 0.577286 0.000000 0.147702
O O15 0.500000 0.904121 0.000000
O O16 0.750000 0.750000 0.500000
#
# Coordination Sequence:
#
# PCOD9217061 Si02
#       6
#     8   8   8   8   8   8
#     4  10  25  48  70  97 132 173 224 282 340 399
#     4  11  25  46  69  98 139 187 228 282 347 410
#     4  12  25  38  72  96 137 174 232 276 349 398
#     4  10  23  41  66 100 138 180 225 274 339 418
#     4  10  23  42  65  99 140 178 225 279 340 416
#     4  12  25  43  68 101 141 174 234 285 338 404
#
# _framework density 23.131036999999999
#
# number of rings (size 3 to 8) (size 9 to 14) (size 15 to 20)
#    0.000    1.167    1.667    3.000    7.000    1.333 
#    0.000    4.167    0.000    0.000    0.000    0.000 
#    0.000    0.000    0.000    0.000    0.000    0.000 
#
# Total GULP energy -133884.778471 kJ/mol
# GULP energy per Si atom -5578.532436 kJ/mol
# Density = 2.307839 g / cm^3
# Si number density = 23.131037 Si / 1000 Ang^3
#
#
#
# Elastic Constant Matrix: (Units=GPa)
#
#
# Indices 1 2 3 4 5 6 
#
# 1 45.9382 24.0025 18.1767 0.0000 1.9454 0.0000
# 2 24.0025 145.3422 23.7103 0.0000 8.3407 0.0000
# 3 18.1767 23.7103 81.2316 0.0000 8.5640 0.0000
# 4 0.0000 0.0000 0.0000 22.8125 0.0000 3.1151
# 5 1.9454 8.3407 8.5640 0.0000 40.1609 0.0000
# 6 0.0000 0.0000 0.0000 3.1151 0.0000 38.4484
#
#
#
# Elastic Compliance Matrix: (Units=1/GPa)
#
#
# Indices 1 2 3 4 5 6 
#
# 1 0.025425 -0.003455 -0.004733 0.000000 0.000495 0.000000
# 2 -0.003455 0.007739 -0.001365 0.000000 -0.001149 0.000000
# 3 -0.004733 -0.001365 0.014029 0.000000 -0.002479 0.000000
# 4 0.000000 0.000000 0.000000 0.044326 0.000000 -0.003591
# 5 0.000495 -0.001149 -0.002479 0.000000 0.025643 0.000000
# 6 0.000000 0.000000 0.000000 -0.003591 0.000000 0.026300
#
#
# Mechanical properties :
#
#
# Convention : Reuss Voigt Hill
#
# Bulk Modulus (GPa) = 35.60198 44.92121 40.26159
# Shear Modulus (GPa) = 29.08128 34.05920 31.57024
#
# Velocity S-wave (km/s) = 3.54961 3.84141 3.69839
# Velocity P-wave (km/s) = 5.67666 6.25601 5.97336
#
# Compressibility (1/GPa) = 0.02808833
#
# Stress axis : x y z
#
# Youngs Moduli (GPa) = 39.33060 129.20740 71.27964
#
# Poissons Ratio (x) = 0.44644 0.33737
# Poissons Ratio (y) = 0.13589 0.09728
# Poissons Ratio (z) = 0.18615 0.17634
#
# Static dielectric constant tensor:
#      x y z
#    x 1.907970 0.000000 -0.065280 
#    y 0.000000 1.912080 0.000000 
#    z -0.065280 0.000000 1.889870 
# 
# From -- ./inp_files/31599.got.cif
#   From: 2010.05.17/outbox.cif.g08.bks.cpg/sg12_16_cif.got.tgz:31599.got - 2010.06.03 13:09:07.
