data_PCOD9217749
_publ_section_title
;
Structure prediction by ZEFSAII (Michael W. Deem and Ramdas Pophale) SiO2 
 PCOD9217749
Probable space group: C 2/M
;
_chemical_formula_sum "Si O2"
_cell_formula_units_Z 34
_cell_length_a 16.507989
_cell_length_b 16.557121
_cell_length_c 9.318867
_cell_angle_alpha 90.000000
_cell_angle_beta 149.754072
_cell_angle_gamma 90.000000
_cell_volume 1282.994832
_symmetry_space_group_name_H-M "C 2/M"
_symmetry_group_IT_number 12
_symmetry_cell_setting 'monoclinic'
loop_
_space_group_symop_operation_xyz
x,y,z
-x,y,-z
-x,-y,-z
x,-y,z
1/2+x,1/2+y,z
1/2-x,1/2+y,-z
1/2-x,1/2-y,-z
1/2+x,1/2-y,z
loop_
_atom_site_type_symbol
_atom_site_label
_atom_site_fract_x
_atom_site_fract_y
_atom_site_fract_z
Si Si1 0.415422 0.822210 0.185451
Si Si2 0.231714 0.165014 0.381926
Si Si3 0.372894 0.360693 0.090542
Si Si4 0.316426 0.086278 0.778203
Si Si5 0.500000 0.500000 0.500000
O O1 0.590954 0.850155 0.411047
O O2 0.316453 0.867022 0.156110
O O3 0.422221 0.727583 0.224046
O O4 0.311150 0.841672 0.882542
O O5 0.250000 0.250000 0.500000
O O6 0.120353 0.152788 0.072203
O O7 0.209535 0.101202 0.475923
O O8 0.459528 0.429085 0.314365
O O9 0.279444 0.000000 0.795653
O O10 0.500000 0.083471 0.000000
#
# Coordination Sequence:
#
# PCOD9217749 Si02
#       5
#     8   8   8   8   2
#     4  10  23  44  74 106 143 201 251 305 389 463
#     4  11  22  42  75 112 145 193 256 312 385 464
#     4  11  26  46  71 103 153 201 255 316 376 468
#     4   9  19  37  64 103 147 183 239 310 373 445
#     4  12  32  48  70 110 162 212 258 320 394 438
#
# _framework density 26.500494
#
# number of rings (size 3 to 8) (size 9 to 14) (size 15 to 20)
#    0.000    1.647    2.353    0.706    9.882    0.000 
#    0.000    1.176    0.000    2.824    0.000    0.000 
#    0.000    0.000    0.000    0.000    0.000    0.000 
#
# Total GULP energy -94826.223250 kJ/mol
# GULP energy per Si atom -5578.013132 kJ/mol
# Density = 2.644018 g / cm^3
# Si number density = 26.500494 Si / 1000 Ang^3
#
#
#
# Elastic Constant Matrix: (Units=GPa)
#
#
# Indices 1 2 3 4 5 6 
#
# 1 139.9491 38.7888 67.4413 0.0000 -37.0062 0.0000
# 2 38.7888 176.9408 62.4775 0.0000 -37.3902 0.0000
# 3 67.4413 62.4775 174.3841 0.0000 -51.3731 0.0000
# 4 0.0000 0.0000 0.0000 31.1322 0.0000 -9.3094
# 5 -37.0062 -37.3902 -51.3731 0.0000 65.7228 0.0000
# 6 0.0000 0.0000 0.0000 -9.3094 0.0000 41.9135
#
#
#
# Elastic Compliance Matrix: (Units=1/GPa)
#
#
# Indices 1 2 3 4 5 6 
#
# 1 0.009293 -0.000517 -0.002539 0.000000 0.002954 0.000000
# 2 -0.000517 0.006811 -0.001539 0.000000 0.002381 0.000000
# 3 -0.002539 -0.001539 0.008560 0.000000 0.004386 0.000000
# 4 0.000000 0.000000 0.000000 0.034406 0.000000 0.007642
# 5 0.002954 0.002381 0.004386 0.000000 0.021662 0.000000
# 6 0.000000 0.000000 0.000000 0.007642 0.000000 0.025556
#
#
# Mechanical properties :
#
#
# Convention : Reuss Voigt Hill
#
# Bulk Modulus (GPa) = 64.61674 92.07659 78.34666
# Shear Modulus (GPa) = 41.44707 49.25813 45.35260
#
# Velocity S-wave (km/s) = 3.95905 4.31601 4.14138
# Velocity P-wave (km/s) = 6.73312 7.72386 7.24544
#
# Compressibility (1/GPa) = 0.01547587
#
# Stress axis : x y z
#
# Youngs Moduli (GPa) = 107.60528 146.81084 116.82612
#
# Poissons Ratio (x) = 0.07583 0.29658
# Poissons Ratio (y) = 0.05558 0.17981
# Poissons Ratio (z) = 0.27317 0.22596
#
# Static dielectric constant tensor:
#      x y z
#    x 2.669040 0.000000 -0.075790 
#    y 0.000000 1.999420 0.000000 
#    z -0.075790 0.000000 2.207760 
# 
# From -- ./inp_files/75587.got.cif
#   From: 2010.05.17/outbox.cif.g08.bks.cpg/sg12_38_cif.got.tgz:75587.got - 2010.06.03 13:09:07.
