data_PCOD9217481
_publ_section_title
;
Structure prediction by ZEFSAII (Michael W. Deem and Ramdas Pophale) SiO2 
 PCOD9217481
Probable space group: C 2/M
;
_chemical_formula_sum "Si O2"
_cell_formula_units_Z 40
_cell_length_a 9.308504
_cell_length_b 17.857790
_cell_length_c 9.954990
_cell_angle_alpha 90.000000
_cell_angle_beta 90.903855
_cell_angle_gamma 90.000000
_cell_volume 1654.605213
_symmetry_space_group_name_H-M "C 2/M"
_symmetry_group_IT_number 12
_symmetry_cell_setting 'monoclinic'
loop_
_space_group_symop_operation_xyz
x,y,z
-x,y,-z
-x,-y,-z
x,-y,z
1/2+x,1/2+y,z
1/2-x,1/2+y,-z
1/2-x,1/2-y,-z
1/2+x,1/2-y,z
loop_
_atom_site_type_symbol
_atom_site_label
_atom_site_fract_x
_atom_site_fract_y
_atom_site_fract_z
Si Si1 0.664061 0.413524 0.896609
Si Si2 0.669952 0.822815 0.628438
Si Si3 0.507856 0.329860 0.690840
Si Si4 0.735107 0.915394 0.381149
Si Si5 0.894995 0.411489 0.112407
O O1 0.611613 0.500000 0.887088
O O2 0.548822 0.353214 0.844322
O O3 0.786413 0.407793 0.779828
O O4 0.739064 0.402806 0.039384
O O5 0.594840 0.743321 0.646121
O O6 0.841099 0.819770 0.661690
O O7 0.659722 0.858197 0.480086
O O8 0.605323 0.875314 0.742524
O O9 0.593681 0.396765 0.616080
O O10 0.705004 0.000000 0.422550
O O11 0.922467 0.500000 0.125196
O O12 0.000000 0.378971 0.000000
#
# Coordination Sequence:
#
# PCOD9217481 Si02
#       5
#     8   8   8   8   8
#     4   8  19  41  64  89 128 163 205 264 312 364
#     4  12  24  40  66  95 128 172 211 258 318 382
#     4  10  24  40  63  96 132 166 209 264 317 372
#     4   9  20  41  67  94 124 163 215 266 313 372
#     4  10  23  43  66  95 128 164 212 268 316 369
#
# _framework density 24.174949999999999
#
# number of rings (size 3 to 8) (size 9 to 14) (size 15 to 20)
#    1.200    1.000    0.000    1.800    2.800    5.600 
#    0.000    5.000    0.000    8.400    0.000    0.000 
#    0.000    0.000    0.000    0.000    0.000    0.000 
#
# Total GULP energy -111695.479346 kJ/mol
# GULP energy per Si atom -5584.773967 kJ/mol
# Density = 2.411993 g / cm^3
# Si number density = 24.174950 Si / 1000 Ang^3
#
#
#
# Elastic Constant Matrix: (Units=GPa)
#
#
# Indices 1 2 3 4 5 6 
#
# 1 101.1459 16.2003 6.0216 0.0000 -19.4117 0.0000
# 2 16.2003 77.8734 27.2742 0.0000 -5.2260 0.0000
# 3 6.0216 27.2742 123.8364 0.0000 -8.6972 0.0000
# 4 0.0000 0.0000 0.0000 34.5163 0.0000 9.4191
# 5 -19.4117 -5.2260 -8.6972 0.0000 41.9485 0.0000
# 6 0.0000 0.0000 0.0000 9.4191 0.0000 14.6760
#
#
#
# Elastic Compliance Matrix: (Units=1/GPa)
#
#
# Indices 1 2 3 4 5 6 
#
# 1 0.011156 -0.002081 0.000264 0.000000 0.004958 0.000000
# 2 -0.002081 0.014354 -0.003047 0.000000 0.000194 0.000000
# 3 0.000264 -0.003047 0.008844 0.000000 0.001576 0.000000
# 4 0.000000 0.000000 0.000000 0.035123 0.000000 -0.022542
# 5 0.004958 0.000194 0.001576 0.000000 0.026484 0.000000
# 6 0.000000 0.000000 0.000000 -0.022542 0.000000 0.082606
#
#
# Mechanical properties :
#
#
# Convention : Reuss Voigt Hill
#
# Bulk Modulus (GPa) = 40.60484 44.64978 42.62731
# Shear Modulus (GPa) = 25.44489 35.11880 30.28184
#
# Velocity S-wave (km/s) = 3.24779 3.81556 3.54307
# Velocity P-wave (km/s) = 5.55850 6.15799 5.86591
#
# Compressibility (1/GPa) = 0.02462760
#
# Stress axis : x y z
#
# Youngs Moduli (GPa) = 89.64009 69.66587 113.07049
#
# Poissons Ratio (x) = 0.14494 -0.02985
# Poissons Ratio (y) = 0.18650 0.34449
# Poissons Ratio (z) = -0.02366 0.21225
#
# Static dielectric constant tensor:
#      x y z
#    x 2.011390 0.000000 0.033410 
#    y 0.000000 1.859240 0.000000 
#    z 0.033410 0.000000 1.999450 
# 
# From -- ./inp_files/62188.got.cif
#   From: 2010.05.17/outbox.cif.g08.bks.cpg/sg12_32_cif.got.tgz:62188.got - 2010.06.03 13:09:07.
