data_PCOD9217564
_publ_section_title
;
Structure prediction by ZEFSAII (Michael W. Deem and Ramdas Pophale) SiO2 
 PCOD9217564
Probable space group: C 2/M
;
_chemical_formula_sum "Si O2"
_cell_formula_units_Z 58
_cell_length_a 13.093062
_cell_length_b 20.298691
_cell_length_c 18.283770
_cell_angle_alpha 90.000000
_cell_angle_beta 36.358851
_cell_angle_gamma 90.000000
_cell_volume 2880.799256
_symmetry_space_group_name_H-M "C 2/M"
_symmetry_group_IT_number 12
_symmetry_cell_setting 'monoclinic'
loop_
_space_group_symop_operation_xyz
x,y,z
-x,y,-z
-x,-y,-z
x,-y,z
1/2+x,1/2+y,z
1/2-x,1/2+y,-z
1/2-x,1/2-y,-z
1/2+x,1/2-y,z
loop_
_atom_site_type_symbol
_atom_site_label
_atom_site_fract_x
_atom_site_fract_y
_atom_site_fract_z
Si Si1 0.626757 0.122396 0.859622
Si Si2 0.486544 0.807525 0.338485
Si Si3 0.453091 0.421871 0.758049
Si Si4 0.892493 0.109267 0.960434
Si Si5 0.147087 0.222430 0.821270
Si Si6 0.500000 0.500000 0.000000
Si Si7 0.720384 0.312970 0.612510
Si Si8 0.001251 0.424199 0.222939
O O1 0.816986 0.103328 0.776733
O O2 0.614316 0.200597 0.852130
O O3 0.576893 0.087432 0.812602
O O4 0.500000 0.104514 0.000000
O O5 0.692007 0.799680 0.222183
O O6 0.401802 0.742182 0.353785
O O7 0.402965 0.812696 0.466961
O O8 0.435334 0.870183 0.318514
O O9 0.469658 0.500000 0.744157
O O10 0.384427 0.401784 0.878171
O O11 0.631579 0.383105 0.649356
O O12 0.971727 0.180770 0.930806
O O13 0.705618 0.089753 0.098103
O O14 0.018796 0.057513 0.926063
O O15 0.212644 0.205580 0.701767
O O16 0.975914 0.500000 0.260027
#
# Coordination Sequence:
#
# PCOD9217564 Si02
#       8
#     8   8   8   8   8   2   8   8
#     4  12  25  39  66  99 136 170 215 263 328 393
#     4  11  23  43  67  94 126 170 217 272 321 381
#     4  11  22  43  65  95 130 171 214 263 324 389
#     4  11  24  38  64  92 131 174 212 261 325 388
#     4  11  24  42  66  98 126 167 219 272 324 390
#     4  12  20  40  56  90 130 172 206 252 328 384
#     4  10  23  43  69  91 127 168 216 273 326 376
#     4  12  25  43  64  96 137 173 217 263 325 396
#
# _framework density 20.133299999999998
#
# number of rings (size 3 to 8) (size 9 to 14) (size 15 to 20)
#    0.000    0.828    5.517    1.655    2.897    1.655 
#    0.000    0.690    0.000    4.138    0.000    0.000 
#    0.000    0.000    0.000    0.000    0.000    0.000 
#
# Total GULP energy -161798.707452 kJ/mol
# GULP energy per Si atom -5579.265774 kJ/mol
# Density = 2.008748 g / cm^3
# Si number density = 20.133300 Si / 1000 Ang^3
#
#
#
# Elastic Constant Matrix: (Units=GPa)
#
#
# Indices 1 2 3 4 5 6 
#
# 1 64.8096 9.6004 2.5178 -0.0003 5.1308 -0.0013
# 2 9.6004 118.7509 -2.8215 -0.0041 0.1307 -0.0009
# 3 2.5178 -2.8215 39.9283 -0.0132 8.7367 0.0009
# 4 -0.0003 -0.0041 -0.0132 13.7849 0.0043 -11.6096
# 5 5.1308 0.1307 8.7367 0.0043 25.0907 0.0004
# 6 -0.0013 -0.0009 0.0009 -11.6096 0.0004 60.2268
#
#
#
# Elastic Compliance Matrix: (Units=1/GPa)
#
#
# Indices 1 2 3 4 5 6 
#
# 1 0.015882 -0.001290 -0.000415 0.000001 -0.003097 0.000001
# 2 -0.001290 0.008542 0.000689 0.000004 -0.000021 0.000001
# 3 -0.000415 0.000689 0.027172 0.000034 -0.009380 0.000006
# 4 0.000001 0.000004 0.000034 0.086603 -0.000027 0.016694
# 5 -0.003097 -0.000021 -0.009380 -0.000027 0.043755 -0.000005
# 6 0.000001 0.000001 0.000006 0.016694 -0.000005 0.019822
#
#
# Mechanical properties :
#
#
# Convention : Reuss Voigt Hill
#
# Bulk Modulus (GPa) = 20.17592 26.89803 23.53697
# Shear Modulus (GPa) = 22.69326 34.09995 28.39661
#
# Velocity S-wave (km/s) = 3.36095 4.11993 3.75964
# Velocity P-wave (km/s) = 5.01041 6.00173 5.52834
#
# Compressibility (1/GPa) = 0.04956404
#
# Stress axis : x y z
#
# Youngs Moduli (GPa) = 62.96342 117.07242 36.80217
#
# Poissons Ratio (x) = 0.15108 0.01528
# Poissons Ratio (y) = 0.08125 -0.02537
# Poissons Ratio (z) = 0.02614 -0.08072
#
# Static dielectric constant tensor:
#      x y z
#    x 1.743190 0.000000 0.002950 
#    y 0.000000 1.681710 0.000000 
#    z 0.002950 0.000000 1.699680 
# 
# From -- ./inp_files/265242.got.cif
#   From: 2010.05.17/outbox.cif.g08.bks.cpg/sg12_133_cif.got.tgz:265242.got - 2010.06.03 13:09:07.
