data_PCOD9217871
_publ_section_title
;
Structure prediction by ZEFSAII (Michael W. Deem and Ramdas Pophale) SiO2 
 PCOD9217871
Probable space group: C 2/M
;
_chemical_formula_sum "Si O2"
_cell_formula_units_Z 34
_cell_length_a 5.145566
_cell_length_b 21.022276
_cell_length_c 12.446251
_cell_angle_alpha 90.000000
_cell_angle_beta 86.138038
_cell_angle_gamma 90.000000
_cell_volume 1343.272520
_symmetry_space_group_name_H-M "C 2/M"
_symmetry_group_IT_number 12
_symmetry_cell_setting 'monoclinic'
loop_
_space_group_symop_operation_xyz
x,y,z
-x,y,-z
-x,-y,-z
x,-y,z
1/2+x,1/2+y,z
1/2-x,1/2+y,-z
1/2-x,1/2-y,-z
1/2+x,1/2-y,z
loop_
_atom_site_type_symbol
_atom_site_label
_atom_site_fract_x
_atom_site_fract_y
_atom_site_fract_z
Si Si1 0.598594 0.210761 0.139723
Si Si2 0.000000 0.000000 0.500000
Si Si3 0.524166 0.817401 0.617782
Si Si4 0.814773 0.073649 0.108846
Si Si5 0.021490 0.108904 0.660989
O O1 0.344486 0.245795 0.104975
O O2 0.585036 0.212941 0.270219
O O3 0.627056 0.135929 0.109423
O O4 0.922727 0.946345 0.589599
O O5 0.500000 0.787417 0.500000
O O6 0.817988 0.835998 0.639197
O O7 0.318190 0.876182 0.617554
O O8 0.971584 0.088807 0.214622
O O9 0.709359 0.000000 0.118695
O O10 0.000000 0.075661 0.000000
#
# Coordination Sequence:
#
# PCOD9217871 Si02
#       5
#     8   2   8   8   8
#     4  11  25  46  71 103 141 187 241 289 353 429
#     4  12  20  38  66 102 144 190 224 288 350 434
#     4  11  22  41  65  98 141 185 233 289 351 417
#     4  10  23  47  75 106 144 188 238 299 354 415
#     4  11  23  39  65 104 142 183 234 285 352 426
#
# _framework density 25.311321
#
# number of rings (size 3 to 8) (size 9 to 14) (size 15 to 20)
#    0.000    1.176    3.529    2.824    0.000    3.765 
#    2.118   10.588    0.000   25.412    0.000    0.000 
#    0.000    0.000    0.000    0.000    0.000    0.000 
#
# Total GULP energy -94779.610996 kJ/mol
# GULP energy per Si atom -5575.271235 kJ/mol
# Density = 2.525371 g / cm^3
# Si number density = 25.311321 Si / 1000 Ang^3
#
#
#
# Elastic Constant Matrix: (Units=GPa)
#
#
# Indices 1 2 3 4 5 6 
#
# 1 94.1217 59.2656 45.3921 0.0000 2.5294 0.0000
# 2 59.2656 195.8206 55.3618 0.0000 2.7272 0.0000
# 3 45.3921 55.3618 216.0114 0.0000 1.3037 0.0000
# 4 0.0000 0.0000 0.0000 19.7330 0.0000 -42.6973
# 5 2.5294 2.7272 1.3037 0.0000 28.7205 0.0000
# 6 0.0000 0.0000 0.0000 -42.6973 0.0000 -25.1627
#
#
#
# Elastic Compliance Matrix: (Units=1/GPa)
#
#
# Indices 1 2 3 4 5 6 
#
# 1 0.013889 -0.003632 -0.001983 0.000000 -0.000788 0.000000
# 2 -0.003632 0.006461 -0.000891 0.000000 -0.000253 0.000000
# 3 -0.001983 -0.000891 0.005274 0.000000 0.000020 0.000000
# 4 0.000000 0.000000 0.000000 0.010848 0.000000 -0.018407
# 5 -0.000788 -0.000253 0.000020 0.000000 0.034911 0.000000
# 6 0.000000 0.000000 0.000000 -0.018407 0.000000 -0.008507
#
#
# Mechanical properties :
#
#
# Convention : Reuss Voigt Hill
#
# Bulk Modulus (GPa) = 79.28708 91.77695 85.53201
# Shear Modulus (GPa) = 62.42731 27.72043 45.07387
#
# Velocity S-wave (km/s) = 4.97165 3.31294 4.22451
# Velocity P-wave (km/s) = 8.02179 7.13947 7.59346
#
# Compressibility (1/GPa) = 0.01261240
#
# Stress axis : x y z
#
# Youngs Moduli (GPa) = 71.99942 154.76439 189.59518
#
# Poissons Ratio (x) = 0.56209 0.37597
# Poissons Ratio (y) = 0.26150 0.16898
# Poissons Ratio (z) = 0.14278 0.13794
#
# Static dielectric constant tensor:
#      x y z
#    x 2.007300 0.000000 -0.015460 
#    y 0.000000 1.874650 0.000000 
#    z -0.015460 0.000000 2.003840 
# 
# From -- ./inp_files/115009.got.cif
#   From: 2010.05.17/outbox.cif.g08.bks.cpg/sg12_58_cif.got.tgz:115009.got - 2010.06.03 13:09:07.
