data_PCOD9217604
_publ_section_title
;
Structure prediction by ZEFSAII (Michael W. Deem and Ramdas Pophale) SiO2 
 PCOD9217604
Probable space group: C 2/M
;
_chemical_formula_sum "Si O2"
_cell_formula_units_Z 28
_cell_length_a 9.451767
_cell_length_b 26.259207
_cell_length_c 5.221809
_cell_angle_alpha 90.000000
_cell_angle_beta 77.651573
_cell_angle_gamma 90.000000
_cell_volume 1266.048145
_symmetry_space_group_name_H-M "C 2/M"
_symmetry_group_IT_number 12
_symmetry_cell_setting 'monoclinic'
loop_
_space_group_symop_operation_xyz
x,y,z
-x,y,-z
-x,-y,-z
x,-y,z
1/2+x,1/2+y,z
1/2-x,1/2+y,-z
1/2-x,1/2-y,-z
1/2+x,1/2-y,z
loop_
_atom_site_type_symbol
_atom_site_label
_atom_site_fract_x
_atom_site_fract_y
_atom_site_fract_z
Si Si1 0.804392 0.557932 0.440933
Si Si2 0.664192 0.598200 0.021909
Si Si3 0.500000 0.140131 0.500000
Si Si4 0.337614 0.198113 0.942226
O O1 0.855094 0.500000 0.421549
O O2 0.685620 0.564215 0.265343
O O3 0.930474 0.599223 0.331838
O O4 0.745518 0.573654 0.744386
O O5 0.500000 0.604684 0.000000
O O6 0.733643 0.652533 0.071888
O O7 0.375580 0.177897 0.643248
O O8 0.500000 0.201208 0.000000
O O9 0.250000 0.250000 0.000000
#
# Coordination Sequence:
#
# PCOD9217604 Si02
#       4
#     8   8   4   8
#     4  11  23  41  70  98 138 182 222 275 335 392
#     4  11  24  43  64 101 140 175 225 277 327 403
#     4  10  23  44  64 102 136 170 229 278 332 412
#     4  11  23  44  67  96 130 178 224 278 341 396
#
# _framework density 22.116061999999999
#
# number of rings (size 3 to 8) (size 9 to 14) (size 15 to 20)
#    0.000    1.143    2.857    3.000    0.000    4.571 
#    5.143    4.286    0.000    0.000    0.000    0.000 
#    0.000    0.000    0.000    0.000    0.000    0.000 
#
# Total GULP energy -78077.368596 kJ/mol
# GULP energy per Si atom -5576.954900 kJ/mol
# Density = 2.206573 g / cm^3
# Si number density = 22.116062 Si / 1000 Ang^3
#
#
#
# Elastic Constant Matrix: (Units=GPa)
#
#
# Indices 1 2 3 4 5 6 
#
# 1 168.5937 71.6739 26.6561 0.0000 22.0015 0.0000
# 2 71.6739 202.3845 55.3519 0.0000 -0.4149 0.0000
# 3 26.6561 55.3519 71.8094 0.0000 15.1835 0.0000
# 4 0.0000 0.0000 0.0000 18.1186 0.0000 2.1146
# 5 22.0015 -0.4149 15.1835 0.0000 39.4823 0.0000
# 6 0.0000 0.0000 0.0000 2.1146 0.0000 14.4583
#
#
#
# Elastic Compliance Matrix: (Units=1/GPa)
#
#
# Indices 1 2 3 4 5 6 
#
# 1 0.007649 -0.002781 0.000230 0.000000 -0.004380 0.000000
# 2 -0.002781 0.007435 -0.005489 0.000000 0.003739 0.000000
# 3 0.000230 -0.005489 0.019714 0.000000 -0.007767 0.000000
# 4 0.000000 0.000000 0.000000 0.056150 0.000000 -0.008212
# 5 -0.004380 0.003739 -0.007767 0.000000 0.030795 0.000000
# 6 0.000000 0.000000 0.000000 -0.008212 0.000000 0.070365
#
#
# Mechanical properties :
#
#
# Convention : Reuss Voigt Hill
#
# Bulk Modulus (GPa) = 53.42419 83.35016 68.38718
# Shear Modulus (GPa) = 23.31801 33.68554 28.50178
#
# Velocity S-wave (km/s) = 3.25059 3.90696 3.59379
# Velocity P-wave (km/s) = 6.18847 7.62377 6.94331
#
# Compressibility (1/GPa) = 0.01871811
#
# Stress axis : x y z
#
# Youngs Moduli (GPa) = 130.73966 134.50197 50.72605
#
# Poissons Ratio (x) = 0.37402 -0.01168
# Poissons Ratio (y) = 0.36356 0.27844
# Poissons Ratio (z) = -0.03011 0.73830
#
# Static dielectric constant tensor:
#      x y z
#    x 1.874030 0.000000 0.015670 
#    y 0.000000 1.765480 0.000000 
#    z 0.015670 0.000000 1.910950 
# 
# From -- ./inp_files/3087.got.cif
#   From: 2010.05.17/outbox.cif.g08.bks.cpg/sg12_2_cif.got.tgz:3087.got - 2010.06.03 13:09:07.
