data_PCOD9217768
_publ_section_title
;
Structure prediction by ZEFSAII (Michael W. Deem and Ramdas Pophale) SiO2 
 PCOD9217768
Probable space group: C 2/M
;
_chemical_formula_sum "Si O2"
_cell_formula_units_Z 48
_cell_length_a 13.562034
_cell_length_b 16.325565
_cell_length_c 9.897006
_cell_angle_alpha 90.000000
_cell_angle_beta 84.436463
_cell_angle_gamma 90.000000
_cell_volume 2180.952555
_symmetry_space_group_name_H-M "C 2/M"
_symmetry_group_IT_number 12
_symmetry_cell_setting 'monoclinic'
loop_
_space_group_symop_operation_xyz
x,y,z
-x,y,-z
-x,-y,-z
x,-y,z
1/2+x,1/2+y,z
1/2-x,1/2+y,-z
1/2-x,1/2-y,-z
1/2+x,1/2-y,z
loop_
_atom_site_type_symbol
_atom_site_label
_atom_site_fract_x
_atom_site_fract_y
_atom_site_fract_z
Si Si1 0.887642 0.093837 0.964108
Si Si2 0.209863 0.171641 0.785728
Si Si3 0.551046 0.198060 0.847718
Si Si4 0.615423 0.289369 0.278775
Si Si5 0.687404 0.599071 0.502181
Si Si6 0.083990 0.596989 0.593125
O O1 0.808176 0.107200 0.093037
O O2 0.893463 0.000000 0.921678
O O3 0.854992 0.148862 0.844555
O O4 0.000000 0.116647 0.000000
O O5 0.151804 0.251520 0.848364
O O6 0.316206 0.208628 0.735130
O O7 0.169157 0.127915 0.657191
O O8 0.489713 0.257529 0.756280
O O9 0.563866 0.119592 0.751406
O O10 0.500000 0.185640 0.000000
O O11 0.623878 0.342997 0.412090
O O12 0.673431 0.500000 0.487965
O O13 0.802800 0.621302 0.454542
O O14 0.082127 0.500000 0.577398
O O15 0.000000 0.630653 0.500000
#
# Coordination Sequence:
#
# PCOD9217768 Si02
#       6
#     8   8   8   8   8   8
#     4  11  23  43  65  92 134 177 213 264 329 385
#     4  12  23  42  65  95 130 171 215 270 319 387
#     4  12  25  42  65  99 131 169 221 265 322 390
#     4  12  23  42  67  96 128 170 219 270 320 385
#     4  11  25  43  65  99 129 168 220 265 330 391
#     4  10  23  45  68  93 132 172 212 270 328 385
#
# _framework density 22.008731999999998
#
# number of rings (size 3 to 8) (size 9 to 14) (size 15 to 20)
#    0.000    0.667    5.000    3.000    2.333    0.333 
#    0.000    1.667    0.000    0.000    0.000    0.000 
#    0.000    0.000    0.000    0.000    0.000    0.000 
#
# Total GULP energy -134038.578607 kJ/mol
# GULP energy per Si atom -5584.940775 kJ/mol
# Density = 2.195864 g / cm^3
# Si number density = 22.008732 Si / 1000 Ang^3
#
#
#
# Elastic Constant Matrix: (Units=GPa)
#
#
# Indices 1 2 3 4 5 6 
#
# 1 23.1002 1.9532 -25.0211 0.0000 -1.7447 0.0000
# 2 1.9532 14.5330 -0.0796 0.0000 10.7425 0.0000
# 3 -25.0211 -0.0796 83.6302 0.0000 -5.6907 0.0000
# 4 0.0000 0.0000 0.0000 38.4859 0.0000 -0.7719
# 5 -1.7447 10.7425 -5.6907 0.0000 23.6836 0.0000
# 6 0.0000 0.0000 0.0000 -0.7719 0.0000 12.3923
#
#
#
# Elastic Compliance Matrix: (Units=1/GPa)
#
#
# Indices 1 2 3 4 5 6 
#
# 1 0.072397 -0.026575 0.023197 0.000000 0.022961 0.000000
# 2 -0.026575 0.114092 -0.011688 0.000000 -0.056516 0.000000
# 3 0.023197 -0.011688 0.019686 0.000000 0.011740 0.000000
# 4 0.000000 0.000000 0.000000 0.026016 0.000000 0.001621
# 5 0.022961 -0.056516 0.011740 0.000000 0.072370 0.000000
# 6 0.000000 0.000000 0.000000 0.001621 0.000000 0.080796
#
#
# Mechanical properties :
#
#
# Convention : Reuss Voigt Hill
#
# Bulk Modulus (GPa) = 5.68042 8.32982 7.00512
# Shear Modulus (GPa) = 10.54475 24.53975 17.54225
#
# Velocity S-wave (km/s) = 2.19125 3.34279 2.82629
# Velocity P-wave (km/s) = 2.99811 4.32342 3.72026
#
# Compressibility (1/GPa) = 0.17604325
#
# Stress axis : x y z
#
# Youngs Moduli (GPa) = 13.81265 8.76489 50.79870
#
# Poissons Ratio (x) = 0.23293 -1.17840
# Poissons Ratio (y) = 0.36707 0.59374
# Poissons Ratio (z) = -0.32042 0.10244
#
# Static dielectric constant tensor:
#      x y z
#    x 1.918240 0.000000 -0.007260 
#    y 0.000000 1.792070 0.000000 
#    z -0.007260 0.000000 1.787480 
# 
# From -- ./inp_files/61708.got.cif
#   From: 2010.05.17/outbox.cif.g08.bks.cpg/sg12_31_cif.got.tgz:61708.got - 2010.06.03 13:09:07.
