data_PCOD9217113
_publ_section_title
;
Structure prediction by ZEFSAII (Michael W. Deem and Ramdas Pophale) SiO2 
 PCOD9217113
Probable space group: C 2/M
;
_chemical_formula_sum "Si O2"
_cell_formula_units_Z 52
_cell_length_a 8.356539
_cell_length_b 26.303488
_cell_length_c 18.890256
_cell_angle_alpha 90.000000
_cell_angle_beta 142.446127
_cell_angle_gamma 90.000000
_cell_volume 2530.791766
_symmetry_space_group_name_H-M "C 2/M"
_symmetry_group_IT_number 12
_symmetry_cell_setting 'monoclinic'
loop_
_space_group_symop_operation_xyz
x,y,z
-x,y,-z
-x,-y,-z
x,-y,z
1/2+x,1/2+y,z
1/2-x,1/2+y,-z
1/2-x,1/2-y,-z
1/2+x,1/2-y,z
loop_
_atom_site_type_symbol
_atom_site_label
_atom_site_fract_x
_atom_site_fract_y
_atom_site_fract_z
Si Si1 0.326982 0.942541 0.368835
Si Si2 0.678005 0.098026 0.952393
Si Si3 0.974667 0.230057 0.132841
Si Si4 0.510501 0.000000 0.813338
Si Si5 0.868573 0.874069 0.163690
Si Si6 0.202407 0.583150 0.369242
Si Si7 0.572966 0.823731 0.797778
O O1 0.500000 0.939306 0.500000
O O2 0.513568 0.934936 0.366626
O O3 0.109131 0.898668 0.289943
O O4 0.208804 0.000000 0.324502
O O5 0.395405 0.109345 0.889518
O O6 0.709202 0.141255 0.904913
O O7 0.670089 0.044296 0.912757
O O8 0.876646 0.101519 0.087601
O O9 0.867365 0.186081 0.147871
O O10 0.070132 0.278476 0.210682
O O11 0.207755 0.203412 0.172337
O O12 0.750000 0.250000 0.000000
O O13 0.347944 0.955368 0.712827
O O14 0.500000 0.582496 0.500000
O O15 0.110618 0.638888 0.311438
#
# Coordination Sequence:
#
# PCOD9217113 Si02
#       7
#     8   8   8   4   8   8   8
#     4  11  26  43  68 101 135 181 230 281 327 398
#     4  10  24  40  66 101 137 182 214 279 337 407
#     4  12  23  40  70  97 134 174 213 278 343 409
#     4  10  23  41  70  99 133 178 227 266 339 406
#     4  11  24  43  65 101 141 174 227 274 346 396
#     4  11  24  46  70  95 134 183 228 278 335 398
#     4  11  24  43  65 102 131 171 230 271 339 404
#
# _framework density 20.546928999999999
#
# number of rings (size 3 to 8) (size 9 to 14) (size 15 to 20)
#    0.000    1.077    3.846    1.615    8.615    0.615 
#    0.000    2.308    0.000    0.000    0.000    0.000 
#    0.000    0.000    0.000    0.000    0.000    0.000 
#
# Total GULP energy -144942.858909 kJ/mol
# GULP energy per Si atom -5574.725343 kJ/mol
# Density = 2.050016 g / cm^3
# Si number density = 20.546929 Si / 1000 Ang^3
#
#
#
# Elastic Constant Matrix: (Units=GPa)
#
#
# Indices 1 2 3 4 5 6 
#
# 1 52.7134 27.3485 1.1192 0.0000 0.3488 0.0001
# 2 27.3485 185.9041 49.8909 -0.0001 -9.8855 0.0001
# 3 1.1192 49.8909 63.2476 0.0007 -13.9486 0.0000
# 4 0.0000 -0.0001 0.0007 18.6834 0.0003 7.4268
# 5 0.3488 -9.8855 -13.9486 0.0003 25.2634 0.0000
# 6 0.0001 0.0001 0.0000 7.4268 0.0000 -3.2691
#
#
#
# Elastic Compliance Matrix: (Units=1/GPa)
#
#
# Indices 1 2 3 4 5 6 
#
# 1 0.020874 -0.003767 0.002520 0.000000 -0.000371 0.000000
# 2 -0.003767 0.007506 -0.005915 0.000000 -0.000277 0.000000
# 3 0.002520 -0.005915 0.022675 0.000000 0.010170 -0.000001
# 4 0.000000 0.000000 0.000000 0.028125 0.000000 0.063894
# 5 -0.000371 -0.000277 0.010170 0.000000 0.045095 -0.000001
# 6 0.000000 0.000000 -0.000001 0.063894 -0.000001 -0.160738
#
#
# Mechanical properties :
#
#
# Convention : Reuss Voigt Hill
#
# Bulk Modulus (GPa) = 27.22478 50.95360 39.08919
# Shear Modulus (GPa) = -505.31368 23.03597 -241.13886
#
# Velocity S-wave (km/s) = -15.69922 3.35197 -10.84504
# Velocity P-wave (km/s) = 17.75786 6.31138 11.73687
#
# Compressibility (1/GPa) = 0.03673124
#
# Stress axis : x y z
#
# Youngs Moduli (GPa) = 47.90710 133.22656 44.10080
#
# Poissons Ratio (x) = 0.50184 -0.11114
# Poissons Ratio (y) = 0.18046 0.26087
# Poissons Ratio (z) = -0.12073 0.78807
#
# Static dielectric constant tensor:
#      x y z
#    x 1.788440 0.000000 -0.008330 
#    y 0.000000 1.723500 0.000000 
#    z -0.008330 0.000000 1.701360 
# 
# From -- ./inp_files/302378.got.cif
#   From: 2010.05.17/outbox.cif.g08.bks.cpg/sg12_152_cif.got.tgz:302378.got - 2010.06.03 13:09:07.
