data_PCOD9217885
_publ_section_title
;
Structure prediction by ZEFSAII (Michael W. Deem and Ramdas Pophale) SiO2 
 PCOD9217885
Probable space group: C 2/M
;
_chemical_formula_sum "Si O2"
_cell_formula_units_Z 60
_cell_length_a 27.176643
_cell_length_b 7.755164
_cell_length_c 14.472605
_cell_angle_alpha 90.000000
_cell_angle_beta 54.115769
_cell_angle_gamma 90.000000
_cell_volume 2471.310688
_symmetry_space_group_name_H-M "C 2/M"
_symmetry_group_IT_number 12
_symmetry_cell_setting 'monoclinic'
loop_
_space_group_symop_operation_xyz
x,y,z
-x,y,-z
-x,-y,-z
x,-y,z
1/2+x,1/2+y,z
1/2-x,1/2+y,-z
1/2-x,1/2-y,-z
1/2+x,1/2-y,z
loop_
_atom_site_type_symbol
_atom_site_label
_atom_site_fract_x
_atom_site_fract_y
_atom_site_fract_z
Si Si1 0.057558 0.189879 0.678934
Si Si2 0.339035 0.300828 0.796518
Si Si3 0.348282 0.000000 0.195036
Si Si4 0.427219 0.697081 0.073585
Si Si5 0.923862 0.209302 0.864472
Si Si6 0.311133 0.798244 0.485776
Si Si7 0.250584 0.799607 0.742433
Si Si8 0.431880 0.198118 0.539138
O O1 0.127614 0.226474 0.624777
O O2 0.063354 0.203291 0.562000
O O3 0.992540 0.279398 0.771435
O O4 0.046855 0.000000 0.728465
O O5 0.322891 0.500000 0.830955
O O6 0.371836 0.225707 0.851734
O O7 0.281838 0.214660 0.808531
O O8 0.391541 0.286790 0.661198
O O9 0.398457 0.151783 0.163822
O O10 0.299712 0.154566 0.218870
O O11 0.408769 0.500000 0.113369
O O12 0.500000 0.701711 0.000000
O O13 0.409567 0.740820 0.986849
O O14 0.924254 0.000000 0.849678
O O15 0.250000 0.750000 0.500000
O O16 0.299620 0.760139 0.606508
O O17 0.318001 0.000000 0.467058
O O18 0.231720 0.000000 0.749333
O O19 0.500000 0.187399 0.500000
O O20 0.409865 0.000000 0.547849
#
# Coordination Sequence:
#
# PCOD9217885 Si02
#       8
#     8   8   4   8   8   8   8   8
#     4  11  21  36  60  91 130 174 218 266 334 409
#     4  11  20  37  64  93 132 182 228 276 336 411
#     4  12  25  46  76 106 129 183 238 284 343 418
#     4  10  23  49  79 104 138 171 221 297 360 409
#     4   9  21  40  66 100 135 170 220 284 354 414
#     4  11  25  42  60  90 133 181 225 279 331 397
#     4  11  25  44  67  97 139 185 232 280 337 402
#     4  11  21  32  51  87 131 173 218 267 325 397
#
# _framework density 24.278614000000001
#
# number of rings (size 3 to 8) (size 9 to 14) (size 15 to 20)
#    0.000    1.333    3.333    2.200    1.867    1.600 
#    4.800    3.333    0.000    0.000    0.000    0.000 
#    0.000    0.000    0.000    0.000    0.000    0.000 
#
# Total GULP energy -167121.491434 kJ/mol
# GULP energy per Si atom -5570.716381 kJ/mol
# Density = 2.422335 g / cm^3
# Si number density = 24.278614 Si / 1000 Ang^3
#
#
#
# Elastic Constant Matrix: (Units=GPa)
#
#
# Indices 1 2 3 4 5 6 
#
# 1 94.7250 27.4538 27.6433 0.0000 -1.8789 -0.0001
# 2 27.4538 102.0792 40.2217 0.0001 -16.9555 -0.0004
# 3 27.6433 40.2217 39.8999 0.0000 1.3439 0.0000
# 4 0.0000 0.0001 0.0000 4.9367 0.0000 -9.7819
# 5 -1.8789 -16.9555 1.3439 0.0000 48.6773 0.0000
# 6 -0.0001 -0.0004 0.0000 -9.7819 0.0000 29.1338
#
#
#
# Elastic Compliance Matrix: (Units=1/GPa)
#
#
# Indices 1 2 3 4 5 6 
#
# 1 0.013268 0.000357 -0.009582 0.000000 0.000901 0.000000
# 2 0.000357 0.018311 -0.018939 0.000001 0.006915 0.000000
# 3 -0.009582 -0.018939 0.051076 -0.000001 -0.008377 -0.000001
# 4 0.000000 0.000001 -0.000001 0.605191 0.000000 0.203197
# 5 0.000901 0.006915 -0.008377 0.000000 0.023218 0.000000
# 6 0.000000 0.000000 -0.000001 0.203197 0.000000 0.102549
#
#
# Mechanical properties :
#
#
# Convention : Reuss Voigt Hill
#
# Bulk Modulus (GPa) = 37.98592 47.48242 42.73417
# Shear Modulus (GPa) = 5.69011 25.97525 15.83268
#
# Velocity S-wave (km/s) = 1.53257 3.27445 2.55644
# Velocity P-wave (km/s) = 4.33722 5.82201 5.13358
#
# Compressibility (1/GPa) = 0.02632554
#
# Stress axis : x y z
#
# Youngs Moduli (GPa) = 75.37141 54.61063 19.57878
#
# Poissons Ratio (x) = -0.01950 0.18761
# Poissons Ratio (y) = -0.02691 0.37081
# Poissons Ratio (z) = 0.72223 1.03429
#
# Static dielectric constant tensor:
#      x y z
#    x 1.989790 0.000000 0.008580 
#    y 0.000000 1.926310 0.000000 
#    z 0.008580 0.000000 1.951620 
# 
# From -- ./inp_files/292219.got.cif
#   From: 2010.05.17/outbox.cif.g08.bks.cpg/sg12_147_cif.got.tgz:292219.got - 2010.06.03 13:09:07.
