data_PCOD9217249
_publ_section_title
;
Structure prediction by ZEFSAII (Michael W. Deem and Ramdas Pophale) SiO2 
 PCOD9217249
Probable space group: C 2/M
;
_chemical_formula_sum "Si O2"
_cell_formula_units_Z 28
_cell_length_a 18.548866
_cell_length_b 9.207675
_cell_length_c 7.459218
_cell_angle_alpha 90.000000
_cell_angle_beta 117.921600
_cell_angle_gamma 90.000000
_cell_volume 1125.669828
_symmetry_space_group_name_H-M "C 2/M"
_symmetry_group_IT_number 12
_symmetry_cell_setting 'monoclinic'
loop_
_space_group_symop_operation_xyz
x,y,z
-x,y,-z
-x,-y,-z
x,-y,z
1/2+x,1/2+y,z
1/2-x,1/2+y,-z
1/2-x,1/2-y,-z
1/2+x,1/2-y,z
loop_
_atom_site_type_symbol
_atom_site_label
_atom_site_fract_x
_atom_site_fract_y
_atom_site_fract_z
Si Si1 0.920981 0.671760 0.301967
Si Si2 0.218920 0.500000 0.782291
Si Si3 0.410294 0.228072 0.905696
Si Si4 0.862408 0.000000 0.662499
Si Si5 0.228705 0.500000 0.223594
O O1 0.937282 0.500000 0.263104
O O2 0.838682 0.641503 0.317300
O O3 0.000000 0.719668 0.500000
O O4 0.903051 0.766937 0.107971
O O5 0.293114 0.500000 0.736680
O O6 0.236858 0.500000 0.016755
O O7 0.412642 0.357153 0.766991
O O8 0.329721 0.132752 0.783667
O O9 0.500000 0.157464 0.000000
O O10 0.815027 0.000000 0.421292
#
# Coordination Sequence:
#
# PCOD9217249 Si02
#       5
#     8   4   8   4   4
#     4   8  17  35  60  93 109 153 204 254 288 338
#     4   8  19  38  61  85 122 147 209 244 290 362
#     4  11  23  40  61  89 124 157 207 245 298 368
#     4  12  25  40  59  92 132 162 178 261 324 343
#     4  10  23  42  65  92 109 165 215 245 289 354
#
# _framework density 24.874081
#
# number of rings (size 3 to 8) (size 9 to 14) (size 15 to 20)
#    0.857    1.429    1.429    1.714    4.000    4.571 
#    5.143    0.714    0.000    0.000    0.000    0.000 
#    0.000    0.000    0.000    0.000    0.000    0.000 
#
# Total GULP energy -78163.629914 kJ/mol
# GULP energy per Si atom -5583.116422 kJ/mol
# Density = 2.481747 g / cm^3
# Si number density = 24.874081 Si / 1000 Ang^3
#
#
#
# Elastic Constant Matrix: (Units=GPa)
#
#
# Indices 1 2 3 4 5 6 
#
# 1 80.4897 -10.3175 -9.1708 0.0000 4.9349 0.0000
# 2 -10.3175 57.4135 42.0771 0.0000 9.1750 0.0000
# 3 -9.1708 42.0771 154.7010 0.0000 14.4738 0.0000
# 4 0.0000 0.0000 0.0000 51.4162 0.0000 48.4611
# 5 4.9349 9.1750 14.4738 0.0000 28.2757 0.0000
# 6 0.0000 0.0000 0.0000 48.4611 0.0000 67.8291
#
#
#
# Elastic Compliance Matrix: (Units=1/GPa)
#
#
# Indices 1 2 3 4 5 6 
#
# 1 0.013001 0.002589 0.000375 0.000000 -0.003301 0.000000
# 2 0.002589 0.022763 -0.005571 0.000000 -0.004986 0.000000
# 3 0.000375 -0.005571 0.008233 0.000000 -0.002472 0.000000
# 4 0.000000 0.000000 0.000000 0.059550 0.000000 -0.042546
# 5 -0.003301 -0.004986 -0.002472 0.000000 0.038826 0.000000
# 6 0.000000 0.000000 0.000000 -0.042546 0.000000 0.045140
#
#
# Mechanical properties :
#
#
# Convention : Reuss Voigt Hill
#
# Bulk Modulus (GPa) = 25.78492 37.53133 31.65812
# Shear Modulus (GPa) = 24.31274 47.50522 35.90898
#
# Velocity S-wave (km/s) = 3.12978 4.37490 3.80364
# Velocity P-wave (km/s) = 4.84246 6.37502 5.66085
#
# Compressibility (1/GPa) = 0.03878236
#
# Stress axis : x y z
#
# Youngs Moduli (GPa) = 76.91735 43.93185 121.46329
#
# Poissons Ratio (x) = -0.11373 -0.04561
# Poissons Ratio (y) = -0.19912 0.67670
# Poissons Ratio (z) = -0.02888 0.24475
#
# Static dielectric constant tensor:
#      x y z
#    x 2.029280 0.000000 0.023150 
#    y 0.000000 2.084140 0.000000 
#    z 0.023150 0.000000 1.958710 
# 
# From -- ./inp_files/83111.got.cif
#   From: 2010.05.17/outbox.cif.g08.bks.cpg/sg12_42_cif.got.tgz:83111.got - 2010.06.03 13:09:07.
