data_PCOD9217233
_publ_section_title
;
Structure prediction by ZEFSAII (Michael W. Deem and Ramdas Pophale) SiO2 
 PCOD9217233
Probable space group: C 2/M
;
_chemical_formula_sum "Si O2"
_cell_formula_units_Z 56
_cell_length_a 12.907696
_cell_length_b 25.598618
_cell_length_c 9.375884
_cell_angle_alpha 90.000000
_cell_angle_beta 120.805844
_cell_angle_gamma 90.000000
_cell_volume 2660.871809
_symmetry_space_group_name_H-M "C 2/M"
_symmetry_group_IT_number 12
_symmetry_cell_setting 'monoclinic'
loop_
_space_group_symop_operation_xyz
x,y,z
-x,y,-z
-x,-y,-z
x,-y,z
1/2+x,1/2+y,z
1/2-x,1/2+y,-z
1/2-x,1/2-y,-z
1/2+x,1/2-y,z
loop_
_atom_site_type_symbol
_atom_site_label
_atom_site_fract_x
_atom_site_fract_y
_atom_site_fract_z
Si Si1 0.046605 0.319831 0.196143
Si Si2 0.309738 0.560087 0.086366
Si Si3 0.603160 0.297401 0.192224
Si Si4 0.453980 0.613346 0.621700
Si Si5 0.686243 0.856844 0.786353
Si Si6 0.367214 0.054179 0.464180
Si Si7 0.787279 0.415217 0.681395
O O1 0.086169 0.260108 0.244927
O O2 0.164249 0.356286 0.284404
O O3 0.939297 0.338417 0.228116
O O4 0.000000 0.324314 0.000000
O O5 0.311148 0.500000 0.036428
O O6 0.442350 0.578989 0.230563
O O7 0.229872 0.563537 0.173888
O O8 0.255729 0.603431 0.942056
O O9 0.581893 0.340417 0.298408
O O10 0.729250 0.308468 0.199942
O O11 0.500000 0.304025 0.000000
O O12 0.500000 0.633614 0.500000
O O13 0.337380 0.580205 0.493929
O O14 0.676105 0.892285 0.637200
O O15 0.500000 0.050715 0.500000
O O16 0.378949 0.056656 0.642235
O O17 0.301062 0.000000 0.377814
#
# Coordination Sequence:
#
# PCOD9217233 Si02
#       7
#     8   8   8   8   8   8   8
#     4  11  25  43  69  97 129 174 221 267 333 387
#     4  11  24  42  68  96 129 177 222 266 323 386
#     4  11  24  44  68  96 127 178 214 270 334 384
#     4  10  23  42  64  95 136 163 216 270 321 393
#     4  12  23  44  69  97 135 165 225 277 313 394
#     4  11  23  39  63  96 134 174 210 261 329 382
#     4  11  22  43  64  94 135 171 212 272 320 392
#
# _framework density 21.045733999999999
#
# number of rings (size 3 to 8) (size 9 to 14) (size 15 to 20)
#    0.000    1.000    5.714    0.857    0.000    8.286 
#    2.571    1.429    0.000    0.000    0.000    0.000 
#    0.000    0.000    0.000    0.000    0.000    0.000 
#
# Total GULP energy -156219.879819 kJ/mol
# GULP energy per Si atom -5579.281422 kJ/mol
# Density = 2.099783 g / cm^3
# Si number density = 21.045734 Si / 1000 Ang^3
#
#
#
# Elastic Constant Matrix: (Units=GPa)
#
#
# Indices 1 2 3 4 5 6 
#
# 1 83.4620 31.3937 -3.6134 0.0000 -9.0517 0.0000
# 2 31.3937 115.7530 17.3206 0.0000 -1.9305 0.0000
# 3 -3.6134 17.3206 32.3139 0.0000 -7.1441 0.0000
# 4 0.0000 0.0000 0.0000 18.4462 0.0000 -17.1095
# 5 -9.0517 -1.9305 -7.1441 0.0000 30.1103 0.0000
# 6 0.0000 0.0000 0.0000 -17.1095 0.0000 25.4549
#
#
#
# Elastic Compliance Matrix: (Units=1/GPa)
#
#
# Indices 1 2 3 4 5 6 
#
# 1 0.014536 -0.004646 0.005293 0.000000 0.005328 0.000000
# 2 -0.004646 0.010888 -0.006870 0.000000 -0.002329 0.000000
# 3 0.005293 -0.006870 0.037439 0.000000 0.010034 0.000000
# 4 0.000000 0.000000 0.000000 0.143967 0.000000 0.096768
# 5 0.005328 -0.002329 0.010034 0.000000 0.037044 0.000000
# 6 0.000000 0.000000 0.000000 0.096768 0.000000 0.104328
#
#
# Mechanical properties :
#
#
# Convention : Reuss Voigt Hill
#
# Bulk Modulus (GPa) = 19.83413 35.74787 27.79100
# Shear Modulus (GPa) = 13.24666 27.23081 20.23873
#
# Velocity S-wave (km/s) = 2.51155 3.60097 3.10442
# Velocity P-wave (km/s) = 4.22555 5.85764 5.10721
#
# Compressibility (1/GPa) = 0.05041815
#
# Stress axis : x y z
#
# Youngs Moduli (GPa) = 68.79535 91.84226 26.70988
#
# Poissons Ratio (x) = 0.42666 -0.14139
# Poissons Ratio (y) = 0.31959 0.18351
# Poissons Ratio (z) = -0.36416 0.63100
#
# Static dielectric constant tensor:
#      x y z
#    x 1.821890 0.000000 -0.013440 
#    y 0.000000 1.801420 0.000000 
#    z -0.013440 0.000000 1.678180 
# 
# From -- ./inp_files/65987.got.cif
#   From: 2010.05.17/outbox.cif.g08.bks.cpg/sg12_33_cif.got.tgz:65987.got - 2010.06.03 13:09:07.
