data_PCOD9217681
_publ_section_title
;
Structure prediction by ZEFSAII (Michael W. Deem and Ramdas Pophale) SiO2 
 PCOD9217681
Probable space group: C 2/M
;
_chemical_formula_sum "Si O2"
_cell_formula_units_Z 44
_cell_length_a 18.251373
_cell_length_b 23.424871
_cell_length_c 5.087149
_cell_angle_alpha 90.000000
_cell_angle_beta 80.832013
_cell_angle_gamma 90.000000
_cell_volume 2147.155737
_symmetry_space_group_name_H-M "C 2/M"
_symmetry_group_IT_number 12
_symmetry_cell_setting 'monoclinic'
loop_
_space_group_symop_operation_xyz
x,y,z
-x,y,-z
-x,-y,-z
x,-y,z
1/2+x,1/2+y,z
1/2-x,1/2+y,-z
1/2-x,1/2-y,-z
1/2+x,1/2-y,z
loop_
_atom_site_type_symbol
_atom_site_label
_atom_site_fract_x
_atom_site_fract_y
_atom_site_fract_z
Si Si1 0.810503 0.863464 0.453005
Si Si2 0.175133 0.787229 0.047936
Si Si3 0.860421 0.616587 0.443428
Si Si4 0.054118 0.500000 0.716913
Si Si5 0.918396 0.319418 0.920518
Si Si6 0.454336 0.568512 0.276066
O O1 0.818492 0.836846 0.738765
O O2 0.727093 0.885056 0.447132
O O3 0.870698 0.911455 0.357585
O O4 0.830011 0.813706 0.236999
O O5 0.107763 0.743929 0.141276
O O6 0.250000 0.750000 0.000000
O O7 0.895344 0.556557 0.332485
O O8 0.904245 0.640878 0.673425
O O9 0.868281 0.658861 0.191177
O O10 0.000000 0.500000 0.500000
O O11 0.000000 0.500000 0.000000
O O12 0.000000 0.322023 0.000000
O O13 0.500000 0.588828 0.500000
O O14 0.455434 0.500000 0.267130
O O15 0.500000 0.590299 0.000000
#
# Coordination Sequence:
#
# PCOD9217681 Si02
#       6
#     8   8   8   4   8   8
#     4  12  24  41  71  96 133 170 220 272 317 395
#     4  12  23  43  64  95 133 171 216 268 328 370
#     4  12  24  43  67  96 129 172 218 267 326 381
#     4  12  26  44  66  94 132 170 214 274 320 380
#     4  12  25  42  66  94 131 176 217 261 323 392
#     4  10  23  44  68  97 134 171 210 269 334 387
#
# _framework density 20.492224
#
# number of rings (size 3 to 8) (size 9 to 14) (size 15 to 20)
#    0.000    0.364    3.636    6.000    1.273    2.182 
#    0.000    0.000    0.000    0.000    0.000    0.000 
#    0.000    0.000    0.000    0.000    0.000    0.000 
#
# Total GULP energy -123044.900079 kJ/mol
# GULP energy per Si atom -5592.950004 kJ/mol
# Density = 2.044558 g / cm^3
# Si number density = 20.492224 Si / 1000 Ang^3
#
#
#
# Elastic Constant Matrix: (Units=GPa)
#
#
# Indices 1 2 3 4 5 6 
#
# 1 132.3962 45.5174 37.1797 0.0000 -11.1994 0.0000
# 2 45.5174 50.0444 19.5360 0.0000 -5.7217 0.0000
# 3 37.1797 19.5360 115.7740 0.0000 -5.1501 0.0000
# 4 0.0000 0.0000 0.0000 -60.9671 0.0000 -44.2576
# 5 -11.1994 -5.7217 -5.1501 0.0000 28.8336 0.0000
# 6 0.0000 0.0000 0.0000 -44.2576 0.0000 20.7867
#
#
#
# Elastic Compliance Matrix: (Units=1/GPa)
#
#
# Indices 1 2 3 4 5 6 
#
# 1 0.011568 -0.009477 -0.002016 0.000000 0.002253 0.000000
# 2 -0.009477 0.029539 -0.001859 0.000000 0.001849 0.000000
# 3 -0.002016 -0.001859 0.009624 0.000000 0.000567 0.000000
# 4 0.000000 0.000000 0.000000 -0.006443 0.000000 -0.013719
# 5 0.002253 0.001849 0.000567 0.000000 0.036025 0.000000
# 6 0.000000 0.000000 0.000000 -0.013719 0.000000 0.018898
#
#
# Mechanical properties :
#
#
# Convention : Reuss Voigt Hill
#
# Bulk Modulus (GPa) = 41.61847 55.85342 48.73595
# Shear Modulus (GPa) = 37.33503 10.79606 24.06554
#
# Velocity S-wave (km/s) = 4.27302 2.29778 3.43063
# Velocity P-wave (km/s) = 6.68568 5.86130 6.28702
#
# Compressibility (1/GPa) = 0.02402779
#
# Stress axis : x y z
#
# Youngs Moduli (GPa) = 86.44670 33.85348 103.91053
#
# Poissons Ratio (x) = 0.32083 0.20943
# Poissons Ratio (y) = 0.81926 0.19315
# Poissons Ratio (z) = 0.17423 0.06293
#
# Static dielectric constant tensor:
#      x y z
#    x 1.720310 0.000000 0.004460 
#    y 0.000000 1.721520 0.000000 
#    z 0.004460 0.000000 1.691370 
# 
# From -- ./inp_files/16064.got.cif
#   From: 2010.05.17/outbox.cif.g08.bks.cpg/sg12_9_cif.got.tgz:16064.got - 2010.06.03 13:09:07.
