data_PCOD9217139
_publ_section_title
;
Structure prediction by ZEFSAII (Michael W. Deem and Ramdas Pophale) SiO2 
 PCOD9217139
Probable space group: C 2/M
;
_chemical_formula_sum "Si O2"
_cell_formula_units_Z 48
_cell_length_a 20.991716
_cell_length_b 8.575098
_cell_length_c 15.134177
_cell_angle_alpha 90.000000
_cell_angle_beta 71.881590
_cell_angle_gamma 90.000000
_cell_volume 2589.163743
_symmetry_space_group_name_H-M "C 2/M"
_symmetry_group_IT_number 12
_symmetry_cell_setting 'monoclinic'
loop_
_space_group_symop_operation_xyz
x,y,z
-x,y,-z
-x,-y,-z
x,-y,z
1/2+x,1/2+y,z
1/2-x,1/2+y,-z
1/2-x,1/2-y,-z
1/2+x,1/2-y,z
loop_
_atom_site_type_symbol
_atom_site_label
_atom_site_fract_x
_atom_site_fract_y
_atom_site_fract_z
Si Si1 0.806762 0.687562 0.540497
Si Si2 0.289683 0.312690 0.068325
Si Si3 0.941468 0.188337 0.958478
Si Si4 0.457106 0.189728 0.433307
Si Si5 0.696455 0.313988 0.260292
Si Si6 0.942249 0.312723 0.761014
O O1 0.805817 0.500000 0.541446
O O2 0.750000 0.750000 0.500000
O O3 0.880487 0.740445 0.475962
O O4 0.796573 0.747272 0.644374
O O5 0.284911 0.500000 0.071375
O O6 0.254760 0.245743 0.170439
O O7 0.250000 0.250000 0.000000
O O8 0.367628 0.268299 0.025406
O O9 0.950830 0.257865 0.857312
O O10 0.943218 0.000000 0.950715
O O11 0.000000 0.237523 0.000000
O O12 0.500000 0.240787 0.500000
O O13 0.496186 0.237473 0.328235
O O14 0.456748 0.000000 0.434680
O O15 0.696855 0.500000 0.262489
O O16 0.626218 0.255867 0.249424
O O17 0.937318 0.500000 0.759957
#
# Coordination Sequence:
#
# PCOD9217139 Si02
#       6
#     8   8   8   8   8   8
#     4  11  23  42  64  90 127 162 202 252 308 365
#     4  11  22  38  63  92 123 161 204 251 303 363
#     4  10  23  42  61  87 125 161 196 248 308 362
#     4   9  18  36  62  90 119 157 199 247 300 361
#     4  12  24  39  61  91 124 161 207 253 303 362
#     4  11  21  37  64  92 118 156 205 252 304 362
#
# _framework density 18.538803999999999
#
# number of rings (size 3 to 8) (size 9 to 14) (size 15 to 20)
#    0.000    1.333    3.333    3.000    0.000    2.333 
#    0.000    7.500    0.000    0.000    0.000    0.000 
#    0.000    0.000    0.000    0.000    0.000    0.000 
#
# Total GULP energy -134156.049401 kJ/mol
# GULP energy per Si atom -5589.835392 kJ/mol
# Density = 1.849661 g / cm^3
# Si number density = 18.538804 Si / 1000 Ang^3
#
#
#
# Elastic Constant Matrix: (Units=GPa)
#
#
# Indices 1 2 3 4 5 6 
#
# 1 194.7670 55.0639 125.4928 0.0000 -1.2649 0.0000
# 2 55.0639 61.2783 58.8279 0.0000 -1.3482 0.0000
# 3 125.4928 58.8279 216.2270 0.0000 -10.8200 0.0000
# 4 0.0000 0.0000 0.0000 32.9926 0.0000 6.5720
# 5 -1.2649 -1.3482 -10.8200 0.0000 38.6518 0.0000
# 6 0.0000 0.0000 0.0000 6.5720 0.0000 23.6117
#
#
#
# Elastic Compliance Matrix: (Units=1/GPa)
#
#
# Indices 1 2 3 4 5 6 
#
# 1 0.008946 -0.004099 -0.004127 0.000000 -0.001006 0.000000
# 2 -0.004099 0.023999 -0.004174 0.000000 -0.000465 0.000000
# 3 -0.004127 -0.004174 0.008257 0.000000 0.002031 0.000000
# 4 0.000000 0.000000 0.000000 0.032089 0.000000 -0.008931
# 5 -0.001006 -0.000465 0.002031 0.000000 0.026391 0.000000
# 6 0.000000 0.000000 0.000000 -0.008931 0.000000 0.044838
#
#
# Mechanical properties :
#
#
# Convention : Reuss Voigt Hill
#
# Bulk Modulus (GPa) = 60.96601 105.67129 83.31865
# Shear Modulus (GPa) = 28.60641 34.57707 31.59174
#
# Velocity S-wave (km/s) = 3.93244 4.32339 4.13254
# Velocity P-wave (km/s) = 7.31955 9.05793 8.23474
#
# Compressibility (1/GPa) = 0.01640258
#
# Stress axis : x y z
#
# Youngs Moduli (GPa) = 111.78501 41.66923 121.10633
#
# Poissons Ratio (x) = 0.17078 0.49982
# Poissons Ratio (y) = 0.45816 0.50547
# Poissons Ratio (z) = 0.46135 0.17392
#
# Static dielectric constant tensor:
#      x y z
#    x 1.615750 0.000000 -0.021190 
#    y 0.000000 1.633380 0.000000 
#    z -0.021190 0.000000 1.616540 
# 
# From -- ./inp_files/229821.got.cif
#   From: 2010.05.17/outbox.cif.g08.bks.cpg/sg12_115_cif.got.tgz:229821.got - 2010.06.03 13:09:07.
