data_PCOD9217589
_publ_section_title
;
Structure prediction by ZEFSAII (Michael W. Deem and Ramdas Pophale) SiO2 
 PCOD9217589
Probable space group: C 2/M
;
_chemical_formula_sum "Si O2"
_cell_formula_units_Z 54
_cell_length_a 21.094627
_cell_length_b 17.872489
_cell_length_c 20.434681
_cell_angle_alpha 90.000000
_cell_angle_beta 160.314500
_cell_angle_gamma 90.000000
_cell_volume 2595.196885
_symmetry_space_group_name_H-M "C 2/M"
_symmetry_group_IT_number 12
_symmetry_cell_setting 'monoclinic'
loop_
_space_group_symop_operation_xyz
x,y,z
-x,y,-z
-x,-y,-z
x,-y,z
1/2+x,1/2+y,z
1/2-x,1/2+y,-z
1/2-x,1/2-y,-z
1/2+x,1/2-y,z
loop_
_atom_site_type_symbol
_atom_site_label
_atom_site_fract_x
_atom_site_fract_y
_atom_site_fract_z
Si Si1 0.786841 0.643976 0.850040
Si Si2 0.031100 0.912249 0.365093
Si Si3 0.500000 0.248059 0.500000
Si Si4 0.613541 0.834644 0.261362
Si Si5 0.000000 0.500000 0.000000
Si Si6 0.292037 0.820115 0.419824
Si Si7 0.047496 0.411075 0.768125
Si Si8 0.988154 0.912447 0.174391
O O1 0.640419 0.627437 0.766336
O O2 0.669861 0.699240 0.690272
O O3 0.974958 0.677411 0.065947
O O4 0.852615 0.566501 0.881608
O O5 0.222667 0.895797 0.590469
O O6 0.054817 0.888462 0.312419
O O7 0.991068 0.000000 0.324302
O O8 0.589881 0.199043 0.529672
O O9 0.727983 0.759377 0.387758
O O10 0.493146 0.868058 0.203873
O O11 0.419364 0.871314 0.589969
O O12 0.096822 0.865497 0.225653
O O13 0.005623 0.500000 0.735126
O O14 0.264379 0.403468 0.958404
O O15 0.031844 0.000000 0.209356
#
# Coordination Sequence:
#
# PCOD9217589 Si02
#       8
#     8   8   4   8   2   8   8   8
#     4  12  27  47  66 100 140 194 239 281 331 416
#     4  11  22  41  69 102 145 180 225 287 350 411
#     4  12  30  53  63  94 148 192 242 292 334 418
#     4  12  25  41  73 105 142 177 229 286 359 411
#     4  12  28  42  72  96 142 204 246 252 332 412
#     4  12  26  45  70 100 140 193 231 282 356 419
#     4  11  24  44  74 110 143 171 227 297 362 419
#     4  10  23  43  71 108 140 174 227 297 356 420
#
# _framework density 20.807669000000001
#
# number of rings (size 3 to 8) (size 9 to 14) (size 15 to 20)
#    0.000    0.593    5.185    2.222    4.148    0.889 
#    0.000    1.481    0.000    1.778    0.000    0.000 
#    0.000    0.000    0.000    0.000    0.000    0.000 
#
# Total GULP energy -150697.839531 kJ/mol
# GULP energy per Si atom -5581.401464 kJ/mol
# Density = 2.076031 g / cm^3
# Si number density = 20.807669 Si / 1000 Ang^3
#
#
#
# Elastic Constant Matrix: (Units=GPa)
#
#
# Indices 1 2 3 4 5 6 
#
# 1 102.6382 60.8528 46.7793 0.0008 25.6598 0.0030
# 2 60.8528 82.4336 29.8766 -0.0282 5.9334 -0.0162
# 3 46.7793 29.8766 103.9124 0.0124 6.5313 0.0034
# 4 0.0008 -0.0282 0.0124 27.7245 0.0044 16.4531
# 5 25.6598 5.9334 6.5313 0.0044 29.4016 -0.0022
# 6 0.0030 -0.0162 0.0034 16.4531 -0.0022 33.6247
#
#
#
# Elastic Compliance Matrix: (Units=1/GPa)
#
#
# Indices 1 2 3 4 5 6 
#
# 1 0.026966 -0.016275 -0.006275 -0.000007 -0.018856 -0.000007
# 2 -0.016275 0.023470 -0.000016 0.000021 0.009471 0.000003
# 3 -0.006275 -0.000016 0.012280 -0.000008 0.002752 0.000003
# 4 -0.000007 0.000021 -0.000008 0.050829 -0.000006 -0.024871
# 5 -0.018856 0.009471 0.002752 -0.000006 0.047945 0.000012
# 6 -0.000007 0.000003 0.000003 -0.024871 0.000012 0.041910
#
#
# Mechanical properties :
#
#
# Convention : Reuss Voigt Hill
#
# Bulk Modulus (GPa) = 56.87429 62.66684 59.77056
# Shear Modulus (GPa) = 19.65445 28.24854 23.95150
#
# Velocity S-wave (km/s) = 3.07673 3.68856 3.39645
# Velocity P-wave (km/s) = 6.32569 6.95149 6.64596
#
# Compressibility (1/GPa) = 0.01758264
#
# Stress axis : x y z
#
# Youngs Moduli (GPa) = 37.08320 42.60823 81.43192
#
# Poissons Ratio (x) = 0.69346 0.51100
# Poissons Ratio (y) = 0.60354 0.00134
# Poissons Ratio (z) = 0.23270 0.00070
#
# Static dielectric constant tensor:
#      x y z
#    x 1.763870 -0.000010 -0.021300 
#    y -0.000010 1.737550 -0.000010 
#    z -0.021300 -0.000010 1.791180 
# 
# From -- ./inp_files/322774.got.cif
#   From: 2010.05.17/outbox.cif.g08.bks.cpg/sg12_162_cif.got.tgz:322774.got - 2010.06.03 13:09:07.
