data_PCOD9217342
_publ_section_title
;
Structure prediction by ZEFSAII (Michael W. Deem and Ramdas Pophale) SiO2 
 PCOD9217342
Probable space group: C 2/M
;
_chemical_formula_sum "Si O2"
_cell_formula_units_Z 26
_cell_length_a 14.397041
_cell_length_b 15.512285
_cell_length_c 11.711770
_cell_angle_alpha 90.000000
_cell_angle_beta 150.372671
_cell_angle_gamma 90.000000
_cell_volume 1293.039638
_symmetry_space_group_name_H-M "C 2/M"
_symmetry_group_IT_number 12
_symmetry_cell_setting 'monoclinic'
loop_
_space_group_symop_operation_xyz
x,y,z
-x,y,-z
-x,-y,-z
x,-y,z
1/2+x,1/2+y,z
1/2-x,1/2+y,-z
1/2-x,1/2-y,-z
1/2+x,1/2-y,z
loop_
_atom_site_type_symbol
_atom_site_label
_atom_site_fract_x
_atom_site_fract_y
_atom_site_fract_z
Si Si1 0.179406 0.143801 0.117355
Si Si2 0.280247 0.839981 0.773110
Si Si3 0.500000 0.000000 0.500000
Si Si4 0.962700 0.100760 0.274931
O O1 0.237907 0.237728 0.225700
O O2 0.344007 0.075324 0.302908
O O3 0.109588 0.151099 0.912437
O O4 0.000000 0.115259 0.000000
O O5 0.182117 0.886366 0.775460
O O6 0.162691 0.866974 0.536157
O O7 0.500000 0.861149 0.000000
O O8 0.975426 0.000000 0.259167
#
# Coordination Sequence:
#
# PCOD9217342 Si02
#       4
#     8   8   2   8
#     4  11  25  43  65  97 130 165 217 265 313 383
#     4  10  23  42  68  93 128 172 215 255 321 377
#     4  12  22  40  64  92 126 170 200 262 326 368
#     4  11  23  42  64  95 135 163 212 272 304 379
#
# _framework density 20.107658000000001
#
# number of rings (size 3 to 8) (size 9 to 14) (size 15 to 20)
#    0.000    1.231    1.538    5.077    0.000    9.846 
#    0.000    0.000    0.000    0.000    0.000    0.000 
#    0.000    0.000    0.000    0.000    0.000    0.000 
#
# Total GULP energy -72433.168770 kJ/mol
# GULP energy per Si atom -5571.782213 kJ/mol
# Density = 2.006189 g / cm^3
# Si number density = 20.107658 Si / 1000 Ang^3
#
#
#
# Elastic Constant Matrix: (Units=GPa)
#
#
# Indices 1 2 3 4 5 6 
#
# 1 38.4021 -12.5610 39.5538 0.0000 -1.7159 0.0000
# 2 -12.5610 62.3382 14.3468 0.0000 5.6436 0.0000
# 3 39.5538 14.3468 124.5900 0.0000 20.6310 0.0000
# 4 0.0000 0.0000 0.0000 55.0173 0.0000 -1.5921
# 5 -1.7159 5.6436 20.6310 0.0000 23.1641 0.0000
# 6 0.0000 0.0000 0.0000 -1.5921 0.0000 12.0129
#
#
#
# Elastic Compliance Matrix: (Units=1/GPa)
#
#
# Indices 1 2 3 4 5 6 
#
# 1 0.054759 0.014337 -0.022438 0.000000 0.020547 0.000000
# 2 0.014337 0.020380 -0.007334 0.000000 0.002629 0.000000
# 3 -0.022438 -0.007334 0.018737 0.000000 -0.016563 0.000000
# 4 0.000000 0.000000 0.000000 0.018246 0.000000 0.002418
# 5 0.020547 0.002629 -0.016563 0.000000 0.058804 0.000000
# 6 0.000000 0.000000 0.000000 0.002418 0.000000 0.083564
#
#
# Mechanical properties :
#
#
# Convention : Reuss Voigt Hill
#
# Bulk Modulus (GPa) = 15.87106 34.22326 25.04716
# Shear Modulus (GPa) = 16.32062 30.30491 23.31277
#
# Velocity S-wave (km/s) = 2.85206 3.88639 3.40869
# Velocity P-wave (km/s) = 4.33080 6.09883 5.28921
#
# Compressibility (1/GPa) = 0.06300778
#
# Stress axis : x y z
#
# Youngs Moduli (GPa) = 18.26193 49.06680 53.37061
#
# Poissons Ratio (x) = -0.70349 1.19752
# Poissons Ratio (y) = -0.26183 0.39141
# Poissons Ratio (z) = 0.40976 0.35985
#
# Static dielectric constant tensor:
#      x y z
#    x 1.711840 0.000000 0.001850 
#    y 0.000000 1.700210 0.000000 
#    z 0.001850 0.000000 1.684090 
# 
# From -- ./inp_files/143451.got.cif
#   From: 2010.05.17/outbox.cif.g08.bks.cpg/sg12_72_cif.got.tgz:143451.got - 2010.06.03 13:09:07.
