data_PCOD9217669
_publ_section_title
;
Structure prediction by ZEFSAII (Michael W. Deem and Ramdas Pophale) SiO2 
 PCOD9217669
Probable space group: C 2/M
;
_chemical_formula_sum "Si O2"
_cell_formula_units_Z 44
_cell_length_a 24.863222
_cell_length_b 18.284969
_cell_length_c 5.176569
_cell_angle_alpha 90.000000
_cell_angle_beta 76.806257
_cell_angle_gamma 90.000000
_cell_volume 2291.268154
_symmetry_space_group_name_H-M "C 2/M"
_symmetry_group_IT_number 12
_symmetry_cell_setting 'monoclinic'
loop_
_space_group_symop_operation_xyz
x,y,z
-x,y,-z
-x,-y,-z
x,-y,z
1/2+x,1/2+y,z
1/2-x,1/2+y,-z
1/2-x,1/2-y,-z
1/2+x,1/2-y,z
loop_
_atom_site_type_symbol
_atom_site_label
_atom_site_fract_x
_atom_site_fract_y
_atom_site_fract_z
Si Si1 0.538293 0.083527 0.705944
Si Si2 0.294449 0.813931 0.903905
Si Si3 0.632266 0.203049 0.676185
Si Si4 0.195411 0.913469 0.039253
Si Si5 0.461139 0.500000 0.292739
Si Si6 0.872907 0.869334 0.389320
O O1 0.500000 0.097003 0.500000
O O2 0.586270 0.142506 0.674834
O O3 0.559991 0.000000 0.663124
O O4 0.500000 0.087880 0.000000
O O5 0.320416 0.806471 0.592618
O O6 0.258516 0.887163 0.974091
O O7 0.250000 0.750000 0.000000
O O8 0.341120 0.807153 0.070886
O O9 0.609437 0.285545 0.671639
O O10 0.168187 0.889944 0.798989
O O11 0.190663 0.000000 0.075858
O O12 0.160786 0.876488 0.307408
O O13 0.500000 0.500000 0.500000
O O14 0.422040 0.428396 0.336099
O O15 0.500000 0.500000 0.000000
#
# Coordination Sequence:
#
# PCOD9217669 Si02
#       6
#     8   8   8   8   4   8
#     4  10  23  44  68  93 129 168 206 264 329 379
#     4  12  23  39  63  95 130 166 207 259 314 363
#     4  12  24  40  68  97 129 163 217 264 308 385
#     4  12  23  40  63  88 125 174 212 240 311 391
#     4  12  26  42  62  90 122 160 220 276 306 358
#     4  12  23  41  64  87 123 171 209 258 321 370
#
# _framework density 19.203340000000001
#
# number of rings (size 3 to 8) (size 9 to 14) (size 15 to 20)
#    0.000    0.364    5.455    3.818    0.000    2.909 
#    0.000    0.000    0.000    0.000    0.000    0.000 
#    0.000    0.000    0.000    0.000    0.000    0.000 
#
# Total GULP energy -123096.221674 kJ/mol
# GULP energy per Si atom -5595.282803 kJ/mol
# Density = 1.915963 g / cm^3
# Si number density = 19.203340 Si / 1000 Ang^3
#
#
#
# Elastic Constant Matrix: (Units=GPa)
#
#
# Indices 1 2 3 4 5 6 
#
# 1 74.6168 57.8823 5.4657 0.0000 9.4877 0.0000
# 2 57.8823 120.1559 -20.1341 0.0000 10.0069 0.0000
# 3 5.4657 -20.1341 69.4695 0.0000 15.3340 0.0000
# 4 0.0000 0.0000 0.0000 22.9207 0.0000 -2.5595
# 5 9.4877 10.0069 15.3340 0.0000 33.0386 0.0000
# 6 0.0000 0.0000 0.0000 -2.5595 0.0000 46.2423
#
#
#
# Elastic Compliance Matrix: (Units=1/GPa)
#
#
# Indices 1 2 3 4 5 6 
#
# 1 0.023131 -0.011952 -0.005144 0.000000 -0.000635 0.000000
# 2 -0.011952 0.015497 0.006362 0.000000 -0.004214 0.000000
# 3 -0.005144 0.006362 0.018654 0.000000 -0.009108 0.000000
# 4 0.000000 0.000000 0.000000 0.043900 0.000000 0.002430
# 5 -0.000635 -0.004214 -0.009108 0.000000 0.035954 0.000000
# 6 0.000000 0.000000 0.000000 0.002430 0.000000 0.021760
#
#
# Mechanical properties :
#
#
# Convention : Reuss Voigt Hill
#
# Bulk Modulus (GPa) = 27.92130 38.96333 33.44232
# Shear Modulus (GPa) = 26.00119 35.17555 30.58837
#
# Velocity S-wave (km/s) = 3.68366 4.28453 3.99540
# Velocity P-wave (km/s) = 5.71523 6.69404 6.22390
#
# Compressibility (1/GPa) = 0.03581495
#
# Stress axis : x y z
#
# Youngs Moduli (GPa) = 43.23291 64.52871 53.60871
#
# Poissons Ratio (x) = 0.77122 0.27574
# Poissons Ratio (y) = 0.51670 -0.34106
# Poissons Ratio (z) = 0.22237 -0.41053
#
# Static dielectric constant tensor:
#      x y z
#    x 1.630460 0.000000 -0.003600 
#    y 0.000000 1.683770 0.000000 
#    z -0.003600 0.000000 1.642650 
# 
# From -- ./inp_files/20417.got.cif
#   From: 2010.05.17/outbox.cif.g08.bks.cpg/sg12_11_cif.got.tgz:20417.got - 2010.06.03 13:09:07.
