data_PCOD9217107
_publ_section_title
;
Structure prediction by ZEFSAII (Michael W. Deem and Ramdas Pophale) SiO2 
 PCOD9217107
Probable space group: C 2/M
;
_chemical_formula_sum "Si O2"
_cell_formula_units_Z 40
_cell_length_a 18.931253
_cell_length_b 13.541170
_cell_length_c 13.904792
_cell_angle_alpha 90.000000
_cell_angle_beta 155.828430
_cell_angle_gamma 90.000000
_cell_volume 1459.562010
_symmetry_space_group_name_H-M "C 2/M"
_symmetry_group_IT_number 12
_symmetry_cell_setting 'monoclinic'
loop_
_space_group_symop_operation_xyz
x,y,z
-x,y,-z
-x,-y,-z
x,-y,z
1/2+x,1/2+y,z
1/2-x,1/2+y,-z
1/2-x,1/2-y,-z
1/2+x,1/2-y,z
loop_
_atom_site_type_symbol
_atom_site_label
_atom_site_fract_x
_atom_site_fract_y
_atom_site_fract_z
Si Si1 0.719947 0.860588 0.497801
Si Si2 0.347621 0.390088 0.180402
Si Si3 0.918862 0.104789 0.005675
Si Si4 0.593379 0.164083 0.013515
Si Si5 0.524240 0.825779 0.643487
O O1 0.750000 0.750000 0.500000
O O2 0.906232 0.903973 0.714526
O O3 0.554266 0.889164 0.232151
O O4 0.647377 0.864386 0.516083
O O5 0.416925 0.500000 0.251723
O O6 0.464677 0.292129 0.321704
O O7 0.264822 0.385567 0.185265
O O8 0.191845 0.370863 0.907860
O O9 0.865883 0.219095 0.957284
O O10 0.821378 0.000000 0.896911
O O11 0.000000 0.105358 0.000000
O O12 0.500000 0.162201 0.000000
O O13 0.500000 0.845002 0.500000
#
# Coordination Sequence:
#
# PCOD9217107 Si02
#       5
#     8   8   8   8   8
#     4   9  19  36  58  89 122 163 205 257 311 373
#     4  10  23  44  65  94 131 169 219 265 316 390
#     4   9  18  33  58  90 123 159 204 259 314 372
#     4   9  19  36  65  88 127 169 205 260 317 376
#     4  10  23  41  69  91 129 172 210 269 327 380
#
# _framework density 27.405481999999999
#
# number of rings (size 3 to 8) (size 9 to 14) (size 15 to 20)
#    0.000    2.600    0.000    0.000    8.400    4.400 
#    0.000   16.000    0.000    0.000    0.000    0.000 
#    0.000    0.000    0.000    0.000    0.000    0.000 
#
# Total GULP energy -111626.809379 kJ/mol
# GULP energy per Si atom -5581.340469 kJ/mol
# Density = 2.734311 g / cm^3
# Si number density = 27.405482 Si / 1000 Ang^3
#
#
#
# Elastic Constant Matrix: (Units=GPa)
#
#
# Indices 1 2 3 4 5 6 
#
# 1 173.5647 20.1477 1.9618 0.0001 -27.9025 0.0001
# 2 20.1477 201.3927 11.2636 0.0000 -7.3532 0.0001
# 3 1.9618 11.2636 67.2607 0.0001 -7.9991 0.0003
# 4 0.0001 0.0000 0.0001 9.8988 0.0000 9.3984
# 5 -27.9025 -7.3532 -7.9991 0.0000 32.2186 0.0001
# 6 0.0001 0.0001 0.0003 9.3984 0.0001 -13.1667
#
#
#
# Elastic Compliance Matrix: (Units=1/GPa)
#
#
# Indices 1 2 3 4 5 6 
#
# 1 0.006758 -0.000494 0.000586 0.000000 0.005886 0.000000
# 2 -0.000494 0.005078 -0.000772 0.000000 0.000539 0.000000
# 3 0.000586 -0.000772 0.015476 0.000000 0.004173 0.000000
# 4 0.000000 0.000000 0.000000 0.060214 0.000000 0.042981
# 5 0.005886 0.000539 0.004173 0.000000 0.037295 0.000000
# 6 0.000000 0.000000 0.000000 0.042981 0.000000 -0.045269
#
#
# Mechanical properties :
#
#
# Convention : Reuss Voigt Hill
#
# Bulk Modulus (GPa) = 38.53294 56.55162 47.54228
# Shear Modulus (GPa) = 55.82706 33.04647 44.43676
#
# Velocity S-wave (km/s) = 4.51829 3.47628 4.03110
# Velocity P-wave (km/s) = 6.42735 6.06569 6.24914
#
# Compressibility (1/GPa) = 0.02595182
#
# Stress axis : x y z
#
# Youngs Moduli (GPa) = 147.96267 196.93947 64.61617
#
# Poissons Ratio (x) = 0.09728 -0.03784
# Poissons Ratio (y) = 0.07309 0.04987
# Poissons Ratio (z) = -0.08664 0.15199
#
# Static dielectric constant tensor:
#      x y z
#    x 2.279900 0.000000 -0.044730 
#    y 0.000000 2.133830 0.000000 
#    z -0.044730 0.000000 2.267960 
# 
# From -- ./inp_files/233520.got.cif
#   From: 2010.05.17/outbox.cif.g08.bks.cpg/sg12_117_cif.got.tgz:233520.got - 2010.06.03 13:09:07.
