data_PCOD9217255
_publ_section_title
;
Structure prediction by ZEFSAII (Michael W. Deem and Ramdas Pophale) SiO2 
 PCOD9217255
Probable space group: C 2/M
;
_chemical_formula_sum "Si O2"
_cell_formula_units_Z 64
_cell_length_a 30.304017
_cell_length_b 8.325430
_cell_length_c 14.374385
_cell_angle_alpha 90.000000
_cell_angle_beta 54.705934
_cell_angle_gamma 90.000000
_cell_volume 2959.997689
_symmetry_space_group_name_H-M "C 2/M"
_symmetry_group_IT_number 12
_symmetry_cell_setting 'monoclinic'
loop_
_space_group_symop_operation_xyz
x,y,z
-x,y,-z
-x,-y,-z
x,-y,z
1/2+x,1/2+y,z
1/2-x,1/2+y,-z
1/2-x,1/2-y,-z
1/2+x,1/2-y,z
loop_
_atom_site_type_symbol
_atom_site_label
_atom_site_fract_x
_atom_site_fract_y
_atom_site_fract_z
Si Si1 0.887805 0.809926 0.417803
Si Si2 0.445019 0.807286 0.520029
Si Si3 0.336284 0.187954 0.756056
Si Si4 0.732796 0.305958 0.419757
Si Si5 0.357643 0.316345 0.927679
Si Si6 0.072060 0.307812 0.822525
Si Si7 0.223942 0.311899 0.822761
Si Si8 0.444791 0.192599 0.950697
O O1 0.934379 0.735977 0.425671
O O2 0.828786 0.748911 0.521807
O O3 0.894779 0.770090 0.300861
O O4 0.889439 0.000000 0.428623
O O5 0.500000 0.744556 0.500000
O O6 0.391581 0.753180 0.640660
O O7 0.446473 0.000000 0.525373
O O8 0.343778 0.206038 0.857235
O O9 0.284680 0.288781 0.786894
O O10 0.327554 0.000000 0.743235
O O11 0.732189 0.500000 0.418393
O O12 0.750000 0.250000 0.500000
O O13 0.772296 0.254370 0.288565
O O14 0.354318 0.500000 0.901308
O O15 0.415717 0.276449 0.900762
O O16 0.315653 0.282790 0.061754
O O17 0.080388 0.500000 0.808968
O O18 0.008627 0.276457 0.879229
O O19 0.080977 0.256844 0.918457
O O20 0.208612 0.500000 0.843237
O O21 0.437788 0.000000 0.951184
#
# Coordination Sequence:
#
# PCOD9217255 Si02
#       8
#     8   8   8   8   8   8   8   8
#     4  11  23  40  62  95 130 162 201 253 313 367
#     4  10  23  42  65  93 123 163 211 254 300 364
#     4  11  23  42  66  91 121 159 203 253 306 362
#     4  10  24  42  63  91 126 164 205 253 305 366
#     4  12  26  40  61  92 124 158 200 251 308 364
#     4   9  20  39  64  88 119 162 205 247 299 359
#     4  11  23  44  66  88 121 160 205 253 304 363
#     4   9  20  41  63  88 120 159 206 253 297 354
#
# _framework density 21.621638999999998
#
# number of rings (size 3 to 8) (size 9 to 14) (size 15 to 20)
#    0.000    1.625    1.250    3.375    3.500    3.750 
#    0.000    1.250    0.000    0.000    0.000    0.000 
#    0.000    0.000    0.000    0.000    0.000    0.000 
#
# Total GULP energy -178937.424642 kJ/mol
# GULP energy per Si atom -5591.794520 kJ/mol
# Density = 2.157243 g / cm^3
# Si number density = 21.621639 Si / 1000 Ang^3
#
#
#
# Elastic Constant Matrix: (Units=GPa)
#
#
# Indices 1 2 3 4 5 6 
#
# 1 67.9362 -6.3384 -9.7930 0.0000 11.6134 0.0000
# 2 -6.3384 11.9635 -2.3291 0.0000 -7.9866 0.0001
# 3 -9.7930 -2.3291 55.7867 0.0000 12.7296 0.0000
# 4 0.0000 0.0000 0.0000 22.1831 0.0000 -0.8223
# 5 11.6134 -7.9866 12.7296 0.0000 31.2890 0.0000
# 6 0.0000 0.0001 0.0000 -0.8223 0.0000 26.4538
#
#
#
# Elastic Compliance Matrix: (Units=1/GPa)
#
#
# Indices 1 2 3 4 5 6 
#
# 1 0.017098 0.005367 0.004807 0.000000 -0.006932 0.000000
# 2 0.005367 0.102611 -0.000326 0.000000 0.024333 0.000000
# 3 0.004807 -0.000326 0.021145 0.000000 -0.010470 0.000000
# 4 0.000000 0.000000 0.000000 0.045131 0.000000 0.001403
# 5 -0.006932 0.024333 -0.010470 0.000000 0.045004 0.000000
# 6 0.000000 0.000000 0.000000 0.001403 0.000000 0.037845
#
#
# Mechanical properties :
#
#
# Convention : Reuss Voigt Hill
#
# Bulk Modulus (GPa) = 6.22854 10.97395 8.60124
# Shear Modulus (GPa) = 16.52042 26.26164 21.39103
#
# Velocity S-wave (km/s) = 2.76718 3.48889 3.14878
# Velocity P-wave (km/s) = 3.61893 4.61696 4.14807
#
# Compressibility (1/GPa) = 0.16055119
#
# Stress axis : x y z
#
# Youngs Moduli (GPa) = 58.48478 9.74550 47.29291
#
# Poissons Ratio (x) = -0.05230 -0.22736
# Poissons Ratio (y) = -0.31389 0.01543
# Poissons Ratio (z) = -0.28116 0.00318
#
# Static dielectric constant tensor:
#      x y z
#    x 1.794390 0.000000 -0.009810 
#    y 0.000000 1.737430 0.000000 
#    z -0.009810 0.000000 1.791520 
# 
# From -- ./inp_files/249652.got.cif
#   From: 2010.05.17/outbox.cif.g08.bks.cpg/sg12_125_cif.got.tgz:249652.got - 2010.06.03 13:09:07.
