data_PCOD9217239
_publ_section_title
;
Structure prediction by ZEFSAII (Michael W. Deem and Ramdas Pophale) SiO2 
 PCOD9217239
Probable space group: C 2/M
;
_chemical_formula_sum "Si O2"
_cell_formula_units_Z 44
_cell_length_a 19.439456
_cell_length_b 7.608671
_cell_length_c 20.440237
_cell_angle_alpha 90.000000
_cell_angle_beta 34.213060
_cell_angle_gamma 90.000000
_cell_volume 1699.907189
_symmetry_space_group_name_H-M "C 2/M"
_symmetry_group_IT_number 12
_symmetry_cell_setting 'monoclinic'
loop_
_space_group_symop_operation_xyz
x,y,z
-x,y,-z
-x,-y,-z
x,-y,z
1/2+x,1/2+y,z
1/2-x,1/2+y,-z
1/2-x,1/2-y,-z
1/2+x,1/2-y,z
loop_
_atom_site_type_symbol
_atom_site_label
_atom_site_fract_x
_atom_site_fract_y
_atom_site_fract_z
Si Si1 0.834950 0.713157 0.295384
Si Si2 0.199369 0.500000 0.312243
Si Si3 0.697215 0.289783 0.112527
Si Si4 0.555329 0.211527 0.024193
Si Si5 0.451618 0.314558 0.611808
Si Si6 0.425210 0.800322 0.363930
O O1 0.811158 0.500000 0.308302
O O2 0.748169 0.843404 0.323780
O O3 0.965162 0.746308 0.155730
O O4 0.847042 0.759582 0.362753
O O5 0.135737 0.650945 0.316024
O O6 0.681978 0.500000 0.130338
O O7 0.565616 0.207105 0.227671
O O8 0.750000 0.250000 0.000000
O O9 0.807758 0.226399 0.071641
O O10 0.561294 0.000000 0.014154
O O11 0.500000 0.282322 0.000000
O O12 0.500000 0.311543 0.500000
O O13 0.386895 0.500000 0.673932
O O14 0.561324 0.299977 0.578049
O O15 0.390971 0.000000 0.404841
#
# Coordination Sequence:
#
# PCOD9217239 Si02
#       6
#     8   4   8   8   8   8
#     4  10  23  42  64  98 145 180 225 282 344 406
#     4  12  25  44  73 106 133 180 218 287 347 426
#     4  11  21  35  59  91 130 180 234 281 331 398
#     4   9  19  35  55  84 130 180 224 277 332 386
#     4  11  26  49  78 103 135 175 231 291 354 423
#     4  11  23  42  69 101 138 186 234 288 347 419
#
# _framework density 25.883766999999999
#
# number of rings (size 3 to 8) (size 9 to 14) (size 15 to 20)
#    0.000    1.455    2.727    1.909    5.091    0.000 
#    1.636    1.364    0.000    0.000    0.000    0.000 
#    0.000    0.000    0.000    0.000    0.000    0.000 
#
# Total GULP energy -122690.016437 kJ/mol
# GULP energy per Si atom -5576.818929 kJ/mol
# Density = 2.582485 g / cm^3
# Si number density = 25.883767 Si / 1000 Ang^3
#
#
#
# Elastic Constant Matrix: (Units=GPa)
#
#
# Indices 1 2 3 4 5 6 
#
# 1 188.9769 51.4265 18.1911 0.0000 14.0981 -0.0001
# 2 51.4265 167.9685 27.5367 0.0000 -6.3368 -0.0002
# 3 18.1911 27.5367 95.8632 0.0000 23.5142 0.0000
# 4 0.0000 0.0000 0.0000 6.9500 0.0000 -6.3856
# 5 14.0981 -6.3368 23.5142 0.0000 43.3202 0.0000
# 6 -0.0001 -0.0002 0.0000 -6.3856 0.0000 27.7522
#
#
#
# Elastic Compliance Matrix: (Units=1/GPa)
#
#
# Indices 1 2 3 4 5 6 
#
# 1 0.005979 -0.001906 -0.000048 0.000000 -0.002199 0.000000
# 2 -0.001906 0.007038 -0.002382 0.000000 0.002943 0.000000
# 3 -0.000048 -0.002382 0.012928 0.000000 -0.007350 0.000000
# 4 0.000000 0.000000 0.000000 0.182458 0.000000 0.041982
# 5 -0.002199 0.002943 -0.007350 0.000000 0.028219 0.000000
# 6 0.000000 0.000000 0.000000 0.041982 0.000000 0.045693
#
#
# Mechanical properties :
#
#
# Convention : Reuss Voigt Hill
#
# Bulk Modulus (GPa) = 57.89039 71.90191 64.89615
# Shear Modulus (GPa) = 16.84951 39.31477 28.08214
#
# Velocity S-wave (km/s) = 2.55418 3.90153 3.29740
# Velocity P-wave (km/s) = 5.57786 6.93794 6.29474
#
# Compressibility (1/GPa) = 0.01727402
#
# Stress axis : x y z
#
# Youngs Moduli (GPa) = 167.25608 142.07663 77.35315
#
# Poissons Ratio (x) = 0.27074 0.00370
# Poissons Ratio (y) = 0.31873 0.18425
# Poissons Ratio (z) = 0.00801 0.33843
#
# Static dielectric constant tensor:
#      x y z
#    x 2.039780 0.000000 -0.001080 
#    y 0.000000 1.953250 0.000000 
#    z -0.001080 0.000000 2.072260 
# 
# From -- ./inp_files/274819.got.cif
#   From: 2010.05.17/outbox.cif.g08.bks.cpg/sg12_138_cif.got.tgz:274819.got - 2010.06.03 13:09:07.
