data_PCOD9217893
_publ_section_title
;
Structure prediction by ZEFSAII (Michael W. Deem and Ramdas Pophale) SiO2 
 PCOD9217893
Probable space group: C 2/M
;
_chemical_formula_sum "Si O2"
_cell_formula_units_Z 52
_cell_length_a 8.862219
_cell_length_b 14.555433
_cell_length_c 28.972671
_cell_angle_alpha 90.000000
_cell_angle_beta 42.775914
_cell_angle_gamma 90.000000
_cell_volume 2538.112381
_symmetry_space_group_name_H-M "C 2/M"
_symmetry_group_IT_number 12
_symmetry_cell_setting 'monoclinic'
loop_
_space_group_symop_operation_xyz
x,y,z
-x,y,-z
-x,-y,-z
x,-y,z
1/2+x,1/2+y,z
1/2-x,1/2+y,-z
1/2-x,1/2-y,-z
1/2+x,1/2-y,z
loop_
_atom_site_type_symbol
_atom_site_label
_atom_site_fract_x
_atom_site_fract_y
_atom_site_fract_z
Si Si1 0.325475 0.608545 0.633794
Si Si2 0.005786 0.274736 0.449139
Si Si3 0.400853 0.390363 0.332728
Si Si4 0.655714 0.891436 0.820922
Si Si5 0.388549 0.107485 0.785099
Si Si6 0.500000 0.740086 0.000000
Si Si7 0.015747 0.214793 0.097278
O O1 0.344593 0.500000 0.620344
O O2 0.382056 0.674387 0.579024
O O3 0.484357 0.629277 0.642723
O O4 0.075648 0.630175 0.705899
O O5 0.168480 0.336302 0.381009
O O6 0.000000 0.322252 0.500000
O O7 0.750000 0.250000 0.500000
O O8 0.364290 0.500000 0.339106
O O9 0.591034 0.368982 0.251904
O O10 0.505392 0.877158 0.808659
O O11 0.556930 0.821590 0.880530
O O12 0.646503 0.000000 0.834719
O O13 0.161484 0.161810 0.832506
O O14 0.342379 0.000000 0.791931
O O15 0.500760 0.684740 0.952201
O O16 0.728753 0.795604 0.947350
#
# Coordination Sequence:
#
# PCOD9217893 Si02
#       7
#     8   8   8   8   8   4   8
#     4   9  19  37  58  83 111 142 186 237 278 323
#     4  12  23  36  55  83 114 151 187 218 276 340
#     4   9  19  37  59  83 109 143 190 234 273 325
#     4   9  18  35  62  86 105 142 192 233 273 325
#     4   9  18  35  62  85 105 144 191 230 278 327
#     4  10  24  34  56  80 122 156 180 210 284 332
#     4  11  19  40  55  84 115 151 181 231 267 332
#
# _framework density 20.487666000000001
#
# number of rings (size 3 to 8) (size 9 to 14) (size 15 to 20)
#    0.000    2.154    3.077    2.769    0.000    1.231 
#    0.000    5.385    0.000    3.692    0.000    0.000 
#    0.000    0.000    0.000    0.000    0.000    0.000 
#
# Total GULP energy -144878.287363 kJ/mol
# GULP energy per Si atom -5572.241822 kJ/mol
# Density = 2.044104 g / cm^3
# Si number density = 20.487666 Si / 1000 Ang^3
#
#
#
# Elastic Constant Matrix: (Units=GPa)
#
#
# Indices 1 2 3 4 5 6 
#
# 1 34.4152 5.9530 31.6822 0.0012 -26.9472 -0.0007
# 2 5.9530 48.7721 60.9592 0.0002 -17.3785 -0.0001
# 3 31.6822 60.9592 123.0332 0.0007 -39.8228 -0.0004
# 4 0.0012 0.0002 0.0007 4.1062 -0.0015 3.8339
# 5 -26.9472 -17.3785 -39.8228 -0.0015 45.0885 0.0005
# 6 -0.0007 -0.0001 -0.0004 3.8339 0.0005 10.9474
#
#
#
# Elastic Compliance Matrix: (Units=1/GPa)
#
#
# Indices 1 2 3 4 5 6 
#
# 1 0.073246 0.033942 -0.024191 -0.000012 0.035492 0.000007
# 2 0.033942 0.070086 -0.039428 -0.000004 0.012475 0.000003
# 3 -0.024191 -0.039428 0.034019 0.000006 0.000392 -0.000003
# 4 -0.000012 -0.000004 0.000006 0.361860 0.000010 -0.126727
# 5 0.035492 0.012475 0.000392 0.000010 0.048545 -0.000003
# 6 0.000007 0.000003 -0.000003 -0.126727 -0.000003 0.135727
#
#
# Mechanical properties :
#
#
# Convention : Reuss Voigt Hill
#
# Bulk Modulus (GPa) = 8.47474 44.82325 26.64899
# Shear Modulus (GPa) = 6.08148 19.20349 12.64249
#
# Velocity S-wave (km/s) = 1.72476 3.06489 2.48680
# Velocity P-wave (km/s) = 2.84814 5.86945 4.61315
#
# Compressibility (1/GPa) = 0.11799778
#
# Stress axis : x y z
#
# Youngs Moduli (GPa) = 13.65264 14.26826 29.39505
#
# Poissons Ratio (x) = -0.48429 0.71109
# Poissons Ratio (y) = -0.46339 1.15898
# Poissons Ratio (z) = 0.33027 0.56256
#
# Static dielectric constant tensor:
#      x y z
#    x 1.782100 0.000000 -0.012130 
#    y 0.000000 1.709900 0.000000 
#    z -0.012130 0.000000 1.736000 
# 
# From -- ./inp_files/372490.got.cif
#   From: 2010.05.17/outbox.cif.g08.bks.cpg/sg12_187_cif.got.tgz:372490.got - 2010.06.03 13:09:07.
