data_PCOD9217337
_publ_section_title
;
Structure prediction by ZEFSAII (Michael W. Deem and Ramdas Pophale) SiO2 
 PCOD9217337
Probable space group: C 2/M
;
_chemical_formula_sum "Si O2"
_cell_formula_units_Z 32
_cell_length_a 21.029904
_cell_length_b 7.670787
_cell_length_c 15.718184
_cell_angle_alpha 90.000000
_cell_angle_beta 39.854766
_cell_angle_gamma 90.000000
_cell_volume 1624.919116
_symmetry_space_group_name_H-M "C 2/M"
_symmetry_group_IT_number 12
_symmetry_cell_setting 'monoclinic'
loop_
_space_group_symop_operation_xyz
x,y,z
-x,y,-z
-x,-y,-z
x,-y,z
1/2+x,1/2+y,z
1/2-x,1/2+y,-z
1/2-x,1/2-y,-z
1/2+x,1/2-y,z
loop_
_atom_site_type_symbol
_atom_site_label
_atom_site_fract_x
_atom_site_fract_y
_atom_site_fract_z
Si Si1 0.156564 0.000000 0.787426
Si Si2 0.771620 0.802316 0.575249
Si Si3 0.986127 0.290299 0.417432
Si Si4 0.063216 0.000000 0.064192
Si Si5 0.634017 0.205601 0.117018
O O1 0.216325 0.831984 0.693786
O O2 0.048869 0.000000 0.854049
O O3 0.137213 0.000000 0.907738
O O4 0.750000 0.750000 0.500000
O O5 0.888549 0.788370 0.474465
O O6 0.737857 0.000000 0.623328
O O7 0.971504 0.500000 0.434336
O O8 0.000000 0.230248 0.500000
O O9 0.081471 0.255619 0.261126
O O10 0.083457 0.829509 0.099680
O O11 0.620446 0.000000 0.113170
O O12 0.750000 0.250000 0.000000
#
# Coordination Sequence:
#
# PCOD9217337 Si02
#       5
#     4   8   8   4   8
#     4  11  26  46  68  97 134 179 223 282 332 401
#     4  12  24  42  71 100 136 176 224 277 339 404
#     4  10  23  42  68 103 138 172 225 286 335 399
#     4  11  26  46  68  94 139 176 225 277 337 404
#     4  11  24  42  70  98 135 180 221 272 339 411
#
# _framework density 19.693287999999999
#
# number of rings (size 3 to 8) (size 9 to 14) (size 15 to 20)
#    0.000    1.000    3.750    1.500    5.250    4.500 
#    0.000    2.500    0.000    0.000    0.000    0.000 
#    0.000    0.000    0.000    0.000    0.000    0.000 
#
# Total GULP energy -89517.247262 kJ/mol
# GULP energy per Si atom -5594.827954 kJ/mol
# Density = 1.964847 g / cm^3
# Si number density = 19.693288 Si / 1000 Ang^3
#
#
#
# Elastic Constant Matrix: (Units=GPa)
#
#
# Indices 1 2 3 4 5 6 
#
# 1 110.4537 32.7374 56.7252 0.0001 14.0351 0.0000
# 2 32.7374 141.3880 72.2445 0.0001 15.2371 -0.0001
# 3 56.7252 72.2445 158.8299 0.0001 13.2082 -0.0001
# 4 0.0001 0.0001 0.0001 25.8290 -0.0001 -0.8227
# 5 14.0351 15.2371 13.2082 -0.0001 33.1964 0.0000
# 6 0.0000 -0.0001 -0.0001 -0.8227 0.0000 28.1222
#
#
#
# Elastic Compliance Matrix: (Units=1/GPa)
#
#
# Indices 1 2 3 4 5 6 
#
# 1 0.011452 -0.000460 -0.003615 0.000000 -0.003192 0.000000
# 2 -0.000460 0.009464 -0.003925 0.000000 -0.002587 0.000000
# 3 -0.003615 -0.003925 0.009407 0.000000 -0.000413 0.000000
# 4 0.000000 0.000000 0.000000 0.038752 0.000000 0.001134
# 5 -0.003192 -0.002587 -0.000413 0.000000 0.032825 0.000000
# 6 0.000000 0.000000 0.000000 0.001134 0.000000 0.035592
#
#
# Mechanical properties :
#
#
# Convention : Reuss Voigt Hill
#
# Bulk Modulus (GPa) = 69.82493 81.56510 75.69502
# Shear Modulus (GPa) = 31.59201 34.02716 32.80958
#
# Velocity S-wave (km/s) = 4.00959 4.16126 4.08613
# Velocity P-wave (km/s) = 7.54778 8.03715 7.79630
#
# Compressibility (1/GPa) = 0.01432153
#
# Stress axis : x y z
#
# Youngs Moduli (GPa) = 87.31854 105.66646 106.30556
#
# Poissons Ratio (x) = 0.04865 0.38432
# Poissons Ratio (y) = 0.04020 0.41725
# Poissons Ratio (z) = 0.31568 0.41474
#
# Static dielectric constant tensor:
#      x y z
#    x 1.669270 0.000000 -0.009420 
#    y 0.000000 1.690690 0.000000 
#    z -0.009420 0.000000 1.680530 
# 
# From -- ./inp_files/229608.got.cif
#   From: 2010.05.17/outbox.cif.g08.bks.cpg/sg12_115_cif.got.tgz:229608.got - 2010.06.03 13:09:07.
