data_PCOD9217271
_publ_section_title
;
Structure prediction by ZEFSAII (Michael W. Deem and Ramdas Pophale) SiO2 
 PCOD9217271
Probable space group: C 2/M
;
_chemical_formula_sum "Si O2"
_cell_formula_units_Z 32
_cell_length_a 24.186885
_cell_length_b 8.785895
_cell_length_c 19.657153
_cell_angle_alpha 90.000000
_cell_angle_beta 156.229308
_cell_angle_gamma 90.000000
_cell_volume 1683.739202
_symmetry_space_group_name_H-M "C 2/M"
_symmetry_group_IT_number 12
_symmetry_cell_setting 'monoclinic'
loop_
_space_group_symop_operation_xyz
x,y,z
-x,y,-z
-x,-y,-z
x,-y,z
1/2+x,1/2+y,z
1/2-x,1/2+y,-z
1/2-x,1/2-y,-z
1/2+x,1/2-y,z
loop_
_atom_site_type_symbol
_atom_site_label
_atom_site_fract_x
_atom_site_fract_y
_atom_site_fract_z
Si Si1 0.562006 0.317457 0.495770
Si Si2 0.398269 0.181037 0.182591
Si Si3 0.608108 0.676954 0.317649
Si Si4 0.138110 0.178310 0.190213
O O1 0.500000 0.276225 0.500000
O O2 0.558876 0.500000 0.485946
O O3 0.471218 0.247030 0.332518
O O4 0.719061 0.260673 0.665645
O O5 0.491161 0.229089 0.223307
O O6 0.390301 0.000000 0.180094
O O7 0.250000 0.250000 0.000000
O O8 0.598821 0.500000 0.328224
O O9 0.750000 0.750000 0.500000
O O10 0.608130 0.683686 0.236587
O O11 0.153878 0.000000 0.188032
O O12 0.000000 0.240244 0.000000
#
# Coordination Sequence:
#
# PCOD9217271 Si02
#       4
#     8   8   8   8
#     4  11  25  44  65  95 131 168 214 267 323 384
#     4  12  26  44  67  95 129 172 217 267 323 383
#     4  11  22  40  66  96 129 167 211 267 321 378
#     4  10  23  42  65  95 127 168 216 259 315 382
#
# _framework density 19.005320000000001
#
# number of rings (size 3 to 8) (size 9 to 14) (size 15 to 20)
#    0.000    1.000    2.500    3.750    3.500    3.500 
#    0.000    0.000    0.000    0.000    0.000    0.000 
#    0.000    0.000    0.000    0.000    0.000    0.000 
#
# Total GULP energy -89441.343354 kJ/mol
# GULP energy per Si atom -5590.083960 kJ/mol
# Density = 1.896206 g / cm^3
# Si number density = 19.005320 Si / 1000 Ang^3
#
#
#
# Elastic Constant Matrix: (Units=GPa)
#
#
# Indices 1 2 3 4 5 6 
#
# 1 112.7835 55.6178 68.9144 0.0000 24.2980 0.0000
# 2 55.6178 119.5770 69.7153 0.0000 5.6529 0.0000
# 3 68.9144 69.7153 188.9983 0.0000 20.5014 0.0000
# 4 0.0000 0.0000 0.0000 34.3856 0.0000 7.3247
# 5 24.2980 5.6529 20.5014 0.0000 34.7931 0.0000
# 6 0.0000 0.0000 0.0000 7.3247 0.0000 32.3906
#
#
#
# Elastic Compliance Matrix: (Units=1/GPa)
#
#
# Indices 1 2 3 4 5 6 
#
# 1 0.014579 -0.004849 -0.002679 0.000000 -0.007814 0.000000
# 2 -0.004849 0.012280 -0.003111 0.000000 0.003225 0.000000
# 3 -0.002679 -0.003111 0.007647 0.000000 -0.002129 0.000000
# 4 0.000000 0.000000 0.000000 0.030554 0.000000 -0.006909
# 5 -0.007814 0.003225 -0.002129 0.000000 0.034929 0.000000
# 6 0.000000 0.000000 0.000000 -0.006909 0.000000 0.032436
#
#
# Mechanical properties :
#
#
# Convention : Reuss Voigt Hill
#
# Bulk Modulus (GPa) = 75.61305 89.98376 82.79840
# Shear Modulus (GPa) = 31.62320 35.45460 33.53890
#
# Velocity S-wave (km/s) = 4.08353 4.32384 4.20540
# Velocity P-wave (km/s) = 7.88069 8.50746 8.20006
#
# Compressibility (1/GPa) = 0.01322523
#
# Stress axis : x y z
#
# Youngs Moduli (GPa) = 68.59346 81.43489 130.77690
#
# Poissons Ratio (x) = 0.39490 0.35041
# Poissons Ratio (y) = 0.33263 0.40687
# Poissons Ratio (z) = 0.18379 0.25336
#
# Static dielectric constant tensor:
#      x y z
#    x 1.621970 0.000000 -0.017960 
#    y 0.000000 1.651730 0.000000 
#    z -0.017960 0.000000 1.673610 
# 
# From -- ./inp_files/81671.got.cif
#   From: 2010.05.17/outbox.cif.g08.bks.cpg/sg12_41_cif.got.tgz:81671.got - 2010.06.03 13:09:07.
