data_PCOD9217315
_publ_section_title
;
Structure prediction by ZEFSAII (Michael W. Deem and Ramdas Pophale) SiO2 
 PCOD9217315
Probable space group: C 2/M
;
_chemical_formula_sum "Si O2"
_cell_formula_units_Z 44
_cell_length_a 17.830007
_cell_length_b 18.325402
_cell_length_c 6.494739
_cell_angle_alpha 90.000000
_cell_angle_beta 113.444879
_cell_angle_gamma 90.000000
_cell_volume 1946.910303
_symmetry_space_group_name_H-M "C 2/M"
_symmetry_group_IT_number 12
_symmetry_cell_setting 'monoclinic'
loop_
_space_group_symop_operation_xyz
x,y,z
-x,y,-z
-x,-y,-z
x,-y,z
1/2+x,1/2+y,z
1/2-x,1/2+y,-z
1/2-x,1/2-y,-z
1/2+x,1/2-y,z
loop_
_atom_site_type_symbol
_atom_site_label
_atom_site_fract_x
_atom_site_fract_y
_atom_site_fract_z
Si Si1 0.707857 0.815721 0.070129
Si Si2 0.000377 0.918606 0.240737
Si Si3 0.072086 0.683491 0.242229
Si Si4 0.830259 0.585611 0.351041
Si Si5 0.000000 0.791930 0.500000
Si Si6 0.693656 0.417378 0.525846
O O1 0.665114 0.866719 0.850923
O O2 0.750000 0.750000 0.000000
O O3 0.644545 0.788677 0.174116
O O4 0.772852 0.863093 0.267447
O O5 0.096774 0.915301 0.396230
O O6 0.956857 0.850653 0.301000
O O7 0.968105 0.000000 0.256660
O O8 0.000000 0.909914 0.000000
O O9 0.105577 0.614392 0.407649
O O10 0.048230 0.741300 0.393105
O O11 0.000000 0.668329 0.000000
O O12 0.840801 0.500000 0.320730
O O13 0.741623 0.597120 0.363626
O O14 0.717413 0.500000 0.610864
#
# Coordination Sequence:
#
# PCOD9217315 Si02
#       6
#     8   8   8   8   4   8
#     4  11  25  41  71 102 138 181 232 283 344 409
#     4  10  23  42  67 100 137 183 232 278 338 409
#     4  11  26  45  67 103 139 180 229 285 349 410
#     4  10  23  45  72 100 135 179 231 287 347 411
#     4  12  25  42  67  94 144 184 224 276 341 408
#     4   9  21  41  67  99 136 176 227 282 336 408
#
# _framework density 22.599912
#
# number of rings (size 3 to 8) (size 9 to 14) (size 15 to 20)
#    0.000    1.636    0.000    2.455    7.636    4.000 
#    0.000    6.818    0.000    0.000    0.000    0.000 
#    0.000    0.000    0.000    0.000    0.000    0.000 
#
# Total GULP energy -122988.179493 kJ/mol
# GULP energy per Si atom -5590.371795 kJ/mol
# Density = 2.254847 g / cm^3
# Si number density = 22.599912 Si / 1000 Ang^3
#
#
#
# Elastic Constant Matrix: (Units=GPa)
#
#
# Indices 1 2 3 4 5 6 
#
# 1 100.6041 56.0216 51.0804 0.0000 -25.7106 0.0000
# 2 56.0216 125.9632 62.2727 0.0000 -31.1283 0.0000
# 3 51.0804 62.2727 139.9473 0.0000 -32.1018 0.0000
# 4 0.0000 0.0000 0.0000 38.7928 0.0000 0.7162
# 5 -25.7106 -31.1283 -32.1018 0.0000 44.5722 0.0000
# 6 0.0000 0.0000 0.0000 0.7162 0.0000 -155.2808
#
#
#
# Elastic Compliance Matrix: (Units=1/GPa)
#
#
# Indices 1 2 3 4 5 6 
#
# 1 0.014561 -0.004331 -0.002581 0.000000 0.003515 0.000000
# 2 -0.004331 0.012322 -0.002996 0.000000 0.003949 0.000000
# 3 -0.002581 -0.002996 0.010301 0.000000 0.003838 0.000000
# 4 0.000000 0.000000 0.000000 0.025776 0.000000 0.000119
# 5 0.003515 0.003949 0.003838 0.000000 0.029985 0.000000
# 6 0.000000 0.000000 0.000000 0.000119 0.000000 -0.006439
#
#
# Mechanical properties :
#
#
# Convention : Reuss Voigt Hill
#
# Bulk Modulus (GPa) = 57.57943 78.36269 67.97106
# Shear Modulus (GPa) = 44.59832 -1.24050 21.67891
#
# Velocity S-wave (km/s) = 4.44710 -0.74168 3.10053
# Velocity P-wave (km/s) = 7.20430 5.83230 6.55430
#
# Compressibility (1/GPa) = 0.01736731
#
# Stress axis : x y z
#
# Youngs Moduli (GPa) = 68.67865 81.15349 97.07593
#
# Poissons Ratio (x) = 0.35148 0.25055
# Poissons Ratio (y) = 0.29745 0.29087
# Poissons Ratio (z) = 0.17726 0.24316
#
# Static dielectric constant tensor:
#      x y z
#    x 1.887790 0.000000 -0.004880 
#    y 0.000000 1.837910 0.000000 
#    z -0.004880 0.000000 1.840560 
# 
# From -- ./inp_files/16216.got.cif
#   From: 2010.05.17/outbox.cif.g08.bks.cpg/sg12_9_cif.got.tgz:16216.got - 2010.06.03 13:09:07.
