data_PCOD9217408
_publ_section_title
;
Structure prediction by ZEFSAII (Michael W. Deem and Ramdas Pophale) SiO2 
 PCOD9217408
Probable space group: C 2/M
;
_chemical_formula_sum "Si O2"
_cell_formula_units_Z 64
_cell_length_a 12.529571
_cell_length_b 26.087611
_cell_length_c 15.725078
_cell_angle_alpha 90.000000
_cell_angle_beta 37.176019
_cell_angle_gamma 90.000000
_cell_volume 3105.927012
_symmetry_space_group_name_H-M "C 2/M"
_symmetry_group_IT_number 12
_symmetry_cell_setting 'monoclinic'
loop_
_space_group_symop_operation_xyz
x,y,z
-x,y,-z
-x,-y,-z
x,-y,z
1/2+x,1/2+y,z
1/2-x,1/2+y,-z
1/2-x,1/2-y,-z
1/2+x,1/2-y,z
loop_
_atom_site_type_symbol
_atom_site_label
_atom_site_fract_x
_atom_site_fract_y
_atom_site_fract_z
Si Si1 0.409197 0.889091 0.144235
Si Si2 0.762187 0.156194 0.990893
Si Si3 0.874522 0.806983 0.737554
Si Si4 0.523933 0.557470 0.086365
Si Si5 0.803340 0.942530 0.586363
Si Si6 0.849636 0.693017 0.762443
Si Si7 0.302336 0.110908 0.644234
Si Si8 0.256025 0.843806 0.490894
O O1 0.561034 0.856708 0.094063
O O2 0.247596 0.850800 0.225766
O O3 0.333813 0.933827 0.250102
O O4 0.500000 0.907616 0.000000
O O5 0.757409 0.186247 0.082381
O O6 0.850318 0.184615 0.854878
O O7 0.855905 0.101991 0.950710
O O8 0.816642 0.750000 0.749996
O O9 0.077829 0.813754 0.582380
O O10 0.591381 0.500000 0.058837
O O11 0.334017 0.566173 0.249899
O O12 0.500000 0.564122 0.000000
O O13 0.757326 0.898010 0.549288
O O14 0.000000 0.935877 0.500000
O O15 0.790951 0.000000 0.558832
O O16 0.800878 0.649199 0.725765
O O17 0.060078 0.684616 0.645121
O O18 0.500000 0.092383 0.500000
O O19 0.250843 0.143293 0.594063
#
# Coordination Sequence:
#
# PCOD9217408 Si02
#       8
#     8   8   8   8   8   8   8   8
#     4  10  23  43  63  94 135 166 217 273 320 392
#     4  11  22  43  64  97 134 168 221 271 322 393
#     4  11  23  41  66  96 131 176 218 272 328 386
#     4  11  23  42  69  95 127 174 215 272 339 384
#     4  11  23  42  69  95 127 174 215 272 339 384
#     4  11  23  41  66  96 131 176 218 272 328 386
#     4  10  23  43  63  94 135 166 217 273 320 392
#     4  11  22  43  64  97 134 168 221 271 322 393
#
# _framework density 20.605764000000001
#
# number of rings (size 3 to 8) (size 9 to 14) (size 15 to 20)
#    0.000    1.250    5.000    0.750    0.000    2.500 
#   13.500    3.750    0.000    0.000    0.000    0.000 
#    0.000    0.000    0.000    0.000    0.000    0.000 
#
# Total GULP energy -178811.342530 kJ/mol
# GULP energy per Si atom -5587.854454 kJ/mol
# Density = 2.055886 g / cm^3
# Si number density = 20.605764 Si / 1000 Ang^3
#
#
#
# Elastic Constant Matrix: (Units=GPa)
#
#
# Indices 1 2 3 4 5 6 
#
# 1 37.9168 -3.9387 -1.7683 0.0005 -0.2233 -0.0002
# 2 -3.9387 68.6814 9.9477 0.0001 -0.3788 -0.0001
# 3 -1.7683 9.9477 50.0856 0.0003 -0.1126 -0.0003
# 4 0.0005 0.0001 0.0003 33.6134 -0.0004 -0.6686
# 5 -0.2233 -0.3788 -0.1126 -0.0004 23.9041 0.0002
# 6 -0.0002 -0.0001 -0.0003 -0.6686 0.0002 8.9836
#
#
#
# Elastic Compliance Matrix: (Units=1/GPa)
#
#
# Indices 1 2 3 4 5 6 
#
# 1 0.026554 0.001430 0.000654 0.000000 0.000274 0.000001
# 2 0.001430 0.015069 -0.002942 0.000000 0.000238 0.000000
# 3 0.000654 -0.002942 0.020573 0.000000 0.000056 0.000001
# 4 0.000000 0.000000 0.000000 0.029794 0.000001 0.002217
# 5 0.000274 0.000238 0.000056 0.000001 0.041840 -0.000001
# 6 0.000001 0.000000 0.000001 0.002217 -0.000001 0.111479
#
#
# Mechanical properties :
#
#
# Convention : Reuss Voigt Hill
#
# Bulk Modulus (GPa) = 16.53426 18.35169 17.44297
# Shear Modulus (GPa) = 18.71350 23.46311 21.08831
#
# Velocity S-wave (km/s) = 3.01685 3.37808 3.20256
# Velocity P-wave (km/s) = 4.49185 4.91331 4.70730
#
# Compressibility (1/GPa) = 0.06048049
#
# Stress axis : x y z
#
# Youngs Moduli (GPa) = 37.65885 66.35972 48.60652
#
# Poissons Ratio (x) = -0.09487 -0.03180
# Poissons Ratio (y) = -0.05384 0.14300
# Poissons Ratio (z) = -0.02464 0.19523
#
# Static dielectric constant tensor:
#      x y z
#    x 1.739600 0.000000 -0.000210 
#    y 0.000000 1.672750 0.000000 
#    z -0.000210 0.000000 1.747690 
# 
# From -- ./inp_files/209396.got.cif
#   From: 2010.05.17/outbox.cif.g08.bks.cpg/sg12_105_cif.got.tgz:209396.got - 2010.06.03 13:09:07.
