data_PCOD9217550
_publ_section_title
;
Structure prediction by ZEFSAII (Michael W. Deem and Ramdas Pophale) SiO2 
 PCOD9217550
Probable space group: C 2/M
;
_chemical_formula_sum "Si O2"
_cell_formula_units_Z 28
_cell_length_a 4.981903
_cell_length_b 24.127697
_cell_length_c 9.709810
_cell_angle_alpha 90.000000
_cell_angle_beta 64.974857
_cell_angle_gamma 90.000000
_cell_volume 1057.568875
_symmetry_space_group_name_H-M "C 2/M"
_symmetry_group_IT_number 12
_symmetry_cell_setting 'monoclinic'
loop_
_space_group_symop_operation_xyz
x,y,z
-x,y,-z
-x,-y,-z
x,-y,z
1/2+x,1/2+y,z
1/2-x,1/2+y,-z
1/2-x,1/2-y,-z
1/2+x,1/2-y,z
loop_
_atom_site_type_symbol
_atom_site_label
_atom_site_fract_x
_atom_site_fract_y
_atom_site_fract_z
Si Si1 0.368274 0.216430 0.683445
Si Si2 0.834720 0.063723 0.389083
Si Si3 0.839426 0.500000 0.887214
Si Si4 0.405972 0.883168 0.177752
O O1 0.500000 0.211848 0.500000
O O2 0.469707 0.164339 0.750881
O O3 0.029047 0.232450 0.728631
O O4 0.500000 0.079621 0.500000
O O5 0.000000 0.061537 0.500000
O O6 0.054038 0.104687 0.260522
O O7 0.841965 0.000000 0.332849
O O8 0.946817 0.441423 0.804553
O O9 0.500000 0.500000 0.000000
O O10 0.000000 0.500000 0.000000
O O11 0.500000 0.872891 0.000000
#
# Coordination Sequence:
#
# PCOD9217550 Si02
#       4
#     8   8   4   8
#     4  10  25  50  79 113 157 208 266 338 413 478
#     4  10  23  43  68 105 155 210 263 313 378 466
#     4  10  24  44  69 112 165 208 247 314 407 472
#     4  11  25  48  81 119 161 212 268 334 398 483
#
# _framework density 26.475819000000001
#
# number of rings (size 3 to 8) (size 9 to 14) (size 15 to 20)
#    0.000    1.714    1.429    0.000    0.000   17.143 
#    0.000    0.714    0.000    0.000    0.000    1.000 
#    0.000    2.286    0.000    0.000    0.000    0.000 
#
# Total GULP energy -78531.135921 kJ/mol
# GULP energy per Si atom -5609.366851 kJ/mol
# Density = 2.641556 g / cm^3
# Si number density = 26.475819 Si / 1000 Ang^3
#
#
#
# Elastic Constant Matrix: (Units=GPa)
#
#
# Indices 1 2 3 4 5 6 
#
# 1 186.7436 80.5545 84.3673 0.0000 -30.4778 0.0000
# 2 80.5545 196.1247 56.9281 0.0000 10.0139 0.0000
# 3 84.3673 56.9281 179.4107 0.0000 -9.9156 0.0000
# 4 0.0000 0.0000 0.0000 14.7386 0.0000 21.6606
# 5 -30.4778 10.0139 -9.9156 0.0000 53.2655 0.0000
# 6 0.0000 0.0000 0.0000 21.6606 0.0000 72.5617
#
#
#
# Elastic Compliance Matrix: (Units=1/GPa)
#
#
# Indices 1 2 3 4 5 6 
#
# 1 0.008797 -0.003032 -0.002895 0.000000 0.005065 0.000000
# 2 -0.003032 0.006766 -0.000897 0.000000 -0.003174 0.000000
# 3 -0.002895 -0.000897 0.007212 0.000000 -0.000145 0.000000
# 4 0.000000 0.000000 0.000000 0.120880 0.000000 -0.036084
# 5 0.005065 -0.003174 -0.000145 0.000000 0.022241 0.000000
# 6 0.000000 0.000000 0.000000 -0.036084 0.000000 0.024553
#
#
# Mechanical properties :
#
#
# Convention : Reuss Voigt Hill
#
# Bulk Modulus (GPa) = 109.54774 111.77541 110.66158
# Shear Modulus (GPa) = 24.13834 50.80844 37.47339
#
# Velocity S-wave (km/s) = 3.02273 4.38545 3.76624
# Velocity P-wave (km/s) = 7.32454 8.24333 7.79748
#
# Compressibility (1/GPa) = 0.00912844
#
# Stress axis : x y z
#
# Youngs Moduli (GPa) = 113.67376 147.79145 138.66369
#
# Poissons Ratio (x) = 0.44803 0.40143
# Poissons Ratio (y) = 0.34460 0.12436
# Poissons Ratio (z) = 0.32908 0.13254
#
# Static dielectric constant tensor:
#      x y z
#    x 2.100190 0.000000 0.000480 
#    y 0.000000 2.168480 0.000000 
#    z 0.000480 0.000000 2.039790 
# 
# From -- ./inp_files/191828.got.cif
#   From: 2010.05.17/outbox.cif.g08.bks.cpg/sg12_96_cif.got.tgz:191828.got - 2010.06.03 13:09:07.
