data_PCOD9217130
_publ_section_title
;
Structure prediction by ZEFSAII (Michael W. Deem and Ramdas Pophale) SiO2 
 PCOD9217130
Probable space group: C 2/M
;
_chemical_formula_sum "Si O2"
_cell_formula_units_Z 36
_cell_length_a 15.133908
_cell_length_b 12.027870
_cell_length_c 11.400615
_cell_angle_alpha 90.000000
_cell_angle_beta 67.672515
_cell_angle_gamma 90.000000
_cell_volume 1919.653208
_symmetry_space_group_name_H-M "C 2/M"
_symmetry_group_IT_number 12
_symmetry_cell_setting 'monoclinic'
loop_
_space_group_symop_operation_xyz
x,y,z
-x,y,-z
-x,-y,-z
x,-y,z
1/2+x,1/2+y,z
1/2-x,1/2+y,-z
1/2-x,1/2-y,-z
1/2+x,1/2-y,z
loop_
_atom_site_type_symbol
_atom_site_label
_atom_site_fract_x
_atom_site_fract_y
_atom_site_fract_z
Si Si1 0.390516 0.500000 0.510358
Si Si2 0.502734 0.000000 0.856109
Si Si3 0.422179 0.373082 0.277111
Si Si4 0.713316 0.000000 0.772612
Si Si5 0.697641 0.247732 0.858783
Si Si6 0.601158 0.227570 0.151872
O O1 0.500000 0.500000 0.500000
O O2 0.379523 0.394711 0.428023
O O3 0.309237 0.500000 0.648339
O O4 0.451420 0.888727 0.841061
O O5 0.611921 0.000000 0.756527
O O6 0.500000 0.000000 0.000000
O O7 0.431835 0.500000 0.224702
O O8 0.358006 0.299186 0.223102
O O9 0.524965 0.315739 0.237323
O O10 0.708146 0.114240 0.846905
O O11 0.805318 0.290438 0.816968
O O12 0.638895 0.271392 0.006811
#
# Coordination Sequence:
#
# PCOD9217130 Si02
#       6
#     4   4   8   4   8   8
#     4  10  24  43  65  89 121 172 224 259 303 369
#     4  12  20  39  61  90 128 160 204 260 322 378
#     4  10  23  42  60  89 126 161 210 263 303 366
#     4  12  22  42  65  86 123 167 215 250 311 374
#     4  11  23  37  65  94 124 166 206 257 321 375
#     4  11  22  38  62  95 129 163 201 257 322 385
#
# _framework density 18.753388000000001
#
# number of rings (size 3 to 8) (size 9 to 14) (size 15 to 20)
#    0.667    0.444    4.444    2.000    3.111    2.667 
#    0.000    0.000    0.000    1.333    0.000    0.000 
#    0.000    0.000    0.000    0.000    0.000    0.000 
#
# Total GULP energy -100410.138026 kJ/mol
# GULP energy per Si atom -5578.341001 kJ/mol
# Density = 1.871070 g / cm^3
# Si number density = 18.753388 Si / 1000 Ang^3
#
#
#
# Elastic Constant Matrix: (Units=GPa)
#
#
# Indices 1 2 3 4 5 6 
#
# 1 93.1307 -2.0419 1.2142 0.0000 -19.4310 0.0000
# 2 -2.0419 70.4517 -11.0263 0.0000 -11.4161 0.0000
# 3 1.2142 -11.0263 39.4502 0.0000 -16.8316 0.0000
# 4 0.0000 0.0000 0.0000 20.8164 0.0000 -2.3460
# 5 -19.4310 -11.4161 -16.8316 0.0000 27.0383 0.0000
# 6 0.0000 0.0000 0.0000 -2.3460 0.0000 30.9011
#
#
#
# Elastic Compliance Matrix: (Units=1/GPa)
#
#
# Indices 1 2 3 4 5 6 
#
# 1 0.014343 0.004507 0.008208 0.000000 0.017320 0.000000
# 2 0.004507 0.019838 0.014109 0.000000 0.020398 0.000000
# 3 0.008208 0.014109 0.046429 0.000000 0.040758 0.000000
# 4 0.000000 0.000000 0.000000 0.048454 0.000000 0.003679
# 5 0.017320 0.020398 0.040758 0.000000 0.083416 0.000000
# 6 0.000000 0.000000 0.000000 0.003679 0.000000 0.032641
#
#
# Mechanical properties :
#
#
# Convention : Reuss Voigt Hill
#
# Bulk Modulus (GPa) = 7.44842 19.92498 13.68670
# Shear Modulus (GPa) = 21.16622 30.07692 25.62157
#
# Velocity S-wave (km/s) = 3.36320 4.00911 3.70027
# Velocity P-wave (km/s) = 4.36599 5.66378 5.05669
#
# Compressibility (1/GPa) = 0.13425673
#
# Stress axis : x y z
#
# Youngs Moduli (GPa) = 69.72011 50.40790 21.53843
#
# Poissons Ratio (x) = -0.22718 -0.17678
# Poissons Ratio (y) = -0.31422 -0.30388
# Poissons Ratio (z) = -0.57225 -0.71119
#
# Static dielectric constant tensor:
#      x y z
#    x 1.667010 0.000000 0.005330 
#    y 0.000000 1.667490 0.000000 
#    z 0.005330 0.000000 1.634140 
# 
# From -- ./inp_files/140197.got.cif
#   From: 2010.05.17/outbox.cif.g08.bks.cpg/sg12_71_cif.got.tgz:140197.got - 2010.06.03 13:09:07.
