data_PCOD9217621
_publ_section_title
;
Structure prediction by ZEFSAII (Michael W. Deem and Ramdas Pophale) SiO2 
 PCOD9217621
Probable space group: C 2/M
;
_chemical_formula_sum "Si O2"
_cell_formula_units_Z 40
_cell_length_a 21.503046
_cell_length_b 7.710971
_cell_length_c 30.843753
_cell_angle_alpha 90.000000
_cell_angle_beta 159.288858
_cell_angle_gamma 90.000000
_cell_volume 1808.665353
_symmetry_space_group_name_H-M "C 2/M"
_symmetry_group_IT_number 12
_symmetry_cell_setting 'monoclinic'
loop_
_space_group_symop_operation_xyz
x,y,z
-x,y,-z
-x,-y,-z
x,-y,z
1/2+x,1/2+y,z
1/2-x,1/2+y,-z
1/2-x,1/2-y,-z
1/2+x,1/2-y,z
loop_
_atom_site_type_symbol
_atom_site_label
_atom_site_fract_x
_atom_site_fract_y
_atom_site_fract_z
Si Si1 0.954477 0.308542 0.134114
Si Si2 0.726029 0.206450 0.816274
Si Si3 0.881080 0.292014 0.546342
Si Si4 0.947961 0.793889 0.035629
Si Si5 0.322135 0.704264 0.408395
O O1 0.947069 0.500000 0.148957
O O2 0.992906 0.304942 0.108157
O O3 0.129031 0.221158 0.268884
O O4 0.750000 0.250000 0.000000
O O5 0.563630 0.279351 0.684346
O O6 0.892212 0.222952 0.893372
O O7 0.695531 0.000000 0.802442
O O8 0.777830 0.270965 0.897896
O O9 0.891297 0.500000 0.547768
O O10 0.750000 0.250000 0.500000
O O11 0.840266 0.221064 0.472047
O O12 0.928699 0.000000 0.032977
O O13 0.500000 0.773587 0.500000
O O14 0.315412 0.500000 0.392093
#
# Coordination Sequence:
#
# PCOD9217621 Si02
#       5
#     8   8   8   8   8
#     4  11  24  39  58  86 120 155 196 246 299 354
#     4   8  17  34  58  85 114 149 188 233 290 351
#     4  11  23  38  59  89 124 160 201 247 299 360
#     4   9  17  35  61  85 111 148 191 235 289 353
#     4  10  23  44  66  88 120 163 208 255 307 361
#
# _framework density 22.115755
#
# number of rings (size 3 to 8) (size 9 to 14) (size 15 to 20)
#    0.000    2.200    0.000    3.600    2.800    2.000 
#    0.000    4.000    0.000    0.000    0.000    0.000 
#    0.000    0.000    0.000    0.000    0.000    0.000 
#
# Total GULP energy -111415.983342 kJ/mol
# GULP energy per Si atom -5570.799167 kJ/mol
# Density = 2.206542 g / cm^3
# Si number density = 22.115755 Si / 1000 Ang^3
#
#
#
# Elastic Constant Matrix: (Units=GPa)
#
#
# Indices 1 2 3 4 5 6 
#
# 1 87.0413 -9.5293 64.5118 -0.0173 -16.5180 -0.0013
# 2 -9.5293 37.2638 9.0700 -0.0012 10.7067 0.0029
# 3 64.5118 9.0700 216.6393 0.1493 -16.3429 0.0032
# 4 -0.0173 -0.0012 0.1493 -31.3361 -0.0141 -7.1357
# 5 -16.5180 10.7067 -16.3429 -0.0141 40.5045 -0.0020
# 6 -0.0013 0.0029 0.0032 -7.1357 -0.0020 24.9574
#
#
#
# Elastic Compliance Matrix: (Units=1/GPa)
#
#
# Indices 1 2 3 4 5 6 
#
# 1 0.016118 0.004248 -0.004710 -0.000031 0.003550 -0.000008
# 2 0.004248 0.030899 -0.003140 -0.000013 -0.007702 -0.000007
# 3 -0.004710 -0.003140 0.006258 0.000030 0.001434 0.000008
# 4 -0.000031 -0.000013 0.000030 -0.029961 -0.000008 -0.008566
# 5 0.003550 -0.007702 0.001434 -0.000008 0.028751 0.000001
# 6 -0.000008 -0.000007 0.000008 -0.008566 0.000001 0.037619
#
#
# Mechanical properties :
#
#
# Convention : Reuss Voigt Hill
#
# Bulk Modulus (GPa) = 21.70464 52.11660 36.91062
# Shear Modulus (GPa) = 44.54558 25.28463 34.91510
#
# Velocity S-wave (km/s) = 4.49285 3.38492 3.97765
# Velocity P-wave (km/s) = 6.06216 6.23646 6.14993
#
# Compressibility (1/GPa) = 0.04607310
#
# Stress axis : x y z
#
# Youngs Moduli (GPa) = 62.04123 32.36324 159.79260
#
# Poissons Ratio (x) = -0.13749 0.75260
# Poissons Ratio (y) = -0.26357 0.50171
# Poissons Ratio (z) = 0.29220 0.10161
#
# Static dielectric constant tensor:
#      x y z
#    x 1.514480 0.000060 -0.209330 
#    y 0.000060 1.997420 0.000020 
#    z -0.209330 0.000020 1.694090 
# 
# From -- ./inp_files/380878.got.cif
#   From: 2010.05.17/outbox.cif.g08.bks.cpg/sg12_191_cif.got.tgz:380878.got - 2010.06.03 13:09:07.
