data_PCOD9217525
_publ_section_title
;
Structure prediction by ZEFSAII (Michael W. Deem and Ramdas Pophale) SiO2 
 PCOD9217525
Probable space group: C 2/M
;
_chemical_formula_sum "Si O2"
_cell_formula_units_Z 56
_cell_length_a 9.056819
_cell_length_b 15.586228
_cell_length_c 21.592037
_cell_angle_alpha 90.000000
_cell_angle_beta 114.403406
_cell_angle_gamma 90.000000
_cell_volume 2775.659329
_symmetry_space_group_name_H-M "C 2/M"
_symmetry_group_IT_number 12
_symmetry_cell_setting 'monoclinic'
loop_
_space_group_symop_operation_xyz
x,y,z
-x,y,-z
-x,-y,-z
x,-y,z
1/2+x,1/2+y,z
1/2-x,1/2+y,-z
1/2-x,1/2-y,-z
1/2+x,1/2-y,z
loop_
_atom_site_type_symbol
_atom_site_label
_atom_site_fract_x
_atom_site_fract_y
_atom_site_fract_z
Si Si1 0.627813 0.747397 0.170964
Si Si2 0.356422 0.599917 0.927002
Si Si3 0.529104 0.743362 0.733969
Si Si4 0.310227 0.402633 0.635427
Si Si5 0.536004 0.902149 0.359850
Si Si6 0.679688 0.655540 0.502220
Si Si7 0.497452 0.097888 0.073159
O O1 0.640466 0.663738 0.130417
O O2 0.481236 0.739460 0.193640
O O3 0.603733 0.830692 0.124936
O O4 0.779187 0.758487 0.243459
O O5 0.377225 0.500000 0.911854
O O6 0.185295 0.606928 0.932743
O O7 0.500000 0.621584 0.000000
O O8 0.431015 0.665999 0.686449
O O9 0.466467 0.832455 0.694798
O O10 0.352300 0.500000 0.660778
O O11 0.321017 0.392636 0.563473
O O12 0.125706 0.386907 0.626590
O O13 0.694822 0.888122 0.428917
O O14 0.529446 0.000000 0.335980
O O15 0.500000 0.660272 0.500000
O O16 0.750000 0.750000 0.500000
O O17 0.551145 0.000000 0.095241
O O18 0.500000 0.110654 0.000000
#
# Coordination Sequence:
#
# PCOD9217525 Si02
#       7
#     8   8   8   8   8   8   8
#     4  12  25  42  67  94 132 173 218 261 323 385
#     4  10  23  43  68  96 128 169 216 265 320 383
#     4  12  26  43  64  97 130 176 218 265 319 386
#     4  11  25  46  69  97 132 172 220 271 330 391
#     4  11  25  46  70  96 131 175 219 270 332 390
#     4  12  25  42  71 100 131 169 219 278 330 382
#     4  10  23  43  67  97 130 166 213 270 323 376
#
# _framework density 20.175384999999999
#
# number of rings (size 3 to 8) (size 9 to 14) (size 15 to 20)
#    0.000    0.857    4.286    2.143    4.000    5.714 
#    0.000    0.000    0.000    0.000    0.000    0.000 
#    0.000    0.000    0.000    0.000    0.000    0.000 
#
# Total GULP energy -156553.275777 kJ/mol
# GULP energy per Si atom -5591.188421 kJ/mol
# Density = 2.012947 g / cm^3
# Si number density = 20.175385 Si / 1000 Ang^3
#
#
#
# Elastic Constant Matrix: (Units=GPa)
#
#
# Indices 1 2 3 4 5 6 
#
# 1 81.3266 49.2840 31.9928 0.0000 -5.4393 0.0000
# 2 49.2840 135.9531 69.5413 0.0000 3.7430 0.0000
# 3 31.9928 69.5413 92.7405 0.0000 6.0791 0.0000
# 4 0.0000 0.0000 0.0000 -46.9731 0.0000 -1.1438
# 5 -5.4393 3.7430 6.0791 0.0000 42.8886 0.0000
# 6 0.0000 0.0000 0.0000 -1.1438 0.0000 29.2835
#
#
#
# Elastic Compliance Matrix: (Units=1/GPa)
#
#
# Indices 1 2 3 4 5 6 
#
# 1 0.016285 -0.004888 -0.002136 0.000000 0.002795 0.000000
# 2 -0.004888 0.013401 -0.008323 0.000000 -0.000610 0.000000
# 3 -0.002136 -0.008323 0.017897 0.000000 -0.002081 0.000000
# 4 0.000000 0.000000 0.000000 -0.021269 0.000000 -0.000831
# 5 0.002795 -0.000610 -0.002081 0.000000 0.024019 0.000000
# 6 0.000000 0.000000 0.000000 -0.000831 0.000000 0.034116
#
#
# Mechanical properties :
#
#
# Convention : Reuss Voigt Hill
#
# Bulk Modulus (GPa) = 59.20597 67.96183 63.58390
# Shear Modulus (GPa) = 41.39963 15.65328 28.52645
#
# Velocity S-wave (km/s) = 4.53480 2.78845 3.76430
# Velocity P-wave (km/s) = 7.53847 6.64273 7.10473
#
# Compressibility (1/GPa) = 0.01689019
#
# Stress axis : x y z
#
# Youngs Moduli (GPa) = 61.40480 74.61912 55.87550
#
# Poissons Ratio (x) = 0.36473 0.11935
# Poissons Ratio (y) = 0.30014 0.46504
# Poissons Ratio (z) = 0.13116 0.62104
#
# Static dielectric constant tensor:
#      x y z
#    x 1.687350 0.000000 0.002130 
#    y 0.000000 1.701690 0.000000 
#    z 0.002130 0.000000 1.681800 
# 
# From -- ./inp_files/300157.got.cif
#   From: 2010.05.17/outbox.cif.g08.bks.cpg/sg12_151_cif.got.tgz:300157.got - 2010.06.03 13:09:07.
