data_PCOD9217747
_publ_section_title
;
Structure prediction by ZEFSAII (Michael W. Deem and Ramdas Pophale) SiO2 
 PCOD9217747
Probable space group: C 2/M
;
_chemical_formula_sum "Si O2"
_cell_formula_units_Z 44
_cell_length_a 11.380677
_cell_length_b 23.504710
_cell_length_c 13.425244
_cell_angle_alpha 90.000000
_cell_angle_beta 143.802101
_cell_angle_gamma 90.000000
_cell_volume 2120.904105
_symmetry_space_group_name_H-M "C 2/M"
_symmetry_group_IT_number 12
_symmetry_cell_setting 'monoclinic'
loop_
_space_group_symop_operation_xyz
x,y,z
-x,y,-z
-x,-y,-z
x,-y,z
1/2+x,1/2+y,z
1/2-x,1/2+y,-z
1/2-x,1/2-y,-z
1/2+x,1/2-y,z
loop_
_atom_site_type_symbol
_atom_site_label
_atom_site_fract_x
_atom_site_fract_y
_atom_site_fract_z
Si Si1 0.575887 0.299520 0.156822
Si Si2 0.683448 0.000000 0.706677
Si Si3 0.934696 0.000000 0.166659
Si Si4 0.514405 0.905017 0.310415
Si Si5 0.000000 0.339352 0.500000
Si Si6 0.234981 0.125466 0.951122
Si Si7 0.500000 0.811640 0.000000
Si Si8 0.672405 0.500000 0.534075
O O1 0.809805 0.305765 0.330486
O O2 0.525606 0.233029 0.108456
O O3 0.500000 0.325354 0.000000
O O4 0.452633 0.334967 0.152266
O O5 0.500000 0.000000 0.500000
O O6 0.651522 0.946318 0.755024
O O7 0.895498 0.000000 0.801084
O O8 0.056054 0.000000 0.351479
O O9 0.813935 0.941326 0.081826
O O10 0.580832 0.873585 0.457838
O O11 0.404648 0.867657 0.152443
O O12 0.682025 0.944655 0.373280
O O13 0.319836 0.147621 0.904844
O O14 0.500000 0.500000 0.500000
#
# Coordination Sequence:
#
# PCOD9217747 Si02
#       8
#     8   4   4   8   4   8   4   4
#     4  10  23  44  74 100 133 177 230 292 345 391
#     4  11  19  36  60  90 139 167 218 284 336 399
#     4  12  25  39  66 104 136 183 222 280 361 401
#     4  11  21  38  63  97 133 183 220 284 348 404
#     4  12  20  41  76 104 130 159 236 302 356 392
#     4  12  25  44  70 101 139 185 231 281 346 420
#     4  10  26  49  68  89 146 188 232 286 328 414
#     4  11  24  39  56  89 149 185 231 276 321 438
#
# _framework density 20.74587
#
# number of rings (size 3 to 8) (size 9 to 14) (size 15 to 20)
#    0.545    0.364    4.545    3.818    2.545    1.091 
#    0.000    5.455    0.000    0.000    0.000    0.000 
#    0.000    0.000    0.000    0.000    0.000    0.000 
#
# Total GULP energy -122692.035681 kJ/mol
# GULP energy per Si atom -5576.910713 kJ/mol
# Density = 2.069865 g / cm^3
# Si number density = 20.745870 Si / 1000 Ang^3
#
#
#
# Elastic Constant Matrix: (Units=GPa)
#
#
# Indices 1 2 3 4 5 6 
#
# 1 97.4959 52.6379 11.5629 0.0000 40.4711 0.0000
# 2 52.6379 117.7381 27.5447 0.0000 19.7493 0.0000
# 3 11.5629 27.5447 91.2539 0.0000 10.5500 0.0000
# 4 0.0000 0.0000 0.0000 -34.5843 0.0000 15.7004
# 5 40.4711 19.7493 10.5500 0.0000 30.8227 0.0000
# 6 0.0000 0.0000 0.0000 15.7004 0.0000 10.7621
#
#
#
# Elastic Compliance Matrix: (Units=1/GPa)
#
#
# Indices 1 2 3 4 5 6 
#
# 1 0.027113 -0.007377 0.002458 0.000000 -0.031715 0.000000
# 2 -0.007377 0.011992 -0.003037 0.000000 0.003042 0.000000
# 3 0.002458 -0.003037 0.012194 0.000000 -0.005455 0.000000
# 4 0.000000 0.000000 0.000000 -0.017395 0.000000 0.025376
# 5 -0.031715 0.003042 -0.005455 0.000000 0.074004 0.000000
# 6 0.000000 0.000000 0.000000 0.025376 0.000000 0.055898
#
#
# Mechanical properties :
#
#
# Convention : Reuss Voigt Hill
#
# Bulk Modulus (GPa) = 28.25834 54.44209 41.35022
# Shear Modulus (GPa) = 26.10777 15.71626 20.91202
#
# Velocity S-wave (km/s) = 3.55132 2.75537 3.17836
# Velocity P-wave (km/s) = 5.51966 6.03507 5.78311
#
# Compressibility (1/GPa) = 0.03538778
#
# Stress axis : x y z
#
# Youngs Moduli (GPa) = 36.88254 83.39184 82.00561
#
# Poissons Ratio (x) = 0.61516 -0.20155
# Poissons Ratio (y) = 0.27207 0.24902
# Poissons Ratio (z) = -0.09065 0.25322
#
# Static dielectric constant tensor:
#      x y z
#    x 2.123040 0.000000 0.059850 
#    y 0.000000 1.899340 0.000000 
#    z 0.059850 0.000000 1.795680 
# 
# From -- ./inp_files/209254.got.cif
#   From: 2010.05.17/outbox.cif.g08.bks.cpg/sg12_105_cif.got.tgz:209254.got - 2010.06.03 13:09:07.
