data_PCOD9217510
_publ_section_title
;
Structure prediction by ZEFSAII (Michael W. Deem and Ramdas Pophale) SiO2 
 PCOD9217510
Probable space group: C 2/M
;
_chemical_formula_sum "Si O2"
_cell_formula_units_Z 58
_cell_length_a 8.603346
_cell_length_b 20.486958
_cell_length_c 17.761254
_cell_angle_alpha 90.000000
_cell_angle_beta 115.304915
_cell_angle_gamma 90.000000
_cell_volume 2830.146818
_symmetry_space_group_name_H-M "C 2/M"
_symmetry_group_IT_number 12
_symmetry_cell_setting 'monoclinic'
loop_
_space_group_symop_operation_xyz
x,y,z
-x,y,-z
-x,-y,-z
x,-y,z
1/2+x,1/2+y,z
1/2-x,1/2+y,-z
1/2-x,1/2-y,-z
1/2+x,1/2-y,z
loop_
_atom_site_type_symbol
_atom_site_label
_atom_site_fract_x
_atom_site_fract_y
_atom_site_fract_z
Si Si1 0.649296 0.842971 0.843630
Si Si2 0.507615 0.426341 0.591827
Si Si3 0.320938 0.869749 0.981455
Si Si4 0.506508 0.185202 0.411548
Si Si5 0.375066 0.691237 0.654642
Si Si6 0.504290 0.702549 0.839223
Si Si7 0.407563 0.076663 0.680138
Si Si8 0.000000 0.500000 0.000000
O O1 0.536501 0.779910 0.842859
O O2 0.825309 0.818794 0.840785
O O3 0.533921 0.888875 0.766102
O O4 0.694178 0.877409 0.931800
O O5 0.500000 0.420217 0.500000
O O6 0.453097 0.500000 0.600022
O O7 0.393605 0.371083 0.605592
O O8 0.705753 0.417236 0.658179
O O9 0.160053 0.832404 0.914346
O O10 0.500000 0.832264 0.000000
O O11 0.357574 0.941331 0.955339
O O12 0.500000 0.189891 0.500000
O O13 0.604893 0.244016 0.391280
O O14 0.310361 0.193862 0.346185
O O15 0.571077 0.116621 0.393070
O O16 0.504914 0.684637 0.750714
O O17 0.446315 0.000000 0.680662
#
# Coordination Sequence:
#
# PCOD9217510 Si02
#       8
#     8   8   8   8   8   8   8   2
#     4  12  25  45  69 103 138 176 228 278 341 399
#     4  10  23  43  67  94 130 180 232 280 343 410
#     4  10  24  45  72 102 133 177 222 268 332 398
#     4  12  24  42  67  97 136 178 229 285 342 402
#     4  12  23  41  64 101 131 175 226 284 337 399
#     4  12  24  44  69 100 137 174 225 282 336 400
#     4  11  25  43  66  98 136 183 226 283 347 410
#     4   8  24  48  70 108 132 184 222 264 336 400
#
# _framework density 20.493638000000001
#
# number of rings (size 3 to 8) (size 9 to 14) (size 15 to 20)
#    0.414    0.414    2.759    4.138    4.828    0.828 
#    4.966    0.690    0.000    0.000    0.000    0.000 
#    0.000    0.000    0.000    0.000    0.000    0.000 
#
# Total GULP energy -161754.257983 kJ/mol
# GULP energy per Si atom -5577.733034 kJ/mol
# Density = 2.044699 g / cm^3
# Si number density = 20.493638 Si / 1000 Ang^3
#
#
#
# Elastic Constant Matrix: (Units=GPa)
#
#
# Indices 1 2 3 4 5 6 
#
# 1 68.6967 41.7119 8.0850 0.0000 8.0246 0.0000
# 2 41.7119 114.1031 12.7827 0.0000 2.4908 0.0000
# 3 8.0850 12.7827 98.6393 0.0000 2.8402 0.0000
# 4 0.0000 0.0000 0.0000 23.2812 0.0000 -0.4582
# 5 8.0246 2.4908 2.8402 0.0000 31.7012 0.0000
# 6 0.0000 0.0000 0.0000 -0.4582 0.0000 12.8642
#
#
#
# Elastic Compliance Matrix: (Units=1/GPa)
#
#
# Indices 1 2 3 4 5 6 
#
# 1 0.019318 -0.006905 -0.000565 0.000000 -0.004297 0.000000
# 2 -0.006905 0.011372 -0.000935 0.000000 0.000938 0.000000
# 3 -0.000565 -0.000935 0.010326 0.000000 -0.000709 0.000000
# 4 0.000000 0.000000 0.000000 0.042983 0.000000 0.001531
# 5 -0.004297 0.000938 -0.000709 0.000000 0.032622 0.000000
# 6 0.000000 0.000000 0.000000 0.001531 0.000000 0.077790
#
#
# Mechanical properties :
#
#
# Convention : Reuss Voigt Hill
#
# Bulk Modulus (GPa) = 41.31041 45.17758 43.24399
# Shear Modulus (GPa) = 22.80099 28.15994 25.48046
#
# Velocity S-wave (km/s) = 3.33917 3.71088 3.52992
# Velocity P-wave (km/s) = 5.92184 6.36030 6.14498
#
# Compressibility (1/GPa) = 0.02420697
#
# Stress axis : x y z
#
# Youngs Moduli (GPa) = 51.76617 87.93239 96.84487
#
# Poissons Ratio (x) = 0.60715 0.05470
# Poissons Ratio (y) = 0.35743 0.09053
# Poissons Ratio (z) = 0.02924 0.08220
#
# Static dielectric constant tensor:
#      x y z
#    x 1.737460 0.000000 0.018630 
#    y 0.000000 1.683890 0.000000 
#    z 0.018630 0.000000 1.784730 
# 
# From -- ./inp_files/258525.got.cif
#   From: 2010.05.17/outbox.cif.g08.bks.cpg/sg12_130_cif.got.tgz:258525.got - 2010.06.03 13:09:07.
