data_PCOD9217025
_publ_section_title
;
Structure prediction by ZEFSAII (Michael W. Deem and Ramdas Pophale) SiO2 
 PCOD9217025
Probable space group: C 2/M
;
_chemical_formula_sum "Si O2"
_cell_formula_units_Z 56
_cell_length_a 16.598578
_cell_length_b 20.778514
_cell_length_c 16.333837
_cell_angle_alpha 90.000000
_cell_angle_beta 155.892846
_cell_angle_gamma 90.000000
_cell_volume 2300.946754
_symmetry_space_group_name_H-M "C 2/M"
_symmetry_group_IT_number 12
_symmetry_cell_setting 'monoclinic'
loop_
_space_group_symop_operation_xyz
x,y,z
-x,y,-z
-x,-y,-z
x,-y,z
1/2+x,1/2+y,z
1/2-x,1/2+y,-z
1/2-x,1/2-y,-z
1/2+x,1/2-y,z
loop_
_atom_site_type_symbol
_atom_site_label
_atom_site_fract_x
_atom_site_fract_y
_atom_site_fract_z
Si Si1 0.696283 0.072027 0.355982
Si Si2 0.915431 0.677601 0.016767
Si Si3 0.022785 0.068763 0.118115
Si Si4 0.855896 0.404365 0.134451
Si Si5 0.837906 0.073244 0.224404
Si Si6 0.107077 0.722076 0.733684
Si Si7 0.787050 0.204937 0.720034
O O1 0.575768 0.130969 0.206318
O O2 0.579244 0.069984 0.334415
O O3 0.928530 0.084345 0.566037
O O4 0.664329 0.000000 0.290599
O O5 0.048445 0.740112 0.123871
O O6 0.791342 0.625668 0.845671
O O7 0.718934 0.714304 0.866930
O O8 0.132331 0.136268 0.237250
O O9 0.115578 0.000000 0.229982
O O10 0.000000 0.068637 0.000000
O O11 0.802140 0.069482 0.948774
O O12 0.874870 0.330584 0.179310
O O13 0.749884 0.419837 0.949104
O O14 0.809177 0.000000 0.226418
O O15 0.203633 0.698803 0.735853
O O16 0.882037 0.729807 0.497752
#
# Coordination Sequence:
#
# PCOD9217025 Si02
#       7
#     8   8   8   8   8   8   8
#     4  10  23  41  64  95 127 161 205 256 312 373
#     4  11  20  41  68  91 122 167 205 258 313 365
#     4  11  21  38  61  85 119 166 214 262 309 357
#     4  11  21  39  60  88 121 164 201 250 305 361
#     4  10  23  42  64  95 127 161 207 257 312 374
#     4  11  24  39  63  90 125 163 213 255 306 366
#     4  11  23  43  61  90 126 165 212 260 304 365
#
# _framework density 24.337806
#
# number of rings (size 3 to 8) (size 9 to 14) (size 15 to 20)
#    0.000    1.286    2.857    3.857    2.000    2.286 
#    0.000    7.143    0.000    6.857    0.000   16.000 
#    0.000    0.000    0.000    0.000    0.000    0.000 
#
# Total GULP energy -155946.049700 kJ/mol
# GULP energy per Si atom -5569.501775 kJ/mol
# Density = 2.428241 g / cm^3
# Si number density = 24.337806 Si / 1000 Ang^3
#
#
#
# Elastic Constant Matrix: (Units=GPa)
#
#
# Indices 1 2 3 4 5 6 
#
# 1 77.9814 16.4623 26.9007 0.0002 13.3514 -0.0001
# 2 16.4623 211.8819 89.9406 0.0000 14.5653 0.0000
# 3 26.9007 89.9406 167.0079 0.0005 22.3982 -0.0002
# 4 0.0002 0.0000 0.0005 32.6553 0.0002 18.5702
# 5 13.3514 14.5653 22.3982 0.0002 34.1294 -0.0001
# 6 -0.0001 0.0000 -0.0002 18.5702 -0.0001 -32.8548
#
#
#
# Elastic Compliance Matrix: (Units=1/GPa)
#
#
# Indices 1 2 3 4 5 6 
#
# 1 0.014166 -0.000103 -0.001633 0.000000 -0.004426 0.000000
# 2 -0.000103 0.006127 -0.003221 0.000000 -0.000460 0.000000
# 3 -0.001633 -0.003221 0.008460 0.000000 -0.003539 0.000000
# 4 0.000000 0.000000 0.000000 0.023174 0.000000 0.013099
# 5 -0.004426 -0.000460 -0.003539 0.000000 0.033551 0.000000
# 6 0.000000 0.000000 0.000000 0.013099 0.000000 -0.023033
#
#
# Mechanical properties :
#
#
# Convention : Reuss Voigt Hill
#
# Bulk Modulus (GPa) = 53.08122 80.38648 66.73385
# Shear Modulus (GPa) = 63.58256 28.35715 45.96986
#
# Velocity S-wave (km/s) = 5.11681 3.41713 4.35078
# Velocity P-wave (km/s) = 7.53436 6.97640 7.26074
#
# Compressibility (1/GPa) = 0.01883906
#
# Stress axis : x y z
#
# Youngs Moduli (GPa) = 70.58949 163.22376 118.20402
#
# Poissons Ratio (x) = 0.01688 0.19297
# Poissons Ratio (y) = 0.00730 0.38074
# Poissons Ratio (z) = 0.11524 0.52575
#
# Static dielectric constant tensor:
#      x y z
#    x 2.188380 0.000000 0.014980 
#    y 0.000000 2.031030 0.000000 
#    z 0.014980 0.000000 1.907470 
# 
# From -- ./inp_files/322749.got.cif
#   From: 2010.05.17/outbox.cif.g08.bks.cpg/sg12_162_cif.got.tgz:322749.got - 2010.06.03 13:09:07.
