data_PCOD9217037
_publ_section_title
;
Structure prediction by ZEFSAII (Michael W. Deem and Ramdas Pophale) SiO2 
 PCOD9217037
Probable space group: C 2/M
;
_chemical_formula_sum "Si O2"
_cell_formula_units_Z 40
_cell_length_a 13.855188
_cell_length_b 13.014979
_cell_length_c 8.754279
_cell_angle_alpha 90.000000
_cell_angle_beta 67.800987
_cell_angle_gamma 90.000000
_cell_volume 1461.603647
_symmetry_space_group_name_H-M "C 2/M"
_symmetry_group_IT_number 12
_symmetry_cell_setting 'monoclinic'
loop_
_space_group_symop_operation_xyz
x,y,z
-x,y,-z
-x,-y,-z
x,-y,z
1/2+x,1/2+y,z
1/2-x,1/2+y,-z
1/2-x,1/2-y,-z
1/2+x,1/2-y,z
loop_
_atom_site_type_symbol
_atom_site_label
_atom_site_fract_x
_atom_site_fract_y
_atom_site_fract_z
Si Si1 0.048632 0.390744 0.638931
Si Si2 0.757895 0.667958 0.653777
Si Si3 0.237486 0.612125 0.994558
Si Si4 0.930742 0.776235 0.905146
Si Si5 0.378438 0.378701 0.522758
O O1 0.027161 0.500000 0.728526
O O2 0.168204 0.381390 0.520995
O O3 0.000000 0.390839 0.500000
O O4 0.997445 0.299013 0.760608
O O5 0.769427 0.620422 0.815167
O O6 0.807124 0.783640 0.630587
O O7 0.659123 0.802332 0.978160
O O8 0.206414 0.500000 0.962397
O O9 0.358005 0.634594 0.882601
O O10 0.146112 0.857713 0.644473
O O11 0.000000 0.815639 0.000000
O O12 0.500000 0.362829 0.500000
O O13 0.355839 0.500000 0.566292
#
# Coordination Sequence:
#
# PCOD9217037 Si02
#       5
#     8   8   8   8   8
#     4  11  22  42  74 106 143 192 242 295 359 432
#     4  11  23  42  75 106 143 189 250 297 351 438
#     4  11  25  49  75 102 142 196 245 290 362 443
#     4  11  27  46  72 110 146 187 237 307 362 422
#     4  10  23  41  65 104 151 188 230 300 369 417
#
# _framework density 27.367197999999998
#
# number of rings (size 3 to 8) (size 9 to 14) (size 15 to 20)
#    0.000    1.200    2.000    3.000    5.600    2.000 
#    0.000    6.000    0.000    6.000    0.000    0.000 
#    0.000    0.000    0.000    0.000    0.000    0.000 
#
# Total GULP energy -111889.410750 kJ/mol
# GULP energy per Si atom -5594.470537 kJ/mol
# Density = 2.730491 g / cm^3
# Si number density = 27.367198 Si / 1000 Ang^3
#
#
#
# Elastic Constant Matrix: (Units=GPa)
#
#
# Indices 1 2 3 4 5 6 
#
# 1 160.2107 18.2466 2.4364 0.0000 4.5942 0.0000
# 2 18.2466 182.1777 2.0305 0.0000 -20.6549 0.0000
# 3 2.4364 2.0305 94.0410 0.0000 -28.8769 0.0000
# 4 0.0000 0.0000 0.0000 15.4147 0.0000 -4.5999
# 5 4.5942 -20.6549 -28.8769 0.0000 35.2613 0.0000
# 6 0.0000 0.0000 0.0000 -4.5999 0.0000 27.5685
#
#
#
# Elastic Compliance Matrix: (Units=1/GPa)
#
#
# Indices 1 2 3 4 5 6 
#
# 1 0.006406 -0.000854 -0.000745 0.000000 -0.001945 0.000000
# 2 -0.000854 0.006104 0.001366 0.000000 0.004806 0.000000
# 3 -0.000745 0.001366 0.014560 0.000000 0.012821 0.000000
# 4 0.000000 0.000000 0.000000 0.068273 0.000000 0.011392
# 5 -0.001945 0.004806 0.012821 0.000000 0.041928 0.000000
# 6 0.000000 0.000000 0.000000 0.011392 0.000000 0.038174
#
#
# Mechanical properties :
#
#
# Convention : Reuss Voigt Hill
#
# Bulk Modulus (GPa) = 37.58581 53.53961 45.56271
# Shear Modulus (GPa) = 27.05937 43.22996 35.14466
#
# Velocity S-wave (km/s) = 3.14785 3.97876 3.58745
# Velocity P-wave (km/s) = 5.19381 6.38070 5.81760
#
# Compressibility (1/GPa) = 0.02660579
#
# Stress axis : x y z
#
# Youngs Moduli (GPa) = 156.10095 163.81958 68.67920
#
# Poissons Ratio (x) = 0.13987 0.05114
# Poissons Ratio (y) = 0.13328 -0.09381
# Poissons Ratio (z) = 0.11624 -0.22377
#
# Static dielectric constant tensor:
#      x y z
#    x 2.289320 0.000000 -0.079360 
#    y 0.000000 2.117230 0.000000 
#    z -0.079360 0.000000 2.219510 
# 
# From -- ./inp_files/72473.got.cif
#   From: 2010.05.17/outbox.cif.g08.bks.cpg/sg12_37_cif.got.tgz:72473.got - 2010.06.03 13:09:07.
