data_PCOD9217410
_publ_section_title
;
Structure prediction by ZEFSAII (Michael W. Deem and Ramdas Pophale) SiO2 
 PCOD9217410
Probable space group: C 2/M
;
_chemical_formula_sum "Si O2"
_cell_formula_units_Z 56
_cell_length_a 12.926711
_cell_length_b 13.574926
_cell_length_c 15.349394
_cell_angle_alpha 90.000000
_cell_angle_beta 69.432749
_cell_angle_gamma 90.000000
_cell_volume 2521.816256
_symmetry_space_group_name_H-M "C 2/M"
_symmetry_group_IT_number 12
_symmetry_cell_setting 'monoclinic'
loop_
_space_group_symop_operation_xyz
x,y,z
-x,y,-z
-x,-y,-z
x,-y,z
1/2+x,1/2+y,z
1/2-x,1/2+y,-z
1/2-x,1/2-y,-z
1/2+x,1/2-y,z
loop_
_atom_site_type_symbol
_atom_site_label
_atom_site_fract_x
_atom_site_fract_y
_atom_site_fract_z
Si Si1 0.711840 0.253684 0.676405
Si Si2 0.509134 0.388966 0.904112
Si Si3 0.635382 0.115642 0.046943
Si Si4 0.870275 0.384800 0.142818
Si Si5 0.882684 0.113934 0.578657
Si Si6 0.227624 0.611404 0.200116
Si Si7 0.497884 0.616898 0.279945
O O1 0.665233 0.180653 0.765387
O O2 0.783250 0.187867 0.589989
O O3 0.791644 0.327175 0.707016
O O4 0.610000 0.317090 0.668799
O O5 0.462782 0.500000 0.928958
O O6 0.639414 0.393618 0.846706
O O7 0.460300 0.351089 0.828274
O O8 0.500000 0.337432 0.000000
O O9 0.503306 0.119004 0.096325
O O10 0.686153 0.154563 0.121211
O O11 0.667376 0.000000 0.035458
O O12 0.669274 0.151682 0.940928
O O13 0.838526 0.500000 0.164085
O O14 0.000000 0.136999 0.500000
O O15 0.910521 0.122407 0.673312
O O16 0.856139 0.000000 0.565571
O O17 0.184129 0.500000 0.221614
O O18 0.466896 0.500000 0.283176
#
# Coordination Sequence:
#
# PCOD9217410 Si02
#       7
#     8   8   8   8   8   8   8
#     4  11  21  33  58  86 109 140 188 234 280 346
#     4   8  14  27  47  74 108 146 184 217 258 316
#     4   8  16  32  49  66 106 154 188 226 274 316
#     4   9  18  32  48  73 108 149 188 231 274 320
#     4  10  23  43  64  85 111 145 187 238 296 350
#     4   9  18  32  50  75 107 148 187 226 278 330
#     4   9  20  39  59  82 118 156 183 229 293 338
#
# _framework density 22.206218
#
# number of rings (size 3 to 8) (size 9 to 14) (size 15 to 20)
#    0.000    2.857    0.000    2.571    2.000    2.286 
#   10.286    4.286    0.000    1.714    0.000    0.000 
#    0.000    0.000    0.000    0.000    0.000    0.000 
#
# Total GULP energy -156262.669816 kJ/mol
# GULP energy per Si atom -5580.809636 kJ/mol
# Density = 2.215568 g / cm^3
# Si number density = 22.206218 Si / 1000 Ang^3
#
#
#
# Elastic Constant Matrix: (Units=GPa)
#
#
# Indices 1 2 3 4 5 6 
#
# 1 44.1110 16.7554 -6.4793 0.0000 1.8438 0.0000
# 2 16.7554 113.3007 9.7817 0.0000 -21.6018 0.0000
# 3 -6.4793 9.7817 33.8910 0.0000 -11.3842 0.0000
# 4 0.0000 0.0000 0.0000 20.2965 0.0000 -11.8085
# 5 1.8438 -21.6018 -11.3842 0.0000 26.2752 0.0000
# 6 0.0000 0.0000 0.0000 -11.8085 0.0000 18.5035
#
#
#
# Elastic Compliance Matrix: (Units=1/GPa)
#
#
# Indices 1 2 3 4 5 6 
#
# 1 0.025419 -0.004883 0.005057 0.000000 -0.003607 0.000000
# 2 -0.004883 0.011406 -0.001124 0.000000 0.009233 0.000000
# 3 0.005057 -0.001124 0.035541 0.000000 0.014119 0.000000
# 4 0.000000 0.000000 0.000000 0.078366 0.000000 0.050011
# 5 -0.003607 0.009233 0.014119 0.000000 0.052020 0.000000
# 6 0.000000 0.000000 0.000000 0.050011 0.000000 0.085960
#
#
# Mechanical properties :
#
#
# Convention : Reuss Voigt Hill
#
# Bulk Modulus (GPa) = 14.19164 25.71315 19.95240
# Shear Modulus (GPa) = 15.91856 24.43138 20.17497
#
# Velocity S-wave (km/s) = 2.68031 3.32053 3.01745
# Velocity P-wave (km/s) = 3.99793 5.12890 4.59832
#
# Compressibility (1/GPa) = 0.07046400
#
# Stress axis : x y z
#
# Youngs Moduli (GPa) = 39.34117 87.67643 28.13688
#
# Poissons Ratio (x) = 0.42816 -0.14230
# Poissons Ratio (y) = 0.19212 0.03163
# Poissons Ratio (z) = -0.19896 0.09857
#
# Static dielectric constant tensor:
#      x y z
#    x 1.828210 0.000000 0.027810 
#    y 0.000000 1.892240 0.000000 
#    z 0.027810 0.000000 1.861390 
# 
# From -- ./inp_files/269795.got.cif
#   From: 2010.05.17/outbox.cif.g08.bks.cpg/sg12_135_cif.got.tgz:269795.got - 2010.06.03 13:09:07.
