data_PCOD9217091
_publ_section_title
;
Structure prediction by ZEFSAII (Michael W. Deem and Ramdas Pophale) SiO2 
 PCOD9217091
Probable space group: C 2/M
;
_chemical_formula_sum "Si O2"
_cell_formula_units_Z 42
_cell_length_a 15.900355
_cell_length_b 7.990526
_cell_length_c 20.481287
_cell_angle_alpha 90.000000
_cell_angle_beta 136.849543
_cell_angle_gamma 90.000000
_cell_volume 1779.682487
_symmetry_space_group_name_H-M "C 2/M"
_symmetry_group_IT_number 12
_symmetry_cell_setting 'monoclinic'
loop_
_space_group_symop_operation_xyz
x,y,z
-x,y,-z
-x,-y,-z
x,-y,z
1/2+x,1/2+y,z
1/2-x,1/2+y,-z
1/2-x,1/2-y,-z
1/2+x,1/2-y,z
loop_
_atom_site_type_symbol
_atom_site_label
_atom_site_fract_x
_atom_site_fract_y
_atom_site_fract_z
Si Si1 0.135245 0.192796 0.094538
Si Si2 0.330317 0.689932 0.106990
Si Si3 0.225693 0.306676 0.277864
Si Si4 0.981632 0.812604 0.578929
Si Si5 0.000000 0.500000 0.500000
Si Si6 0.925894 0.693912 0.689829
O O1 0.239023 0.297082 0.116836
O O2 0.157033 0.202893 0.183649
O O3 0.146882 0.000000 0.078868
O O4 0.000000 0.253463 0.000000
O O5 0.368951 0.500000 0.117069
O O6 0.451557 0.790495 0.196001
O O7 0.250000 0.750000 0.000000
O O8 0.185465 0.500000 0.249615
O O9 0.369601 0.302484 0.343203
O O10 0.185129 0.249594 0.326511
O O11 0.944760 0.792641 0.633577
O O12 0.945066 0.650070 0.517115
O O13 0.941870 0.000000 0.533965
O O14 0.908271 0.500000 0.662261
#
# Coordination Sequence:
#
# PCOD9217091 Si02
#       6
#     8   8   8   8   2   8
#     4  11  23  37  57  90 131 177 231 283 332 394
#     4  12  24  38  57  90 132 180 233 286 337 393
#     4  10  23  41  67  97 134 180 225 277 340 409
#     4  11  24  47  74 105 139 178 227 283 349 422
#     4  12  26  48  80 106 134 182 220 288 362 418
#     4  11  22  42  69  99 136 182 226 277 342 409
#
# _framework density 23.599716999999998
#
# number of rings (size 3 to 8) (size 9 to 14) (size 15 to 20)
#    0.000    0.952    2.857    4.286    1.333    6.095 
#    0.000    0.952    0.000    0.000    0.000    0.000 
#    0.000    0.000    0.000    0.000    0.000    0.000 
#
# Total GULP energy -117260.591356 kJ/mol
# GULP energy per Si atom -5583.837684 kJ/mol
# Density = 2.354600 g / cm^3
# Si number density = 23.599717 Si / 1000 Ang^3
#
#
#
# Elastic Constant Matrix: (Units=GPa)
#
#
# Indices 1 2 3 4 5 6 
#
# 1 131.2188 31.9850 30.1754 0.0000 -26.7158 0.0000
# 2 31.9850 108.3969 42.9131 0.0000 -8.8590 0.0000
# 3 30.1754 42.9131 66.0261 0.0000 -20.1339 0.0000
# 4 0.0000 0.0000 0.0000 -0.7514 0.0000 -20.4927
# 5 -26.7158 -8.8590 -20.1339 0.0000 49.0208 0.0000
# 6 0.0000 0.0000 0.0000 -20.4927 0.0000 21.9757
#
#
#
# Elastic Compliance Matrix: (Units=1/GPa)
#
#
# Indices 1 2 3 4 5 6 
#
# 1 0.009277 -0.001633 -0.001974 0.000000 0.003950 0.000000
# 2 -0.001633 0.012774 -0.008143 0.000000 -0.001926 0.000000
# 3 -0.001974 -0.008143 0.023508 0.000000 0.007108 0.000000
# 4 0.000000 0.000000 0.000000 -0.050349 0.000000 -0.046952
# 5 0.003950 -0.001926 0.007108 0.000000 0.025123 0.000000
# 6 0.000000 0.000000 0.000000 -0.046952 0.000000 0.001722
#
#
# Mechanical properties :
#
#
# Convention : Reuss Voigt Hill
#
# Bulk Modulus (GPa) = 45.33484 57.30988 51.32236
# Shear Modulus (GPa) = 94.50640 27.42025 60.96332
#
# Velocity S-wave (km/s) = 6.33502 3.41235 5.08806
# Velocity P-wave (km/s) = 8.53004 6.31366 7.50413
#
# Compressibility (1/GPa) = 0.02205809
#
# Stress axis : x y z
#
# Youngs Moduli (GPa) = 107.79255 78.28666 42.53959
#
# Poissons Ratio (x) = 0.12786 0.08397
# Poissons Ratio (y) = 0.17604 0.34640
# Poissons Ratio (z) = 0.21276 0.63749
#
# Static dielectric constant tensor:
#      x y z
#    x 1.887820 0.000000 0.005570 
#    y 0.000000 1.817490 0.000000 
#    z 0.005570 0.000000 1.911440 
# 
# From -- ./inp_files/220773.got.cif
#   From: 2010.05.17/outbox.cif.g08.bks.cpg/sg12_111_cif.got.tgz:220773.got - 2010.06.03 13:09:07.
