data_PCOD9217465
_publ_section_title
;
Structure prediction by ZEFSAII (Michael W. Deem and Ramdas Pophale) SiO2 
 PCOD9217465
Probable space group: C 2/M
;
_chemical_formula_sum "Si O2"
_cell_formula_units_Z 48
_cell_length_a 13.014053
_cell_length_b 13.492943
_cell_length_c 23.356248
_cell_angle_alpha 90.000000
_cell_angle_beta 31.034187
_cell_angle_gamma 90.000000
_cell_volume 2114.426773
_symmetry_space_group_name_H-M "C 2/M"
_symmetry_group_IT_number 12
_symmetry_cell_setting 'monoclinic'
loop_
_space_group_symop_operation_xyz
x,y,z
-x,y,-z
-x,-y,-z
x,-y,z
1/2+x,1/2+y,z
1/2-x,1/2+y,-z
1/2-x,1/2-y,-z
1/2+x,1/2-y,z
loop_
_atom_site_type_symbol
_atom_site_label
_atom_site_fract_x
_atom_site_fract_y
_atom_site_fract_z
Si Si1 0.690612 0.888725 0.998463
Si Si2 0.326966 0.234108 0.221428
Si Si3 0.014795 0.114814 0.762153
Si Si4 0.707085 0.110427 0.477226
Si Si5 0.535433 0.326904 0.547209
Si Si6 0.572305 0.612635 0.902662
O O1 0.521806 0.818661 0.103422
O O2 0.611686 0.000000 0.035142
O O3 0.879980 0.886242 0.951872
O O4 0.784850 0.867134 0.890697
O O5 0.373941 0.302188 0.254052
O O6 0.268776 0.312092 0.199712
O O7 0.161109 0.158826 0.320898
O O8 0.103780 0.119127 0.656386
O O9 0.052194 0.000000 0.763612
O O10 0.576102 0.207594 0.527696
O O11 0.785137 0.122676 0.504518
O O12 0.618689 0.000000 0.510563
O O13 0.500000 0.360882 0.500000
O O14 0.646959 0.500000 0.869502
O O15 0.500000 0.641218 0.000000
#
# Coordination Sequence:
#
# PCOD9217465 Si02
#       6
#     8   8   8   8   8   8
#     4   9  19  34  55  85 117 154 196 236 294 363
#     4  11  20  33  59  83 118 160 193 245 303 350
#     4   9  17  34  60  87 114 149 197 245 294 356
#     4  10  23  43  66  88 120 162 202 253 309 358
#     4  11  24  42  61  91 124 154 210 258 295 364
#     4   9  18  33  52  83 121 151 190 241 293 359
#
# _framework density 22.701187000000001
#
# number of rings (size 3 to 8) (size 9 to 14) (size 15 to 20)
#    0.000    2.167    1.667    3.500    0.000    5.333 
#    0.000    0.000    0.000    3.500    0.000    0.000 
#    0.000    0.000    0.000    0.000    0.000    0.000 
#
# Total GULP energy -133938.532894 kJ/mol
# GULP energy per Si atom -5580.772204 kJ/mol
# Density = 2.264952 g / cm^3
# Si number density = 22.701187 Si / 1000 Ang^3
#
#
#
# Elastic Constant Matrix: (Units=GPa)
#
#
# Indices 1 2 3 4 5 6 
#
# 1 49.0930 -3.0429 13.1296 0.0001 20.3235 -0.0002
# 2 -3.0429 64.8831 10.1162 -0.0008 -1.6545 0.0000
# 3 13.1296 10.1162 89.6522 -0.0029 8.5464 -0.0006
# 4 0.0001 -0.0008 -0.0029 25.6616 -0.0002 7.6753
# 5 20.3235 -1.6545 8.5464 -0.0002 28.7502 0.0004
# 6 -0.0002 0.0000 -0.0006 7.6753 0.0004 6.5219
#
#
#
# Elastic Compliance Matrix: (Units=1/GPa)
#
#
# Indices 1 2 3 4 5 6 
#
# 1 0.029384 0.001266 -0.002545 -0.000002 -0.019942 0.000004
# 2 0.001266 0.015804 -0.002028 0.000000 0.000617 -0.000001
# 3 -0.002545 -0.002028 0.011934 0.000001 -0.001865 -0.000001
# 4 -0.000002 0.000000 0.000001 0.060136 0.000002 -0.070771
# 5 -0.019942 0.000617 -0.001865 0.000002 0.049469 -0.000006
# 6 0.000004 -0.000001 -0.000001 -0.070771 -0.000006 0.236616
#
#
# Mechanical properties :
#
#
# Convention : Reuss Voigt Hill
#
# Bulk Modulus (GPa) = 19.79849 27.11487 23.45668
# Shear Modulus (GPa) = 11.71532 24.41511 18.06521
#
# Velocity S-wave (km/s) = 2.27417 3.28304 2.82402
# Velocity P-wave (km/s) = 3.95425 5.13238 4.58134
#
# Compressibility (1/GPa) = 0.05050891
#
# Stress axis : x y z
#
# Youngs Moduli (GPa) = 34.03171 63.27678 83.79757
#
# Poissons Ratio (x) = -0.08013 0.21328
# Poissons Ratio (y) = -0.04310 0.16990
# Poissons Ratio (z) = 0.08662 0.12829
#
# Static dielectric constant tensor:
#      x y z
#    x 1.862500 0.000000 -0.009260 
#    y 0.000000 1.888040 0.000000 
#    z -0.009260 0.000000 1.861590 
# 
# From -- ./inp_files/142722.got.cif
#   From: 2010.05.17/outbox.cif.g08.bks.cpg/sg12_72_cif.got.tgz:142722.got - 2010.06.03 13:09:07.
