data_PCOD9217032
_publ_section_title
;
Structure prediction by ZEFSAII (Michael W. Deem and Ramdas Pophale) SiO2 
 PCOD9217032
Probable space group: C 2/M
;
_chemical_formula_sum "Si O2"
_cell_formula_units_Z 44
_cell_length_a 26.342799
_cell_length_b 15.174886
_cell_length_c 5.227061
_cell_angle_alpha 90.000000
_cell_angle_beta 85.415436
_cell_angle_gamma 90.000000
_cell_volume 2082.826758
_symmetry_space_group_name_H-M "C 2/M"
_symmetry_group_IT_number 12
_symmetry_cell_setting 'monoclinic'
loop_
_space_group_symop_operation_xyz
x,y,z
-x,y,-z
-x,-y,-z
x,-y,z
1/2+x,1/2+y,z
1/2-x,1/2+y,-z
1/2-x,1/2-y,-z
1/2+x,1/2-y,z
loop_
_atom_site_type_symbol
_atom_site_label
_atom_site_fract_x
_atom_site_fract_y
_atom_site_fract_z
Si Si1 0.432036 0.097816 0.662997
Si Si2 0.442683 0.332805 0.142869
Si Si3 0.870271 0.000000 0.177722
Si Si4 0.298582 0.500000 0.710476
Si Si5 0.619382 0.839239 0.845105
Si Si6 0.500000 0.238359 0.500000
Si Si7 0.261434 0.810395 0.247621
O O1 0.407990 0.124082 0.399091
O O2 0.476348 0.168469 0.706647
O O3 0.452356 0.000000 0.646228
O O4 0.391005 0.102219 0.903296
O O5 0.408675 0.418110 0.150642
O O6 0.406353 0.253839 0.068029
O O7 0.455882 0.301789 0.424593
O O8 0.500000 0.340544 0.000000
O O9 0.835006 0.000000 0.445137
O O10 0.833568 0.000000 0.948350
O O11 0.267167 0.406368 0.729680
O O12 0.678583 0.829376 0.773103
O O13 0.250000 0.750000 0.500000
O O14 0.250000 0.750000 0.000000
#
# Coordination Sequence:
#
# PCOD9217032 Si02
#       7
#     8   8   4   4   8   4   8
#     4  11  23  39  64  96 138 177 227 271 348 415
#     4  11  23  44  68 102 141 184 236 284 355 414
#     4  12  29  45  76 100 146 186 241 302 350 418
#     4  12  28  50  74 112 143 186 250 304 358 440
#     4  11  24  42  68 100 136 178 229 290 346 430
#     4  10  23  41  64  98 140 188 226 285 331 428
#     4  12  26  48  76 103 142 188 237 303 374 422
#
# _framework density 21.125136000000001
#
# number of rings (size 3 to 8) (size 9 to 14) (size 15 to 20)
#    0.000    0.727    1.818    5.455    5.091    1.818 
#    0.000    2.727    0.000    0.000    0.000    0.000 
#    0.000    0.000    0.000    0.000    0.000    0.000 
#
# Total GULP energy -122760.458485 kJ/mol
# GULP energy per Si atom -5580.020840 kJ/mol
# Density = 2.107705 g / cm^3
# Si number density = 21.125136 Si / 1000 Ang^3
#
#
#
# Elastic Constant Matrix: (Units=GPa)
#
#
# Indices 1 2 3 4 5 6 
#
# 1 158.3758 87.5446 59.2589 0.0000 -24.8134 0.0000
# 2 87.5446 203.0627 67.8313 0.0000 -5.6026 0.0000
# 3 59.2589 67.8313 147.6833 0.0000 -16.2806 0.0000
# 4 0.0000 0.0000 0.0000 50.8694 0.0000 -1.8799
# 5 -24.8134 -5.6026 -16.2806 0.0000 39.5821 0.0000
# 6 0.0000 0.0000 0.0000 -1.8799 0.0000 20.4642
#
#
#
# Elastic Compliance Matrix: (Units=1/GPa)
#
#
# Indices 1 2 3 4 5 6 
#
# 1 0.009622 -0.003429 -0.001754 0.000000 0.004825 0.000000
# 2 -0.003429 0.007042 -0.002080 0.000000 -0.002008 0.000000
# 3 -0.001754 -0.002080 0.008670 0.000000 0.002172 0.000000
# 4 0.000000 0.000000 0.000000 0.019725 0.000000 0.001812
# 5 0.004825 -0.002008 0.002172 0.000000 0.028898 0.000000
# 6 0.000000 0.000000 0.000000 0.001812 0.000000 0.049032
#
#
# Mechanical properties :
#
#
# Convention : Reuss Voigt Hill
#
# Bulk Modulus (GPa) = 92.52519 104.26571 98.39545
# Shear Modulus (GPa) = 35.43136 41.81562 38.62349
#
# Velocity S-wave (km/s) = 4.09982 4.45390 4.28052
# Velocity P-wave (km/s) = 8.14279 8.71281 8.43262
#
# Compressibility (1/GPa) = 0.01080787
#
# Stress axis : x y z
#
# Youngs Moduli (GPa) = 103.93048 141.99762 115.34276
#
# Poissons Ratio (x) = 0.48693 0.20230
# Poissons Ratio (y) = 0.35640 0.23991
# Poissons Ratio (z) = 0.18228 0.29536
#
# Static dielectric constant tensor:
#      x y z
#    x 1.756380 0.000000 -0.009950 
#    y 0.000000 1.730330 0.000000 
#    z -0.009950 0.000000 1.846440 
# 
# From -- ./inp_files/27924.got.cif
#   From: 2010.05.17/outbox.cif.g08.bks.cpg/sg12_14_cif.got.tgz:27924.got - 2010.06.03 13:09:07.
