data_PCOD9217369
_publ_section_title
;
Structure prediction by ZEFSAII (Michael W. Deem and Ramdas Pophale) SiO2 
 PCOD9217369
Probable space group: C 2/M
;
_chemical_formula_sum "Si O2"
_cell_formula_units_Z 28
_cell_length_a 8.036985
_cell_length_b 32.602077
_cell_length_c 5.376835
_cell_angle_alpha 90.000000
_cell_angle_beta 121.692628
_cell_angle_gamma 90.000000
_cell_volume 1198.761522
_symmetry_space_group_name_H-M "C 2/M"
_symmetry_group_IT_number 12
_symmetry_cell_setting 'monoclinic'
loop_
_space_group_symop_operation_xyz
x,y,z
-x,y,-z
-x,-y,-z
x,-y,z
1/2+x,1/2+y,z
1/2-x,1/2+y,-z
1/2-x,1/2-y,-z
1/2+x,1/2-y,z
loop_
_atom_site_type_symbol
_atom_site_label
_atom_site_fract_x
_atom_site_fract_y
_atom_site_fract_z
Si Si1 0.722784 0.411686 0.447528
Si Si2 0.130833 0.500000 0.352520
Si Si3 0.279625 0.378349 0.052614
Si Si4 0.871325 0.708830 0.145826
O O1 0.740841 0.458823 0.537549
O O2 0.500728 0.395234 0.249761
O O3 0.806947 0.385119 0.740935
O O4 0.809737 0.404844 0.241537
O O5 0.000000 0.500000 0.500000
O O6 0.000000 0.500000 0.000000
O O7 0.264800 0.331454 0.954905
O O8 0.000000 0.711368 0.500000
O O9 0.750000 0.750000 0.000000
O O10 0.000000 0.703593 0.000000
#
# Coordination Sequence:
#
# PCOD9217369 Si02
#       4
#     8   4   8   8
#     4  10  23  42  70  97 141 188 236 286 356 427
#     4  12  26  42  66 106 144 180 240 300 352 412
#     4  10  23  42  70  98 136 185 240 279 359 428
#     4  12  28  46  75 108 146 185 243 305 361 425
#
# _framework density 23.35744
#
# number of rings (size 3 to 8) (size 9 to 14) (size 15 to 20)
#    0.000    1.143    0.000    4.286    8.000   11.429 
#    0.000    0.000    0.000    0.000    0.000    0.000 
#    0.000    0.000    0.000    0.000    0.000    0.000 
#
# Total GULP energy -78298.226321 kJ/mol
# GULP energy per Si atom -5592.730451 kJ/mol
# Density = 2.330428 g / cm^3
# Si number density = 23.357440 Si / 1000 Ang^3
#
#
#
# Elastic Constant Matrix: (Units=GPa)
#
#
# Indices 1 2 3 4 5 6 
#
# 1 74.2748 18.7597 65.9585 0.0000 -0.8162 0.0000
# 2 18.7597 243.6872 100.8879 0.0000 28.9928 0.0000
# 3 65.9585 100.8879 263.4347 0.0000 -17.6339 0.0000
# 4 0.0000 0.0000 0.0000 52.6170 0.0000 9.6470
# 5 -0.8162 28.9928 -17.6339 0.0000 57.8716 0.0000
# 6 0.0000 0.0000 0.0000 9.6470 0.0000 48.0759
#
#
#
# Elastic Compliance Matrix: (Units=1/GPa)
#
#
# Indices 1 2 3 4 5 6 
#
# 1 0.017510 0.000841 -0.004816 0.000000 -0.001642 0.000000
# 2 0.000841 0.005520 -0.002561 0.000000 -0.003534 0.000000
# 3 -0.004816 -0.002561 0.006190 0.000000 0.003101 0.000000
# 4 0.000000 0.000000 0.000000 0.019731 0.000000 -0.003959
# 5 -0.001642 -0.003534 0.003101 0.000000 0.019972 0.000000
# 6 0.000000 0.000000 0.000000 -0.003959 0.000000 0.021595
#
#
# Mechanical properties :
#
#
# Convention : Reuss Voigt Hill
#
# Bulk Modulus (GPa) = 61.92733 105.84547 83.88640
# Shear Modulus (GPa) = 45.88324 58.09896 51.99110
#
# Velocity S-wave (km/s) = 4.43696 4.99278 4.72305
# Velocity P-wave (km/s) = 7.26769 8.86854 8.10772
#
# Compressibility (1/GPa) = 0.01614796
#
# Stress axis : x y z
#
# Youngs Moduli (GPa) = 57.11031 181.17389 161.54298
#
# Poissons Ratio (x) = -0.15243 0.77803
# Poissons Ratio (y) = -0.04805 0.41372
# Poissons Ratio (z) = 0.27506 0.46399
#
# Static dielectric constant tensor:
#      x y z
#    x 1.814270 0.000000 -0.079130 
#    y 0.000000 1.843140 0.000000 
#    z -0.079130 0.000000 1.899820 
# 
# From -- ./inp_files/3974.got.cif
#   From: 2010.05.17/outbox.cif.g08.bks.cpg/sg12_2_cif.got.tgz:3974.got - 2010.06.03 13:09:07.
