data_PCOD9217096
_publ_section_title
;
Structure prediction by ZEFSAII (Michael W. Deem and Ramdas Pophale) SiO2 
 PCOD9217096
Probable space group: C 2/M
;
_chemical_formula_sum "Si O2"
_cell_formula_units_Z 34
_cell_length_a 9.965022
_cell_length_b 16.830136
_cell_length_c 19.718891
_cell_angle_alpha 90.000000
_cell_angle_beta 146.502680
_cell_angle_gamma 90.000000
_cell_volume 1825.186206
_symmetry_space_group_name_H-M "C 2/M"
_symmetry_group_IT_number 12
_symmetry_cell_setting 'monoclinic'
loop_
_space_group_symop_operation_xyz
x,y,z
-x,y,-z
-x,-y,-z
x,-y,z
1/2+x,1/2+y,z
1/2-x,1/2+y,-z
1/2-x,1/2-y,-z
1/2+x,1/2-y,z
loop_
_atom_site_type_symbol
_atom_site_label
_atom_site_fract_x
_atom_site_fract_y
_atom_site_fract_z
Si Si1 0.780712 0.357811 0.057303
Si Si2 0.003821 0.785870 0.581841
Si Si3 0.000000 0.000000 0.000000
Si Si4 0.500426 0.696630 0.812165
Si Si5 0.193300 0.094676 0.768987
O O1 0.842467 0.278064 0.124648
O O2 0.023683 0.380815 0.118060
O O3 0.702133 0.430428 0.069786
O O4 0.570467 0.340235 0.914067
O O5 0.222138 0.723895 0.689192
O O6 0.065745 0.865064 0.650148
O O7 0.000000 0.800245 0.500000
O O8 0.750000 0.750000 0.500000
O O9 0.577384 0.636765 0.785675
O O10 0.169205 0.000000 0.761347
#
# Coordination Sequence:
#
# PCOD9217096 Si02
#       5
#     8   8   2   8   8
#     4  10  24  39  61  97 134 168 210 263 330 387
#     4  11  23  44  69  94 126 174 223 266 322 385
#     4  12  24  36  58 100 138 162 210 266 318 396
#     4  10  23  41  68  90 130 177 212 263 323 395
#     4  11  23  42  67  97 128 166 218 271 324 386
#
# _framework density 18.628236000000001
#
# number of rings (size 3 to 8) (size 9 to 14) (size 15 to 20)
#    0.000    1.412    3.529    0.706   11.529    1.412 
#    0.000    2.353    0.000    0.000    0.000    0.000 
#    0.000    0.000    0.000    0.000    0.000    0.000 
#
# Total GULP energy -94719.399399 kJ/mol
# GULP energy per Si atom -5571.729376 kJ/mol
# Density = 1.858584 g / cm^3
# Si number density = 18.628236 Si / 1000 Ang^3
#
#
#
# Elastic Constant Matrix: (Units=GPa)
#
#
# Indices 1 2 3 4 5 6 
#
# 1 86.8049 55.7651 46.3249 -0.0001 7.3215 0.0001
# 2 55.7651 159.9362 48.1379 0.0000 -6.0620 0.0000
# 3 46.3249 48.1379 121.2908 0.0003 -2.0454 0.0003
# 4 -0.0001 0.0000 0.0003 16.6492 0.0000 -35.6332
# 5 7.3215 -6.0620 -2.0454 0.0000 23.4365 0.0002
# 6 0.0001 0.0000 0.0003 -35.6332 0.0002 125.7723
#
#
#
# Elastic Compliance Matrix: (Units=1/GPa)
#
#
# Indices 1 2 3 4 5 6 
#
# 1 0.018082 -0.005075 -0.005017 0.000000 -0.007399 0.000000
# 2 -0.005075 0.008585 -0.001407 0.000000 0.003683 0.000000
# 3 -0.005017 -0.001407 0.010755 -0.000001 0.002142 0.000000
# 4 0.000000 0.000000 -0.000001 0.152584 -0.000001 0.043229
# 5 -0.007399 0.003683 0.002142 -0.000001 0.046120 0.000000
# 6 0.000000 0.000000 0.000000 0.043229 0.000000 0.020198
#
#
# Mechanical properties :
#
#
# Convention : Reuss Voigt Hill
#
# Bulk Modulus (GPa) = 69.32440 74.27642 71.80041
# Shear Modulus (GPa) = 17.59766 47.69188 32.64477
#
# Velocity S-wave (km/s) = 3.07689 5.06532 4.19075
# Velocity P-wave (km/s) = 7.06530 8.61218 7.87681
#
# Compressibility (1/GPa) = 0.01442493
#
# Stress axis : x y z
#
# Youngs Moduli (GPa) = 55.30462 116.48156 92.97932
#
# Poissons Ratio (x) = 0.59116 0.46644
# Poissons Ratio (y) = 0.28068 0.13080
# Poissons Ratio (z) = 0.27744 0.16386
#
# Static dielectric constant tensor:
#      x y z
#    x 1.663180 0.000000 -0.002090 
#    y 0.000000 1.605660 0.000000 
#    z -0.002090 0.000000 1.647580 
# 
# From -- ./inp_files/118493.got.cif
#   From: 2010.05.17/outbox.cif.g08.bks.cpg/sg12_60_cif.got.tgz:118493.got - 2010.06.03 13:09:07.
