data_PCOD9217536
_publ_section_title
;
Structure prediction by ZEFSAII (Michael W. Deem and Ramdas Pophale) SiO2 
 PCOD9217536
Probable space group: C 2/M
;
_chemical_formula_sum "Si O2"
_cell_formula_units_Z 56
_cell_length_a 29.394010
_cell_length_b 14.318011
_cell_length_c 6.358444
_cell_angle_alpha 90.000000
_cell_angle_beta 85.491302
_cell_angle_gamma 90.000000
_cell_volume 2667.757402
_symmetry_space_group_name_H-M "C 2/M"
_symmetry_group_IT_number 12
_symmetry_cell_setting 'monoclinic'
loop_
_space_group_symop_operation_xyz
x,y,z
-x,y,-z
-x,-y,-z
x,-y,z
1/2+x,1/2+y,z
1/2-x,1/2+y,-z
1/2-x,1/2-y,-z
1/2+x,1/2-y,z
loop_
_atom_site_type_symbol
_atom_site_label
_atom_site_fract_x
_atom_site_fract_y
_atom_site_fract_z
Si Si1 0.107921 0.341535 0.243099
Si Si2 0.546458 0.099456 0.617132
Si Si3 0.550383 0.738424 0.957219
Si Si4 0.220311 0.890623 0.171566
Si Si5 0.362203 0.391124 0.123101
Si Si6 0.173429 0.228913 0.505707
Si Si7 0.178163 0.393491 0.852157
O O1 0.088823 0.402178 0.440585
O O2 0.137869 0.262776 0.344228
O O3 0.062629 0.300965 0.153292
O O4 0.139226 0.380860 0.042920
O O5 0.500000 0.103540 0.500000
O O6 0.551326 0.189852 0.761504
O O7 0.546134 0.000000 0.737875
O O8 0.591743 0.665998 0.934882
O O9 0.500000 0.697285 0.000000
O O10 0.215325 0.815448 0.360804
O O11 0.271510 0.883080 0.062976
O O12 0.215174 0.000000 0.242072
O O13 0.180321 0.871857 0.018219
O O14 0.371577 0.500000 0.109525
O O15 0.345868 0.357487 0.355936
O O16 0.176730 0.314877 0.670394
O O17 0.175117 0.500000 0.769819
#
# Coordination Sequence:
#
# PCOD9217536 Si02
#       7
#     8   8   8   8   8   8   8
#     4  12  23  42  65  96 135 175 216 274 328 387
#     4  11  24  41  67  99 131 176 222 265 329 398
#     4  12  24  44  69  96 135 171 220 278 332 392
#     4  10  23  43  67  98 135 175 221 272 331 398
#     4  11  24  45  69  97 130 171 224 277 334 395
#     4  12  22  41  68  97 131 175 221 272 324 394
#     4  11  25  42  65 100 138 176 218 268 331 399
#
# _framework density 20.991416000000001
#
# number of rings (size 3 to 8) (size 9 to 14) (size 15 to 20)
#    0.000    0.714    5.714    1.286    0.000    7.429 
#    0.000    2.857    0.000    1.286    0.000    0.000 
#    0.000    0.000    0.000    0.000    0.000    0.000 
#
# Total GULP energy -156305.880072 kJ/mol
# GULP energy per Si atom -5582.352860 kJ/mol
# Density = 2.094364 g / cm^3
# Si number density = 20.991416 Si / 1000 Ang^3
#
#
#
# Elastic Constant Matrix: (Units=GPa)
#
#
# Indices 1 2 3 4 5 6 
#
# 1 131.1895 27.3472 21.0375 0.0000 -0.0196 0.0000
# 2 27.3472 70.6609 28.1043 0.0000 12.1208 0.0000
# 3 21.0375 28.1043 50.7185 0.0000 3.6593 0.0000
# 4 0.0000 0.0000 0.0000 18.0877 0.0000 -2.9250
# 5 -0.0196 12.1208 3.6593 0.0000 33.0177 0.0000
# 6 0.0000 0.0000 0.0000 -2.9250 0.0000 27.7594
#
#
#
# Elastic Compliance Matrix: (Units=1/GPa)
#
#
# Indices 1 2 3 4 5 6 
#
# 1 0.008520 -0.002650 -0.002154 0.000000 0.001216 0.000000
# 2 -0.002650 0.020063 -0.009563 0.000000 -0.006307 0.000000
# 3 -0.002154 -0.009563 0.025863 0.000000 0.000643 0.000000
# 4 0.000000 0.000000 0.000000 0.056245 0.000000 0.005927
# 5 0.001216 -0.006307 0.000643 0.000000 0.032531 0.000000
# 6 0.000000 0.000000 0.000000 0.005927 0.000000 0.036648
#
#
# Mechanical properties :
#
#
# Convention : Reuss Voigt Hill
#
# Bulk Modulus (GPa) = 38.89081 45.06075 41.97578
# Shear Modulus (GPa) = 23.02289 27.51163 25.26726
#
# Velocity S-wave (km/s) = 3.31535 3.62417 3.47319
# Velocity P-wave (km/s) = 5.76391 6.24705 6.01034
#
# Compressibility (1/GPa) = 0.02571301
#
# Stress axis : x y z
#
# Youngs Moduli (GPa) = 117.36476 49.84278 38.66544
#
# Poissons Ratio (x) = 0.13207 0.08327
# Poissons Ratio (y) = 0.31097 0.36977
# Poissons Ratio (z) = 0.25277 0.47666
#
# Static dielectric constant tensor:
#      x y z
#    x 1.755920 0.000000 -0.002530 
#    y 0.000000 1.772270 0.000000 
#    z -0.002530 0.000000 1.750770 
# 
# From -- ./inp_files/31511.got.cif
#   From: 2010.05.17/outbox.cif.g08.bks.cpg/sg12_16_cif.got.tgz:31511.got - 2010.06.03 13:09:07.
