data_PCOD9217173
_publ_section_title
;
Structure prediction by ZEFSAII (Michael W. Deem and Ramdas Pophale) SiO2 
 PCOD9217173
Probable space group: C 2/M
;
_chemical_formula_sum "Si O2"
_cell_formula_units_Z 56
_cell_length_a 17.461088
_cell_length_b 28.142271
_cell_length_c 8.048062
_cell_angle_alpha 90.000000
_cell_angle_beta 40.415625
_cell_angle_gamma 90.000000
_cell_volume 2563.989457
_symmetry_space_group_name_H-M "C 2/M"
_symmetry_group_IT_number 12
_symmetry_cell_setting 'monoclinic'
loop_
_space_group_symop_operation_xyz
x,y,z
-x,y,-z
-x,-y,-z
x,-y,z
1/2+x,1/2+y,z
1/2-x,1/2+y,-z
1/2-x,1/2-y,-z
1/2+x,1/2-y,z
loop_
_atom_site_type_symbol
_atom_site_label
_atom_site_fract_x
_atom_site_fract_y
_atom_site_fract_z
Si Si1 0.292267 0.158064 0.442578
Si Si2 0.445602 0.500000 0.335738
Si Si3 0.919007 0.271370 0.981526
Si Si4 0.194854 0.000000 0.109543
Si Si5 0.071808 0.105081 0.656710
Si Si6 0.506373 0.133433 0.291204
Si Si7 0.248781 0.101007 0.074308
Si Si8 0.345700 0.674920 0.015240
O O1 0.329392 0.195343 0.237833
O O2 0.182014 0.127515 0.566828
O O3 0.395473 0.124891 0.351600
O O4 0.236161 0.185026 0.691032
O O5 0.568192 0.500000 0.233025
O O6 0.333063 0.500000 0.646686
O O7 0.445614 0.551423 0.252641
O O8 0.981258 0.310468 0.764167
O O9 0.887814 0.228073 0.912413
O O10 0.000000 0.251710 0.000000
O O11 0.255156 0.050281 0.971319
O O12 0.126712 0.100636 0.380058
O O13 0.957498 0.139084 0.856215
O O14 0.500000 0.123344 0.500000
O O15 0.627955 0.107965 0.033188
O O16 0.234836 0.147028 0.982102
#
# Coordination Sequence:
#
# PCOD9217173 Si02
#       8
#     8   4   8   4   8   8   8   8
#     4  11  23  42  64  85 133 173 213 261 317 379
#     4   9  18  36  65  94 132 165 206 255 335 387
#     4  10  23  42  63  89 126 176 213 259 323 375
#     4   9  18  38  65  93 128 169 200 260 329 384
#     4  11  22  40  66  99 128 166 211 268 325 386
#     4  11  23  44  64  89 122 169 217 264 311 375
#     4  11  22  41  67  95 127 166 215 263 319 379
#     4  12  23  38  64  96 127 165 214 263 316 381
#
# _framework density 21.840962999999999
#
# number of rings (size 3 to 8) (size 9 to 14) (size 15 to 20)
#    0.000    1.286    4.286    2.143    0.000    2.857 
#    0.000    3.214    0.000    2.571    0.000    0.000 
#    0.000    0.000    0.000    0.000    0.000    0.000 
#
# Total GULP energy -155957.994948 kJ/mol
# GULP energy per Si atom -5569.928391 kJ/mol
# Density = 2.179125 g / cm^3
# Si number density = 21.840963 Si / 1000 Ang^3
#
#
#
# Elastic Constant Matrix: (Units=GPa)
#
#
# Indices 1 2 3 4 5 6 
#
# 1 65.3420 10.4544 5.4036 0.0000 -29.3774 0.0000
# 2 10.4544 70.8889 5.0185 0.0000 -2.1761 0.0000
# 3 5.4036 5.0185 75.9357 0.0000 -5.7502 0.0000
# 4 0.0000 0.0000 0.0000 31.6293 0.0000 19.1043
# 5 -29.3774 -2.1761 -5.7502 0.0000 46.4265 0.0000
# 6 0.0000 0.0000 0.0000 19.1043 0.0000 27.3800
#
#
#
# Elastic Compliance Matrix: (Units=1/GPa)
#
#
# Indices 1 2 3 4 5 6 
#
# 1 0.021944 -0.002791 -0.000339 0.000000 0.013713 0.000000
# 2 -0.002791 0.014542 -0.000853 0.000000 -0.001190 0.000000
# 3 -0.000339 -0.000853 0.013355 0.000000 0.001400 0.000000
# 4 0.000000 0.000000 0.000000 0.054647 0.000000 -0.038130
# 5 0.013713 -0.001190 0.001400 0.000000 0.030334 0.000000
# 6 0.000000 0.000000 0.000000 -0.038130 0.000000 0.063128
#
#
# Mechanical properties :
#
#
# Convention : Reuss Voigt Hill
#
# Bulk Modulus (GPa) = 23.87983 28.21329 26.04656
# Shear Modulus (GPa) = 22.74030 33.83983 28.29006
#
# Velocity S-wave (km/s) = 3.23023 3.94048 3.60290
# Velocity P-wave (km/s) = 4.98696 5.80076 5.40918
#
# Compressibility (1/GPa) = 0.04187635
#
# Stress axis : x y z
#
# Youngs Moduli (GPa) = 45.57092 68.76611 74.87561
#
# Poissons Ratio (x) = 0.19194 0.02536
# Poissons Ratio (y) = 0.12720 0.06384
# Poissons Ratio (z) = 0.01543 0.05863
#
# Static dielectric constant tensor:
#      x y z
#    x 1.889170 0.000000 0.045760 
#    y 0.000000 1.804570 0.000000 
#    z 0.045760 0.000000 1.926250 
# 
# From -- ./inp_files/80043.got.cif
#   From: 2010.05.17/outbox.cif.g08.bks.cpg/sg12_41_cif.got.tgz:80043.got - 2010.06.03 13:09:07.
