data_PCOD9217767
_publ_section_title
;
Structure prediction by ZEFSAII (Michael W. Deem and Ramdas Pophale) SiO2 
 PCOD9217767
Probable space group: C 2/M
;
_chemical_formula_sum "Si O2"
_cell_formula_units_Z 48
_cell_length_a 21.636207
_cell_length_b 25.801581
_cell_length_c 9.846025
_cell_angle_alpha 90.000000
_cell_angle_beta 152.794003
_cell_angle_gamma 90.000000
_cell_volume 2512.962856
_symmetry_space_group_name_H-M "C 2/M"
_symmetry_group_IT_number 12
_symmetry_cell_setting 'monoclinic'
loop_
_space_group_symop_operation_xyz
x,y,z
-x,y,-z
-x,-y,-z
x,-y,z
1/2+x,1/2+y,z
1/2-x,1/2+y,-z
1/2-x,1/2-y,-z
1/2+x,1/2-y,z
loop_
_atom_site_type_symbol
_atom_site_label
_atom_site_fract_x
_atom_site_fract_y
_atom_site_fract_z
Si Si1 0.315051 0.211688 0.735820
Si Si2 0.414683 0.634647 0.208072
Si Si3 0.396045 0.848653 0.412976
Si Si4 0.051279 0.762532 0.375974
Si Si5 0.378981 0.109166 0.683226
Si Si6 0.599420 0.559089 0.067752
O O1 0.250000 0.250000 0.500000
O O2 0.343205 0.158598 0.710045
O O3 0.191275 0.210213 0.601415
O O4 0.450444 0.237182 0.064700
O O5 0.500000 0.613994 0.500000
O O6 0.463574 0.692943 0.273660
O O7 0.255247 0.636211 0.923566
O O8 0.437826 0.599921 0.120913
O O9 0.500000 0.865520 0.500000
O O10 0.407580 0.786614 0.453276
O O11 0.419427 0.871582 0.610568
O O12 0.248613 0.074056 0.409227
O O13 0.500000 0.082213 0.000000
O O14 0.595441 0.500000 0.009908
O O15 0.500000 0.564233 0.000000
#
# Coordination Sequence:
#
# PCOD9217767 Si02
#       6
#     8   8   8   8   8   8
#     4  12  20  34  57  87 122 164 207 247 290 357
#     4  11  25  41  61  90 121 167 208 247 301 363
#     4  11  24  38  54  84 129 169 199 247 291 357
#     4  12  22  36  57  87 126 167 205 247 288 356
#     4  11  21  39  63  92 120 162 203 251 304 363
#     4  10  23  45  68  93 120 150 201 268 318 359
#
# _framework density 19.100957999999999
#
# number of rings (size 3 to 8) (size 9 to 14) (size 15 to 20)
#    0.000    0.833    5.000    3.000    2.333    3.333 
#    0.000    0.000    0.000    8.000    0.000    0.000 
#    0.000    0.000    0.000    0.000    0.000    0.000 
#
# Total GULP energy -134045.624716 kJ/mol
# GULP energy per Si atom -5585.234363 kJ/mol
# Density = 1.905748 g / cm^3
# Si number density = 19.100958 Si / 1000 Ang^3
#
#
#
# Elastic Constant Matrix: (Units=GPa)
#
#
# Indices 1 2 3 4 5 6 
#
# 1 108.9841 18.9428 39.7019 0.0000 16.4399 0.0000
# 2 18.9428 51.5055 22.8298 0.0000 -2.2464 0.0000
# 3 39.7019 22.8298 122.0496 0.0000 -12.0013 0.0000
# 4 0.0000 0.0000 0.0000 -5.2600 0.0000 0.0818
# 5 16.4399 -2.2464 -12.0013 0.0000 20.2333 0.0000
# 6 0.0000 0.0000 0.0000 0.0818 0.0000 -4.2549
#
#
#
# Elastic Compliance Matrix: (Units=1/GPa)
#
#
# Indices 1 2 3 4 5 6 
#
# 1 0.013978 -0.003409 -0.005377 0.000000 -0.014926 0.000000
# 2 -0.003409 0.022002 -0.002649 0.000000 0.003641 0.000000
# 3 -0.005377 -0.002649 0.011510 0.000000 0.010902 0.000000
# 4 0.000000 0.000000 0.000000 -0.190173 0.000000 -0.003654
# 5 -0.014926 0.003641 0.010902 0.000000 0.068422 0.000000
# 6 0.000000 0.000000 0.000000 -0.003654 0.000000 -0.235094
#
#
# Mechanical properties :
#
#
# Convention : Reuss Voigt Hill
#
# Bulk Modulus (GPa) = 40.61499 49.49870 45.05684
# Shear Modulus (GPa) = -17.96766 15.54799 -1.20983
#
# Velocity S-wave (km/s) = -3.07036 2.85615 -0.79672
# Velocity P-wave (km/s) = 2.95635 6.07020 4.77427
#
# Compressibility (1/GPa) = 0.02462145
#
# Stress axis : x y z
#
# Youngs Moduli (GPa) = 71.53866 45.45066 86.88077
#
# Poissons Ratio (x) = 0.15492 0.46717
# Poissons Ratio (y) = 0.24385 0.23012
# Poissons Ratio (z) = 0.38468 0.12039
#
# Static dielectric constant tensor:
#      x y z
#    x 1.772910 0.000000 0.021970 
#    y 0.000000 1.629700 0.000000 
#    z 0.021970 0.000000 1.680830 
# 
# From -- ./inp_files/91261.got.cif
#   From: 2010.05.17/outbox.cif.g08.bks.cpg/sg12_46_cif.got.tgz:91261.got - 2010.06.03 13:09:07.
