data_PCOD9217498
_publ_section_title
;
Structure prediction by ZEFSAII (Michael W. Deem and Ramdas Pophale) SiO2 
 PCOD9217498
Probable space group: C 2/M
;
_chemical_formula_sum "Si O2"
_cell_formula_units_Z 44
_cell_length_a 19.535244
_cell_length_b 17.812239
_cell_length_c 5.198520
_cell_angle_alpha 90.000000
_cell_angle_beta 97.197263
_cell_angle_gamma 90.000000
_cell_volume 1794.657501
_symmetry_space_group_name_H-M "C 2/M"
_symmetry_group_IT_number 12
_symmetry_cell_setting 'monoclinic'
loop_
_space_group_symop_operation_xyz
x,y,z
-x,y,-z
-x,-y,-z
x,-y,z
1/2+x,1/2+y,z
1/2-x,1/2+y,-z
1/2-x,1/2-y,-z
1/2+x,1/2-y,z
loop_
_atom_site_type_symbol
_atom_site_label
_atom_site_fract_x
_atom_site_fract_y
_atom_site_fract_z
Si Si1 0.937982 0.000000 0.769692
Si Si2 0.633454 0.164360 0.030575
Si Si3 0.771155 0.869139 0.353207
Si Si4 0.000000 0.864189 0.500000
Si Si5 0.190208 0.500000 0.607797
Si Si6 0.920887 0.500000 0.862479
Si Si7 0.194817 0.000000 0.967268
Si Si8 0.385544 0.746323 0.484994
O O1 0.953398 0.922337 0.635621
O O2 0.860782 0.000000 0.835180
O O3 0.000000 0.000000 0.000000
O O4 0.713593 0.168098 0.147147
O O5 0.607184 0.079205 0.043415
O O6 0.596162 0.215211 0.233425
O O7 0.627452 0.191380 0.736634
O O8 0.819238 0.806651 0.498737
O O9 0.727680 0.925463 0.512899
O O10 0.816653 0.925815 0.204020
O O11 0.057041 0.805911 0.623061
O O12 0.112557 0.500000 0.449443
O O13 0.225056 0.500000 0.907850
O O14 0.000000 0.500000 0.000000
#
# Coordination Sequence:
#
# PCOD9217498 Si02
#       8
#     4   8   8   4   4   4   4   8
#     4  11  24  45  72 105 148 212 245 293 360 450
#     4  11  28  47  75 105 140 189 247 304 387 437
#     4  10  23  43  67 109 144 191 241 306 364 449
#     4  11  28  44  70 105 152 192 254 289 362 440
#     4   9  21  40  71 104 142 190 251 297 363 439
#     4  10  25  50  76  98 140 185 252 306 378 454
#     4  11  22  39  78 104 152 198 253 305 366 438
#     4  12  27  45  73 107 148 190 236 313 369 444
#
# _framework density 24.517212000000001
#
# number of rings (size 3 to 8) (size 9 to 14) (size 15 to 20)
#    0.000    1.273    0.000    3.818   15.273    3.636 
#    0.000    0.909    0.000    0.000    0.000    0.000 
#    0.000    0.000    0.000    0.000    0.000    0.000 
#
# Total GULP energy -122895.977510 kJ/mol
# GULP energy per Si atom -5586.180796 kJ/mol
# Density = 2.446141 g / cm^3
# Si number density = 24.517212 Si / 1000 Ang^3
#
#
#
# Elastic Constant Matrix: (Units=GPa)
#
#
# Indices 1 2 3 4 5 6 
#
# 1 118.4798 53.0782 20.4428 0.0000 15.8072 0.0000
# 2 53.0782 145.9524 46.0524 0.0000 -3.6664 0.0000
# 3 20.4428 46.0524 79.3278 0.0000 3.0139 0.0000
# 4 0.0000 0.0000 0.0000 23.5914 0.0000 3.0009
# 5 15.8072 -3.6664 3.0139 0.0000 38.7517 0.0000
# 6 0.0000 0.0000 0.0000 3.0009 0.0000 44.3754
#
#
#
# Elastic Compliance Matrix: (Units=1/GPa)
#
#
# Indices 1 2 3 4 5 6 
#
# 1 0.010926 -0.003995 -0.000313 0.000000 -0.004810 0.000000
# 2 -0.003995 0.009903 -0.004831 0.000000 0.002942 0.000000
# 3 -0.000313 -0.004831 0.015550 0.000000 -0.001539 0.000000
# 4 0.000000 0.000000 0.000000 0.042756 0.000000 -0.002891
# 5 -0.004810 0.002942 -0.001539 0.000000 0.028166 0.000000
# 6 0.000000 0.000000 0.000000 -0.002891 0.000000 0.022731
#
#
# Mechanical properties :
#
#
# Convention : Reuss Voigt Hill
#
# Bulk Modulus (GPa) = 55.25228 64.76743 60.00986
# Shear Modulus (GPa) = 32.39524 36.28947 34.34236
#
# Velocity S-wave (km/s) = 3.63895 3.85146 3.74671
# Velocity P-wave (km/s) = 6.34358 6.80094 6.57624
#
# Compressibility (1/GPa) = 0.01809880
#
# Stress axis : x y z
#
# Youngs Moduli (GPa) = 91.52431 100.98132 64.30973
#
# Poissons Ratio (x) = 0.40346 0.02016
# Poissons Ratio (y) = 0.36568 0.31069
# Poissons Ratio (z) = 0.02869 0.48785
#
# Static dielectric constant tensor:
#      x y z
#    x 1.963210 0.000000 -0.050780 
#    y 0.000000 1.773990 0.000000 
#    z -0.050780 0.000000 2.000480 
# 
# From -- ./inp_files/20498.got.cif
#   From: 2010.05.17/outbox.cif.g08.bks.cpg/sg12_11_cif.got.tgz:20498.got - 2010.06.03 13:09:07.
