data_PCOD9217303
_publ_section_title
;
Structure prediction by ZEFSAII (Michael W. Deem and Ramdas Pophale) SiO2 
 PCOD9217303
Probable space group: C 2/M
;
_chemical_formula_sum "Si O2"
_cell_formula_units_Z 58
_cell_length_a 18.429404
_cell_length_b 19.523598
_cell_length_c 10.840943
_cell_angle_alpha 90.000000
_cell_angle_beta 47.819587
_cell_angle_gamma 90.000000
_cell_volume 2890.523149
_symmetry_space_group_name_H-M "C 2/M"
_symmetry_group_IT_number 12
_symmetry_cell_setting 'monoclinic'
loop_
_space_group_symop_operation_xyz
x,y,z
-x,y,-z
-x,-y,-z
x,-y,z
1/2+x,1/2+y,z
1/2-x,1/2+y,-z
1/2-x,1/2-y,-z
1/2+x,1/2-y,z
loop_
_atom_site_type_symbol
_atom_site_label
_atom_site_fract_x
_atom_site_fract_y
_atom_site_fract_z
Si Si1 0.215509 0.305046 0.439063
Si Si2 0.116909 0.378912 0.987015
Si Si3 0.184691 0.074375 0.220203
Si Si4 0.101981 0.579951 0.718295
Si Si5 0.500000 0.500000 0.000000
Si Si6 0.392134 0.280109 0.060966
Si Si7 0.033445 0.891174 0.186032
Si Si8 0.908156 0.813370 0.513647
O O1 0.250000 0.250000 0.500000
O O2 0.171778 0.371375 0.556817
O O3 0.308974 0.311544 0.243785
O O4 0.131607 0.262177 0.464567
O O5 0.207437 0.411913 0.956534
O O6 0.120717 0.409486 0.843367
O O7 0.127666 0.297571 0.956575
O O8 0.011489 0.396510 0.164847
O O9 0.097601 0.074710 0.220478
O O10 0.167934 0.136793 0.332323
O O11 0.182809 0.000000 0.285042
O O12 0.113169 0.500000 0.675126
O O13 0.490374 0.440283 0.901147
O O14 0.500000 0.279698 0.000000
O O15 0.399731 0.328882 0.936101
O O16 0.940311 0.854122 0.354147
O O17 0.000000 0.809881 0.500000
#
# Coordination Sequence:
#
# PCOD9217303 Si02
#       8
#     8   8   8   8   2   8   8   8
#     4  12  22  42  64  93 128 169 221 274 326 393
#     4  11  20  39  65  92 127 162 224 282 327 381
#     4  11  22  40  65  98 132 168 218 280 331 387
#     4  11  22  38  63  96 130 172 216 276 337 390
#     4  12  24  44  62  92 132 180 208 254 328 410
#     4  12  22  41  65  93 124 170 217 280 323 390
#     4  11  25  41  64  92 131 174 216 259 335 403
#     4  10  23  42  66  96 128 170 221 271 327 390
#
# _framework density 20.065570999999998
#
# number of rings (size 3 to 8) (size 9 to 14) (size 15 to 20)
#    0.000    0.828    5.517    3.310    0.966    1.379 
#    3.724    0.000    0.000    0.414    0.000    0.000 
#    0.000    0.000    0.000    0.000    0.000    0.000 
#
# Total GULP energy -161681.703275 kJ/mol
# GULP energy per Si atom -5575.231147 kJ/mol
# Density = 2.001990 g / cm^3
# Si number density = 20.065571 Si / 1000 Ang^3
#
#
#
# Elastic Constant Matrix: (Units=GPa)
#
#
# Indices 1 2 3 4 5 6 
#
# 1 36.9052 13.5678 25.4166 0.0000 -8.5836 0.0000
# 2 13.5678 157.4464 67.2103 0.0000 -0.6164 0.0000
# 3 25.4166 67.2103 104.9032 0.0000 -11.2065 0.0000
# 4 0.0000 0.0000 0.0000 17.3481 0.0000 8.0592
# 5 -8.5836 -0.6164 -11.2065 0.0000 28.9784 0.0000
# 6 0.0000 0.0000 0.0000 8.0592 0.0000 26.0632
#
#
#
# Elastic Compliance Matrix: (Units=1/GPa)
#
#
# Indices 1 2 3 4 5 6 
#
# 1 0.033908 0.000400 -0.007716 0.000000 0.007068 0.000000
# 2 0.000400 0.008867 -0.005993 0.000000 -0.002011 0.000000
# 3 -0.007716 -0.005993 0.015630 0.000000 0.003631 0.000000
# 4 0.000000 0.000000 0.000000 0.067313 0.000000 -0.020814
# 5 0.007068 -0.002011 0.003631 0.000000 0.037963 0.000000
# 6 0.000000 0.000000 0.000000 -0.020814 0.000000 0.044805
#
#
# Mechanical properties :
#
#
# Convention : Reuss Voigt Hill
#
# Bulk Modulus (GPa) = 31.46080 56.84935 44.15508
# Shear Modulus (GPa) = 20.35006 27.34861 23.84933
#
# Velocity S-wave (km/s) = 3.18807 3.69584 3.45130
# Velocity P-wave (km/s) = 5.40969 6.82683 6.15915
#
# Compressibility (1/GPa) = 0.03178559
#
# Stress axis : x y z
#
# Youngs Moduli (GPa) = 29.49183 112.77491 63.98140
#
# Poissons Ratio (x) = -0.04507 0.49370
# Poissons Ratio (y) = -0.01179 0.38342
# Poissons Ratio (z) = 0.22757 0.67583
#
# Static dielectric constant tensor:
#      x y z
#    x 1.878660 0.000000 -0.178360 
#    y 0.000000 1.701530 0.000000 
#    z -0.178360 0.000000 1.964160 
# 
# From -- ./inp_files/168948.got.cif
#   From: 2010.05.17/outbox.cif.g08.bks.cpg/sg12_85_cif.got.tgz:168948.got - 2010.06.03 13:09:07.
