data_PCOD9217849
_publ_section_title
;
Structure prediction by ZEFSAII (Michael W. Deem and Ramdas Pophale) SiO2 
 PCOD9217849
Probable space group: C 2/M
;
_chemical_formula_sum "Si O2"
_cell_formula_units_Z 32
_cell_length_a 5.292782
_cell_length_b 24.190540
_cell_length_c 11.204697
_cell_angle_alpha 90.000000
_cell_angle_beta 72.994004
_cell_angle_gamma 90.000000
_cell_volume 1371.867300
_symmetry_space_group_name_H-M "C 2/M"
_symmetry_group_IT_number 12
_symmetry_cell_setting 'monoclinic'
loop_
_space_group_symop_operation_xyz
x,y,z
-x,y,-z
-x,-y,-z
x,-y,z
1/2+x,1/2+y,z
1/2-x,1/2+y,-z
1/2-x,1/2-y,-z
1/2+x,1/2-y,z
loop_
_atom_site_type_symbol
_atom_site_label
_atom_site_fract_x
_atom_site_fract_y
_atom_site_fract_z
Si Si1 0.664464 0.063287 0.838434
Si Si2 0.926266 0.284269 0.648045
Si Si3 0.158297 0.131485 0.869410
Si Si4 0.224905 0.563271 0.549177
O O1 0.385994 0.093990 0.900111
O O2 0.656340 0.060706 0.695541
O O3 0.933120 0.094514 0.837190
O O4 0.678796 0.000000 0.878298
O O5 0.696466 0.237880 0.669836
O O6 0.800970 0.330810 0.751213
O O7 0.000000 0.297262 0.500000
O O8 0.000000 0.161205 0.000000
O O9 0.500000 0.594112 0.500000
O O10 0.260669 0.500000 0.496248
O O11 0.000000 0.587756 0.500000
#
# Coordination Sequence:
#
# PCOD9217849 Si02
#       4
#     8   8   8   8
#     4  11  24  41  61  91 137 188 233 275 320 383
#     4  10  23  46  74 101 130 166 212 275 350 416
#     4  12  26  42  66 100 134 177 230 277 330 395
#     4   9  17  31  52  79 113 157 211 267 319 367
#
# _framework density 23.325872
#
# number of rings (size 3 to 8) (size 9 to 14) (size 15 to 20)
#    0.000    1.500    0.000    4.500    0.000   11.000 
#    0.000    0.000    0.000    0.750    0.000    0.000 
#    0.000    0.000    0.000    0.000    0.000    0.000 
#
# Total GULP energy -89413.317030 kJ/mol
# GULP energy per Si atom -5588.332314 kJ/mol
# Density = 2.327278 g / cm^3
# Si number density = 23.325872 Si / 1000 Ang^3
#
#
#
# Elastic Constant Matrix: (Units=GPa)
#
#
# Indices 1 2 3 4 5 6 
#
# 1 185.3644 33.3043 37.2892 0.0000 -5.1441 0.0000
# 2 33.3043 87.8267 47.2212 0.0000 -17.1616 0.0000
# 3 37.2892 47.2212 136.6013 0.0000 -24.0847 0.0000
# 4 0.0000 0.0000 0.0000 168.5986 0.0000 -186.2727
# 5 -5.1441 -17.1616 -24.0847 0.0000 45.4331 0.0000
# 6 0.0000 0.0000 0.0000 -186.2727 0.0000 233.1238
#
#
#
# Elastic Compliance Matrix: (Units=1/GPa)
#
#
# Indices 1 2 3 4 5 6 
#
# 1 0.005918 -0.001762 -0.001109 0.000000 -0.000584 0.000000
# 2 -0.001762 0.014891 -0.004093 0.000000 0.003256 0.000000
# 3 -0.001109 -0.004093 0.009645 0.000000 0.003441 0.000000
# 4 0.000000 0.000000 0.000000 0.050604 0.000000 0.040434
# 5 -0.000584 0.003256 0.003441 0.000000 0.024998 0.000000
# 6 0.000000 0.000000 0.000000 0.040434 0.000000 0.036598
#
#
# Mechanical properties :
#
#
# Convention : Reuss Voigt Hill
#
# Bulk Modulus (GPa) = 60.50910 71.71354 66.11132
# Shear Modulus (GPa) = 30.84695 108.89628 69.87161
#
# Velocity S-wave (km/s) = 3.64048 6.84004 5.47901
# Velocity P-wave (km/s) = 6.60816 9.65362 8.27225
#
# Compressibility (1/GPa) = 0.01652644
#
# Stress axis : x y z
#
# Youngs Moduli (GPa) = 168.96739 67.15586 103.68142
#
# Poissons Ratio (x) = 0.11831 0.11503
# Poissons Ratio (y) = 0.29768 0.42432
# Poissons Ratio (z) = 0.18746 0.27484
#
# Static dielectric constant tensor:
#      x y z
#    x 1.886730 0.000000 -0.005040 
#    y 0.000000 1.901380 0.000000 
#    z -0.005040 0.000000 1.905770 
# 
# From -- ./inp_files/114889.got.cif
#   From: 2010.05.17/outbox.cif.g08.bks.cpg/sg12_58_cif.got.tgz:114889.got - 2010.06.03 13:09:07.
