data_PCOD9217724
_publ_section_title
;
Structure prediction by ZEFSAII (Michael W. Deem and Ramdas Pophale) SiO2 
 PCOD9217724
Probable space group: C 2/M
;
_chemical_formula_sum "Si O2"
_cell_formula_units_Z 56
_cell_length_a 19.506312
_cell_length_b 17.322928
_cell_length_c 14.338973
_cell_angle_alpha 90.000000
_cell_angle_beta 29.750138
_cell_angle_gamma 90.000000
_cell_volume 2404.293865
_symmetry_space_group_name_H-M "C 2/M"
_symmetry_group_IT_number 12
_symmetry_cell_setting 'monoclinic'
loop_
_space_group_symop_operation_xyz
x,y,z
-x,y,-z
-x,-y,-z
x,-y,z
1/2+x,1/2+y,z
1/2-x,1/2+y,-z
1/2-x,1/2-y,-z
1/2+x,1/2-y,z
loop_
_atom_site_type_symbol
_atom_site_label
_atom_site_fract_x
_atom_site_fract_y
_atom_site_fract_z
Si Si1 0.341454 0.087668 0.670169
Si Si2 0.939542 0.911614 0.675809
Si Si3 0.820216 0.682050 0.974095
Si Si4 0.659726 0.710651 0.471508
Si Si5 0.918747 0.626486 0.380961
Si Si6 0.890042 0.415396 0.210937
Si Si7 0.366100 0.715450 0.088343
O O1 0.500000 0.117418 0.500000
O O2 0.336852 0.087548 0.561325
O O3 0.204253 0.135280 0.861911
O O4 0.336459 0.000000 0.711456
O O5 0.783293 0.881239 0.862474
O O6 0.000000 0.913190 0.500000
O O7 0.023163 0.841307 0.625426
O O8 0.952059 0.000000 0.697809
O O9 0.898935 0.726208 0.965596
O O10 0.750000 0.750000 0.000000
O O11 0.922452 0.641586 0.781157
O O12 0.642104 0.786409 0.554971
O O13 0.773021 0.647246 0.358429
O O14 0.727570 0.747402 0.298499
O O15 0.937938 0.582724 0.261184
O O16 0.835256 0.500000 0.248765
O O17 0.000000 0.395813 0.000000
O O18 0.500000 0.707953 0.000000
#
# Coordination Sequence:
#
# PCOD9217724 Si02
#       7
#     8   8   8   8   8   8   8
#     4  10  23  44  70  97 131 178 232 290 345 404
#     4  11  24  41  66  97 131 175 224 279 341 405
#     4  12  23  41  65  97 134 172 226 283 338 408
#     4  11  21  41  65  90 131 171 225 274 330 409
#     4  11  23  39  68  94 125 172 224 274 333 410
#     4  11  24  40  61  94 133 173 217 273 341 409
#     4  11  24  41  68  99 133 179 229 283 347 413
#
# _framework density 23.291661999999999
#
# number of rings (size 3 to 8) (size 9 to 14) (size 15 to 20)
#    0.000    1.000    2.857    4.286    2.000    2.571 
#    0.000    0.714    0.000    0.429    0.000    0.000 
#    0.000    1.143    0.000    0.000    0.000    0.000 
#
# Total GULP energy -156083.405367 kJ/mol
# GULP energy per Si atom -5574.407335 kJ/mol
# Density = 2.323865 g / cm^3
# Si number density = 23.291662 Si / 1000 Ang^3
#
#
#
# Elastic Constant Matrix: (Units=GPa)
#
#
# Indices 1 2 3 4 5 6 
#
# 1 49.3772 26.6852 -1.8673 -0.0003 1.3664 -0.0001
# 2 26.6852 133.5536 38.4792 -0.0001 -15.2773 0.0000
# 3 -1.8673 38.4792 96.2254 -0.0004 9.4535 0.0000
# 4 -0.0003 -0.0001 -0.0004 23.4795 0.0003 7.3799
# 5 1.3664 -15.2773 9.4535 0.0003 33.8997 0.0000
# 6 -0.0001 0.0000 0.0000 7.3799 0.0000 25.9048
#
#
#
# Elastic Compliance Matrix: (Units=1/GPa)
#
#
# Indices 1 2 3 4 5 6 
#
# 1 0.023935 -0.006328 0.003465 0.000000 -0.004783 0.000000
# 2 -0.006328 0.011006 -0.005178 0.000000 0.006659 0.000000
# 3 0.003465 -0.005178 0.013133 0.000000 -0.006135 0.000000
# 4 0.000000 0.000000 0.000000 0.046779 -0.000001 -0.013327
# 5 -0.004783 0.006659 -0.006135 -0.000001 0.034403 0.000000
# 6 0.000000 0.000000 0.000000 -0.013327 0.000000 0.042400
#
#
# Mechanical properties :
#
#
# Convention : Reuss Voigt Hill
#
# Bulk Modulus (GPa) = 31.25802 45.08336 38.17069
# Shear Modulus (GPa) = 25.20134 31.04740 28.12437
#
# Velocity S-wave (km/s) = 3.29293 3.65497 3.47866
# Velocity P-wave (km/s) = 5.28273 6.09998 5.70600
#
# Compressibility (1/GPa) = 0.03199179
#
# Stress axis : x y z
#
# Youngs Moduli (GPa) = 41.77903 90.86301 76.14479
#
# Poissons Ratio (x) = 0.57497 -0.26383
# Poissons Ratio (y) = 0.26437 0.39427
# Poissons Ratio (z) = -0.14476 0.47049
#
# Static dielectric constant tensor:
#      x y z
#    x 2.082630 0.000000 0.030400 
#    y 0.000000 1.929340 0.000000 
#    z 0.030400 0.000000 1.951650 
# 
# From -- ./inp_files/234626.got.cif
#   From: 2010.05.17/outbox.cif.g08.bks.cpg/sg12_118_cif.got.tgz:234626.got - 2010.06.03 13:09:07.
