data_PCOD9217990
_publ_section_title
;
Structure prediction by ZEFSAII (Michael W. Deem and Ramdas Pophale) SiO2 
 PCOD9217990
Probable space group: C 2/M
;
_chemical_formula_sum "Si O2"
_cell_formula_units_Z 36
_cell_length_a 9.805925
_cell_length_b 9.245571
_cell_length_c 19.372483
_cell_angle_alpha 90.000000
_cell_angle_beta 68.424539
_cell_angle_gamma 90.000000
_cell_volume 1633.276637
_symmetry_space_group_name_H-M "C 2/M"
_symmetry_group_IT_number 12
_symmetry_cell_setting 'monoclinic'
loop_
_space_group_symop_operation_xyz
x,y,z
-x,y,-z
-x,-y,-z
x,-y,z
1/2+x,1/2+y,z
1/2-x,1/2+y,-z
1/2-x,1/2-y,-z
1/2+x,1/2-y,z
loop_
_atom_site_type_symbol
_atom_site_label
_atom_site_fract_x
_atom_site_fract_y
_atom_site_fract_z
Si Si1 0.687947 0.000000 0.022326
Si Si2 0.405923 0.827402 0.697413
Si Si3 0.639849 0.275242 0.934266
Si Si4 0.111593 0.327303 0.785958
Si Si5 0.397434 0.332766 0.451775
O O1 0.664742 0.124459 0.967668
O O2 0.723629 0.124589 0.073948
O O3 0.253462 0.742053 0.722801
O O4 0.475736 0.805086 0.760245
O O5 0.517674 0.756886 0.622450
O O6 0.388961 0.000000 0.689212
O O7 0.603380 0.249753 0.861637
O O8 0.500000 0.343273 0.000000
O O9 0.130001 0.500000 0.793193
O O10 0.500000 0.336594 0.500000
O O11 0.369456 0.500000 0.435617
O O12 0.250000 0.250000 0.500000
#
# Coordination Sequence:
#
# PCOD9217990 Si02
#       5
#     4   8   8   8   8
#     4  10  24  40  64  90 122 160 226 268 334 382
#     4  11  26  45  67 100 133 174 219 264 327 390
#     4  11  24  41  64  90 124 168 220 274 326 388
#     4  11  26  43  65  93 136 173 215 275 332 386
#     4  11  24  44  72 102 137 173 215 265 318 384
#
# _framework density 22.041581000000001
#
# number of rings (size 3 to 8) (size 9 to 14) (size 15 to 20)
#    0.000    1.111    1.111    3.333    7.778    8.889 
#    0.000    0.000    0.000    0.000    0.000    0.000 
#    0.000    0.000    0.000    0.000    0.000    0.000 
#
# Total GULP energy -100262.733621 kJ/mol
# GULP energy per Si atom -5570.151868 kJ/mol
# Density = 2.199141 g / cm^3
# Si number density = 22.041581 Si / 1000 Ang^3
#
#
#
# Elastic Constant Matrix: (Units=GPa)
#
#
# Indices 1 2 3 4 5 6 
#
# 1 40.6430 2.3357 -7.6841 0.0000 -5.7050 0.0000
# 2 2.3357 106.3912 2.7488 0.0000 6.3800 0.0000
# 3 -7.6841 2.7488 93.6908 0.0000 0.5876 0.0000
# 4 0.0000 0.0000 0.0000 68.3162 0.0000 40.4781
# 5 -5.7050 6.3800 0.5876 0.0000 38.4490 0.0000
# 6 0.0000 0.0000 0.0000 40.4781 0.0000 35.3582
#
#
#
# Elastic Compliance Matrix: (Units=1/GPa)
#
#
# Indices 1 2 3 4 5 6 
#
# 1 0.025599 -0.000851 0.002100 0.000000 0.003907 0.000000
# 2 -0.000851 0.009529 -0.000339 0.000000 -0.001702 0.000000
# 3 0.002100 -0.000339 0.010854 0.000000 0.000202 0.000000
# 4 0.000000 0.000000 0.000000 0.045502 0.000000 -0.052091
# 5 0.003907 -0.001702 0.000202 0.000000 0.026868 0.000000
# 6 0.000000 0.000000 0.000000 -0.052091 0.000000 0.087916
#
#
# Mechanical properties :
#
#
# Convention : Reuss Voigt Hill
#
# Bulk Modulus (GPa) = 20.91899 26.16953 23.54426
# Shear Modulus (GPa) = 22.68798 44.64633 33.66716
#
# Velocity S-wave (km/s) = 3.21179 4.50549 3.91249
# Velocity P-wave (km/s) = 4.82343 6.24216 5.57808
#
# Compressibility (1/GPa) = 0.04780345
#
# Stress axis : x y z
#
# Youngs Moduli (GPa) = 39.06422 104.94536 92.12934
#
# Poissons Ratio (x) = 0.08926 -0.19347
# Poissons Ratio (y) = 0.03323 0.03120
# Poissons Ratio (z) = -0.08203 0.03554
#
# Static dielectric constant tensor:
#      x y z
#    x 1.906120 0.000000 -0.063310 
#    y 0.000000 1.759330 0.000000 
#    z -0.063310 0.000000 1.810220 
# 
# From -- ./inp_files/260909.got.cif
#   From: 2010.05.17/outbox.cif.g08.bks.cpg/sg12_131_cif.got.tgz:260909.got - 2010.06.03 13:09:07.
