data_PCOD9217444
_publ_section_title
;
Structure prediction by ZEFSAII (Michael W. Deem and Ramdas Pophale) SiO2 
 PCOD9217444
Probable space group: C 2/M
;
_chemical_formula_sum "Si O2"
_cell_formula_units_Z 48
_cell_length_a 23.872433
_cell_length_b 18.251546
_cell_length_c 10.868713
_cell_angle_alpha 90.000000
_cell_angle_beta 152.818809
_cell_angle_gamma 90.000000
_cell_volume 2163.247400
_symmetry_space_group_name_H-M "C 2/M"
_symmetry_group_IT_number 12
_symmetry_cell_setting 'monoclinic'
loop_
_space_group_symop_operation_xyz
x,y,z
-x,y,-z
-x,-y,-z
x,-y,z
1/2+x,1/2+y,z
1/2-x,1/2+y,-z
1/2-x,1/2-y,-z
1/2+x,1/2-y,z
loop_
_atom_site_type_symbol
_atom_site_label
_atom_site_fract_x
_atom_site_fract_y
_atom_site_fract_z
Si Si1 0.022031 0.822962 0.757008
Si Si2 0.347442 0.585259 0.594364
Si Si3 0.274222 0.690616 0.652966
Si Si4 0.337521 0.915957 0.973682
Si Si5 0.082098 0.326445 0.479771
Si Si6 0.290826 0.413007 0.032985
O O1 0.940675 0.868371 0.694066
O O2 0.943343 0.758602 0.541141
O O3 0.129754 0.786659 0.052893
O O4 0.091024 0.875517 0.796248
O O5 0.381080 0.500000 0.663551
O O6 0.330499 0.620284 0.694537
O O7 0.218329 0.592543 0.270317
O O8 0.250000 0.750000 0.500000
O O9 0.148141 0.673153 0.476027
O O10 0.451921 0.865486 0.223646
O O11 0.227874 0.904529 0.857635
O O12 0.377734 0.000000 0.068958
O O13 0.174374 0.370523 0.747517
O O14 0.288842 0.500000 0.000871
#
# Coordination Sequence:
#
# PCOD9217444 Si02
#       6
#     8   8   8   8   8   8
#     4  11  24  40  65  96 129 166 211 271 323 384
#     4  11  24  41  64  95 128 171 219 260 318 394
#     4  11  23  41  63  89 128 171 206 263 329 380
#     4  10  23  43  65  91 131 172 213 268 323 383
#     4  11  23  39  67  96 127 165 218 269 323 385
#     4  10  23  45  68  93 130 175 219 267 326 388
#
# _framework density 22.188863000000001
#
# number of rings (size 3 to 8) (size 9 to 14) (size 15 to 20)
#    0.000    1.333    1.667    3.000    2.333    9.333 
#    3.000    4.167    0.000    0.000    0.000    0.000 
#    0.000    0.000    0.000    0.000    0.000    0.000 
#
# Total GULP energy -134307.444560 kJ/mol
# GULP energy per Si atom -5596.143523 kJ/mol
# Density = 2.213836 g / cm^3
# Si number density = 22.188863 Si / 1000 Ang^3
#
#
#
# Elastic Constant Matrix: (Units=GPa)
#
#
# Indices 1 2 3 4 5 6 
#
# 1 93.6324 34.4241 21.5119 0.0000 12.7143 0.0000
# 2 34.4241 131.0705 44.9914 0.0000 10.7786 0.0000
# 3 21.5119 44.9914 42.1440 0.0000 11.3040 0.0000
# 4 0.0000 0.0000 0.0000 27.6815 0.0000 6.6047
# 5 12.7143 10.7786 11.3040 0.0000 42.0941 0.0000
# 6 0.0000 0.0000 0.0000 6.6047 0.0000 39.1180
#
#
#
# Elastic Compliance Matrix: (Units=1/GPa)
#
#
# Indices 1 2 3 4 5 6 
#
# 1 0.012536 -0.001765 -0.003901 0.000000 -0.002287 0.000000
# 2 -0.001765 0.012297 -0.012420 0.000000 0.000720 0.000000
# 3 -0.003901 -0.012420 0.040744 0.000000 -0.006583 0.000000
# 4 0.000000 0.000000 0.000000 0.037642 0.000000 -0.006355
# 5 -0.002287 0.000720 -0.006583 0.000000 0.026031 0.000000
# 6 0.000000 0.000000 0.000000 -0.006355 0.000000 0.026637
#
#
# Mechanical properties :
#
#
# Convention : Reuss Voigt Hill
#
# Bulk Modulus (GPa) = 34.00788 52.07795 43.04292
# Shear Modulus (GPa) = 24.76964 32.84001 28.80482
#
# Velocity S-wave (km/s) = 3.34475 3.85128 3.60692
# Velocity P-wave (km/s) = 5.50239 6.58010 6.06523
#
# Compressibility (1/GPa) = 0.02940495
#
# Stress axis : x y z
#
# Youngs Moduli (GPa) = 79.77145 81.31900 24.54340
#
# Poissons Ratio (x) = 0.14356 0.09574
# Poissons Ratio (y) = 0.14082 0.30483
# Poissons Ratio (z) = 0.31117 1.00998
#
# Static dielectric constant tensor:
#      x y z
#    x 1.784000 0.000000 -0.015260 
#    y 0.000000 1.810910 0.000000 
#    z -0.015260 0.000000 1.816860 
# 
# From -- ./inp_files/177426.got.cif
#   From: 2010.05.17/outbox.cif.g08.bks.cpg/sg12_89_cif.got.tgz:177426.got - 2010.06.03 13:09:07.
