data_PCOD9217371
_publ_section_title
;
Structure prediction by ZEFSAII (Michael W. Deem and Ramdas Pophale) SiO2 
 PCOD9217371
Probable space group: C 2/M
;
_chemical_formula_sum "Si O2"
_cell_formula_units_Z 36
_cell_length_a 30.617912
_cell_length_b 7.691106
_cell_length_c 9.470213
_cell_angle_alpha 90.000000
_cell_angle_beta 140.660055
_cell_angle_gamma 90.000000
_cell_volume 1413.704752
_symmetry_space_group_name_H-M "C 2/M"
_symmetry_group_IT_number 12
_symmetry_cell_setting 'monoclinic'
loop_
_space_group_symop_operation_xyz
x,y,z
-x,y,-z
-x,-y,-z
x,-y,z
1/2+x,1/2+y,z
1/2-x,1/2+y,-z
1/2-x,1/2-y,-z
1/2+x,1/2-y,z
loop_
_atom_site_type_symbol
_atom_site_label
_atom_site_fract_x
_atom_site_fract_y
_atom_site_fract_z
Si Si1 0.071820 0.790841 0.610164
Si Si2 0.636506 0.000000 0.119340
Si Si3 0.855946 0.301796 0.492012
Si Si4 0.202275 0.205280 0.133206
Si Si5 0.564867 0.313471 0.060875
O O1 0.091174 0.723643 0.503167
O O2 0.000000 0.730614 0.500000
O O3 0.069208 0.000000 0.595221
O O4 0.138904 0.745410 0.871729
O O5 0.693826 0.155695 0.235675
O O6 0.578041 0.153293 0.994608
O O7 0.861113 0.500000 0.561726
O O8 0.777235 0.273336 0.250000
O O9 0.874356 0.186831 0.671706
O O10 0.196314 0.000000 0.155638
O O11 0.557980 0.500000 0.969837
O O12 0.500000 0.287549 0.000000
#
# Coordination Sequence:
#
# PCOD9217371 Si02
#       5
#     8   4   8   8   8
#     4  10  23  42  70  99 134 176 224 279 340 404
#     4  12  25  44  73  98 137 180 232 268 339 399
#     4  11  24  44  69 100 136 179 226 277 342 400
#     4  10  25  45  66 104 139 177 222 283 335 401
#     4  11  26  46  69  99 137 181 223 284 334 401
#
# _framework density 25.465008999999998
#
# number of rings (size 3 to 8) (size 9 to 14) (size 15 to 20)
#    0.000    1.333    1.111    2.333    7.778    1.333 
#    0.000    0.000    0.000    0.000    0.000    0.000 
#    0.000    0.000    0.000    0.000    0.000    0.000 
#
# Total GULP energy -100251.952906 kJ/mol
# GULP energy per Si atom -5569.552939 kJ/mol
# Density = 2.540705 g / cm^3
# Si number density = 25.465009 Si / 1000 Ang^3
#
#
#
# Elastic Constant Matrix: (Units=GPa)
#
#
# Indices 1 2 3 4 5 6 
#
# 1 148.9001 47.3131 17.2237 0.0000 33.8609 0.0000
# 2 47.3131 124.3300 13.2354 0.0000 -13.4381 0.0000
# 3 17.2237 13.2354 95.9352 0.0000 21.6832 0.0000
# 4 0.0000 0.0000 0.0000 -51.7074 0.0000 -76.1315
# 5 33.8609 -13.4381 21.6832 0.0000 32.0139 0.0000
# 6 0.0000 0.0000 0.0000 -76.1315 0.0000 -107.2314
#
#
#
# Elastic Compliance Matrix: (Units=1/GPa)
#
#
# Indices 1 2 3 4 5 6 
#
# 1 0.012935 -0.007251 0.002903 0.000000 -0.018691 0.000000
# 2 -0.007251 0.012950 -0.004070 0.000000 0.015862 0.000000
# 3 0.002903 -0.004070 0.013631 0.000000 -0.014011 0.000000
# 4 0.000000 0.000000 0.000000 0.426626 0.000000 -0.302893
# 5 -0.018691 0.015862 -0.014011 0.000000 0.067153 0.000000
# 6 0.000000 0.000000 0.000000 -0.302893 0.000000 0.205721
#
#
# Mechanical properties :
#
#
# Convention : Reuss Voigt Hill
#
# Bulk Modulus (GPa) = 44.09491 58.30108 51.19800
# Shear Modulus (GPa) = 6.54954 -5.95878 0.29538
#
# Velocity S-wave (km/s) = 1.60548 -1.53136 0.34095
# Velocity P-wave (km/s) = 4.55963 4.45169 4.50598
#
# Compressibility (1/GPa) = 0.02267836
#
# Stress axis : x y z
#
# Youngs Moduli (GPa) = 77.31145 77.21802 73.36336
#
# Poissons Ratio (x) = 0.55994 -0.21295
# Poissons Ratio (y) = 0.56062 0.29859
# Poissons Ratio (z) = -0.22441 0.31428
#
# Static dielectric constant tensor:
#      x y z
#    x 2.057920 0.000000 -0.056810 
#    y 0.000000 2.004540 0.000000 
#    z -0.056810 0.000000 2.143710 
# 
# From -- ./inp_files/108394.got.cif
#   From: 2010.05.17/outbox.cif.g08.bks.cpg/sg12_55_cif.got.tgz:108394.got - 2010.06.03 13:09:07.
