data_PCOD9217260
_publ_section_title
;
Structure prediction by ZEFSAII (Michael W. Deem and Ramdas Pophale) SiO2 
 PCOD9217260
Probable space group: C 2/M
;
_chemical_formula_sum "Si O2"
_cell_formula_units_Z 64
_cell_length_a 15.000951
_cell_length_b 9.175796
_cell_length_c 26.796633
_cell_angle_alpha 90.000000
_cell_angle_beta 54.065995
_cell_angle_gamma 90.000000
_cell_volume 2986.506167
_symmetry_space_group_name_H-M "C 2/M"
_symmetry_group_IT_number 12
_symmetry_cell_setting 'monoclinic'
loop_
_space_group_symop_operation_xyz
x,y,z
-x,y,-z
-x,-y,-z
x,-y,z
1/2+x,1/2+y,z
1/2-x,1/2+y,-z
1/2-x,1/2-y,-z
1/2+x,1/2-y,z
loop_
_atom_site_type_symbol
_atom_site_label
_atom_site_fract_x
_atom_site_fract_y
_atom_site_fract_z
Si Si1 0.742362 0.671887 0.949466
Si Si2 0.496732 0.170024 0.850077
Si Si3 0.590378 0.333290 0.515807
Si Si4 0.251102 0.664961 0.398017
Si Si5 0.549117 0.675743 0.738083
Si Si6 0.831483 0.324905 0.768561
Si Si7 0.426738 0.164012 0.632149
Si Si8 0.361099 0.173240 0.106666
O O1 0.720361 0.500000 0.962073
O O2 0.865970 0.688541 0.886480
O O3 0.656590 0.745829 0.939776
O O4 0.750000 0.750000 0.000000
O O5 0.563763 0.273266 0.790459
O O6 0.528523 0.197743 0.897385
O O7 0.523968 0.000000 0.830976
O O8 0.500000 0.326647 0.500000
O O9 0.613451 0.500000 0.518202
O O10 0.699507 0.255381 0.459872
O O11 0.530026 0.261503 0.582877
O O12 0.273449 0.500000 0.407094
O O13 0.355655 0.718279 0.332199
O O14 0.154154 0.659633 0.388502
O O15 0.536883 0.500000 0.740427
O O16 0.442061 0.764282 0.757055
O O17 0.818015 0.500000 0.779495
O O18 0.852844 0.291439 0.703333
O O19 0.732363 0.237963 0.826100
O O20 0.466525 0.000000 0.629338
O O21 0.347517 0.000000 0.103611
#
# Coordination Sequence:
#
# PCOD9217260 Si02
#       8
#     8   8   8   8   8   8   8   8
#     4  11  24  44  68  96 133 173 209 255 305 358
#     4  10  23  42  65  93 129 168 207 254 312 365
#     4   9  17  29  48  75 105 138 182 240 301 361
#     4   9  18  33  52  76 105 142 190 241 297 362
#     4  11  22  36  58  86 117 155 202 252 304 365
#     4  11  22  37  57  84 119 157 198 249 311 367
#     4   9  18  33  53  75 104 145 190 239 298 364
#     4  11  23  41  66  96 127 166 211 257 308 365
#
# _framework density 21.429722999999999
#
# number of rings (size 3 to 8) (size 9 to 14) (size 15 to 20)
#    0.000    1.875    1.250    2.625    0.000    6.500 
#    0.000    5.625    0.000    0.000    0.000    0.000 
#    0.000    0.000    0.000    0.000    0.000    0.000 
#
# Total GULP energy -178768.474521 kJ/mol
# GULP energy per Si atom -5586.514829 kJ/mol
# Density = 2.138095 g / cm^3
# Si number density = 21.429723 Si / 1000 Ang^3
#
#
#
# Elastic Constant Matrix: (Units=GPa)
#
#
# Indices 1 2 3 4 5 6 
#
# 1 60.7272 10.8234 -9.5897 0.0000 12.8794 0.0000
# 2 10.8234 59.8072 24.5243 0.0000 9.6126 0.0000
# 3 -9.5897 24.5243 58.7338 0.0000 14.0131 0.0000
# 4 0.0000 0.0000 0.0000 32.4357 0.0000 7.0553
# 5 12.8794 9.6126 14.0131 0.0000 34.2862 0.0000
# 6 0.0000 0.0000 0.0000 7.0553 0.0000 20.1006
#
#
#
# Elastic Compliance Matrix: (Units=1/GPa)
#
#
# Indices 1 2 3 4 5 6 
#
# 1 0.020706 -0.005474 0.007929 0.000000 -0.009484 0.000000
# 2 -0.005474 0.021810 -0.010008 0.000000 0.000032 0.000000
# 3 0.007929 -0.010008 0.024976 0.000000 -0.010381 0.000000
# 4 0.000000 0.000000 0.000000 0.033379 0.000000 -0.011716
# 5 -0.009484 0.000032 -0.010381 0.000000 0.036963 0.000000
# 6 0.000000 0.000000 0.000000 -0.011716 0.000000 0.053862
#
#
# Mechanical properties :
#
#
# Convention : Reuss Voigt Hill
#
# Bulk Modulus (GPa) = 19.08895 25.64269 22.36582
# Shear Modulus (GPa) = 22.29512 27.59851 24.94681
#
# Velocity S-wave (km/s) = 3.22900 3.59257 3.41562
# Velocity P-wave (km/s) = 4.77796 5.40377 5.10047
#
# Compressibility (1/GPa) = 0.05238633
#
# Stress axis : x y z
#
# Youngs Moduli (GPa) = 48.29414 45.85084 40.03798
#
# Poissons Ratio (x) = 0.25101 -0.31748
# Poissons Ratio (y) = 0.26438 0.40071
# Poissons Ratio (z) = -0.38295 0.45888
#
# Static dielectric constant tensor:
#      x y z
#    x 1.841410 0.000000 0.043900 
#    y 0.000000 1.728460 0.000000 
#    z 0.043900 0.000000 1.794510 
# 
# From -- ./inp_files/375421.got.cif
#   From: 2010.05.17/outbox.cif.g08.bks.cpg/sg12_188_cif.got.tgz:375421.got - 2010.06.03 13:09:07.
