data_PCOD9217163
_publ_section_title
;
Structure prediction by ZEFSAII (Michael W. Deem and Ramdas Pophale) SiO2 
 PCOD9217163
Probable space group: C 2/M
;
_chemical_formula_sum "Si O2"
_cell_formula_units_Z 56
_cell_length_a 15.071183
_cell_length_b 8.245598
_cell_length_c 26.630369
_cell_angle_alpha 90.000000
_cell_angle_beta 134.918727
_cell_angle_gamma 90.000000
_cell_volume 2343.402306
_symmetry_space_group_name_H-M "C 2/M"
_symmetry_group_IT_number 12
_symmetry_cell_setting 'monoclinic'
loop_
_space_group_symop_operation_xyz
x,y,z
-x,y,-z
-x,-y,-z
x,-y,z
1/2+x,1/2+y,z
1/2-x,1/2+y,-z
1/2-x,1/2-y,-z
1/2+x,1/2-y,z
loop_
_atom_site_type_symbol
_atom_site_label
_atom_site_fract_x
_atom_site_fract_y
_atom_site_fract_z
Si Si1 0.310007 0.301296 0.448244
Si Si2 0.570374 0.693264 0.603117
Si Si3 0.378613 0.689422 0.026319
Si Si4 0.024995 0.811868 0.232364
Si Si5 0.739157 0.806275 0.117284
Si Si6 0.369426 0.811580 0.824887
Si Si7 0.459521 0.188190 0.651206
O O1 0.305960 0.500000 0.447803
O O2 0.329140 0.248587 0.397648
O O3 0.435073 0.250947 0.527318
O O4 0.178348 0.239442 0.416324
O O5 0.573452 0.500000 0.600912
O O6 0.567812 0.735632 0.660462
O O7 0.399290 0.500000 0.045824
O O8 0.353960 0.716939 0.957461
O O9 0.250000 0.750000 0.000000
O O10 0.495584 0.789329 0.094010
O O11 0.882009 0.783469 0.157005
O O12 0.117369 0.772489 0.223631
O O13 0.034584 0.709786 0.286844
O O14 0.035413 0.000000 0.250663
O O15 0.723579 0.750926 0.168697
O O16 0.712864 0.000000 0.105281
O O17 0.343453 0.000000 0.804843
O O18 0.460802 0.000000 0.639168
#
# Coordination Sequence:
#
# PCOD9217163 Si02
#       7
#     8   8   8   8   8   8   8
#     4   8  17  34  58  84 113 149 187 231 284 343
#     4   9  17  35  60  84 110 147 193 232 277 344
#     4  12  23  37  62  92 122 153 189 237 291 344
#     4  11  24  42  60  81 113 157 200 238 279 341
#     4  10  23  42  63  86 116 152 193 239 294 349
#     4  11  23  41  64  89 116 150 190 241 297 348
#     4  11  22  36  55  83 117 150 187 236 291 338
#
# _framework density 23.896878000000001
#
# number of rings (size 3 to 8) (size 9 to 14) (size 15 to 20)
#    0.000    1.714    1.429    4.286    0.000    4.571 
#    0.000    9.286    0.000    0.000    0.000    0.000 
#    0.000    0.000    0.000    0.000    0.000    0.000 
#
# Total GULP energy -156566.722056 kJ/mol
# GULP energy per Si atom -5591.668645 kJ/mol
# Density = 2.384249 g / cm^3
# Si number density = 23.896878 Si / 1000 Ang^3
#
#
#
# Elastic Constant Matrix: (Units=GPa)
#
#
# Indices 1 2 3 4 5 6 
#
# 1 127.7513 9.4124 7.9230 0.0000 -35.2761 0.0000
# 2 9.4124 21.8853 -8.7365 0.0000 -1.9534 0.0000
# 3 7.9230 -8.7365 60.0553 0.0000 -20.8776 0.0000
# 4 0.0000 0.0000 0.0000 23.0185 0.0000 -8.0451
# 5 -35.2761 -1.9534 -20.8776 0.0000 40.8461 0.0000
# 6 0.0000 0.0000 0.0000 -8.0451 0.0000 22.3787
#
#
#
# Elastic Compliance Matrix: (Units=1/GPa)
#
#
# Indices 1 2 3 4 5 6 
#
# 1 0.010688 -0.003083 0.001580 0.000000 0.009891 0.000000
# 2 -0.003083 0.051209 0.009464 0.000000 0.004623 0.000000
# 3 0.001580 0.009464 0.022438 0.000000 0.013286 0.000000
# 4 0.000000 0.000000 0.000000 0.049686 0.000000 0.017862
# 5 0.009891 0.004623 0.013286 0.000000 0.040036 0.000000
# 6 0.000000 0.000000 0.000000 0.017862 0.000000 0.051107
#
#
# Mechanical properties :
#
#
# Convention : Reuss Voigt Hill
#
# Bulk Modulus (GPa) = 9.97451 25.20998 17.59224
# Shear Modulus (GPa) = 20.60474 30.65486 25.62980
#
# Velocity S-wave (km/s) = 2.93957 3.58550 3.27848
# Velocity P-wave (km/s) = 3.96289 5.26436 4.65929
#
# Compressibility (1/GPa) = 0.10025560
#
# Stress axis : x y z
#
# Youngs Moduli (GPa) = 93.56305 19.52775 44.56678
#
# Poissons Ratio (x) = 0.06021 -0.07040
# Poissons Ratio (y) = 0.28848 -0.42176
# Poissons Ratio (z) = -0.14781 -0.18480
#
# Static dielectric constant tensor:
#      x y z
#    x 1.921170 0.000000 -0.017820 
#    y 0.000000 1.837260 0.000000 
#    z -0.017820 0.000000 1.974790 
# 
# From -- ./inp_files/339100.got.cif
#   From: 2010.05.17/outbox.cif.g08.bks.cpg/sg12_170_cif.got.tgz:339100.got - 2010.06.03 13:09:07.
