data_PCOD9217582
_publ_section_title
;
Structure prediction by ZEFSAII (Michael W. Deem and Ramdas Pophale) SiO2 
 PCOD9217582
Probable space group: C 2/M
;
_chemical_formula_sum "Si O2"
_cell_formula_units_Z 44
_cell_length_a 15.591098
_cell_length_b 7.686982
_cell_length_c 17.400759
_cell_angle_alpha 90.000000
_cell_angle_beta 124.854155
_cell_angle_gamma 90.000000
_cell_volume 1711.343747
_symmetry_space_group_name_H-M "C 2/M"
_symmetry_group_IT_number 12
_symmetry_cell_setting 'monoclinic'
loop_
_space_group_symop_operation_xyz
x,y,z
-x,y,-z
-x,-y,-z
x,-y,z
1/2+x,1/2+y,z
1/2-x,1/2+y,-z
1/2-x,1/2-y,-z
1/2+x,1/2-y,z
loop_
_atom_site_type_symbol
_atom_site_label
_atom_site_fract_x
_atom_site_fract_y
_atom_site_fract_z
Si Si1 0.512357 0.206390 0.630510
Si Si2 0.832383 0.210052 0.757041
Si Si3 0.833115 0.294583 0.438754
Si Si4 0.547442 0.698988 0.939417
Si Si5 0.317984 0.000000 0.055246
Si Si6 0.190760 0.189988 0.827310
O O1 0.589847 0.219997 0.595977
O O2 0.400198 0.277170 0.544315
O O3 0.574771 0.296443 0.730407
O O4 0.504471 0.000000 0.643517
O O5 0.776910 0.272930 0.650195
O O6 0.954121 0.240799 0.831805
O O7 0.770883 0.291020 0.797519
O O8 0.817231 0.000000 0.753979
O O9 0.820931 0.500000 0.448556
O O10 0.584384 0.500000 0.945854
O O11 0.630633 0.846613 0.972469
O O12 0.500000 0.702213 0.000000
O O13 0.296183 0.849073 0.109820
O O14 0.200045 0.000000 0.869147
#
# Coordination Sequence:
#
# PCOD9217582 Si02
#       6
#     8   8   8   8   4   8
#     4   8  12  25  45  79 117 156 190 244 292 335
#     4   9  17  36  61  91 120 156 197 255 295 347
#     4   7  11  21  48  80 114 149 197 240 292 333
#     4  10  23  43  70  91 116 153 202 243 300 368
#     4  12  23  42  62  91 123 163 190 243 308 355
#     4  11  21  34  59  90 125 159 201 242 296 349
#
# _framework density 25.710792999999999
#
# number of rings (size 3 to 8) (size 9 to 14) (size 15 to 20)
#    0.000    2.727    1.818    3.000    1.273    0.000 
#    0.000    8.182    0.000    1.091    0.000    0.000 
#    0.000    0.000    0.000    0.000    0.000    0.000 
#
# Total GULP energy -122649.122378 kJ/mol
# GULP energy per Si atom -5574.960108 kJ/mol
# Density = 2.565227 g / cm^3
# Si number density = 25.710793 Si / 1000 Ang^3
#
#
#
# Elastic Constant Matrix: (Units=GPa)
#
#
# Indices 1 2 3 4 5 6 
#
# 1 21.9178 56.6738 86.4884 0.0000 -49.7988 0.0000
# 2 56.6738 172.2371 50.0519 0.0000 19.6315 0.0000
# 3 86.4884 50.0519 86.1652 0.0000 80.5257 0.0000
# 4 0.0000 0.0000 0.0000 34.7619 0.0000 -3.3314
# 5 -49.7988 19.6315 80.5257 0.0000 -0.6530 0.0000
# 6 0.0000 0.0000 0.0000 -3.3314 0.0000 40.5448
#
#
#
# Elastic Compliance Matrix: (Units=1/GPa)
#
#
# Indices 1 2 3 4 5 6 
#
# 1 0.007071 -0.002458 0.004881 0.000000 -0.011290 0.000000
# 2 -0.002458 0.007396 -0.003311 0.000000 0.001586 0.000000
# 3 0.004881 -0.003311 0.003867 0.000000 0.005096 0.000000
# 4 0.000000 0.000000 0.000000 0.028995 0.000000 0.002382
# 5 -0.011290 0.001586 0.005096 0.000000 0.005687 0.000000
# 6 0.000000 0.000000 0.000000 0.002382 0.000000 0.024860
#
#
# Mechanical properties :
#
#
# Convention : Reuss Voigt Hill
#
# Bulk Modulus (GPa) = 60.39358 74.08313 67.23836
# Shear Modulus (GPa) = 58.70485 20.73781 39.72133
#
# Velocity S-wave (km/s) = 4.78355 2.84312 3.93482
# Velocity P-wave (km/s) = 7.35189 6.29717 6.84488
#
# Compressibility (1/GPa) = 0.01655805
#
# Stress axis : x y z
#
# Youngs Moduli (GPa) = 141.41686 135.20494 258.61069
#
# Poissons Ratio (x) = 0.33238 -1.26223
# Poissons Ratio (y) = 0.34765 0.85615
# Poissons Ratio (z) = -0.69023 0.44761
#
# Static dielectric constant tensor:
#      x y z
#    x 1.986010 0.000000 0.082240 
#    y 0.000000 1.908620 0.000000 
#    z 0.082240 0.000000 2.171180 
# 
# From -- ./inp_files/313401.got.cif
#   From: 2010.05.17/outbox.cif.g08.bks.cpg/sg12_157_cif.got.tgz:313401.got - 2010.06.03 13:09:07.
