data_PCOD9217820
_publ_section_title
;
Structure prediction by ZEFSAII (Michael W. Deem and Ramdas Pophale) SiO2 
 PCOD9217820
Probable space group: C 2/M
;
_chemical_formula_sum "Si O2"
_cell_formula_units_Z 40
_cell_length_a 25.669483
_cell_length_b 13.823699
_cell_length_c 5.059485
_cell_angle_alpha 90.000000
_cell_angle_beta 68.494269
_cell_angle_gamma 90.000000
_cell_volume 1670.353884
_symmetry_space_group_name_H-M "C 2/M"
_symmetry_group_IT_number 12
_symmetry_cell_setting 'monoclinic'
loop_
_space_group_symop_operation_xyz
x,y,z
-x,y,-z
-x,-y,-z
x,-y,z
1/2+x,1/2+y,z
1/2-x,1/2+y,-z
1/2-x,1/2-y,-z
1/2+x,1/2-y,z
loop_
_atom_site_type_symbol
_atom_site_label
_atom_site_fract_x
_atom_site_fract_y
_atom_site_fract_z
Si Si1 0.263282 0.683500 0.730159
Si Si2 0.608712 0.386565 0.412761
Si Si3 0.949118 0.611985 0.399372
Si Si4 0.850047 0.604566 0.007352
Si Si5 0.916668 0.771202 0.056081
O O1 0.250000 0.750000 0.500000
O O2 0.326492 0.644301 0.650995
O O3 0.216653 0.601029 0.860539
O O4 0.250000 0.750000 0.000000
O O5 0.605872 0.500000 0.357999
O O6 0.580159 0.357228 0.740674
O O7 0.579790 0.322540 0.235698
O O8 0.959423 0.500000 0.314342
O O9 0.947139 0.683051 0.154868
O O10 0.000000 0.640840 0.500000
O O11 0.889412 0.615166 0.671328
O O12 0.869212 0.500000 0.085138
O O13 0.860502 0.707226 0.127483
#
# Coordination Sequence:
#
# PCOD9217820 Si02
#       5
#     8   8   8   8   8
#     4  12  22  41  65  96 141 184 228 276 340 406
#     4  12  25  43  68  97 138 190 235 282 337 405
#     4  10  23  45  74 108 143 181 227 285 361 433
#     4  11  23  40  67 102 141 182 223 278 346 416
#     4  12  22  45  68  99 138 178 231 285 341 410
#
# _framework density 23.947020999999999
#
# number of rings (size 3 to 8) (size 9 to 14) (size 15 to 20)
#    0.000    0.600    6.000    1.800    0.000    0.800 
#    0.000    5.000    0.000    3.600    0.000    0.000 
#    0.000    0.000    0.000    0.000    0.000    0.000 
#
# Total GULP energy -111348.451533 kJ/mol
# GULP energy per Si atom -5567.422577 kJ/mol
# Density = 2.389252 g / cm^3
# Si number density = 23.947021 Si / 1000 Ang^3
#
#
#
# Elastic Constant Matrix: (Units=GPa)
#
#
# Indices 1 2 3 4 5 6 
#
# 1 74.2194 23.1504 56.7762 0.0000 7.5359 0.0000
# 2 23.1504 177.0561 40.2852 0.0000 20.2747 0.0000
# 3 56.7762 40.2852 130.1594 0.0000 25.7354 0.0000
# 4 0.0000 0.0000 0.0000 404.6606 0.0000 -115.0546
# 5 7.5359 20.2747 25.7354 0.0000 41.7759 0.0000
# 6 0.0000 0.0000 0.0000 -115.0546 0.0000 74.9675
#
#
#
# Elastic Compliance Matrix: (Units=1/GPa)
#
#
# Indices 1 2 3 4 5 6 
#
# 1 0.020495 -0.000871 -0.009136 0.000000 0.002353 0.000000
# 2 -0.000871 0.006269 -0.001127 0.000000 -0.002191 0.000000
# 3 -0.009136 -0.001127 0.013189 0.000000 -0.005930 0.000000
# 4 0.000000 0.000000 0.000000 0.004384 0.000000 0.006729
# 5 0.002353 -0.002191 -0.005930 0.000000 0.028229 0.000000
# 6 0.000000 0.000000 0.000000 0.006729 0.000000 0.023666
#
#
# Mechanical properties :
#
#
# Convention : Reuss Voigt Hill
#
# Bulk Modulus (GPa) = 56.54247 69.09538 62.81893
# Shear Modulus (GPa) = 40.19426 121.69567 80.94497
#
# Velocity S-wave (km/s) = 4.10135 7.13646 5.82023
# Velocity P-wave (km/s) = 6.78903 9.83979 8.45317
#
# Compressibility (1/GPa) = 0.01768582
#
# Stress axis : x y z
#
# Youngs Moduli (GPa) = 48.79263 159.51101 75.81834
#
# Poissons Ratio (x) = 0.13887 0.69267
# Poissons Ratio (y) = 0.04248 0.08548
# Poissons Ratio (z) = 0.44576 0.17983
#
# Static dielectric constant tensor:
#      x y z
#    x 2.174330 0.000000 0.033480 
#    y 0.000000 1.901570 0.000000 
#    z 0.033480 0.000000 1.967180 
# 
# From -- ./inp_files/27723.got.cif
#   From: 2010.05.17/outbox.cif.g08.bks.cpg/sg12_14_cif.got.tgz:27723.got - 2010.06.03 13:09:07.
