data_PCOD9217996
_publ_section_title
;
Structure prediction by ZEFSAII (Michael W. Deem and Ramdas Pophale) SiO2 
 PCOD9217996
Probable space group: C 2/M
;
_chemical_formula_sum "Si O2"
_cell_formula_units_Z 32
_cell_length_a 12.113606
_cell_length_b 17.629202
_cell_length_c 15.737141
_cell_angle_alpha 90.000000
_cell_angle_beta 156.973797
_cell_angle_gamma 90.000000
_cell_volume 1314.551354
_symmetry_space_group_name_H-M "C 2/M"
_symmetry_group_IT_number 12
_symmetry_cell_setting 'monoclinic'
loop_
_space_group_symop_operation_xyz
x,y,z
-x,y,-z
-x,-y,-z
x,-y,z
1/2+x,1/2+y,z
1/2-x,1/2+y,-z
1/2-x,1/2-y,-z
1/2+x,1/2-y,z
loop_
_atom_site_type_symbol
_atom_site_label
_atom_site_fract_x
_atom_site_fract_y
_atom_site_fract_z
Si Si1 0.359124 0.137529 0.319577
Si Si2 0.769654 0.366488 0.074839
Si Si3 0.795194 0.915000 0.160700
Si Si4 0.860244 0.801415 0.487369
O O1 0.500000 0.096939 0.500000
O O2 0.348605 0.095258 0.221854
O O3 0.526288 0.216228 0.424458
O O4 0.044600 0.161221 0.126104
O O5 0.023787 0.307373 0.241440
O O6 0.749641 0.410409 0.972299
O O7 0.015333 0.853256 0.349746
O O8 0.889129 0.000000 0.249857
O O9 0.500000 0.900462 0.000000
O O10 0.000000 0.832846 0.500000
#
# Coordination Sequence:
#
# PCOD9217996 Si02
#       4
#     8   8   8   8
#     4  10  24  40  65 101 135 171 208 266 327 396
#     4  11  23  42  67  97 136 171 215 263 329 387
#     4  11  25  44  66  94 130 174 222 269 318 380
#     4  11  23  39  65 101 133 172 209 267 327 386
#
# _framework density 24.342907
#
# number of rings (size 3 to 8) (size 9 to 14) (size 15 to 20)
#    0.000    1.250    2.500    2.250    3.500    8.500 
#    0.000    2.500    0.000    7.500    0.000    0.000 
#    0.000    0.000    0.000    0.000    0.000    0.000 
#
# Total GULP energy -89432.065043 kJ/mol
# GULP energy per Si atom -5589.504065 kJ/mol
# Density = 2.428750 g / cm^3
# Si number density = 24.342907 Si / 1000 Ang^3
#
#
#
# Elastic Constant Matrix: (Units=GPa)
#
#
# Indices 1 2 3 4 5 6 
#
# 1 184.0431 26.6537 77.0032 0.0404 -9.7342 -0.0312
# 2 26.6537 74.4344 32.1627 0.1568 2.5570 -0.1147
# 3 77.0032 32.1627 123.9363 0.1916 1.1597 -0.0797
# 4 0.0404 0.1568 0.1916 9.2744 0.0625 4.2855
# 5 -9.7342 2.5570 1.1597 0.0625 79.4917 -0.0451
# 6 -0.0312 -0.1147 -0.0797 4.2855 -0.0451 -16.5658
#
#
#
# Elastic Compliance Matrix: (Units=1/GPa)
#
#
# Indices 1 2 3 4 5 6 
#
# 1 0.007458 -0.000787 -0.004439 0.000055 0.001003 0.000024
# 2 -0.000787 0.015229 -0.003458 -0.000124 -0.000536 -0.000118
# 3 -0.004439 -0.003458 0.011730 -0.000134 -0.000603 -0.000057
# 4 0.000055 -0.000124 -0.000134 0.096315 -0.000049 0.024918
# 5 0.001003 -0.000536 -0.000603 -0.000049 0.012729 -0.000043
# 6 0.000024 -0.000118 -0.000057 0.024918 -0.000043 -0.053918
#
#
# Mechanical properties :
#
#
# Convention : Reuss Voigt Hill
#
# Bulk Modulus (GPa) = 58.65462 72.67255 65.66359
# Shear Modulus (GPa) = 44.40774 30.87967 37.64371
#
# Velocity S-wave (km/s) = 4.27577 3.56550 3.93669
# Velocity P-wave (km/s) = 6.96590 6.84609 6.90625
#
# Compressibility (1/GPa) = 0.01704895
#
# Stress axis : x y z
#
# Youngs Moduli (GPa) = 134.08909 65.66365 85.25347
#
# Poissons Ratio (x) = 0.05168 0.37842
# Poissons Ratio (y) = 0.10553 0.29480
# Poissons Ratio (z) = 0.59519 0.22706
#
# Static dielectric constant tensor:
#      x y z
#    x 2.029880 0.000000 -0.044640 
#    y 0.000000 1.832700 -0.000020 
#    z -0.044640 -0.000020 1.953700 
# 
# From -- ./inp_files/271550.got.cif
#   From: 2010.05.17/outbox.cif.g08.bks.cpg/sg12_136_cif.got.tgz:271550.got - 2010.06.03 13:09:07.
