data_PCOD9217402
_publ_section_title
;
Structure prediction by ZEFSAII (Michael W. Deem and Ramdas Pophale) SiO2 
 PCOD9217402
Probable space group: C 2/M
;
_chemical_formula_sum "Si O2"
_cell_formula_units_Z 48
_cell_length_a 24.687234
_cell_length_b 11.279128
_cell_length_c 22.047483
_cell_angle_alpha 90.000000
_cell_angle_beta 156.360910
_cell_angle_gamma 90.000000
_cell_volume 2461.633116
_symmetry_space_group_name_H-M "C 2/M"
_symmetry_group_IT_number 12
_symmetry_cell_setting 'monoclinic'
loop_
_space_group_symop_operation_xyz
x,y,z
-x,y,-z
-x,-y,-z
x,-y,z
1/2+x,1/2+y,z
1/2-x,1/2+y,-z
1/2-x,1/2-y,-z
1/2+x,1/2-y,z
loop_
_atom_site_type_symbol
_atom_site_label
_atom_site_fract_x
_atom_site_fract_y
_atom_site_fract_z
Si Si1 0.636881 0.144093 0.380800
Si Si2 0.083671 0.500000 0.523790
Si Si3 0.247047 0.756500 0.175714
Si Si4 0.344259 0.500000 0.860458
Si Si5 0.496716 0.224700 0.356873
Si Si6 0.036581 0.361577 0.140643
Si Si7 0.690182 0.641063 0.638847
O O1 0.750000 0.250000 0.500000
O O2 0.533227 0.185186 0.326753
O O3 0.572659 0.152714 0.248249
O O4 0.673639 0.000000 0.426871
O O5 0.243018 0.500000 0.699485
O O6 0.041077 0.614292 0.443439
O O7 0.000000 0.500000 0.500000
O O8 0.341317 0.752144 0.213409
O O9 0.333027 0.703497 0.320349
O O10 0.199183 0.886769 0.145063
O O11 0.108854 0.686732 0.024868
O O12 0.500000 0.500000 0.000000
O O13 0.588359 0.329041 0.479575
O O14 0.035204 0.500000 0.125342
O O15 0.162178 0.311964 0.230881
O O16 0.691634 0.500000 0.649417
#
# Coordination Sequence:
#
# PCOD9217402 Si02
#       7
#     8   4   8   4   8   8   8
#     4  11  24  45  72  94 127 177 227 272 329 395
#     4  12  20  42  62  96 132 166 205 260 335 391
#     4  12  24  39  61  96 133 166 212 266 336 390
#     4  12  24  36  62  94 134 166 212 265 318 394
#     4  12  23  39  68  94 128 170 213 269 324 395
#     4  10  23  43  63  89 129 174 218 270 328 391
#     4  11  22  39  65  96 131 171 216 263 324 394
#
# _framework density 19.49925
#
# number of rings (size 3 to 8) (size 9 to 14) (size 15 to 20)
#    0.000    0.667    5.833    2.500    0.000    4.000 
#    1.500    0.000    0.000    0.000    0.000    0.000 
#    0.000    0.000    0.000    0.000    0.000    0.000 
#
# Total GULP energy -133989.905634 kJ/mol
# GULP energy per Si atom -5582.912735 kJ/mol
# Density = 1.945487 g / cm^3
# Si number density = 19.499250 Si / 1000 Ang^3
#
#
#
# Elastic Constant Matrix: (Units=GPa)
#
#
# Indices 1 2 3 4 5 6 
#
# 1 103.6381 23.1333 0.3351 -0.0001 16.6835 -0.0001
# 2 23.1333 71.5380 10.4494 -0.0002 -3.2155 -0.0001
# 3 0.3351 10.4494 62.2458 -0.0003 17.3163 -0.0002
# 4 -0.0001 -0.0002 -0.0003 71.3104 -0.0002 16.9308
# 5 16.6835 -3.2155 17.3163 -0.0002 31.2543 -0.0001
# 6 -0.0001 -0.0001 -0.0002 16.9308 -0.0001 33.4346
#
#
#
# Elastic Compliance Matrix: (Units=1/GPa)
#
#
# Indices 1 2 3 4 5 6 
#
# 1 0.012103 -0.004765 0.003155 0.000000 -0.008699 0.000000
# 2 -0.004765 0.016504 -0.004640 0.000000 0.006812 0.000000
# 3 0.003155 -0.004640 0.020604 0.000000 -0.013577 0.000000
# 4 0.000000 0.000000 0.000000 0.015940 0.000000 -0.008072
# 5 -0.008699 0.006812 -0.013577 0.000000 0.044862 0.000000
# 6 0.000000 0.000000 0.000000 -0.008072 0.000000 0.033996
#
#
# Mechanical properties :
#
#
# Convention : Reuss Voigt Hill
#
# Bulk Modulus (GPa) = 27.24122 33.91749 30.57935
# Shear Modulus (GPa) = 29.63024 40.76680 35.19852
#
# Velocity S-wave (km/s) = 3.90238 4.57736 4.25328
# Velocity P-wave (km/s) = 5.85709 6.73560 6.31165
#
# Compressibility (1/GPa) = 0.03670907
#
# Stress axis : x y z
#
# Youngs Moduli (GPa) = 82.62591 60.59299 48.53355
#
# Poissons Ratio (x) = 0.28875 -0.15311
# Poissons Ratio (y) = 0.39375 0.22520
# Poissons Ratio (z) = -0.26066 0.28115
#
# Static dielectric constant tensor:
#      x y z
#    x 0.948710 0.000000 -0.484400 
#    y 0.000000 1.713430 0.000000 
#    z -0.484400 0.000000 1.324320 
# 
# From -- ./inp_files/321355.got.cif
#   From: 2010.05.17/outbox.cif.g08.bks.cpg/sg12_161_cif.got.tgz:321355.got - 2010.06.03 13:09:07.
