data_PCOD9217310
_publ_section_title
;
Structure prediction by ZEFSAII (Michael W. Deem and Ramdas Pophale) SiO2 
 PCOD9217310
Probable space group: C 2/M
;
_chemical_formula_sum "Si O2"
_cell_formula_units_Z 32
_cell_length_a 5.149461
_cell_length_b 25.673288
_cell_length_c 10.101809
_cell_angle_alpha 90.000000
_cell_angle_beta 99.785170
_cell_angle_gamma 90.000000
_cell_volume 1316.066575
_symmetry_space_group_name_H-M "C 2/M"
_symmetry_group_IT_number 12
_symmetry_cell_setting 'monoclinic'
loop_
_space_group_symop_operation_xyz
x,y,z
-x,y,-z
-x,-y,-z
x,-y,z
1/2+x,1/2+y,z
1/2-x,1/2+y,-z
1/2-x,1/2-y,-z
1/2+x,1/2-y,z
loop_
_atom_site_type_symbol
_atom_site_label
_atom_site_fract_x
_atom_site_fract_y
_atom_site_fract_z
Si Si1 0.224148 0.437919 0.406077
Si Si2 0.726940 0.000000 0.905990
Si Si3 0.287190 0.213251 0.212735
Si Si4 0.935315 0.393855 0.147998
Si Si5 0.500000 0.786494 0.500000
O O1 0.500000 0.424980 0.500000
O O2 0.229077 0.500000 0.368803
O O3 0.176254 0.401351 0.272759
O O4 0.000000 0.431025 0.500000
O O5 0.719359 0.053656 0.824434
O O6 0.500000 0.000000 0.000000
O O7 0.000000 0.000000 0.000000
O O8 0.511810 0.256001 0.195572
O O9 0.283827 0.160940 0.129903
O O10 0.402976 0.187672 0.358805
O O11 0.000000 0.400584 0.000000
O O12 0.750000 0.750000 0.500000
#
# Coordination Sequence:
#
# PCOD9217310 Si02
#       5
#     8   4   8   8   4
#     4  10  23  44  69 102 140 181 232 289 347 409
#     4  10  24  44  68 100 138 180 227 274 341 418
#     4  10  23  42  66  98 135 179 232 285 342 409
#     4  11  25  46  73 104 143 188 230 288 353 418
#     4   8  16  36  60  87 124 169 220 272 330 392
#
# _framework density 24.314876000000002
#
# number of rings (size 3 to 8) (size 9 to 14) (size 15 to 20)
#    0.000    2.000    1.250    0.000    1.750   11.000 
#    9.000    0.000    0.000    0.000    0.000    0.000 
#    0.000    0.000    0.000    0.000    0.000    0.000 
#
# Total GULP energy -89170.470854 kJ/mol
# GULP energy per Si atom -5573.154428 kJ/mol
# Density = 2.425953 g / cm^3
# Si number density = 24.314876 Si / 1000 Ang^3
#
#
#
# Elastic Constant Matrix: (Units=GPa)
#
#
# Indices 1 2 3 4 5 6 
#
# 1 113.4153 -12.4755 14.9885 0.0000 17.6903 0.0000
# 2 -12.4755 92.9167 11.0360 0.0000 -10.8266 0.0000
# 3 14.9885 11.0360 88.2077 0.0000 -0.6608 0.0000
# 4 0.0000 0.0000 0.0000 -14.4342 0.0000 -6.7893
# 5 17.6903 -10.8266 -0.6608 0.0000 30.2959 0.0000
# 6 0.0000 0.0000 0.0000 -6.7893 0.0000 -2.7941
#
#
#
# Elastic Compliance Matrix: (Units=1/GPa)
#
#
# Indices 1 2 3 4 5 6 
#
# 1 0.010033 0.000919 -0.001862 0.000000 -0.005571 0.000000
# 2 0.000919 0.011483 -0.001566 0.000000 0.003533 0.000000
# 3 -0.001862 -0.001566 0.011855 0.000000 0.000786 0.000000
# 4 0.000000 0.000000 0.000000 0.484839 0.000000 -1.178075
# 5 -0.005571 0.003533 0.000786 0.000000 0.037540 0.000000
# 6 0.000000 0.000000 0.000000 -1.178075 0.000000 2.504629
#
#
# Mechanical properties :
#
#
# Convention : Reuss Voigt Hill
#
# Bulk Modulus (GPa) = 35.26858 35.73753 35.50306
# Shear Modulus (GPa) = 1.62610 21.34623 11.48616
#
# Velocity S-wave (km/s) = 0.81867 2.96617 2.17582
# Velocity P-wave (km/s) = 3.92811 5.14398 4.57660
#
# Compressibility (1/GPa) = 0.02835385
#
# Stress axis : x y z
#
# Youngs Moduli (GPa) = 99.66932 87.08188 84.35205
#
# Poissons Ratio (x) = -0.08004 0.15703
# Poissons Ratio (y) = -0.09161 0.13213
# Poissons Ratio (z) = 0.18554 0.13641
#
# Static dielectric constant tensor:
#      x y z
#    x 1.981650 0.000000 -0.074580 
#    y 0.000000 2.426770 0.000000 
#    z -0.074580 0.000000 2.168340 
# 
# From -- ./inp_files/115086.got.cif
#   From: 2010.05.17/outbox.cif.g08.bks.cpg/sg12_58_cif.got.tgz:115086.got - 2010.06.03 13:09:07.
