data_PCOD9217788
_publ_section_title
;
Structure prediction by ZEFSAII (Michael W. Deem and Ramdas Pophale) SiO2 
 PCOD9217788
Probable space group: C 2/M
;
_chemical_formula_sum "Si O2"
_cell_formula_units_Z 58
_cell_length_a 12.758769
_cell_length_b 24.851104
_cell_length_c 17.527675
_cell_angle_alpha 90.000000
_cell_angle_beta 31.651581
_cell_angle_gamma 90.000000
_cell_volume 2916.307152
_symmetry_space_group_name_H-M "C 2/M"
_symmetry_group_IT_number 12
_symmetry_cell_setting 'monoclinic'
loop_
_space_group_symop_operation_xyz
x,y,z
-x,y,-z
-x,-y,-z
x,-y,z
1/2+x,1/2+y,z
1/2-x,1/2+y,-z
1/2-x,1/2-y,-z
1/2+x,1/2-y,z
loop_
_atom_site_type_symbol
_atom_site_label
_atom_site_fract_x
_atom_site_fract_y
_atom_site_fract_z
Si Si1 0.824070 0.593942 0.670685
Si Si2 0.724629 0.693603 0.830183
Si Si3 0.168273 0.315898 0.831722
Si Si4 0.605319 0.440322 0.123272
Si Si5 0.894086 0.438141 0.371737
Si Si6 0.038480 0.914741 0.337612
Si Si7 0.581463 0.139284 0.145830
Si Si8 0.500000 0.500000 0.500000
O O1 0.769296 0.653931 0.732486
O O2 0.623003 0.566974 0.763744
O O3 0.000000 0.592946 0.500000
O O4 0.919456 0.565570 0.686332
O O5 0.747625 0.755804 0.795080
O O6 0.856143 0.673707 0.819516
O O7 0.500000 0.685967 0.000000
O O8 0.343315 0.359471 0.724777
O O9 0.044731 0.323270 0.831017
O O10 0.000000 0.327356 0.000000
O O11 0.675781 0.500000 0.054312
O O12 0.612356 0.438101 0.210745
O O13 0.734276 0.391069 0.009392
O O14 0.836971 0.500000 0.393655
O O15 0.700755 0.408448 0.524878
O O16 0.949788 0.409711 0.259153
O O17 0.057986 0.952914 0.399213
#
# Coordination Sequence:
#
# PCOD9217788 Si02
#       8
#     8   8   8   8   8   8   8   2
#     4  11  23  41  66 100 138 170 227 277 337 412
#     4  10  23  45  70  95 131 180 221 284 351 382
#     4  11  25  44  69  99 131 176 232 280 332 400
#     4  12  23  41  68 103 135 175 223 279 333 401
#     4  11  23  42  66  97 134 181 217 271 346 396
#     4  12  24  43  65  96 132 182 221 265 333 399
#     4  11  24  45  67 101 133 171 229 281 333 409
#     4  12  24  44  66  86 140 180 218 268 322 400
#
# _framework density 19.888165999999998
#
# number of rings (size 3 to 8) (size 9 to 14) (size 15 to 20)
#    0.000    0.828    5.517    1.655    0.000    3.862 
#    4.966    4.483    0.000    0.000    0.000    0.000 
#    0.000    0.000    0.000    0.000    0.000    0.000 
#
# Total GULP energy -161737.407737 kJ/mol
# GULP energy per Si atom -5577.151991 kJ/mol
# Density = 1.984290 g / cm^3
# Si number density = 19.888166 Si / 1000 Ang^3
#
#
#
# Elastic Constant Matrix: (Units=GPa)
#
#
# Indices 1 2 3 4 5 6 
#
# 1 89.7632 48.8372 1.0231 0.0117 4.4625 -0.0025
# 2 48.8372 129.3934 43.0103 -0.0065 -7.2492 0.0054
# 3 1.0231 43.0103 45.9482 0.0263 1.4401 0.0041
# 4 0.0117 -0.0065 0.0263 30.4991 -0.0107 0.1890
# 5 4.4625 -7.2492 1.4401 -0.0107 34.0628 -0.0018
# 6 -0.0025 0.0054 0.0041 0.1890 -0.0018 23.3367
#
#
#
# Elastic Compliance Matrix: (Units=1/GPa)
#
#
# Indices 1 2 3 4 5 6 
#
# 1 0.016246 -0.009154 0.008346 -0.000017 -0.004429 0.000002
# 2 -0.009154 0.016658 -0.015558 0.000022 0.005402 -0.000002
# 3 0.008346 -0.015558 0.036327 -0.000040 -0.005940 -0.000002
# 4 -0.000017 0.000022 -0.000040 0.032790 0.000019 -0.000266
# 5 -0.004429 0.005402 -0.005940 0.000019 0.031339 0.000002
# 6 0.000002 -0.000002 -0.000002 -0.000266 0.000002 0.042853
#
#
# Mechanical properties :
#
#
# Convention : Reuss Voigt Hill
#
# Bulk Modulus (GPa) = 27.39847 50.09400 38.74623
# Shear Modulus (GPa) = 22.61313 29.06199 25.83756
#
# Velocity S-wave (km/s) = 3.37562 3.82680 3.60827
# Velocity P-wave (km/s) = 5.38510 6.69092 6.07321
#
# Compressibility (1/GPa) = 0.03649839
#
# Stress axis : x y z
#
# Youngs Moduli (GPa) = 61.55385 60.03293 27.52754
#
# Poissons Ratio (x) = 0.54955 -0.22974
# Poissons Ratio (y) = 0.56347 0.42827
# Poissons Ratio (z) = -0.51372 0.93399
#
# Static dielectric constant tensor:
#      x y z
#    x 1.743590 0.000000 -0.024470 
#    y 0.000000 1.681560 0.000010 
#    z -0.024470 0.000010 1.711980 
# 
# From -- ./inp_files/235822.got.cif
#   From: 2010.05.17/outbox.cif.g08.bks.cpg/sg12_118_cif.got.tgz:235822.got - 2010.06.03 13:09:07.
