data_PCOD9217388
_publ_section_title
;
Structure prediction by ZEFSAII (Michael W. Deem and Ramdas Pophale) SiO2 
 PCOD9217388
Probable space group: C 2/M
;
_chemical_formula_sum "Si O2"
_cell_formula_units_Z 48
_cell_length_a 14.384923
_cell_length_b 23.447327
_cell_length_c 8.924865
_cell_angle_alpha 90.000000
_cell_angle_beta 61.095812
_cell_angle_gamma 90.000000
_cell_volume 2635.260579
_symmetry_space_group_name_H-M "C 2/M"
_symmetry_group_IT_number 12
_symmetry_cell_setting 'monoclinic'
loop_
_space_group_symop_operation_xyz
x,y,z
-x,y,-z
-x,-y,-z
x,-y,z
1/2+x,1/2+y,z
1/2-x,1/2+y,-z
1/2-x,1/2-y,-z
1/2+x,1/2-y,z
loop_
_atom_site_type_symbol
_atom_site_label
_atom_site_fract_x
_atom_site_fract_y
_atom_site_fract_z
Si Si1 0.117260 0.108981 0.866441
Si Si2 0.542366 0.715972 0.305374
Si Si3 0.886611 0.703545 0.007646
Si Si4 0.434164 0.500000 0.299433
Si Si5 0.317819 0.284319 0.323954
Si Si6 0.658466 0.500000 0.302363
Si Si7 0.205320 0.885282 0.124128
O O1 0.200679 0.151582 0.720177
O O2 0.089291 0.055083 0.784726
O O3 0.168854 0.096120 0.986831
O O4 0.000000 0.135168 0.000000
O O5 0.500000 0.734828 0.500000
O O6 0.433584 0.705742 0.303027
O O7 0.615395 0.659446 0.254455
O O8 0.599568 0.763386 0.159793
O O9 0.826333 0.745253 0.170501
O O10 0.814946 0.648752 0.038388
O O11 0.000000 0.692310 0.000000
O O12 0.551810 0.500000 0.280889
O O13 0.364936 0.500000 0.503531
O O14 0.250000 0.250000 0.500000
O O15 0.713973 0.441099 0.217729
#
# Coordination Sequence:
#
# PCOD9217388 Si02
#       7
#     8   8   8   4   8   4   8
#     4  12  21  39  59  88 127 165 195 248 303 369
#     4  11  22  35  59  91 123 156 201 248 301 366
#     4  10  23  43  59  89 124 159 205 257 303 365
#     4  11  24  39  58  92 130 154 203 252 300 369
#     4  11  22  36  57  88 127 163 200 245 305 359
#     4  11  25  38  60  93 121 163 203 248 305 361
#     4  12  23  39  65  86 123 166 206 246 309 363
#
# _framework density 18.214518000000002
#
# number of rings (size 3 to 8) (size 9 to 14) (size 15 to 20)
#    0.000    0.833    5.000    2.750    9.333    0.000 
#    0.000    0.417    0.000    0.000    0.000    1.750 
#    0.000    0.000    0.000    0.000    0.000    0.000 
#
# Total GULP energy -133910.554717 kJ/mol
# GULP energy per Si atom -5579.606447 kJ/mol
# Density = 1.817306 g / cm^3
# Si number density = 18.214518 Si / 1000 Ang^3
#
#
#
# Elastic Constant Matrix: (Units=GPa)
#
#
# Indices 1 2 3 4 5 6 
#
# 1 56.2941 26.5257 25.7708 0.0000 5.2085 0.0000
# 2 26.5257 105.2814 73.1259 0.0000 -10.5892 0.0000
# 3 25.7708 73.1259 164.0317 0.0000 6.6533 0.0000
# 4 0.0000 0.0000 0.0000 -60.3296 0.0000 -38.4670
# 5 5.2085 -10.5892 6.6533 0.0000 26.9587 0.0000
# 6 0.0000 0.0000 0.0000 -38.4670 0.0000 15.2633
#
#
#
# Elastic Compliance Matrix: (Units=1/GPa)
#
#
# Indices 1 2 3 4 5 6 
#
# 1 0.021220 -0.005532 -0.000620 0.000000 -0.006120 0.000000
# 2 -0.005532 0.016640 -0.006927 0.000000 0.009314 0.000000
# 3 -0.000620 -0.006927 0.009482 0.000000 -0.004941 0.000000
# 4 0.000000 0.000000 0.000000 -0.006358 0.000000 -0.016024
# 5 -0.006120 0.009314 -0.004941 0.000000 0.043154 0.000000
# 6 0.000000 0.000000 0.000000 -0.016024 0.000000 0.025132
#
#
# Mechanical properties :
#
#
# Convention : Reuss Voigt Hill
#
# Bulk Modulus (GPa) = 47.20054 64.05023 55.62538
# Shear Modulus (GPa) = 35.09051 9.72415 22.40733
#
# Velocity S-wave (km/s) = 4.39397 2.31306 3.51121
# Velocity P-wave (km/s) = 7.19114 6.50956 6.85883
#
# Compressibility (1/GPa) = 0.02118620
#
# Stress axis : x y z
#
# Youngs Moduli (GPa) = 47.12494 60.09552 105.46019
#
# Poissons Ratio (x) = 0.33242 0.06535
# Poissons Ratio (y) = 0.26067 0.73052
# Poissons Ratio (z) = 0.02920 0.41628
#
# Static dielectric constant tensor:
#      x y z
#    x 1.663130 0.000000 0.029300 
#    y 0.000000 1.651340 0.000000 
#    z 0.029300 0.000000 1.679290 
# 
# From -- ./inp_files/63411.got.cif
#   From: 2010.05.17/outbox.cif.g08.bks.cpg/sg12_32_cif.got.tgz:63411.got - 2010.06.03 13:09:07.
