data_PCOD9217036
_publ_section_title
;
Structure prediction by ZEFSAII (Michael W. Deem and Ramdas Pophale) SiO2 
 PCOD9217036
Probable space group: C 2/M
;
_chemical_formula_sum "Si O2"
_cell_formula_units_Z 44
_cell_length_a 20.742220
_cell_length_b 9.997504
_cell_length_c 9.708235
_cell_angle_alpha 90.000000
_cell_angle_beta 98.027343
_cell_angle_gamma 90.000000
_cell_volume 1993.474572
_symmetry_space_group_name_H-M "C 2/M"
_symmetry_group_IT_number 12
_symmetry_cell_setting 'monoclinic'
loop_
_space_group_symop_operation_xyz
x,y,z
-x,y,-z
-x,-y,-z
x,-y,z
1/2+x,1/2+y,z
1/2-x,1/2+y,-z
1/2-x,1/2-y,-z
1/2+x,1/2-y,z
loop_
_atom_site_type_symbol
_atom_site_label
_atom_site_fract_x
_atom_site_fract_y
_atom_site_fract_z
Si Si1 0.476303 0.500000 0.262670
Si Si2 0.601696 0.500000 0.496822
Si Si3 0.192213 0.653382 0.820639
Si Si4 0.658566 0.656168 0.059417
Si Si5 0.913044 0.500000 0.664959
Si Si6 0.674230 0.225820 0.504142
Si Si7 0.528408 0.235215 0.151107
O O1 0.537450 0.500000 0.385271
O O2 0.415086 0.500000 0.345749
O O3 0.484691 0.363103 0.180535
O O4 0.640339 0.367507 0.474017
O O5 0.178164 0.500000 0.857273
O O6 0.270890 0.669462 0.846646
O O7 0.166552 0.680954 0.660903
O O8 0.163817 0.754465 0.924196
O O9 0.648634 0.500000 0.023953
O O10 0.599860 0.707826 0.134859
O O11 0.860755 0.615676 0.598631
O O12 0.963199 0.619514 0.734376
O O13 0.750000 0.250000 0.500000
O O14 0.500000 0.178726 0.000000
#
# Coordination Sequence:
#
# PCOD9217036 Si02
#       7
#     4   4   8   8   4   8   8
#     4  11  25  50  72 104 139 199 242 303 348 429
#     4  11  27  46  75 106 146 183 249 296 357 437
#     4  10  23  41  65 102 145 180 227 290 375 427
#     4  10  23  43  68 103 140 182 234 297 350 436
#     4  12  26  48  66 104 144 181 245 301 364 424
#     4  12  25  45  75 105 143 192 236 301 373 446
#     4  12  26  45  74  99 139 194 249 300 361 428
#
# _framework density 22.072015
#
# number of rings (size 3 to 8) (size 9 to 14) (size 15 to 20)
#    0.000    0.909    3.636    2.182    5.091    0.000 
#    3.273    1.818    0.000    0.000    0.000    0.000 
#    0.000    0.000    0.000    0.000    0.000    0.000 
#
# Total GULP energy -122643.930599 kJ/mol
# GULP energy per Si atom -5574.724118 kJ/mol
# Density = 2.202178 g / cm^3
# Si number density = 22.072015 Si / 1000 Ang^3
#
#
#
# Elastic Constant Matrix: (Units=GPa)
#
#
# Indices 1 2 3 4 5 6 
#
# 1 56.8297 41.9818 -0.2549 0.0000 -1.2450 0.0000
# 2 41.9818 184.4796 24.7240 0.0000 6.0336 0.0000
# 3 -0.2549 24.7240 58.4501 0.0000 17.1027 0.0000
# 4 0.0000 0.0000 0.0000 9.6750 0.0000 17.9959
# 5 -1.2450 6.0336 17.1027 0.0000 30.9075 0.0000
# 6 0.0000 0.0000 0.0000 17.9959 0.0000 25.0949
#
#
#
# Elastic Compliance Matrix: (Units=1/GPa)
#
#
# Indices 1 2 3 4 5 6 
#
# 1 0.021451 -0.005183 0.002073 0.000000 0.000729 0.000000
# 2 -0.005183 0.007001 -0.003010 0.000000 0.000090 0.000000
# 3 0.002073 -0.003010 0.021710 0.000000 -0.011342 0.000000
# 4 0.000000 0.000000 0.000000 -0.309591 0.000000 0.222011
# 5 0.000729 0.000090 -0.011342 0.000000 0.038642 0.000000
# 6 0.000000 0.000000 0.000000 0.222011 0.000000 -0.119358
#
#
# Mechanical properties :
#
#
# Convention : Reuss Voigt Hill
#
# Bulk Modulus (GPa) = 26.37164 48.07345 37.22255
# Shear Modulus (GPa) = -15.85971 28.68937 6.41483
#
# Velocity S-wave (km/s) = -2.68347 3.60920 1.70664
# Velocity P-wave (km/s) = 1.54031 6.26067 4.55897
#
# Compressibility (1/GPa) = 0.03791952
#
# Stress axis : x y z
#
# Youngs Moduli (GPa) = 46.61869 142.84390 46.06245
#
# Poissons Ratio (x) = 0.74038 -0.09547
# Poissons Ratio (y) = 0.24163 0.13866
# Poissons Ratio (z) = -0.09662 0.43000
#
# Static dielectric constant tensor:
#      x y z
#    x 1.802530 0.000000 -0.000420 
#    y 0.000000 1.741440 0.000000 
#    z -0.000420 0.000000 1.854730 
# 
# From -- ./inp_files/163254.got.cif
#   From: 2010.05.17/outbox.cif.g08.bks.cpg/sg12_82_cif.got.tgz:163254.got - 2010.06.03 13:09:07.
