data_PCOD9217750
_publ_section_title
;
Structure prediction by ZEFSAII (Michael W. Deem and Ramdas Pophale) SiO2 
 PCOD9217750
Probable space group: C 2/M
;
_chemical_formula_sum "Si O2"
_cell_formula_units_Z 48
_cell_length_a 11.829265
_cell_length_b 22.932019
_cell_length_c 7.864676
_cell_angle_alpha 90.000000
_cell_angle_beta 72.329684
_cell_angle_gamma 90.000000
_cell_volume 2032.784021
_symmetry_space_group_name_H-M "C 2/M"
_symmetry_group_IT_number 12
_symmetry_cell_setting 'monoclinic'
loop_
_space_group_symop_operation_xyz
x,y,z
-x,y,-z
-x,-y,-z
x,-y,z
1/2+x,1/2+y,z
1/2-x,1/2+y,-z
1/2-x,1/2-y,-z
1/2+x,1/2-y,z
loop_
_atom_site_type_symbol
_atom_site_label
_atom_site_fract_x
_atom_site_fract_y
_atom_site_fract_z
Si Si1 0.436643 0.666126 0.357979
Si Si2 0.957067 0.634403 0.690354
Si Si3 0.577769 0.563198 0.131170
Si Si4 0.658410 0.933390 0.965249
Si Si5 0.709180 0.840826 0.649069
Si Si6 0.762158 0.223416 0.185860
O O1 0.500000 0.693047 0.500000
O O2 0.531380 0.617386 0.259690
O O3 0.311055 0.637982 0.475924
O O4 0.387659 0.699921 0.209712
O O5 0.840835 0.675281 0.744289
O O6 0.000000 0.600921 0.500000
O O7 0.075023 0.673556 0.653984
O O8 0.935378 0.591609 0.858335
O O9 0.568541 0.500000 0.225782
O O10 0.712332 0.568432 0.006445
O O11 0.500000 0.561854 0.000000
O O12 0.684108 0.889781 0.799604
O O13 0.634970 0.000000 0.926404
O O14 0.760110 0.780230 0.691572
O O15 0.750000 0.250000 0.000000
#
# Coordination Sequence:
#
# PCOD9217750 Si02
#       6
#     8   8   8   8   8   8
#     4  12  26  46  77 116 156 199 259 323 401 465
#     4  12  27  49  75 110 153 198 262 316 381 471
#     4  10  23  44  74 110 153 201 259 323 387 467
#     4  11  25  49  73 106 152 205 260 318 393 464
#     4  12  27  46  73 111 151 200 253 317 389 470
#     4  12  28  50  76 109 152 207 252 318 396 470
#
# _framework density 23.612938
#
# number of rings (size 3 to 8) (size 9 to 14) (size 15 to 20)
#    0.000    0.500    5.000    2.000    2.333    2.667 
#    3.000    0.000    0.000    0.000    0.000    0.000 
#    0.000    0.000    0.000    0.000    0.000    0.000 
#
# Total GULP energy -133786.928202 kJ/mol
# GULP energy per Si atom -5574.455342 kJ/mol
# Density = 2.355919 g / cm^3
# Si number density = 23.612938 Si / 1000 Ang^3
#
#
#
# Elastic Constant Matrix: (Units=GPa)
#
#
# Indices 1 2 3 4 5 6 
#
# 1 141.9790 5.1690 15.7138 0.0000 -0.1935 0.0000
# 2 5.1690 96.8972 32.8118 0.0000 -5.3534 0.0000
# 3 15.7138 32.8118 114.6581 0.0000 -4.1883 0.0000
# 4 0.0000 0.0000 0.0000 -2.1101 0.0000 -11.3989
# 5 -0.1935 -5.3534 -4.1883 0.0000 42.4597 0.0000
# 6 0.0000 0.0000 0.0000 -11.3989 0.0000 28.7025
#
#
#
# Elastic Compliance Matrix: (Units=1/GPa)
#
#
# Indices 1 2 3 4 5 6 
#
# 1 0.007152 -0.000058 -0.000966 0.000000 -0.000070 0.000000
# 2 -0.000058 0.011482 -0.003237 0.000000 0.001128 0.000000
# 3 -0.000966 -0.003237 0.009800 0.000000 0.000554 0.000000
# 4 0.000000 0.000000 0.000000 -0.150668 0.000000 -0.059836
# 5 -0.000070 0.001128 0.000554 0.000000 0.023748 0.000000
# 6 0.000000 0.000000 0.000000 -0.059836 0.000000 0.011077
#
#
# Mechanical properties :
#
#
# Convention : Reuss Voigt Hill
#
# Bulk Modulus (GPa) = 50.21958 51.21372 50.71665
# Shear Modulus (GPa) = -69.20456 33.79973 -17.70241
#
# Velocity S-wave (km/s) = -5.41955 3.78750 -2.74102
# Velocity P-wave (km/s) = 4.22469 6.39240 3.39225
#
# Compressibility (1/GPa) = 0.01991255
#
# Stress axis : x y z
#
# Youngs Moduli (GPa) = 139.81624 87.09576 102.03638
#
# Poissons Ratio (x) = 0.00507 0.09858
# Poissons Ratio (y) = 0.00815 0.33024
# Poissons Ratio (z) = 0.13508 0.28189
#
# Static dielectric constant tensor:
#      x y z
#    x 2.043660 0.000000 0.169160 
#    y 0.000000 1.874560 0.000000 
#    z 0.169160 0.000000 1.719260 
# 
# From -- ./inp_files/51326.got.cif
#   From: 2010.05.17/outbox.cif.g08.bks.cpg/sg12_26_cif.got.tgz:51326.got - 2010.06.03 13:09:07.
