data_PCOD9217689
_publ_section_title
;
Structure prediction by ZEFSAII (Michael W. Deem and Ramdas Pophale) SiO2 
 PCOD9217689
Probable space group: C 2/M
;
_chemical_formula_sum "Si O2"
_cell_formula_units_Z 40
_cell_length_a 9.321188
_cell_length_b 18.198813
_cell_length_c 11.327518
_cell_angle_alpha 90.000000
_cell_angle_beta 93.239330
_cell_angle_gamma 90.000000
_cell_volume 1918.468289
_symmetry_space_group_name_H-M "C 2/M"
_symmetry_group_IT_number 12
_symmetry_cell_setting 'monoclinic'
loop_
_space_group_symop_operation_xyz
x,y,z
-x,y,-z
-x,-y,-z
x,-y,z
1/2+x,1/2+y,z
1/2-x,1/2+y,-z
1/2-x,1/2-y,-z
1/2+x,1/2-y,z
loop_
_atom_site_type_symbol
_atom_site_label
_atom_site_fract_x
_atom_site_fract_y
_atom_site_fract_z
Si Si1 0.826756 0.829083 0.501242
Si Si2 0.257105 0.332789 0.239556
Si Si3 0.755196 0.411447 0.261378
Si Si4 0.974029 0.414307 0.870976
Si Si5 0.055211 0.800094 0.136827
O O1 0.750000 0.750000 0.500000
O O2 0.765559 0.858286 0.374813
O O3 0.783105 0.875800 0.613981
O O4 0.000000 0.823298 0.500000
O O5 0.190164 0.400301 0.166360
O O6 0.150593 0.266156 0.195887
O O7 0.413535 0.308396 0.208320
O O8 0.741660 0.500000 0.265607
O O9 0.649578 0.373521 0.161124
O O10 0.915038 0.388701 0.224655
O O11 0.005049 0.500000 0.880862
O O12 0.000000 0.379481 0.000000
O O13 0.000000 0.790783 0.000000
#
# Coordination Sequence:
#
# PCOD9217689 Si02
#       5
#     8   8   8   8   8
#     4  12  25  45  68  95 131 177 220 278 329 390
#     4  12  23  41  67  97 130 173 224 273 330 394
#     4  11  25  44  67  99 136 177 224 273 329 397
#     4  10  23  44  68  98 137 176 218 272 331 397
#     4  12  24  41  67  99 132 173 220 277 337 396
#
# _framework density 20.849965999999998
#
# number of rings (size 3 to 8) (size 9 to 14) (size 15 to 20)
#    0.000    0.600    4.000    3.600    2.800    2.400 
#    0.000    2.000    0.000    0.000    0.000    0.000 
#    0.000    0.000    0.000    0.000    0.000    0.000 
#
# Total GULP energy -111646.736533 kJ/mol
# GULP energy per Si atom -5582.336827 kJ/mol
# Density = 2.080251 g / cm^3
# Si number density = 20.849966 Si / 1000 Ang^3
#
#
#
# Elastic Constant Matrix: (Units=GPa)
#
#
# Indices 1 2 3 4 5 6 
#
# 1 64.8409 22.0777 -12.2587 0.0000 -4.0262 0.0000
# 2 22.0777 79.6584 26.3036 0.0000 -6.3820 0.0000
# 3 -12.2587 26.3036 96.1788 0.0000 16.5305 0.0000
# 4 0.0000 0.0000 0.0000 26.2699 0.0000 7.2093
# 5 -4.0262 -6.3820 16.5305 0.0000 42.1882 0.0000
# 6 0.0000 0.0000 0.0000 7.2093 0.0000 20.0967
#
#
#
# Elastic Compliance Matrix: (Units=1/GPa)
#
#
# Indices 1 2 3 4 5 6 
#
# 1 0.018431 -0.006608 0.004317 0.000000 -0.000932 0.000000
# 2 -0.006608 0.016769 -0.006172 0.000000 0.004324 0.000000
# 3 0.004317 -0.006172 0.013644 0.000000 -0.005868 0.000000
# 4 0.000000 0.000000 0.000000 0.042223 0.000000 -0.015147
# 5 -0.000932 0.004324 -0.005868 0.000000 0.026568 0.000000
# 6 0.000000 0.000000 0.000000 -0.015147 0.000000 0.055193
#
#
# Mechanical properties :
#
#
# Convention : Reuss Voigt Hill
#
# Bulk Modulus (GPa) = 31.33100 34.76926 33.05013
# Shear Modulus (GPa) = 24.95094 31.34801 28.14947
#
# Velocity S-wave (km/s) = 3.46307 3.88171 3.67835
# Velocity P-wave (km/s) = 5.57225 6.06650 5.82462
#
# Compressibility (1/GPa) = 0.03191727
#
# Stress axis : x y z
#
# Youngs Moduli (GPa) = 54.25766 59.63214 73.29299
#
# Poissons Ratio (x) = 0.39406 -0.31637
# Poissons Ratio (y) = 0.35854 0.45234
# Poissons Ratio (z) = -0.23421 0.36803
#
# Static dielectric constant tensor:
#      x y z
#    x 1.723240 0.000000 -0.016850 
#    y 0.000000 1.792590 0.000000 
#    z -0.016850 0.000000 1.869630 
# 
# From -- ./inp_files/119033.got.cif
#   From: 2010.05.17/outbox.cif.g08.bks.cpg/sg12_60_cif.got.tgz:119033.got - 2010.06.03 13:09:07.
