data_PCOD9217797
_publ_section_title
;
Structure prediction by ZEFSAII (Michael W. Deem and Ramdas Pophale) SiO2 
 PCOD9217797
Probable space group: C 2/M
;
_chemical_formula_sum "Si O2"
_cell_formula_units_Z 32
_cell_length_a 10.366544
_cell_length_b 18.467428
_cell_length_c 11.959598
_cell_angle_alpha 90.000000
_cell_angle_beta 37.076518
_cell_angle_gamma 90.000000
_cell_volume 1380.348125
_symmetry_space_group_name_H-M "C 2/M"
_symmetry_group_IT_number 12
_symmetry_cell_setting 'monoclinic'
loop_
_space_group_symop_operation_xyz
x,y,z
-x,y,-z
-x,-y,-z
x,-y,z
1/2+x,1/2+y,z
1/2-x,1/2+y,-z
1/2-x,1/2-y,-z
1/2+x,1/2-y,z
loop_
_atom_site_type_symbol
_atom_site_label
_atom_site_fract_x
_atom_site_fract_y
_atom_site_fract_z
Si Si1 0.306192 0.800417 0.066231
Si Si2 0.753636 0.582125 0.713559
Si Si3 0.965634 0.585887 0.793400
Si Si4 0.646364 0.671070 0.578038
O O1 0.390478 0.875312 0.956482
O O2 0.500000 0.766516 0.000000
O O3 0.250000 0.750000 0.000000
O O4 0.099298 0.816720 0.284320
O O5 0.664552 0.500000 0.767078
O O6 0.642450 0.637492 0.706395
O O7 0.000000 0.578526 0.500000
O O8 0.790737 0.603098 0.816586
O O9 0.979257 0.500000 0.790837
O O10 0.195470 0.618514 0.598703
O O11 0.750000 0.750000 0.500000
#
# Coordination Sequence:
#
# PCOD9217797 Si02
#       4
#     8   8   8   8
#     4  12  29  46  69 103 141 184 234 287 351 415
#     4   8  17  36  67 101 133 173 226 281 336 402
#     4  10  23  45  71 103 141 181 229 289 350 409
#     4  11  22  40  70 102 138 181 229 283 343 406
#
# _framework density 23.182558
#
# number of rings (size 3 to 8) (size 9 to 14) (size 15 to 20)
#    0.000    1.750    2.500    2.250    3.500    5.500 
#    0.000    3.750    0.000    0.000    0.000    0.000 
#    0.000    0.000    0.000    0.000    0.000    0.000 
#
# Total GULP energy -89526.912946 kJ/mol
# GULP energy per Si atom -5595.432059 kJ/mol
# Density = 2.312979 g / cm^3
# Si number density = 23.182558 Si / 1000 Ang^3
#
#
#
# Elastic Constant Matrix: (Units=GPa)
#
#
# Indices 1 2 3 4 5 6 
#
# 1 94.9475 38.4943 20.3526 -0.0005 -18.9961 0.0005
# 2 38.4943 114.6732 44.1671 0.0004 -5.8572 -0.0004
# 3 20.3526 44.1671 120.9171 0.0028 -17.9014 0.0001
# 4 -0.0005 0.0004 0.0028 33.9179 0.0001 7.7624
# 5 -18.9961 -5.8572 -17.9014 0.0001 34.3055 -0.0005
# 6 0.0005 -0.0004 0.0001 7.7624 -0.0005 30.6945
#
#
#
# Elastic Compliance Matrix: (Units=1/GPa)
#
#
# Indices 1 2 3 4 5 6 
#
# 1 0.013616 -0.004340 0.000325 0.000000 0.006968 0.000000
# 2 -0.004340 0.011533 -0.003843 0.000000 -0.002440 0.000000
# 3 0.000325 -0.003843 0.010348 -0.000001 0.004924 0.000000
# 4 0.000000 0.000000 -0.000001 0.031294 0.000000 -0.007914
# 5 0.006968 -0.002440 0.004924 0.000000 0.035161 0.000001
# 6 0.000000 0.000000 0.000000 -0.007914 0.000001 0.034580
#
#
# Mechanical properties :
#
#
# Convention : Reuss Voigt Hill
#
# Bulk Modulus (GPa) = 50.55408 59.61842 55.08625
# Shear Modulus (GPa) = 31.47756 34.95185 33.21471
#
# Velocity S-wave (km/s) = 3.68885 3.88710 3.78927
# Velocity P-wave (km/s) = 6.32438 6.77634 6.55426
#
# Compressibility (1/GPa) = 0.01978080
#
# Stress axis : x y z
#
# Youngs Moduli (GPa) = 73.44207 86.70780 96.63530
#
# Poissons Ratio (x) = 0.37632 -0.03141
# Poissons Ratio (y) = 0.31874 0.37140
# Poissons Ratio (z) = -0.02387 0.33324
#
# Static dielectric constant tensor:
#      x y z
#    x 1.933210 0.000000 -0.009480 
#    y 0.000000 1.819590 0.000000 
#    z -0.009480 0.000000 1.893140 
# 
# From -- ./inp_files/206444.got.cif
#   From: 2010.05.17/outbox.cif.g08.bks.cpg/sg12_104_cif.got.tgz:206444.got - 2010.06.03 13:09:07.
