data_PCOD9217548
_publ_section_title
;
Structure prediction by ZEFSAII (Michael W. Deem and Ramdas Pophale) SiO2 
 PCOD9217548
Probable space group: C 2/M
;
_chemical_formula_sum "Si O2"
_cell_formula_units_Z 32
_cell_length_a 9.111629
_cell_length_b 28.358687
_cell_length_c 11.572518
_cell_angle_alpha 90.000000
_cell_angle_beta 29.993557
_cell_angle_gamma 90.000000
_cell_volume 1494.842433
_symmetry_space_group_name_H-M "C 2/M"
_symmetry_group_IT_number 12
_symmetry_cell_setting 'monoclinic'
loop_
_space_group_symop_operation_xyz
x,y,z
-x,y,-z
-x,-y,-z
x,-y,z
1/2+x,1/2+y,z
1/2-x,1/2+y,-z
1/2-x,1/2-y,-z
1/2+x,1/2-y,z
loop_
_atom_site_type_symbol
_atom_site_label
_atom_site_fract_x
_atom_site_fract_y
_atom_site_fract_z
Si Si1 0.237963 0.416589 0.592259
Si Si2 0.898913 0.324868 0.440886
Si Si3 0.207644 0.000000 0.625778
Si Si4 0.154172 0.775339 0.263726
Si Si5 0.094940 0.500000 0.067529
O O1 0.500000 0.402979 0.500000
O O2 0.082928 0.370177 0.651725
O O3 0.327759 0.452694 0.427971
O O4 0.035261 0.451329 0.800821
O O5 0.559250 0.307842 0.667511
O O6 0.000000 0.337608 0.500000
O O7 0.087815 0.279103 0.276149
O O8 0.500000 0.000000 0.500000
O O9 0.919381 0.000000 0.897000
O O10 0.000000 0.779703 0.500000
O O11 0.500000 0.784979 0.000000
O O12 0.000000 0.500000 0.000000
#
# Coordination Sequence:
#
# PCOD9217548 Si02
#       5
#     8   8   4   8   4
#     4  11  22  42  67  97 133 177 232 272 344 425
#     4  10  23  43  68 102 138 180 236 297 347 420
#     4  11  23  43  67  95 135 167 219 289 346 393
#     4  10  23  48  73  99 144 193 234 291 360 422
#     4  11  21  45  71  94 133 187 221 286 340 423
#
# _framework density 21.406938
#
# number of rings (size 3 to 8) (size 9 to 14) (size 15 to 20)
#    0.000    1.500    2.500    2.250    0.000   12.000 
#   22.500    0.000    0.000    0.000    0.000    0.000 
#    0.000    0.000    0.000    0.000    0.000    0.000 
#
# Total GULP energy -89187.724484 kJ/mol
# GULP energy per Si atom -5574.232780 kJ/mol
# Density = 2.135821 g / cm^3
# Si number density = 21.406938 Si / 1000 Ang^3
#
#
#
# Elastic Constant Matrix: (Units=GPa)
#
#
# Indices 1 2 3 4 5 6 
#
# 1 157.1547 68.6511 58.8981 0.0000 -20.7268 0.0000
# 2 68.6511 123.1887 26.4174 0.0000 8.7690 0.0000
# 3 58.8981 26.4174 114.3642 0.0000 -24.8466 0.0000
# 4 0.0000 0.0000 0.0000 11.0700 0.0000 3.6799
# 5 -20.7268 8.7690 -24.8466 0.0000 27.7326 0.0000
# 6 0.0000 0.0000 0.0000 3.6799 0.0000 8.9037
#
#
#
# Elastic Compliance Matrix: (Units=1/GPa)
#
#
# Indices 1 2 3 4 5 6 
#
# 1 0.011068 -0.006189 -0.002543 0.000000 0.007950 0.000000
# 2 -0.006189 0.012749 -0.002034 0.000000 -0.010479 0.000000
# 3 -0.002543 -0.002034 0.012728 0.000000 0.010146 0.000000
# 4 0.000000 0.000000 0.000000 0.104722 0.000000 -0.043281
# 5 0.007950 -0.010479 0.010146 0.000000 0.054404 0.000000
# 6 0.000000 0.000000 0.000000 -0.043281 0.000000 0.130200
#
#
# Mechanical properties :
#
#
# Convention : Reuss Voigt Hill
#
# Bulk Modulus (GPa) = 66.61240 78.07120 72.34180
# Shear Modulus (GPa) = 14.18810 25.59067 19.88938
#
# Velocity S-wave (km/s) = 2.57725 3.46126 3.05144
# Velocity P-wave (km/s) = 6.32780 7.24727 6.80309
#
# Compressibility (1/GPa) = 0.01501222
#
# Stress axis : x y z
#
# Youngs Moduli (GPa) = 90.34710 78.43933 78.56657
#
# Poissons Ratio (x) = 0.48544 0.19983
# Poissons Ratio (y) = 0.55914 0.15983
# Poissons Ratio (z) = 0.22979 0.15957
#
# Static dielectric constant tensor:
#      x y z
#    x 1.780860 0.000000 0.034920 
#    y 0.000000 1.634150 0.000000 
#    z 0.034920 0.000000 1.852660 
# 
# From -- ./inp_files/125555.got.cif
#   From: 2010.05.17/outbox.cif.g08.bks.cpg/sg12_63_cif.got.tgz:125555.got - 2010.06.03 13:09:07.
