data_PCOD9217782
_publ_section_title
;
Structure prediction by ZEFSAII (Michael W. Deem and Ramdas Pophale) SiO2 
 PCOD9217782
Probable space group: C 2/M
;
_chemical_formula_sum "Si O2"
_cell_formula_units_Z 48
_cell_length_a 18.156177
_cell_length_b 9.833065
_cell_length_c 29.133881
_cell_angle_alpha 90.000000
_cell_angle_beta 28.636409
_cell_angle_gamma 90.000000
_cell_volume 2492.719970
_symmetry_space_group_name_H-M "C 2/M"
_symmetry_group_IT_number 12
_symmetry_cell_setting 'monoclinic'
loop_
_space_group_symop_operation_xyz
x,y,z
-x,y,-z
-x,-y,-z
x,-y,z
1/2+x,1/2+y,z
1/2-x,1/2+y,-z
1/2-x,1/2-y,-z
1/2+x,1/2-y,z
loop_
_atom_site_type_symbol
_atom_site_label
_atom_site_fract_x
_atom_site_fract_y
_atom_site_fract_z
Si Si1 0.815365 0.334955 0.421407
Si Si2 0.366974 0.743547 0.792168
Si Si3 0.676592 0.845073 0.417427
Si Si4 0.854360 0.500000 0.115029
Si Si5 0.003564 0.500000 0.133732
Si Si6 0.141929 0.000000 0.051966
Si Si7 0.667801 0.500000 0.929067
Si Si8 0.038911 0.782926 0.793707
O O1 0.800341 0.500000 0.432945
O O2 0.750000 0.250000 0.500000
O O3 0.727297 0.270955 0.425518
O O4 0.993583 0.293111 0.316336
O O5 0.256732 0.628191 0.832755
O O6 0.260657 0.869903 0.862091
O O7 0.446528 0.698544 0.796511
O O8 0.500000 0.831162 0.500000
O O9 0.789113 0.829183 0.312247
O O10 0.699632 0.000000 0.423429
O O11 0.916018 0.500000 0.133313
O O12 0.000000 0.500000 0.000000
O O13 0.965707 0.630095 0.185604
O O14 0.185369 0.500000 0.023309
O O15 0.047350 0.871619 0.121435
O O16 0.157445 0.000000 0.989311
O O17 0.500000 0.500000 0.000000
#
# Coordination Sequence:
#
# PCOD9217782 Si02
#       8
#     8   8   8   4   4   4   4   8
#     4  11  25  45  74 100 132 184 232 284 353 421
#     4  11  24  47  68  97 138 184 224 288 346 415
#     4  10  23  45  70 100 138 174 224 287 348 414
#     4  12  28  42  67 101 145 181 235 289 344 399
#     4  12  26  42  65 100 136 174 231 287 329 405
#     4  12  24  42  69  96 130 184 229 274 332 414
#     4  12  26  42  67  97 137 180 231 275 344 410
#     4  11  23  43  69  96 131 180 227 276 347 402
#
# _framework density 19.256074999999999
#
# number of rings (size 3 to 8) (size 9 to 14) (size 15 to 20)
#    0.000    0.833    3.333    3.000   12.833    1.667 
#    0.000    0.000    0.000    0.000    0.000    0.000 
#    0.000    0.000    0.000    0.000    0.000    0.000 
#
# Total GULP energy -134155.828990 kJ/mol
# GULP energy per Si atom -5589.826208 kJ/mol
# Density = 1.921225 g / cm^3
# Si number density = 19.256075 Si / 1000 Ang^3
#
#
#
# Elastic Constant Matrix: (Units=GPa)
#
#
# Indices 1 2 3 4 5 6 
#
# 1 101.6854 54.2557 68.0394 0.0000 -5.1007 0.0001
# 2 54.2557 171.8233 84.2042 -0.0002 0.3379 0.0001
# 3 68.0394 84.2042 179.9225 -0.0005 -8.9479 0.0001
# 4 0.0000 -0.0002 -0.0005 50.8088 -0.0001 12.1408
# 5 -5.1007 0.3379 -8.9479 -0.0001 35.3660 -0.0001
# 6 0.0001 0.0001 0.0001 12.1408 -0.0001 48.0984
#
#
#
# Elastic Compliance Matrix: (Units=1/GPa)
#
#
# Indices 1 2 3 4 5 6 
#
# 1 0.013892 -0.002385 -0.004088 0.000000 0.000992 0.000000
# 2 -0.002385 0.007995 -0.002897 0.000000 -0.001153 0.000000
# 3 -0.004088 -0.002897 0.008539 0.000000 0.001599 0.000000
# 4 0.000000 0.000000 0.000000 0.020945 0.000000 -0.005287
# 5 0.000992 -0.001153 0.001599 0.000000 0.028834 0.000000
# 6 0.000000 0.000000 0.000000 -0.005287 0.000000 0.022125
#
#
# Mechanical properties :
#
#
# Convention : Reuss Voigt Hill
#
# Bulk Modulus (GPa) = 85.57262 96.26999 90.92130
# Shear Modulus (GPa) = 40.01090 43.31677 41.66383
#
# Velocity S-wave (km/s) = 4.56327 4.74805 4.65658
# Velocity P-wave (km/s) = 8.50296 8.95331 8.73104
#
# Compressibility (1/GPa) = 0.01168598
#
# Stress axis : x y z
#
# Youngs Moduli (GPa) = 71.98463 125.07585 117.10857
#
# Poissons Ratio (x) = 0.29834 0.47870
# Poissons Ratio (y) = 0.17170 0.33927
# Poissons Ratio (z) = 0.29425 0.36236
#
# Static dielectric constant tensor:
#      x y z
#    x 1.667800 0.000000 0.002060 
#    y 0.000000 1.679200 0.000000 
#    z 0.002060 0.000000 1.658210 
# 
# From -- ./inp_files/377952.got.cif
#   From: 2010.05.17/outbox.cif.g08.bks.cpg/sg12_189_cif.got.tgz:377952.got - 2010.06.03 13:09:07.
