data_PCOD9217873
_publ_section_title
;
Structure prediction by ZEFSAII (Michael W. Deem and Ramdas Pophale) SiO2 
 PCOD9217873
Probable space group: C 2/M
;
_chemical_formula_sum "Si O2"
_cell_formula_units_Z 42
_cell_length_a 8.840918
_cell_length_b 19.174282
_cell_length_c 11.712858
_cell_angle_alpha 90.000000
_cell_angle_beta 62.574574
_cell_angle_gamma 90.000000
_cell_volume 1762.390179
_symmetry_space_group_name_H-M "C 2/M"
_symmetry_group_IT_number 12
_symmetry_cell_setting 'monoclinic'
loop_
_space_group_symop_operation_xyz
x,y,z
-x,y,-z
-x,-y,-z
x,-y,z
1/2+x,1/2+y,z
1/2-x,1/2+y,-z
1/2-x,1/2-y,-z
1/2+x,1/2-y,z
loop_
_atom_site_type_symbol
_atom_site_label
_atom_site_fract_x
_atom_site_fract_y
_atom_site_fract_z
Si Si1 0.206481 0.082217 0.944367
Si Si2 0.666131 0.797588 0.268688
Si Si3 0.240930 0.080630 0.193840
Si Si4 0.040241 0.831202 0.658891
Si Si5 0.164087 0.373750 0.591651
Si Si6 0.000000 0.500000 0.500000
O O1 0.288071 0.142575 0.838578
O O2 0.251036 0.000000 0.901828
O O3 0.266269 0.099569 0.052356
O O4 0.000000 0.086521 0.000000
O O5 0.818888 0.804224 0.302792
O O6 0.625787 0.717110 0.257513
O O7 0.481629 0.817722 0.380175
O O8 0.332572 0.109857 0.274836
O O9 0.038782 0.093568 0.284517
O O10 0.282932 0.000000 0.182579
O O11 0.153478 0.842116 0.506642
O O12 0.108450 0.439082 0.533402
#
# Coordination Sequence:
#
# PCOD9217873 Si02
#       6
#     8   8   8   8   8   2
#     4  10  23  47  78 108 142 192 246 309 370 429
#     4  12  26  47  73 102 149 197 247 301 367 444
#     4  11  25  45  74 110 149 188 246 306 366 437
#     4  12  26  45  72 107 147 199 242 303 369 441
#     4  12  26  45  73 111 148 191 242 304 372 438
#     4  12  24  44  74 110 152 192 238 304 370 432
#
# _framework density 23.831271999999998
#
# number of rings (size 3 to 8) (size 9 to 14) (size 15 to 20)
#    0.000    0.571    4.762    2.286    2.667    3.810 
#    0.000    1.905    0.000    0.000    0.000    0.000 
#    0.000    0.000    0.000    0.000    0.000    0.000 
#
# Total GULP energy -116917.655414 kJ/mol
# GULP energy per Si atom -5567.507401 kJ/mol
# Density = 2.377703 g / cm^3
# Si number density = 23.831272 Si / 1000 Ang^3
#
#
#
# Elastic Constant Matrix: (Units=GPa)
#
#
# Indices 1 2 3 4 5 6 
#
# 1 151.3937 31.3369 29.5806 0.0000 31.0217 0.0000
# 2 31.3369 87.4667 46.5327 0.0000 14.7638 0.0000
# 3 29.5806 46.5327 82.8840 0.0000 23.9774 0.0000
# 4 0.0000 0.0000 0.0000 18.8066 0.0000 15.6073
# 5 31.0217 14.7638 23.9774 0.0000 40.1165 0.0000
# 6 0.0000 0.0000 0.0000 15.6073 0.0000 -15.1585
#
#
#
# Elastic Compliance Matrix: (Units=1/GPa)
#
#
# Indices 1 2 3 4 5 6 
#
# 1 0.008163 -0.001844 -0.000300 0.000000 -0.005455 0.000000
# 2 -0.001844 0.016732 -0.008907 0.000000 0.000592 0.000000
# 3 -0.000300 -0.008907 0.019535 0.000000 -0.008166 0.000000
# 4 0.000000 0.000000 0.000000 0.028673 0.000000 0.029522
# 5 -0.005455 0.000592 -0.008166 0.000000 0.033808 0.000000
# 6 0.000000 0.000000 0.000000 0.029522 0.000000 -0.035574
#
#
# Mechanical properties :
#
#
# Convention : Reuss Voigt Hill
#
# Bulk Modulus (GPa) = 44.78664 59.62720 52.20692
# Shear Modulus (GPa) = 49.56219 23.03921 36.30070
#
# Velocity S-wave (km/s) = 4.56533 3.11266 3.90710
# Velocity P-wave (km/s) = 6.82816 6.16385 6.50449
#
# Compressibility (1/GPa) = 0.02232809
#
# Stress axis : x y z
#
# Youngs Moduli (GPa) = 122.49843 59.76475 51.19042
#
# Poissons Ratio (x) = 0.11023 0.01536
# Poissons Ratio (y) = 0.22594 0.45594
# Poissons Ratio (z) = 0.03675 0.53231
#
# Static dielectric constant tensor:
#      x y z
#    x 1.905360 0.000000 0.028650 
#    y 0.000000 1.977520 0.000000 
#    z 0.028650 0.000000 2.016780 
# 
# From -- ./inp_files/120615.got.cif
#   From: 2010.05.17/outbox.cif.g08.bks.cpg/sg12_61_cif.got.tgz:120615.got - 2010.06.03 13:09:07.
