data_PCOD9217167
_publ_section_title
;
Structure prediction by ZEFSAII (Michael W. Deem and Ramdas Pophale) SiO2 
 PCOD9217167
Probable space group: C 2/M
;
_chemical_formula_sum "Si O2"
_cell_formula_units_Z 48
_cell_length_a 19.181635
_cell_length_b 9.119419
_cell_length_c 20.667594
_cell_angle_alpha 90.000000
_cell_angle_beta 36.860037
_cell_angle_gamma 90.000000
_cell_volume 2168.674088
_symmetry_space_group_name_H-M "C 2/M"
_symmetry_group_IT_number 12
_symmetry_cell_setting 'monoclinic'
loop_
_space_group_symop_operation_xyz
x,y,z
-x,y,-z
-x,-y,-z
x,-y,z
1/2+x,1/2+y,z
1/2-x,1/2+y,-z
1/2-x,1/2-y,-z
1/2+x,1/2-y,z
loop_
_atom_site_type_symbol
_atom_site_label
_atom_site_fract_x
_atom_site_fract_y
_atom_site_fract_z
Si Si1 0.193541 0.325604 0.105166
Si Si2 0.885963 0.329023 0.231254
Si Si3 0.932227 0.167771 0.982986
Si Si4 0.557871 0.831862 0.559974
Si Si5 0.818061 0.332148 0.671809
Si Si6 0.054235 0.173581 0.687629
O O1 0.173767 0.500000 0.109929
O O2 0.073662 0.246187 0.210759
O O3 0.250000 0.250000 0.000000
O O4 0.293752 0.311075 0.085714
O O5 0.880445 0.500000 0.247704
O O6 0.008371 0.280544 0.109950
O O7 0.788539 0.277506 0.252819
O O8 0.872942 0.239114 0.307147
O O9 0.951302 0.000000 0.944768
O O10 0.000000 0.180405 0.000000
O O11 0.422858 0.800940 0.642855
O O12 0.623768 0.825062 0.442852
O O13 0.600309 0.723916 0.583729
O O14 0.565395 0.000000 0.578043
O O15 0.777650 0.500000 0.712545
O O16 0.048159 0.000000 0.697390
#
# Coordination Sequence:
#
# PCOD9217167 Si02
#       6
#     8   8   8   8   8   8
#     4  11  22  39  63  89 121 160 200 248 298 355
#     4  12  25  40  61  90 124 160 203 253 301 356
#     4  10  23  42  63  88 119 160 203 244 298 359
#     4   9  20  41  67  93 119 157 202 246 299 365
#     4   9  20  41  67  91 122 158 197 246 304 364
#     4  12  25  40  61  89 124 164 204 250 302 357
#
# _framework density 22.133338999999999
#
# number of rings (size 3 to 8) (size 9 to 14) (size 15 to 20)
#    0.000    1.500    1.667    4.500    2.333    3.000 
#    0.000    1.667    0.000    0.000    0.000    0.000 
#    0.000    0.000    0.000    0.000    0.000    0.000 
#
# Total GULP energy -134294.032041 kJ/mol
# GULP energy per Si atom -5595.584668 kJ/mol
# Density = 2.208296 g / cm^3
# Si number density = 22.133339 Si / 1000 Ang^3
#
#
#
# Elastic Constant Matrix: (Units=GPa)
#
#
# Indices 1 2 3 4 5 6 
#
# 1 82.8400 45.5549 -1.5557 0.0000 -3.0235 0.0000
# 2 45.5549 136.0134 16.7217 0.0000 5.2137 0.0000
# 3 -1.5557 16.7217 34.0838 0.0000 -2.1910 0.0000
# 4 0.0000 0.0000 0.0000 30.7086 0.0000 2.0313
# 5 -3.0235 5.2137 -2.1910 0.0000 37.6246 0.0000
# 6 0.0000 0.0000 0.0000 2.0313 0.0000 21.5600
#
#
#
# Elastic Compliance Matrix: (Units=1/GPa)
#
#
# Indices 1 2 3 4 5 6 
#
# 1 0.015338 -0.005668 0.003624 0.000000 0.002229 0.000000
# 2 -0.005668 0.009984 -0.005295 0.000000 -0.002147 0.000000
# 3 0.003624 -0.005295 0.032289 0.000000 0.002905 0.000000
# 4 0.000000 0.000000 0.000000 0.032768 0.000000 -0.003087
# 5 0.002229 -0.002147 0.002905 0.000000 0.027224 0.000000
# 6 0.000000 0.000000 0.000000 -0.003087 0.000000 0.046673
#
#
# Mechanical properties :
#
#
# Convention : Reuss Voigt Hill
#
# Bulk Modulus (GPa) = 23.29191 41.59767 32.44479
# Shear Modulus (GPa) = 25.87113 30.79304 28.33209
#
# Velocity S-wave (km/s) = 3.42259 3.73400 3.58168
# Velocity P-wave (km/s) = 5.11519 6.11762 5.63872
#
# Compressibility (1/GPa) = 0.04293337
#
# Stress axis : x y z
#
# Youngs Moduli (GPa) = 65.19813 100.16115 30.97002
#
# Poissons Ratio (x) = 0.56772 -0.11224
# Poissons Ratio (y) = 0.36955 0.16398
# Poissons Ratio (z) = -0.23629 0.53034
#
# Static dielectric constant tensor:
#      x y z
#    x 1.833070 0.000000 0.001400 
#    y 0.000000 1.737370 0.000000 
#    z 0.001400 0.000000 1.853050 
# 
# From -- ./inp_files/319561.got.cif
#   From: 2010.05.17/outbox.cif.g08.bks.cpg/sg12_160_cif.got.tgz:319561.got - 2010.06.03 13:09:07.
