data_PCOD9217794
_publ_section_title
;
Structure prediction by ZEFSAII (Michael W. Deem and Ramdas Pophale) SiO2 
 PCOD9217794
Probable space group: C 2/M
;
_chemical_formula_sum "Si O2"
_cell_formula_units_Z 48
_cell_length_a 22.738063
_cell_length_b 16.537503
_cell_length_c 17.973660
_cell_angle_alpha 90.000000
_cell_angle_beta 161.834885
_cell_angle_gamma 90.000000
_cell_volume 2107.052653
_symmetry_space_group_name_H-M "C 2/M"
_symmetry_group_IT_number 12
_symmetry_cell_setting 'monoclinic'
loop_
_space_group_symop_operation_xyz
x,y,z
-x,y,-z
-x,-y,-z
x,-y,z
1/2+x,1/2+y,z
1/2-x,1/2+y,-z
1/2-x,1/2-y,-z
1/2+x,1/2-y,z
loop_
_atom_site_type_symbol
_atom_site_label
_atom_site_fract_x
_atom_site_fract_y
_atom_site_fract_z
Si Si1 0.120787 0.087837 0.571218
Si Si2 0.622994 0.853394 0.426434
Si Si3 0.288123 0.407876 0.051228
Si Si4 0.317361 0.088345 0.332487
Si Si5 0.468010 0.697497 0.750856
Si Si6 0.131904 0.257628 0.089472
O O1 0.250936 0.164137 0.745711
O O2 0.000000 0.080111 0.500000
O O3 0.964854 0.099740 0.319672
O O4 0.217198 0.000000 0.673139
O O5 0.655769 0.892520 0.546989
O O6 0.601366 0.755455 0.399685
O O7 0.804655 0.860546 0.589358
O O8 0.413964 0.886887 0.156019
O O9 0.278281 0.500000 0.012899
O O10 0.348777 0.349245 0.057595
O O11 0.500000 0.080685 0.500000
O O12 0.231860 0.171587 0.200720
O O13 0.218667 0.000000 0.208182
O O14 0.520500 0.762062 0.878260
O O15 0.000000 0.242790 0.000000
#
# Coordination Sequence:
#
# PCOD9217794 Si02
#       6
#     8   8   8   8   8   8
#     4  10  23  45  71 100 134 179 236 292 352 418
#     4  11  23  44  68  99 138 185 233 289 347 419
#     4  11  24  43  70 102 140 182 229 291 357 421
#     4  11  24  43  69 102 140 185 236 286 350 426
#     4  11  25  43  70 102 136 186 236 291 354 426
#     4  12  24  43  68  97 139 181 228 288 351 416
#
# _framework density 22.780638
#
# number of rings (size 3 to 8) (size 9 to 14) (size 15 to 20)
#    0.000    1.000    1.667    4.500    2.333    4.000 
#    0.000    0.833    0.000    0.000    0.000    0.000 
#    0.000    0.000    0.000    0.000    0.000    0.000 
#
# Total GULP energy -133778.756766 kJ/mol
# GULP energy per Si atom -5574.114865 kJ/mol
# Density = 2.272879 g / cm^3
# Si number density = 22.780638 Si / 1000 Ang^3
#
#
#
# Elastic Constant Matrix: (Units=GPa)
#
#
# Indices 1 2 3 4 5 6 
#
# 1 68.4988 17.2388 -0.6366 0.0007 -5.2650 -0.0031
# 2 17.2388 109.6427 40.6718 0.0011 -12.1961 -0.0009
# 3 -0.6366 40.6718 63.9712 0.0009 -0.5472 -0.0083
# 4 0.0007 0.0011 0.0009 69.2401 0.0006 32.3106
# 5 -5.2650 -12.1961 -0.5472 0.0006 26.9233 0.0001
# 6 -0.0031 -0.0009 -0.0083 32.3106 0.0001 -24.4431
#
#
#
# Elastic Compliance Matrix: (Units=1/GPa)
#
#
# Indices 1 2 3 4 5 6 
#
# 1 0.015511 -0.003025 0.002092 0.000001 0.001705 -0.000002
# 2 -0.003025 0.013318 -0.008452 -0.000001 0.005269 0.000002
# 3 0.002092 -0.008452 0.021001 0.000002 -0.002993 -0.000005
# 4 0.000001 -0.000001 0.000002 0.008933 0.000000 0.011808
# 5 0.001705 0.005269 -0.002993 0.000000 0.039802 0.000000
# 6 -0.000002 0.000002 -0.000005 0.011808 0.000000 -0.025303
#
#
# Mechanical properties :
#
#
# Convention : Reuss Voigt Hill
#
# Bulk Modulus (GPa) = 32.19654 39.62897 35.91275
# Shear Modulus (GPa) = 48.83581 26.66666 37.75124
#
# Velocity S-wave (km/s) = 4.63508 3.42509 4.07524
# Velocity P-wave (km/s) = 6.54288 5.75112 6.15973
#
# Compressibility (1/GPa) = 0.03105924
#
# Stress axis : x y z
#
# Youngs Moduli (GPa) = 64.47193 75.08842 47.61673
#
# Poissons Ratio (x) = 0.22715 -0.09963
# Poissons Ratio (y) = 0.19504 0.40246
# Poissons Ratio (z) = -0.13489 0.63466
#
# Static dielectric constant tensor:
#      x y z
#    x 1.848270 -0.000630 -0.032960 
#    y -0.000630 80.713860 0.005760 
#    z -0.032960 0.005760 1.852700 
# 
# From -- ./inp_files/285438.got.cif
#   From: 2010.05.17/outbox.cif.g08.bks.cpg/sg12_143_cif.got.tgz:285438.got - 2010.06.03 13:09:07.
