data_PCOD9217753
_publ_section_title
;
Structure prediction by ZEFSAII (Michael W. Deem and Ramdas Pophale) SiO2 
 PCOD9217753
Probable space group: C 2/M
;
_chemical_formula_sum "Si O2"
_cell_formula_units_Z 46
_cell_length_a 14.005100
_cell_length_b 21.782102
_cell_length_c 6.737560
_cell_angle_alpha 90.000000
_cell_angle_beta 120.132990
_cell_angle_gamma 90.000000
_cell_volume 1777.606877
_symmetry_space_group_name_H-M "C 2/M"
_symmetry_group_IT_number 12
_symmetry_cell_setting 'monoclinic'
loop_
_space_group_symop_operation_xyz
x,y,z
-x,y,-z
-x,-y,-z
x,-y,z
1/2+x,1/2+y,z
1/2-x,1/2+y,-z
1/2-x,1/2-y,-z
1/2+x,1/2-y,z
loop_
_atom_site_type_symbol
_atom_site_label
_atom_site_fract_x
_atom_site_fract_y
_atom_site_fract_z
Si Si1 0.321078 0.188324 0.341628
Si Si2 0.500000 0.000000 0.500000
Si Si3 0.151767 0.000000 0.995262
Si Si4 0.083988 0.771620 0.238764
Si Si5 0.462278 0.591238 0.687473
Si Si6 0.852994 0.410921 0.089979
Si Si7 0.298416 0.067791 0.576541
O O1 0.199593 0.217043 0.244834
O O2 0.397611 0.235992 0.537006
O O3 0.345828 0.160197 0.151825
O O4 0.326977 0.126724 0.480412
O O5 0.454767 0.945651 0.295471
O O6 0.055712 0.947264 0.891820
O O7 0.246141 0.946391 0.064693
O O8 0.039815 0.838802 0.248173
O O9 0.000000 0.740465 0.000000
O O10 0.500000 0.586628 0.500000
O O11 0.336375 0.565959 0.566102
O O12 0.842469 0.421769 0.843862
O O13 0.335949 0.000000 0.536952
#
# Coordination Sequence:
#
# PCOD9217753 Si02
#       7
#     8   2   4   8   8   8   8
#     4  10  25  44  64  90 129 175 213 261 312 380
#     4  10  24  38  56  94 120 158 226 254 302 380
#     4  11  19  34  68 100 134 156 198 269 339 383
#     4  10  23  45  61  91 129 167 224 258 303 388
#     4  11  19  36  64 103 131 157 202 263 334 396
#     4  11  22  42  61  91 130 165 209 268 314 377
#     4  11  21  38  66  97 130 164 204 259 331 389
#
# _framework density 25.877486000000001
#
# number of rings (size 3 to 8) (size 9 to 14) (size 15 to 20)
#    0.000    1.391    4.348    1.304    2.435    1.391 
#    4.696    5.652    0.000    0.000    0.000    0.000 
#    0.000    0.000    0.000    0.000    0.000    0.000 
#
# Total GULP energy -128269.051139 kJ/mol
# GULP energy per Si atom -5576.915267 kJ/mol
# Density = 2.581859 g / cm^3
# Si number density = 25.877486 Si / 1000 Ang^3
#
#
#
# Elastic Constant Matrix: (Units=GPa)
#
#
# Indices 1 2 3 4 5 6 
#
# 1 59.9039 22.2115 28.0933 0.0000 14.6088 0.0000
# 2 22.2115 130.4010 20.9717 0.0000 2.2296 0.0000
# 3 28.0933 20.9717 128.8864 0.0000 5.9151 0.0000
# 4 0.0000 0.0000 0.0000 56.6679 0.0000 19.4527
# 5 14.6088 2.2296 5.9151 0.0000 43.6432 0.0000
# 6 0.0000 0.0000 0.0000 19.4527 0.0000 54.1534
#
#
#
# Elastic Compliance Matrix: (Units=1/GPa)
#
#
# Indices 1 2 3 4 5 6 
#
# 1 0.021121 -0.002870 -0.003843 0.000000 -0.006402 0.000000
# 2 -0.002870 0.008267 -0.000749 0.000000 0.000640 0.000000
# 3 -0.003843 -0.000749 0.008712 0.000000 0.000144 0.000000
# 4 0.000000 0.000000 0.000000 0.020129 0.000000 -0.007231
# 5 -0.006402 0.000640 0.000144 0.000000 0.025004 0.000000
# 6 0.000000 0.000000 0.000000 -0.007231 0.000000 0.021063
#
#
# Mechanical properties :
#
#
# Convention : Reuss Voigt Hill
#
# Bulk Modulus (GPa) = 43.14818 51.30492 47.22655
# Shear Modulus (GPa) = 39.38703 47.42055 43.40379
#
# Velocity S-wave (km/s) = 3.90559 4.28542 4.09990
# Velocity P-wave (km/s) = 6.08674 6.65999 6.37981
#
# Compressibility (1/GPa) = 0.02317595
#
# Stress axis : x y z
#
# Youngs Moduli (GPa) = 47.34577 120.96238 114.78850
#
# Poissons Ratio (x) = 0.34718 0.44112
# Poissons Ratio (y) = 0.13589 0.08597
# Poissons Ratio (z) = 0.18195 0.09059
#
# Static dielectric constant tensor:
#      x y z
#    x 2.241310 0.000000 -0.076330 
#    y 0.000000 1.976030 0.000000 
#    z -0.076330 0.000000 2.046330 
# 
# From -- ./inp_files/89752.got.cif
#   From: 2010.05.17/outbox.cif.g08.bks.cpg/sg12_45_cif.got.tgz:89752.got - 2010.06.03 13:09:07.
