data_PCOD9217859
_publ_section_title
;
Structure prediction by ZEFSAII (Michael W. Deem and Ramdas Pophale) SiO2 
 PCOD9217859
Probable space group: C 2/M
;
_chemical_formula_sum "Si O2"
_cell_formula_units_Z 50
_cell_length_a 10.183100
_cell_length_b 26.303800
_cell_length_c 15.561689
_cell_angle_alpha 90.000000
_cell_angle_beta 139.006005
_cell_angle_gamma 90.000000
_cell_volume 2734.297617
_symmetry_space_group_name_H-M "C 2/M"
_symmetry_group_IT_number 12
_symmetry_cell_setting 'monoclinic'
loop_
_space_group_symop_operation_xyz
x,y,z
-x,y,-z
-x,-y,-z
x,-y,z
1/2+x,1/2+y,z
1/2-x,1/2+y,-z
1/2-x,1/2-y,-z
1/2+x,1/2-y,z
loop_
_atom_site_type_symbol
_atom_site_label
_atom_site_fract_x
_atom_site_fract_y
_atom_site_fract_z
Si Si1 0.554952 0.129267 0.934235
Si Si2 0.414755 0.944646 0.714781
Si Si3 0.392609 0.763834 0.798081
Si Si4 0.571756 0.884701 0.630746
Si Si5 0.000805 0.850143 0.101737
Si Si6 0.463304 0.228495 0.632337
Si Si7 0.000000 0.000000 0.500000
O O1 0.466419 0.095396 0.813964
O O2 0.465325 0.186061 0.882279
O O3 0.500000 0.107864 0.000000
O O4 0.792258 0.133297 0.039078
O O5 0.495028 0.923748 0.664130
O O6 0.509887 0.000000 0.781115
O O7 0.178997 0.956526 0.592563
O O8 0.474084 0.710780 0.875932
O O9 0.470647 0.768850 0.739136
O O10 0.151792 0.758488 0.685387
O O11 0.500000 0.898413 0.500000
O O12 0.482098 0.829367 0.610204
O O13 0.809950 0.876374 0.758855
O O14 0.000000 0.862259 0.000000
O O15 0.250000 0.250000 0.500000
#
# Coordination Sequence:
#
# PCOD9217859 Si02
#       7
#     8   8   8   8   8   8   2
#     4  12  23  39  66  98 131 176 221 270 339 402
#     4  10  23  47  67  93 126 171 222 278 336 391
#     4  11  21  36  57  94 138 175 222 268 322 403
#     4  11  23  42  68  94 133 171 224 280 330 402
#     4  11  21  40  63  98 137 178 218 272 327 398
#     4  11  21  36  56  95 135 179 223 270 324 398
#     4   8  24  44  72  86 136 158 216 284 348 390
#
# _framework density 18.286232999999999
#
# number of rings (size 3 to 8) (size 9 to 14) (size 15 to 20)
#    0.480    0.640    3.200    5.280    0.000    3.200 
#    0.000    1.600    0.000    0.000    0.000    0.000 
#    0.000    0.000    0.000    0.000    0.000    0.000 
#
# Total GULP energy -139364.680775 kJ/mol
# GULP energy per Si atom -5574.587231 kJ/mol
# Density = 1.824461 g / cm^3
# Si number density = 18.286233 Si / 1000 Ang^3
#
#
#
# Elastic Constant Matrix: (Units=GPa)
#
#
# Indices 1 2 3 4 5 6 
#
# 1 120.8389 43.9676 60.3565 0.0000 3.7144 0.0000
# 2 43.9676 69.3655 50.9659 0.0000 14.4791 0.0000
# 3 60.3565 50.9659 107.1093 0.0000 3.5188 0.0000
# 4 0.0000 0.0000 0.0000 3.7069 0.0000 0.6195
# 5 3.7144 14.4791 3.5188 0.0000 51.6932 0.0000
# 6 0.0000 0.0000 0.0000 0.6195 0.0000 8.9236
#
#
#
# Elastic Compliance Matrix: (Units=1/GPa)
#
#
# Indices 1 2 3 4 5 6 
#
# 1 0.012265 -0.004334 -0.004871 0.000000 0.000664 0.000000
# 2 -0.004334 0.025378 -0.009431 0.000000 -0.006155 0.000000
# 3 -0.004871 -0.009431 0.016507 0.000000 0.001868 0.000000
# 4 0.000000 0.000000 0.000000 0.272936 0.000000 -0.018948
# 5 0.000664 -0.006155 0.001868 0.000000 0.020894 0.000000
# 6 0.000000 0.000000 0.000000 -0.018948 0.000000 0.113378
#
#
# Mechanical properties :
#
#
# Convention : Reuss Voigt Hill
#
# Bulk Modulus (GPa) = 59.24887 67.54374 63.39631
# Shear Modulus (GPa) = 9.91562 22.33298 16.12430
#
# Velocity S-wave (km/s) = 2.33114 3.49850 2.97269
# Velocity P-wave (km/s) = 6.30212 7.30318 6.82104
#
# Compressibility (1/GPa) = 0.01687796
#
# Stress axis : x y z
#
# Youngs Moduli (GPa) = 81.53359 39.40481 60.57936
#
# Poissons Ratio (x) = 0.17078 0.29508
# Poissons Ratio (y) = 0.35336 0.57133
# Poissons Ratio (z) = 0.39714 0.37163
#
# Static dielectric constant tensor:
#      x y z
#    x 1.654460 0.000000 -0.037420 
#    y 0.000000 1.607560 0.000000 
#    z -0.037420 0.000000 1.653060 
# 
# From -- ./inp_files/199969.got.cif
#   From: 2010.05.17/outbox.cif.g08.bks.cpg/sg12_100_cif.got.tgz:199969.got - 2010.06.03 13:09:07.
