data_PCOD9217020
_publ_section_title
;
Structure prediction by ZEFSAII (Michael W. Deem and Ramdas Pophale) SiO2 
 PCOD9217020
Probable space group: C 2/M
;
_chemical_formula_sum "Si O2"
_cell_formula_units_Z 58
_cell_length_a 23.996467
_cell_length_b 7.770691
_cell_length_c 22.477558
_cell_angle_alpha 90.000000
_cell_angle_beta 38.181634
_cell_angle_gamma 90.000000
_cell_volume 2590.922865
_symmetry_space_group_name_H-M "C 2/M"
_symmetry_group_IT_number 12
_symmetry_cell_setting 'monoclinic'
loop_
_space_group_symop_operation_xyz
x,y,z
-x,y,-z
-x,-y,-z
x,-y,z
1/2+x,1/2+y,z
1/2-x,1/2+y,-z
1/2-x,1/2-y,-z
1/2+x,1/2-y,z
loop_
_atom_site_type_symbol
_atom_site_label
_atom_site_fract_x
_atom_site_fract_y
_atom_site_fract_z
Si Si1 0.715047 0.292638 0.095586
Si Si2 0.119432 0.200193 0.963922
Si Si3 0.969236 0.690667 0.180616
Si Si4 0.671843 0.707084 0.518785
Si Si5 0.823840 0.793038 0.211347
Si Si6 0.138674 0.699456 0.416941
Si Si7 0.500000 0.500000 0.500000
Si Si8 0.512829 0.695179 0.269807
O O1 0.716113 0.500000 0.100165
O O2 0.784506 0.215359 0.084273
O O3 0.612842 0.227820 0.190925
O O4 0.750000 0.250000 0.000000
O O5 0.130445 0.268899 0.888000
O O6 0.091930 0.000000 0.983919
O O7 0.047260 0.291549 0.066120
O O8 0.969466 0.500000 0.206053
O O9 0.877430 0.724569 0.222958
O O10 0.989472 0.809820 0.219439
O O11 0.669940 0.500000 0.515037
O O12 0.750000 0.750000 0.500000
O O13 0.683959 0.788901 0.444066
O O14 0.574164 0.770406 0.624595
O O15 0.718177 0.753621 0.303783
O O16 0.831419 0.000000 0.205677
O O17 0.110269 0.500000 0.430854
O O18 0.063560 0.845829 0.476051
O O19 0.521221 0.500000 0.285723
#
# Coordination Sequence:
#
# PCOD9217020 Si02
#       8
#     8   8   8   8   8   8   2   8
#     4  11  22  39  62  90 125 166 212 266 321 391
#     4  11  23  41  63  90 129 175 219 268 328 391
#     4  12  24  37  62  97 133 173 220 273 328 397
#     4  11  23  43  69 105 141 181 232 292 361 423
#     4  10  24  44  66  94 129 174 222 271 335 399
#     4  11  25  48  74 104 140 183 236 296 354 419
#     4  12  26  48  76 102 142 188 234 290 358 434
#     4  10  23  41  64  92 131 178 218 266 339 403
#
# _framework density 22.385846999999998
#
# number of rings (size 3 to 8) (size 9 to 14) (size 15 to 20)
#    0.000    1.103    2.069    3.931    0.966    8.828 
#    2.483    1.379    0.000    0.000    0.000    0.000 
#    0.000    0.000    0.000    0.000    0.000    0.000 
#
# Total GULP energy -161911.780915 kJ/mol
# GULP energy per Si atom -5583.164859 kJ/mol
# Density = 2.233490 g / cm^3
# Si number density = 22.385847 Si / 1000 Ang^3
#
#
#
# Elastic Constant Matrix: (Units=GPa)
#
#
# Indices 1 2 3 4 5 6 
#
# 1 58.3990 2.0217 -0.1824 0.0012 -24.6486 0.0000
# 2 2.0217 76.2619 -1.0379 0.0026 -4.0559 0.0002
# 3 -0.1824 -1.0379 86.3171 0.0019 -5.4096 -0.0010
# 4 0.0012 0.0026 0.0019 16.3899 -0.0017 -7.6550
# 5 -24.6486 -4.0559 -5.4096 -0.0017 23.8206 0.0015
# 6 0.0000 0.0002 -0.0010 -7.6550 0.0015 31.0936
#
#
#
# Elastic Compliance Matrix: (Units=1/GPa)
#
#
# Indices 1 2 3 4 5 6 
#
# 1 0.030835 0.000942 0.002116 0.000000 0.032548 -0.000002
# 2 0.000942 0.013269 0.000370 -0.000002 0.003318 -0.000001
# 3 0.002116 0.000370 0.011905 -0.000001 0.004956 0.000000
# 4 0.000000 -0.000002 -0.000001 0.068940 0.000003 0.016972
# 5 0.032548 0.003318 0.004956 0.000003 0.077351 -0.000003
# 6 -0.000002 -0.000001 0.000000 0.016972 -0.000003 0.036339
#
#
# Mechanical properties :
#
#
# Convention : Reuss Voigt Hill
#
# Bulk Modulus (GPa) = 15.90692 24.73116 20.31904
# Shear Modulus (GPa) = 19.78331 28.93925 24.36128
#
# Velocity S-wave (km/s) = 2.97600 3.59938 3.30243
# Velocity P-wave (km/s) = 4.35086 5.32407 4.86188
#
# Compressibility (1/GPa) = 0.06286571
#
# Stress axis : x y z
#
# Youngs Moduli (GPa) = 32.43044 75.36223 84.00025
#
# Poissons Ratio (x) = -0.07102 -0.17777
# Poissons Ratio (y) = -0.03056 -0.03104
# Poissons Ratio (z) = -0.06863 -0.02785
#
# Static dielectric constant tensor:
#      x y z
#    x 1.783890 -0.000010 -0.017330 
#    y -0.000010 1.807680 -0.000010 
#    z -0.017330 -0.000010 1.840060 
# 
# From -- ./inp_files/324588.got.cif
#   From: 2010.05.17/outbox.cif.g08.bks.cpg/sg12_163_cif.got.tgz:324588.got - 2010.06.03 13:09:07.
