data_PCOD9217938
_publ_section_title
;
Structure prediction by ZEFSAII (Michael W. Deem and Ramdas Pophale) SiO2 
 PCOD9217938
Probable space group: C 2/M
;
_chemical_formula_sum "Si O2"
_cell_formula_units_Z 52
_cell_length_a 9.076603
_cell_length_b 18.590597
_cell_length_c 17.318846
_cell_angle_alpha 90.000000
_cell_angle_beta 131.492405
_cell_angle_gamma 90.000000
_cell_volume 2188.984547
_symmetry_space_group_name_H-M "C 2/M"
_symmetry_group_IT_number 12
_symmetry_cell_setting 'monoclinic'
loop_
_space_group_symop_operation_xyz
x,y,z
-x,y,-z
-x,-y,-z
x,-y,z
1/2+x,1/2+y,z
1/2-x,1/2+y,-z
1/2-x,1/2-y,-z
1/2+x,1/2-y,z
loop_
_atom_site_type_symbol
_atom_site_label
_atom_site_fract_x
_atom_site_fract_y
_atom_site_fract_z
Si Si1 0.779789 0.624092 0.739675
Si Si2 0.069170 0.790743 0.329688
Si Si3 0.581883 0.000000 0.115354
Si Si4 0.563007 0.368522 0.163839
Si Si5 0.500000 0.150307 0.500000
Si Si6 0.525679 0.227315 0.927501
Si Si7 0.497779 0.879807 0.667564
Si Si8 0.647687 0.500000 0.980111
O O1 0.570063 0.662941 0.662190
O O2 0.790201 0.566082 0.810892
O O3 0.853305 0.593117 0.683926
O O4 0.937781 0.681995 0.827125
O O5 0.020057 0.825344 0.228498
O O6 0.301581 0.803377 0.419879
O O7 0.018365 0.707640 0.327122
O O8 0.500000 0.000000 0.000000
O O9 0.371410 0.000000 0.086126
O O10 0.583589 0.304035 0.109417
O O11 0.403747 0.427788 0.085515
O O12 0.777741 0.403446 0.242070
O O13 0.540851 0.106286 0.435907
O O14 0.500000 0.187898 0.000000
O O15 0.750000 0.250000 0.000000
O O16 0.500000 0.500000 0.000000
#
# Coordination Sequence:
#
# PCOD9217938 Si02
#       8
#     8   8   4   8   4   8   8   4
#     4  12  23  40  65  90 133 169 212 269 317 380
#     4  11  21  41  64  96 129 163 210 265 333 390
#     4  12  26  44  62  95 131 178 227 255 312 378
#     4  11  22  39  60  89 130 172 214 263 317 371
#     4  10  24  38  68 101 128 159 204 274 330 398
#     4  12  21  34  57  88 120 163 211 260 311 358
#     4  11  21  41  64  97 129 162 211 260 333 388
#     4  12  24  42  62  89 131 178 233 259 298 378
#
# _framework density 23.755306000000001
#
# number of rings (size 3 to 8) (size 9 to 14) (size 15 to 20)
#    0.000    0.615    3.077    6.923    0.000    0.615 
#    0.000    0.000    0.000   17.538    0.000    0.000 
#    0.000    0.000    0.000    0.000    0.000    0.000 
#
# Total GULP energy -145387.186451 kJ/mol
# GULP energy per Si atom -5591.814864 kJ/mol
# Density = 2.370124 g / cm^3
# Si number density = 23.755306 Si / 1000 Ang^3
#
#
#
# Elastic Constant Matrix: (Units=GPa)
#
#
# Indices 1 2 3 4 5 6 
#
# 1 111.0345 -12.6294 30.7090 0.0000 -19.4057 0.0000
# 2 -12.6294 76.2785 17.4145 0.0000 -0.7102 0.0000
# 3 30.7090 17.4145 90.1748 0.0000 -4.4183 0.0000
# 4 0.0000 0.0000 0.0000 8.0799 0.0000 4.7225
# 5 -19.4057 -0.7102 -4.4183 0.0000 60.3458 0.0000
# 6 0.0000 0.0000 0.0000 4.7225 0.0000 18.2897
#
#
#
# Elastic Compliance Matrix: (Units=1/GPa)
#
#
# Indices 1 2 3 4 5 6 
#
# 1 0.011044 0.002805 -0.004142 0.000000 0.003281 0.000000
# 2 0.002805 0.014427 -0.003702 0.000000 0.000801 0.000000
# 3 -0.004142 -0.003702 0.013195 0.000000 -0.000409 0.000000
# 4 0.000000 0.000000 0.000000 0.145762 0.000000 -0.037637
# 5 0.003281 0.000801 -0.000409 0.000000 0.017606 0.000000
# 6 0.000000 0.000000 0.000000 -0.037637 0.000000 0.064394
#
#
# Mechanical properties :
#
#
# Convention : Reuss Voigt Hill
#
# Bulk Modulus (GPa) = 34.98018 38.71954 36.84986
# Shear Modulus (GPa) = 17.48038 33.47599 25.47818
#
# Velocity S-wave (km/s) = 2.71560 3.75800 3.27850
# Velocity P-wave (km/s) = 4.95881 5.92999 5.46602
#
# Compressibility (1/GPa) = 0.02858762
#
# Stress axis : x y z
#
# Youngs Moduli (GPa) = 90.54461 69.31508 75.78627
#
# Poissons Ratio (x) = -0.19441 0.31391
# Poissons Ratio (y) = -0.25396 0.28056
# Poissons Ratio (z) = 0.37504 0.25661
#
# Static dielectric constant tensor:
#      x y z
#    x 1.974760 0.000000 -0.034210 
#    y 0.000000 1.936150 0.000000 
#    z -0.034210 0.000000 1.947950 
# 
# From -- ./inp_files/258593.got.cif
#   From: 2010.05.17/outbox.cif.g08.bks.cpg/sg12_130_cif.got.tgz:258593.got - 2010.06.03 13:09:07.
