data_PCOD9217305
_publ_section_title
;
Structure prediction by ZEFSAII (Michael W. Deem and Ramdas Pophale) SiO2 
 PCOD9217305
Probable space group: C 2/M
;
_chemical_formula_sum "Si O2"
_cell_formula_units_Z 56
_cell_length_a 19.785679
_cell_length_b 18.102756
_cell_length_c 14.233868
_cell_angle_alpha 90.000000
_cell_angle_beta 29.095411
_cell_angle_gamma 90.000000
_cell_volume 2479.088070
_symmetry_space_group_name_H-M "C 2/M"
_symmetry_group_IT_number 12
_symmetry_cell_setting 'monoclinic'
loop_
_space_group_symop_operation_xyz
x,y,z
-x,y,-z
-x,-y,-z
x,-y,z
1/2+x,1/2+y,z
1/2-x,1/2+y,-z
1/2-x,1/2-y,-z
1/2+x,1/2-y,z
loop_
_atom_site_type_symbol
_atom_site_label
_atom_site_fract_x
_atom_site_fract_y
_atom_site_fract_z
Si Si1 0.086659 0.823156 0.568989
Si Si2 0.350896 0.081033 0.631534
Si Si3 0.232838 0.833676 0.060013
Si Si4 0.836401 0.918144 0.673558
Si Si5 0.938326 0.730136 0.218623
Si Si6 0.010153 0.584842 0.733808
Si Si7 0.222086 0.232703 0.778663
O O1 0.174202 0.891633 0.421242
O O2 0.112596 0.782278 0.634766
O O3 0.123600 0.765396 0.438660
O O4 0.927351 0.849403 0.770730
O O5 0.500000 0.088601 0.500000
O O6 0.381917 0.083670 0.482736
O O7 0.253110 0.149194 0.770140
O O8 0.294817 0.000000 0.725207
O O9 0.227898 0.859594 0.176308
O O10 0.250000 0.750000 0.000000
O O11 0.364642 0.882251 0.868263
O O12 0.000000 0.920215 0.500000
O O13 0.779523 0.000000 0.756489
O O14 0.938211 0.645188 0.253522
O O15 0.853949 0.749487 0.227883
O O16 0.099552 0.746368 0.000062
O O17 0.992092 0.500000 0.787696
#
# Coordination Sequence:
#
# PCOD9217305 Si02
#       7
#     8   8   8   8   8   8   8
#     4  11  22  37  64  91 130 172 222 280 330 406
#     4  10  23  42  66  96 132 177 221 278 346 398
#     4  11  20  34  59  98 129 173 223 268 334 399
#     4   9  20  37  55  85 128 167 201 261 339 393
#     4  11  24  43  65 101 125 181 232 272 340 399
#     4  11  23  41  66  97 138 175 218 279 337 402
#     4  11  24  43  68  93 138 173 229 284 328 413
#
# _framework density 22.588951000000002
#
# number of rings (size 3 to 8) (size 9 to 14) (size 15 to 20)
#    0.000    1.429    2.857    1.714    2.000    3.429 
#    0.000    5.000    0.000    0.000    0.000    0.000 
#    0.000    0.000    0.000    0.000    0.000    0.000 
#
# Total GULP energy -155954.863397 kJ/mol
# GULP energy per Si atom -5569.816550 kJ/mol
# Density = 2.253754 g / cm^3
# Si number density = 22.588951 Si / 1000 Ang^3
#
#
#
# Elastic Constant Matrix: (Units=GPa)
#
#
# Indices 1 2 3 4 5 6 
#
# 1 75.2781 40.9600 6.4061 0.0001 7.6496 0.0000
# 2 40.9600 96.9273 -4.9983 0.0001 -2.4124 0.0000
# 3 6.4061 -4.9983 52.7581 0.0001 11.6425 -0.0001
# 4 0.0001 0.0001 0.0001 22.1953 -0.0001 4.8616
# 5 7.6496 -2.4124 11.6425 -0.0001 42.5211 0.0000
# 6 0.0000 0.0000 -0.0001 4.8616 0.0000 18.5258
#
#
#
# Elastic Compliance Matrix: (Units=1/GPa)
#
#
# Indices 1 2 3 4 5 6 
#
# 1 0.018041 -0.007817 -0.002253 0.000000 -0.003072 0.000000
# 2 -0.007817 0.013759 0.001884 0.000000 0.001671 0.000000
# 3 -0.002253 0.001884 0.020534 0.000000 -0.005110 0.000000
# 4 0.000000 0.000000 0.000000 0.047802 0.000000 -0.012545
# 5 -0.003072 0.001671 -0.005110 0.000000 0.025564 0.000000
# 6 0.000000 0.000000 0.000000 -0.012545 0.000000 0.057271
#
#
# Mechanical properties :
#
#
# Convention : Reuss Voigt Hill
#
# Bulk Modulus (GPa) = 27.80677 34.41099 31.10888
# Shear Modulus (GPa) = 23.65958 28.82149 26.24053
#
# Velocity S-wave (km/s) = 3.23986 3.57586 3.41200
# Velocity P-wave (km/s) = 5.13149 5.68469 5.41516
#
# Compressibility (1/GPa) = 0.03596247
#
# Stress axis : x y z
#
# Youngs Moduli (GPa) = 55.42896 72.68020 48.69927
#
# Poissons Ratio (x) = 0.56811 0.10973
# Poissons Ratio (y) = 0.43326 -0.09174
# Poissons Ratio (z) = 0.12489 -0.13692
#
# Static dielectric constant tensor:
#      x y z
#    x 1.914440 0.000000 0.019660 
#    y 0.000000 1.920800 0.000000 
#    z 0.019660 0.000000 1.888530 
# 
# From -- ./inp_files/234639.got.cif
#   From: 2010.05.17/outbox.cif.g08.bks.cpg/sg12_118_cif.got.tgz:234639.got - 2010.06.03 13:09:07.
