data_PCOD9217919
_publ_section_title
;
Structure prediction by ZEFSAII (Michael W. Deem and Ramdas Pophale) SiO2 
 PCOD9217919
Probable space group: C 2/M
;
_chemical_formula_sum "Si O2"
_cell_formula_units_Z 32
_cell_length_a 8.962788
_cell_length_b 14.988163
_cell_length_c 11.808070
_cell_angle_alpha 90.000000
_cell_angle_beta 87.160662
_cell_angle_gamma 90.000000
_cell_volume 1584.298339
_symmetry_space_group_name_H-M "C 2/M"
_symmetry_group_IT_number 12
_symmetry_cell_setting 'monoclinic'
loop_
_space_group_symop_operation_xyz
x,y,z
-x,y,-z
-x,-y,-z
x,-y,z
1/2+x,1/2+y,z
1/2-x,1/2+y,-z
1/2-x,1/2-y,-z
1/2+x,1/2-y,z
loop_
_atom_site_type_symbol
_atom_site_label
_atom_site_fract_x
_atom_site_fract_y
_atom_site_fract_z
Si Si1 0.872197 0.288908 0.081747
Si Si2 0.075132 0.000000 0.371699
Si Si3 0.650203 0.189627 0.423204
Si Si4 0.093530 0.824581 0.226848
Si Si5 0.175741 0.500000 0.474521
O O1 0.759235 0.342268 0.167903
O O2 0.965706 0.211644 0.145293
O O3 0.750000 0.250000 0.000000
O O4 0.000000 0.335747 0.000000
O O5 0.046519 0.911106 0.300305
O O6 0.247483 0.000000 0.405753
O O7 0.000000 0.000000 0.500000
O O8 0.500000 0.180651 0.500000
O O9 0.750000 0.250000 0.500000
O O10 0.619454 0.241099 0.309462
O O11 0.716236 0.090843 0.408496
O O12 0.000000 0.500000 0.500000
#
# Coordination Sequence:
#
# PCOD9217919 Si02
#       5
#     8   4   8   8   4
#     4   9  21  43  66  90 115 157 228 280 310 366
#     4  12  26  40  58 100 142 167 208 251 306 412
#     4  11  21  36  57  89 127 171 205 246 305 388
#     4  11  22  39  67  90 127 174 206 257 335 365
#     4  10  24  38  54  84 141 161 212 248 286 370
#
# _framework density 20.198215999999999
#
# number of rings (size 3 to 8) (size 9 to 14) (size 15 to 20)
#    0.000    1.500    2.500    2.250    7.000    0.000 
#    0.000    6.250    0.000    6.000    0.000    0.000 
#    0.000    0.000    0.000    0.000    0.000    0.000 
#
# Total GULP energy -89157.956366 kJ/mol
# GULP energy per Si atom -5572.372273 kJ/mol
# Density = 2.015224 g / cm^3
# Si number density = 20.198216 Si / 1000 Ang^3
#
#
#
# Elastic Constant Matrix: (Units=GPa)
#
#
# Indices 1 2 3 4 5 6 
#
# 1 142.7446 28.9827 50.2493 0.0000 -5.4736 0.0000
# 2 28.9827 153.3134 52.4020 0.0000 8.0803 0.0000
# 3 50.2493 52.4020 104.1878 0.0000 1.8885 0.0000
# 4 0.0000 0.0000 0.0000 8.2490 0.0000 3.3787
# 5 -5.4736 8.0803 1.8885 0.0000 64.6660 0.0000
# 6 0.0000 0.0000 0.0000 3.3787 0.0000 10.4613
#
#
#
# Elastic Compliance Matrix: (Units=1/GPa)
#
#
# Indices 1 2 3 4 5 6 
#
# 1 0.008494 -0.000297 -0.003963 0.000000 0.000872 0.000000
# 2 -0.000297 0.007936 -0.003832 0.000000 -0.000905 0.000000
# 3 -0.003963 -0.003832 0.013441 0.000000 -0.000249 0.000000
# 4 0.000000 0.000000 0.000000 0.139709 0.000000 -0.045121
# 5 0.000872 -0.000905 -0.000249 0.000000 0.015658 0.000000
# 6 0.000000 0.000000 0.000000 -0.045121 0.000000 0.110163
#
#
# Mechanical properties :
#
#
# Convention : Reuss Voigt Hill
#
# Bulk Modulus (GPa) = 73.05933 73.72375 73.39154
# Shear Modulus (GPa) = 15.81536 34.58272 25.19904
#
# Velocity S-wave (km/s) = 2.80126 4.14232 3.53595
# Velocity P-wave (km/s) = 6.83465 7.71089 7.28596
#
# Compressibility (1/GPa) = 0.01368751
#
# Stress axis : x y z
#
# Youngs Moduli (GPa) = 117.72456 126.00550 74.39804
#
# Poissons Ratio (x) = 0.03744 0.29485
# Poissons Ratio (y) = 0.03498 0.28508
# Poissons Ratio (z) = 0.46656 0.48283
#
# Static dielectric constant tensor:
#      x y z
#    x 1.819500 0.000000 -0.048420 
#    y 0.000000 1.757600 0.000000 
#    z -0.048420 0.000000 1.755820 
# 
# From -- ./inp_files/117785.got.cif
#   From: 2010.05.17/outbox.cif.g08.bks.cpg/sg12_59_cif.got.tgz:117785.got - 2010.06.03 13:09:07.
