data_PCOD9217518
_publ_section_title
;
Structure prediction by ZEFSAII (Michael W. Deem and Ramdas Pophale) SiO2 
 PCOD9217518
Probable space group: C 2/M
;
_chemical_formula_sum "Si O2"
_cell_formula_units_Z 48
_cell_length_a 18.914007
_cell_length_b 27.415897
_cell_length_c 8.719498
_cell_angle_alpha 90.000000
_cell_angle_beta 149.552777
_cell_angle_gamma 90.000000
_cell_volume 2291.218506
_symmetry_space_group_name_H-M "C 2/M"
_symmetry_group_IT_number 12
_symmetry_cell_setting 'monoclinic'
loop_
_space_group_symop_operation_xyz
x,y,z
-x,y,-z
-x,-y,-z
x,-y,z
1/2+x,1/2+y,z
1/2-x,1/2+y,-z
1/2-x,1/2-y,-z
1/2+x,1/2-y,z
loop_
_atom_site_type_symbol
_atom_site_label
_atom_site_fract_x
_atom_site_fract_y
_atom_site_fract_z
Si Si1 0.558447 0.943446 0.280515
Si Si2 0.956367 0.200924 0.095623
Si Si3 0.263363 0.726844 0.198006
Si Si4 0.627420 0.555302 0.144524
Si Si5 0.614586 0.394153 0.842549
Si Si6 0.615489 0.129331 0.831996
O O1 0.716789 0.923646 0.561920
O O2 0.462655 0.909090 0.205654
O O3 0.562454 0.000000 0.345395
O O4 0.500000 0.944408 0.000000
O O5 0.083046 0.220456 0.441682
O O6 0.901952 0.151097 0.071707
O O7 0.000000 0.195205 0.000000
O O8 0.829871 0.238808 0.870334
O O9 0.250000 0.750000 0.000000
O O10 0.193221 0.673450 0.061207
O O11 0.643323 0.500000 0.231757
O O12 0.500000 0.577983 0.000000
O O13 0.585600 0.558457 0.889345
O O14 0.500000 0.387050 0.500000
O O15 0.765135 0.396004 0.046392
O O16 0.500000 0.150410 0.500000
#
# Coordination Sequence:
#
# PCOD9217518 Si02
#       6
#     8   8   8   8   8   8
#     4  10  24  44  66  97 135 176 225 281 337 400
#     4  12  26  44  67  98 134 175 225 280 338 407
#     4  12  24  46  69  97 134 176 224 280 341 406
#     4  10  23  43  67  95 134 178 220 276 340 401
#     4  12  24  43  65  96 134 176 221 278 339 397
#     4  12  24  42  69  98 130 177 226 274 339 399
#
# _framework density 20.949551
#
# number of rings (size 3 to 8) (size 9 to 14) (size 15 to 20)
#    0.000    0.667    5.000    2.500    2.333    3.333 
#    0.000    0.000    0.000    0.000    0.000    0.000 
#    0.000    0.000    0.000    0.000    0.000    0.000 
#
# Total GULP energy -134048.094585 kJ/mol
# GULP energy per Si atom -5585.337274 kJ/mol
# Density = 2.090187 g / cm^3
# Si number density = 20.949551 Si / 1000 Ang^3
#
#
#
# Elastic Constant Matrix: (Units=GPa)
#
#
# Indices 1 2 3 4 5 6 
#
# 1 153.2360 36.4675 51.2291 0.0000 28.2526 0.0000
# 2 36.4675 68.6997 32.0356 0.0000 14.6771 0.0000
# 3 51.2291 32.0356 91.1881 0.0000 18.7636 0.0000
# 4 0.0000 0.0000 0.0000 23.3020 0.0000 3.9547
# 5 28.2526 14.6771 18.7636 0.0000 40.5563 0.0000
# 6 0.0000 0.0000 0.0000 3.9547 0.0000 33.7647
#
#
#
# Elastic Compliance Matrix: (Units=1/GPa)
#
#
# Indices 1 2 3 4 5 6 
#
# 1 0.008921 -0.002335 -0.003411 0.000000 -0.003791 0.000000
# 2 -0.002335 0.018576 -0.004604 0.000000 -0.002966 0.000000
# 3 -0.003411 -0.004604 0.015107 0.000000 -0.002946 0.000000
# 4 0.000000 0.000000 0.000000 0.043785 0.000000 -0.005128
# 5 -0.003791 -0.002966 -0.002946 0.000000 0.029735 0.000000
# 6 0.000000 0.000000 0.000000 -0.005128 0.000000 0.030217
#
#
# Mechanical properties :
#
#
# Convention : Reuss Voigt Hill
#
# Bulk Modulus (GPa) = 45.65523 61.39867 53.52695
# Shear Modulus (GPa) = 28.67918 32.41740 30.54829
#
# Velocity S-wave (km/s) = 3.70397 3.93797 3.82276
# Velocity P-wave (km/s) = 6.33504 7.07448 6.71495
#
# Compressibility (1/GPa) = 0.02190330
#
# Stress axis : x y z
#
# Youngs Moduli (GPa) = 112.09477 53.83283 66.19614
#
# Poissons Ratio (x) = 0.12568 0.22582
# Poissons Ratio (y) = 0.26171 0.30477
# Poissons Ratio (z) = 0.38240 0.24785
#
# Static dielectric constant tensor:
#      x y z
#    x 1.753230 0.000000 -0.000180 
#    y 0.000000 1.810590 0.000000 
#    z -0.000180 0.000000 1.771920 
# 
# From -- ./inp_files/80826.got.cif
#   From: 2010.05.17/outbox.cif.g08.bks.cpg/sg12_41_cif.got.tgz:80826.got - 2010.06.03 13:09:07.
