data_PCOD9217230
_publ_section_title
;
Structure prediction by ZEFSAII (Michael W. Deem and Ramdas Pophale) SiO2 
 PCOD9217230
Probable space group: C 2/M
;
_chemical_formula_sum "Si O2"
_cell_formula_units_Z 50
_cell_length_a 11.984077
_cell_length_b 29.221874
_cell_length_c 8.087375
_cell_angle_alpha 90.000000
_cell_angle_beta 124.219380
_cell_angle_gamma 90.000000
_cell_volume 2341.899147
_symmetry_space_group_name_H-M "C 2/M"
_symmetry_group_IT_number 12
_symmetry_cell_setting 'monoclinic'
loop_
_space_group_symop_operation_xyz
x,y,z
-x,y,-z
-x,-y,-z
x,-y,z
1/2+x,1/2+y,z
1/2-x,1/2+y,-z
1/2-x,1/2-y,-z
1/2+x,1/2-y,z
loop_
_atom_site_type_symbol
_atom_site_label
_atom_site_fract_x
_atom_site_fract_y
_atom_site_fract_z
Si Si1 0.346549 0.149114 0.422840
Si Si2 0.068837 0.171521 0.722023
Si Si3 0.960683 0.069796 0.222022
Si Si4 0.500000 0.500000 0.500000
Si Si5 0.855005 0.678080 0.807183
Si Si6 0.276279 0.551375 0.751160
Si Si7 0.169952 0.775687 0.083520
O O1 0.500000 0.158524 0.500000
O O2 0.331982 0.160514 0.603907
O O3 0.313230 0.095727 0.362330
O O4 0.252652 0.183658 0.239192
O O5 0.011249 0.121923 0.711729
O O6 0.226886 0.163776 0.811361
O O7 0.000000 0.191765 0.500000
O O8 0.053911 0.200769 0.875638
O O9 0.103767 0.049015 0.284382
O O10 0.912517 0.040246 0.334707
O O11 0.856260 0.063554 0.986194
O O12 0.856062 0.733466 0.816070
O O13 0.000000 0.662872 0.000000
O O14 0.215933 0.500000 0.711465
O O15 0.250000 0.750000 0.000000
#
# Coordination Sequence:
#
# PCOD9217230 Si02
#       7
#     8   8   8   2   8   8   8
#     4  12  25  44  68  93 131 182 225 269 334 399
#     4  11  22  40  65 100 134 171 218 274 335 395
#     4  11  21  37  64  97 132 167 213 272 330 387
#     4  12  20  34  68 100 134 166 210 282 338 386
#     4  11  26  43  66  96 136 174 223 276 336 404
#     4  11  23  42  64  95 133 171 219 270 332 392
#     4  10  23  42  64  94 128 167 217 273 328 396
#
# _framework density 21.350193999999998
#
# number of rings (size 3 to 8) (size 9 to 14) (size 15 to 20)
#    0.000    0.960    4.000    3.840    0.000    8.000 
#    0.000    0.000    0.000    0.480    0.000    0.000 
#    0.000    0.000    0.000    0.000    0.000    0.000 
#
# Total GULP energy -139405.152437 kJ/mol
# GULP energy per Si atom -5576.206097 kJ/mol
# Density = 2.130160 g / cm^3
# Si number density = 21.350194 Si / 1000 Ang^3
#
#
#
# Elastic Constant Matrix: (Units=GPa)
#
#
# Indices 1 2 3 4 5 6 
#
# 1 48.3072 -8.3780 10.1224 0.0000 3.5508 0.0000
# 2 -8.3780 113.0990 40.9291 0.0000 -9.1545 0.0000
# 3 10.1224 40.9291 126.0396 0.0000 -12.5707 0.0000
# 4 0.0000 0.0000 0.0000 51.9781 0.0000 -5.0125
# 5 3.5508 -9.1545 -12.5707 0.0000 33.2530 0.0000
# 6 0.0000 0.0000 0.0000 -5.0125 0.0000 25.2954
#
#
#
# Elastic Compliance Matrix: (Units=1/GPa)
#
#
# Indices 1 2 3 4 5 6 
#
# 1 0.021913 0.002422 -0.002819 0.000000 -0.002739 0.000000
# 2 0.002422 0.010368 -0.003432 0.000000 0.001298 0.000000
# 3 -0.002819 -0.003432 0.009572 0.000000 0.002975 0.000000
# 4 0.000000 0.000000 0.000000 0.019614 0.000000 0.003887
# 5 -0.002739 0.001298 0.002975 0.000000 0.031847 0.000000
# 6 0.000000 0.000000 0.000000 0.003887 0.000000 0.040303
#
#
# Mechanical properties :
#
#
# Convention : Reuss Voigt Hill
#
# Bulk Modulus (GPa) = 29.24508 41.42141 35.33325
# Shear Modulus (GPa) = 32.74962 38.42346 35.58654
#
# Velocity S-wave (km/s) = 3.92079 4.24686 4.08708
# Velocity P-wave (km/s) = 5.85015 6.59476 6.23358
#
# Compressibility (1/GPa) = 0.03419378
#
# Stress axis : x y z
#
# Youngs Moduli (GPa) = 45.63501 96.44808 104.47595
#
# Poissons Ratio (x) = -0.23359 0.29457
# Poissons Ratio (y) = -0.11052 0.35855
# Poissons Ratio (z) = 0.12867 0.33100
#
# Static dielectric constant tensor:
#      x y z
#    x 1.917490 0.000000 -0.030190 
#    y 0.000000 1.756190 0.000000 
#    z -0.030190 0.000000 1.828730 
# 
# From -- ./inp_files/67946.got.cif
#   From: 2010.05.17/outbox.cif.g08.bks.cpg/sg12_34_cif.got.tgz:67946.got - 2010.06.03 13:09:07.
