data_PCOD9217322
_publ_section_title
;
Structure prediction by ZEFSAII (Michael W. Deem and Ramdas Pophale) SiO2 
 PCOD9217322
Probable space group: C 2/M
;
_chemical_formula_sum "Si O2"
_cell_formula_units_Z 34
_cell_length_a 8.407236
_cell_length_b 30.842422
_cell_length_c 8.772790
_cell_angle_alpha 90.000000
_cell_angle_beta 48.912239
_cell_angle_gamma 90.000000
_cell_volume 1714.510506
_symmetry_space_group_name_H-M "C 2/M"
_symmetry_group_IT_number 12
_symmetry_cell_setting 'monoclinic'
loop_
_space_group_symop_operation_xyz
x,y,z
-x,y,-z
-x,-y,-z
x,-y,z
1/2+x,1/2+y,z
1/2-x,1/2+y,-z
1/2-x,1/2-y,-z
1/2+x,1/2-y,z
loop_
_atom_site_type_symbol
_atom_site_label
_atom_site_fract_x
_atom_site_fract_y
_atom_site_fract_z
Si Si1 0.735108 0.921020 0.290954
Si Si2 0.000000 0.000000 0.000000
Si Si3 0.340141 0.654054 0.464304
Si Si4 0.582735 0.868636 0.104293
Si Si5 0.898873 0.791930 0.898034
O O1 0.500000 0.932376 0.500000
O O2 0.828110 0.883332 0.342168
O O3 0.694206 0.900962 0.149729
O O4 0.883504 0.961942 0.176888
O O5 0.500000 0.642679 0.500000
O O6 0.108228 0.653958 0.683525
O O7 0.415363 0.699481 0.341749
O O8 0.500000 0.889554 0.000000
O O9 0.743984 0.831396 0.957762
O O10 0.750000 0.750000 0.000000
O O11 0.000000 0.797281 0.000000
#
# Coordination Sequence:
#
# PCOD9217322 Si02
#       5
#     8   2   8   8   8
#     4  10  23  42  67  97 128 168 217 265 322 396
#     4  12  22  40  72  94 132 170 202 268 344 378
#     4  11  23  42  69  92 126 174 222 265 320 384
#     4  11  22  42  68  93 127 174 223 264 320 389
#     4  12  25  42  61  96 132 171 219 275 324 377
#
# _framework density 19.830732999999999
#
# number of rings (size 3 to 8) (size 9 to 14) (size 15 to 20)
#    0.000    0.941    4.706    2.471    0.000    0.941 
#    0.000    1.176    0.000    0.000    0.000    0.000 
#    0.000    0.000    0.000    0.000    0.000    0.000 
#
# Total GULP energy -94637.277572 kJ/mol
# GULP energy per Si atom -5566.898681 kJ/mol
# Density = 1.978560 g / cm^3
# Si number density = 19.830733 Si / 1000 Ang^3
#
#
#
# Elastic Constant Matrix: (Units=GPa)
#
#
# Indices 1 2 3 4 5 6 
#
# 1 105.9515 22.6542 17.8336 0.0000 33.2167 0.0000
# 2 22.6542 69.0216 37.1695 0.0000 5.5608 0.0000
# 3 17.8336 37.1695 100.4069 0.0000 3.0115 0.0000
# 4 0.0000 0.0000 0.0000 15.1951 0.0000 -1.5182
# 5 33.2167 5.5608 3.0115 0.0000 44.9837 0.0000
# 6 0.0000 0.0000 0.0000 -1.5182 0.0000 -3.9643
#
#
#
# Elastic Compliance Matrix: (Units=1/GPa)
#
#
# Indices 1 2 3 4 5 6 
#
# 1 0.013159 -0.003076 -0.000920 0.000000 -0.009275 0.000000
# 2 -0.003076 0.018960 -0.006483 0.000000 0.000362 0.000000
# 3 -0.000920 -0.006483 0.012504 0.000000 0.000644 0.000000
# 4 0.000000 0.000000 0.000000 0.063385 0.000000 -0.024275
# 5 -0.009275 0.000362 0.000644 0.000000 0.028991 0.000000
# 6 0.000000 0.000000 0.000000 -0.024275 0.000000 -0.242957
#
#
# Mechanical properties :
#
#
# Convention : Reuss Voigt Hill
#
# Bulk Modulus (GPa) = 42.25996 47.85495 45.05746
# Shear Modulus (GPa) = -64.84163 24.42442 -20.20861
#
# Velocity S-wave (km/s) = -5.72438 3.51329 -3.19573
# Velocity P-wave (km/s) = 4.72597 6.37508 3.02547
#
# Compressibility (1/GPa) = 0.02366306
#
# Stress axis : x y z
#
# Youngs Moduli (GPa) = 75.99615 52.74229 79.97661
#
# Poissons Ratio (x) = 0.16224 0.07360
# Poissons Ratio (y) = 0.23377 0.51851
# Poissons Ratio (z) = 0.06993 0.34194
#
# Static dielectric constant tensor:
#      x y z
#    x 1.980900 0.000000 -0.035070 
#    y 0.000000 1.648440 0.000000 
#    z -0.035070 0.000000 1.799230 
# 
# From -- ./inp_files/41295.got.cif
#   From: 2010.05.17/outbox.cif.g08.bks.cpg/sg12_21_cif.got.tgz:41295.got - 2010.06.03 13:09:07.
