data_PCOD9217816
_publ_section_title
;
Structure prediction by ZEFSAII (Michael W. Deem and Ramdas Pophale) SiO2 
 PCOD9217816
Probable space group: C 2/M
;
_chemical_formula_sum "Si O2"
_cell_formula_units_Z 64
_cell_length_a 9.696674
_cell_length_b 26.542798
_cell_length_c 14.688461
_cell_angle_alpha 90.000000
_cell_angle_beta 52.066526
_cell_angle_gamma 90.000000
_cell_volume 2981.751416
_symmetry_space_group_name_H-M "C 2/M"
_symmetry_group_IT_number 12
_symmetry_cell_setting 'monoclinic'
loop_
_space_group_symop_operation_xyz
x,y,z
-x,y,-z
-x,-y,-z
x,-y,z
1/2+x,1/2+y,z
1/2-x,1/2+y,-z
1/2-x,1/2-y,-z
1/2+x,1/2-y,z
loop_
_atom_site_type_symbol
_atom_site_label
_atom_site_fract_x
_atom_site_fract_y
_atom_site_fract_z
Si Si1 0.574862 0.598819 0.371362
Si Si2 0.202761 0.227909 0.696723
Si Si3 0.055120 0.730786 0.081310
Si Si4 0.494906 0.287263 0.394424
Si Si5 0.817771 0.060266 0.019949
Si Si6 0.514847 0.126196 0.782587
Si Si7 0.542565 0.442380 0.765323
Si Si8 0.888175 0.376764 0.631725
O O1 0.500000 0.582919 0.500000
O O2 0.482014 0.653096 0.390294
O O3 0.511136 0.563030 0.317388
O O4 0.784773 0.607926 0.281922
O O5 0.310906 0.269900 0.706940
O O6 0.320472 0.179252 0.639397
O O7 0.042097 0.222352 0.829414
O O8 0.131362 0.240058 0.625068
O O9 0.024540 0.680724 0.155675
O O10 0.250000 0.750000 0.000000
O O11 0.000000 0.721158 0.000000
O O12 0.500000 0.275184 0.500000
O O13 0.643470 0.089807 0.119812
O O14 0.786833 0.000000 0.041113
O O15 0.000000 0.071679 0.000000
O O16 0.876189 0.073336 0.893466
O O17 0.496691 0.127147 0.680454
O O18 0.581060 0.500000 0.774231
O O19 0.715622 0.410367 0.714561
O O20 0.000000 0.394870 0.500000
#
# Coordination Sequence:
#
# PCOD9217816 Si02
#       8
#     8   8   8   8   8   8   8   8
#     4  11  25  46  68 104 147 184 233 293 355 431
#     4  12  24  43  64  96 137 184 228 281 347 411
#     4  12  28  44  63  97 138 183 236 284 344 420
#     4  11  23  39  66  94 135 177 227 281 337 411
#     4  10  23  45  73 103 135 177 233 295 355 419
#     4  12  26  43  74 103 141 186 233 296 358 418
#     4  11  25  48  74 100 139 188 236 299 362 416
#     4  12  26  44  70 106 140 185 240 287 350 434
#
# _framework density 21.463895000000001
#
# number of rings (size 3 to 8) (size 9 to 14) (size 15 to 20)
#    0.000    0.625    3.750    3.750    5.250    1.500 
#    0.000    2.500    0.000    0.000    0.000    0.000 
#    0.000    0.000    0.000    0.000    0.000    0.000 
#
# Total GULP energy -178704.491702 kJ/mol
# GULP energy per Si atom -5584.515366 kJ/mol
# Density = 2.141504 g / cm^3
# Si number density = 21.463895 Si / 1000 Ang^3
#
#
#
# Elastic Constant Matrix: (Units=GPa)
#
#
# Indices 1 2 3 4 5 6 
#
# 1 92.8875 14.1130 15.5363 0.0000 16.4473 0.0000
# 2 14.1130 55.0373 15.2141 0.0000 -1.2016 0.0000
# 3 15.5363 15.2141 101.8492 0.0000 6.3391 0.0000
# 4 0.0000 0.0000 0.0000 25.1145 0.0000 0.0941
# 5 16.4473 -1.2016 6.3391 0.0000 40.6228 0.0000
# 6 0.0000 0.0000 0.0000 0.0941 0.0000 22.1805
#
#
#
# Elastic Compliance Matrix: (Units=1/GPa)
#
#
# Indices 1 2 3 4 5 6 
#
# 1 0.012265 -0.002940 -0.001128 0.000000 -0.004877 0.000000
# 2 -0.002940 0.019698 -0.002630 0.000000 0.002183 0.000000
# 3 -0.001128 -0.002630 0.010461 0.000000 -0.001253 0.000000
# 4 0.000000 0.000000 0.000000 0.039818 0.000000 -0.000169
# 5 -0.004877 0.002183 -0.001253 0.000000 0.026851 0.000000
# 6 0.000000 0.000000 0.000000 -0.000169 0.000000 0.045085
#
#
# Mechanical properties :
#
#
# Convention : Reuss Voigt Hill
#
# Bulk Modulus (GPa) = 34.44894 37.72231 36.08563
# Shear Modulus (GPa) = 28.20870 31.24427 29.72648
#
# Velocity S-wave (km/s) = 3.62918 3.81946 3.72553
# Velocity P-wave (km/s) = 5.80050 6.08802 5.94600
#
# Compressibility (1/GPa) = 0.02902847
#
# Stress axis : x y z
#
# Youngs Moduli (GPa) = 81.53612 50.76672 95.58940
#
# Poissons Ratio (x) = 0.14923 0.10785
# Poissons Ratio (y) = 0.23968 0.25139
# Poissons Ratio (z) = 0.09199 0.13351
#
# Static dielectric constant tensor:
#      x y z
#    x 1.790990 0.000000 -0.028650 
#    y 0.000000 1.753620 0.000000 
#    z -0.028650 0.000000 1.872570 
# 
# From -- ./inp_files/201292.got.cif
#   From: 2010.05.17/outbox.cif.g08.bks.cpg/sg12_101_cif.got.tgz:201292.got - 2010.06.03 13:09:07.
