data_PCOD9217162
_publ_section_title
;
Structure prediction by ZEFSAII (Michael W. Deem and Ramdas Pophale) SiO2 
 PCOD9217162
Probable space group: C 2/M
;
_chemical_formula_sum "Si O2"
_cell_formula_units_Z 44
_cell_length_a 9.288824
_cell_length_b 16.454945
_cell_length_c 18.333935
_cell_angle_alpha 90.000000
_cell_angle_beta 133.688533
_cell_angle_gamma 90.000000
_cell_volume 2026.350009
_symmetry_space_group_name_H-M "C 2/M"
_symmetry_group_IT_number 12
_symmetry_cell_setting 'monoclinic'
loop_
_space_group_symop_operation_xyz
x,y,z
-x,y,-z
-x,-y,-z
x,-y,z
1/2+x,1/2+y,z
1/2-x,1/2+y,-z
1/2-x,1/2-y,-z
1/2+x,1/2-y,z
loop_
_atom_site_type_symbol
_atom_site_label
_atom_site_fract_x
_atom_site_fract_y
_atom_site_fract_z
Si Si1 0.435008 0.313264 0.562428
Si Si2 0.929958 0.674239 0.120938
Si Si3 0.240565 0.500000 0.092752
Si Si4 0.397920 0.000000 0.801081
Si Si5 0.498538 0.500000 0.413787
Si Si6 0.796575 0.258321 0.214756
Si Si7 0.966373 0.120239 0.068373
O O1 0.500000 0.314400 0.500000
O O2 0.250000 0.250000 0.500000
O O3 0.413170 0.410045 0.577778
O O4 0.593567 0.274033 0.675026
O O5 0.967592 0.579643 0.151214
O O6 0.115373 0.696555 0.134875
O O7 0.945234 0.728744 0.199312
O O8 0.705047 0.682741 0.015878
O O9 0.254197 0.500000 0.183589
O O10 0.351678 0.572576 0.090968
O O11 0.000000 0.500000 0.000000
O O12 0.238871 0.000000 0.682459
O O13 0.500000 0.500000 0.500000
O O14 0.670367 0.342753 0.170922
O O15 0.000000 0.081462 0.000000
#
# Coordination Sequence:
#
# PCOD9217162 Si02
#       7
#     8   8   4   4   4   8   8
#     4  11  24  45  73 104 137 182 241 299 363 426
#     4  11  23  42  66  99 136 183 236 284 350 432
#     4  12  23  38  68  97 139 186 239 290 347 431
#     4  12  24  42  70  99 134 183 241 284 358 424
#     4  10  24  46  72 100 138 184 238 293 354 434
#     4  11  24  39  67  97 137 179 227 292 352 414
#     4  10  23  42  63 100 143 187 229 286 356 428
#
# _framework density 21.713916999999999
#
# number of rings (size 3 to 8) (size 9 to 14) (size 15 to 20)
#    0.000    1.091    3.636    1.909    5.091    3.636 
#    0.000    1.364    0.000    0.000    0.000    0.000 
#    0.000    0.000    0.000    0.000    0.000    0.000 
#
# Total GULP energy -122471.292095 kJ/mol
# GULP energy per Si atom -5566.876913 kJ/mol
# Density = 2.166450 g / cm^3
# Si number density = 21.713917 Si / 1000 Ang^3
#
#
#
# Elastic Constant Matrix: (Units=GPa)
#
#
# Indices 1 2 3 4 5 6 
#
# 1 109.4499 52.7414 22.7992 0.0000 -3.3618 0.0000
# 2 52.7414 136.8462 30.3507 0.0000 7.5202 0.0000
# 3 22.7992 30.3507 108.0820 0.0000 -1.1533 0.0000
# 4 0.0000 0.0000 0.0000 -3.3769 0.0000 -2.4448
# 5 -3.3618 7.5202 -1.1533 0.0000 40.7906 0.0000
# 6 0.0000 0.0000 0.0000 -2.4448 0.0000 53.5307
#
#
#
# Elastic Compliance Matrix: (Units=1/GPa)
#
#
# Indices 1 2 3 4 5 6 
#
# 1 0.011491 -0.004253 -0.001211 0.000000 0.001697 0.000000
# 2 -0.004253 0.009460 -0.001782 0.000000 -0.002145 0.000000
# 3 -0.001211 -0.001782 0.010014 0.000000 0.000512 0.000000
# 4 0.000000 0.000000 0.000000 -0.286650 0.000000 -0.013092
# 5 0.001697 -0.002145 0.000512 0.000000 0.025065 0.000000
# 6 0.000000 0.000000 0.000000 -0.013092 0.000000 0.018083
#
#
# Mechanical properties :
#
#
# Convention : Reuss Voigt Hill
#
# Bulk Modulus (GPa) = 60.71401 62.90675 61.81038
# Shear Modulus (GPa) = -25.96667 34.75467 4.39400
#
# Velocity S-wave (km/s) = -3.46186 4.00505 1.42407
# Velocity P-wave (km/s) = 3.47019 7.10077 5.58852
#
# Compressibility (1/GPa) = 0.01647066
#
# Stress axis : x y z
#
# Youngs Moduli (GPa) = 87.02817 105.71077 99.86335
#
# Poissons Ratio (x) = 0.44960 0.12098
# Poissons Ratio (y) = 0.37014 0.17797
# Poissons Ratio (z) = 0.10543 0.18839
#
# Static dielectric constant tensor:
#      x y z
#    x 1.799770 0.000000 -0.038460 
#    y 0.000000 1.958320 0.000000 
#    z -0.038460 0.000000 2.192120 
# 
# From -- ./inp_files/257331.got.cif
#   From: 2010.05.17/outbox.cif.g08.bks.cpg/sg12_129_cif.got.tgz:257331.got - 2010.06.03 13:09:07.
