data_PCOD9217953
_publ_section_title
;
Structure prediction by ZEFSAII (Michael W. Deem and Ramdas Pophale) SiO2 
 PCOD9217953
Probable space group: C 2/M
;
_chemical_formula_sum "Si O2"
_cell_formula_units_Z 56
_cell_length_a 9.380004
_cell_length_b 22.936935
_cell_length_c 14.155265
_cell_angle_alpha 90.000000
_cell_angle_beta 117.836180
_cell_angle_gamma 90.000000
_cell_volume 2693.080315
_symmetry_space_group_name_H-M "C 2/M"
_symmetry_group_IT_number 12
_symmetry_cell_setting 'monoclinic'
loop_
_space_group_symop_operation_xyz
x,y,z
-x,y,-z
-x,-y,-z
x,-y,z
1/2+x,1/2+y,z
1/2-x,1/2+y,-z
1/2-x,1/2-y,-z
1/2+x,1/2-y,z
loop_
_atom_site_type_symbol
_atom_site_label
_atom_site_fract_x
_atom_site_fract_y
_atom_site_fract_z
Si Si1 0.756432 0.185778 0.626557
Si Si2 0.876553 0.795519 0.310562
Si Si3 0.191973 0.436510 0.582100
Si Si4 0.998905 0.432221 0.781586
Si Si5 0.326230 0.431244 0.986690
Si Si6 0.225083 0.632625 0.425828
Si Si7 0.839210 0.363942 0.898243
O O1 0.668843 0.232984 0.661955
O O2 0.738925 0.119418 0.657602
O O3 0.311847 0.179421 0.502481
O O4 0.943125 0.201382 0.671629
O O5 0.847563 0.840427 0.388782
O O6 0.752851 0.815997 0.191622
O O7 0.233013 0.500000 0.632260
O O8 0.277448 0.421807 0.507966
O O9 0.000000 0.435218 0.500000
O O10 0.972560 0.500000 0.748191
O O11 0.927037 0.389974 0.680089
O O12 0.901455 0.414413 0.846174
O O13 0.184839 0.423790 0.865664
O O14 0.325672 0.500000 0.012560
O O15 0.500000 0.416151 0.000000
O O16 0.276967 0.392487 0.060595
O O17 0.000000 0.341191 0.000000
#
# Coordination Sequence:
#
# PCOD9217953 Si02
#       7
#     8   8   8   8   8   8   8
#     4  10  24  39  63  89 125 170 215 268 310 382
#     4  11  22  41  62  94 122 166 217 257 327 372
#     4   9  20  38  59  87 125 167 209 259 317 368
#     4   9  16  31  57  85 120 170 213 247 308 383
#     4   9  17  32  56  90 127 163 206 262 321 379
#     4   9  20  33  59  86 123 163 211 257 304 374
#     4   9  19  37  59  86 120 161 207 262 313 384
#
# _framework density 20.794032000000001
#
# number of rings (size 3 to 8) (size 9 to 14) (size 15 to 20)
#    0.857    1.714    0.000    1.714    2.000    1.714 
#    2.571    7.143    0.000    0.000    0.000    0.000 
#    0.000    0.571    0.000    0.000    0.000    0.714 
#
# Total GULP energy -156227.852381 kJ/mol
# GULP energy per Si atom -5579.566156 kJ/mol
# Density = 2.074670 g / cm^3
# Si number density = 20.794032 Si / 1000 Ang^3
#
#
#
# Elastic Constant Matrix: (Units=GPa)
#
#
# Indices 1 2 3 4 5 6 
#
# 1 114.3381 73.5405 45.0213 0.0000 13.1668 0.0000
# 2 73.5405 129.6285 56.8258 0.0000 18.1330 0.0000
# 3 45.0213 56.8258 107.2702 0.0000 2.1077 0.0000
# 4 0.0000 0.0000 0.0000 29.9732 0.0000 3.4481
# 5 13.1668 18.1330 2.1077 0.0000 22.8451 0.0000
# 6 0.0000 0.0000 0.0000 3.4481 0.0000 16.8214
#
#
#
# Elastic Compliance Matrix: (Units=1/GPa)
#
#
# Indices 1 2 3 4 5 6 
#
# 1 0.014304 -0.006676 -0.002413 0.000000 -0.002722 0.000000
# 2 -0.006676 0.014633 -0.004806 0.000000 -0.007324 0.000000
# 3 -0.002413 -0.004806 0.012802 0.000000 0.004024 0.000000
# 4 0.000000 0.000000 0.000000 0.034169 0.000000 -0.007004
# 5 -0.002722 -0.007324 0.004024 0.000000 0.050784 0.000000
# 6 0.000000 0.000000 0.000000 -0.007004 0.000000 0.060884
#
#
# Mechanical properties :
#
#
# Convention : Reuss Voigt Hill
#
# Bulk Modulus (GPa) = 71.69328 78.00135 74.84731
# Shear Modulus (GPa) = 22.72576 25.65121 24.18848
#
# Velocity S-wave (km/s) = 3.30949 3.51605 3.41433
# Velocity P-wave (km/s) = 7.01115 7.35366 7.18445
#
# Compressibility (1/GPa) = 0.01394831
#
# Stress axis : x y z
#
# Youngs Moduli (GPa) = 69.91260 68.33846 78.11342
#
# Poissons Ratio (x) = 0.45623 0.18850
# Poissons Ratio (y) = 0.46674 0.37541
# Poissons Ratio (z) = 0.16871 0.32843
#
# Static dielectric constant tensor:
#      x y z
#    x 1.747010 0.000000 -0.014040 
#    y 0.000000 1.761370 0.000000 
#    z -0.014040 0.000000 1.760120 
# 
# From -- ./inp_files/198975.got.cif
#   From: 2010.05.17/outbox.cif.g08.bks.cpg/sg12_100_cif.got.tgz:198975.got - 2010.06.03 13:09:07.
