data_PCOD9217158
_publ_section_title
;
Structure prediction by ZEFSAII (Michael W. Deem and Ramdas Pophale) SiO2 
 PCOD9217158
Probable space group: C 2/M
;
_chemical_formula_sum "Si O2"
_cell_formula_units_Z 64
_cell_length_a 19.015667
_cell_length_b 18.995692
_cell_length_c 8.331862
_cell_angle_alpha 90.000000
_cell_angle_beta 99.390764
_cell_angle_gamma 90.000000
_cell_volume 2969.266588
_symmetry_space_group_name_H-M "C 2/M"
_symmetry_group_IT_number 12
_symmetry_cell_setting 'monoclinic'
loop_
_space_group_symop_operation_xyz
x,y,z
-x,y,-z
-x,-y,-z
x,-y,z
1/2+x,1/2+y,z
1/2-x,1/2+y,-z
1/2-x,1/2-y,-z
1/2+x,1/2-y,z
loop_
_atom_site_type_symbol
_atom_site_label
_atom_site_fract_x
_atom_site_fract_y
_atom_site_fract_z
Si Si1 0.970413 0.325876 0.650983
Si Si2 0.417207 0.918818 0.907491
Si Si3 0.645589 0.314047 0.061053
Si Si4 0.236964 0.314417 0.617377
Si Si5 0.454955 0.325263 0.704678
Si Si6 0.875066 0.316596 0.159719
Si Si7 0.095525 0.081034 0.803699
Si Si8 0.667269 0.420139 0.494371
O O1 0.041105 0.308760 0.779753
O O2 0.000000 0.361563 0.500000
O O3 0.919813 0.372634 0.744698
O O4 0.944095 0.246992 0.601863
O O5 0.395515 0.000000 0.874374
O O6 0.500000 0.920652 0.000000
O O7 0.370754 0.879636 0.027609
O O8 0.707582 0.308613 0.213959
O O9 0.572127 0.303144 0.129835
O O10 0.654002 0.254138 0.931973
O O11 0.636403 0.389115 0.973010
O O12 0.250000 0.250000 0.500000
O O13 0.162757 0.324267 0.682179
O O14 0.260318 0.382150 0.525664
O O15 0.530269 0.365358 0.740200
O O16 0.398027 0.380406 0.615499
O O17 0.149301 0.083334 0.674941
O O18 0.070494 0.000000 0.813353
O O19 0.667892 0.500000 0.441184
#
# Coordination Sequence:
#
# PCOD9217158 Si02
#       8
#     8   8   8   8   8   8   8   8
#     4  11  22  35  64  98 132 164 206 263 320 389
#     4   9  20  39  61  88 121 156 200 260 326 378
#     4  11  23  38  60  88 126 160 210 265 310 371
#     4  11  26  42  64  88 120 168 221 266 313 377
#     4  11  21  35  62  97 134 175 213 254 313 389
#     4  11  22  40  63  89 121 166 212 261 321 372
#     4  11  22  37  61  95 135 175 212 256 320 383
#     4  10  23  42  62  92 134 175 219 266 312 375
#
# _framework density 21.554144999999998
#
# number of rings (size 3 to 8) (size 9 to 14) (size 15 to 20)
#    0.000    1.375    2.500    3.000    3.500    4.750 
#    0.000    0.000    0.000    3.750    0.000    0.000 
#    0.000    0.000    0.000    0.000    0.000    0.000 
#
# Total GULP energy -178702.886639 kJ/mol
# GULP energy per Si atom -5584.465207 kJ/mol
# Density = 2.150509 g / cm^3
# Si number density = 21.554145 Si / 1000 Ang^3
#
#
#
# Elastic Constant Matrix: (Units=GPa)
#
#
# Indices 1 2 3 4 5 6 
#
# 1 60.1556 31.0160 19.2636 0.0000 -24.2296 0.0000
# 2 31.0160 138.6378 37.6445 0.0000 -31.1154 0.0000
# 3 19.2636 37.6445 75.1418 0.0000 -20.4449 0.0000
# 4 0.0000 0.0000 0.0000 33.5411 0.0000 -4.3381
# 5 -24.2296 -31.1154 -20.4449 0.0000 38.2244 0.0000
# 6 0.0000 0.0000 0.0000 -4.3381 0.0000 23.6872
#
#
#
# Elastic Compliance Matrix: (Units=1/GPa)
#
#
# Indices 1 2 3 4 5 6 
#
# 1 0.023053 -0.001999 -0.001610 0.000000 0.012125 0.000000
# 2 -0.001999 0.009568 -0.002934 0.000000 0.004953 0.000000
# 3 -0.001610 -0.002934 0.016692 0.000000 0.005520 0.000000
# 4 0.000000 0.000000 0.000000 0.030538 0.000000 0.005593
# 5 0.012125 0.004953 0.005520 0.000000 0.040831 0.000000
# 6 0.000000 0.000000 0.000000 0.005593 0.000000 0.043241
#
#
# Mechanical properties :
#
#
# Convention : Reuss Voigt Hill
#
# Bulk Modulus (GPa) = 27.60178 49.97593 38.78886
# Shear Modulus (GPa) = 26.44318 31.49127 28.96723
#
# Velocity S-wave (km/s) = 3.50641 3.82649 3.66994
# Velocity P-wave (km/s) = 5.40618 6.53906 5.99942
#
# Compressibility (1/GPa) = 0.03622955
#
# Stress axis : x y z
#
# Youngs Moduli (GPa) = 43.37756 104.51090 59.90780
#
# Poissons Ratio (x) = 0.20894 0.09642
# Poissons Ratio (y) = 0.08672 0.17574
# Poissons Ratio (z) = 0.06982 0.30659
#
# Static dielectric constant tensor:
#      x y z
#    x 1.848700 0.000000 -0.016650 
#    y 0.000000 1.785140 0.000000 
#    z -0.016650 0.000000 1.828720 
# 
# From -- ./inp_files/87942.got.cif
#   From: 2010.05.17/outbox.cif.g08.bks.cpg/sg12_44_cif.got.tgz:87942.got - 2010.06.03 13:09:07.
