data_PCOD9217648
_publ_section_title
;
Structure prediction by ZEFSAII (Michael W. Deem and Ramdas Pophale) SiO2 
 PCOD9217648
Probable space group: C 2/M
;
_chemical_formula_sum "Si O2"
_cell_formula_units_Z 42
_cell_length_a 21.558630
_cell_length_b 18.465546
_cell_length_c 5.022439
_cell_angle_alpha 90.000000
_cell_angle_beta 74.663301
_cell_angle_gamma 90.000000
_cell_volume 1928.190210
_symmetry_space_group_name_H-M "C 2/M"
_symmetry_group_IT_number 12
_symmetry_cell_setting 'monoclinic'
loop_
_space_group_symop_operation_xyz
x,y,z
-x,y,-z
-x,-y,-z
x,-y,z
1/2+x,1/2+y,z
1/2-x,1/2+y,-z
1/2-x,1/2-y,-z
1/2+x,1/2-y,z
loop_
_atom_site_type_symbol
_atom_site_label
_atom_site_fract_x
_atom_site_fract_y
_atom_site_fract_z
Si Si1 0.301044 0.196013 0.566764
Si Si2 0.391448 0.618785 0.807428
Si Si3 0.878750 0.278946 0.973915
Si Si4 0.500000 0.500000 0.500000
Si Si5 0.546241 0.076320 0.198612
Si Si6 0.803852 0.916518 0.413580
O O1 0.250000 0.250000 0.500000
O O2 0.316775 0.215387 0.851468
O O3 0.264789 0.119590 0.573099
O O4 0.361733 0.208094 0.302435
O O5 0.409847 0.700924 0.873918
O O6 0.449629 0.564238 0.669719
O O7 0.343496 0.620968 0.608076
O O8 0.349429 0.589894 0.103139
O O9 0.916411 0.349459 0.840048
O O10 0.500000 0.074589 0.500000
O O11 0.584788 0.000000 0.149746
O O12 0.500000 0.077088 0.000000
O O13 0.796172 0.000000 0.496559
#
# Coordination Sequence:
#
# PCOD9217648 Si02
#       6
#     8   8   8   2   8   8
#     4  12  23  41  68  94 133 169 219 279 339 394
#     4  12  25  43  66  94 134 175 225 277 326 396
#     4  12  24  42  69 101 129 172 230 276 333 408
#     4  12  28  46  68  98 138 186 228 278 320 402
#     4  10  23  44  67  95 135 171 209 274 344 396
#     4  12  24  44  65  94 134 177 219 275 345 394
#
# _framework density 21.782084000000001
#
# number of rings (size 3 to 8) (size 9 to 14) (size 15 to 20)
#    0.000    0.381    5.714    2.857    1.333    3.048 
#    0.000    0.000    0.000    0.000    0.000    0.000 
#    0.000    0.000    0.000    0.000    0.000    0.000 
#
# Total GULP energy -117029.391999 kJ/mol
# GULP energy per Si atom -5572.828190 kJ/mol
# Density = 2.173251 g / cm^3
# Si number density = 21.782084 Si / 1000 Ang^3
#
#
#
# Elastic Constant Matrix: (Units=GPa)
#
#
# Indices 1 2 3 4 5 6 
#
# 1 26.8527 26.8584 18.8987 0.0000 0.7010 0.0000
# 2 26.8584 196.2840 20.0650 0.0000 -35.9344 0.0000
# 3 18.8987 20.0650 107.5834 0.0000 8.8178 0.0000
# 4 0.0000 0.0000 0.0000 32.1873 0.0000 -6.1521
# 5 0.7010 -35.9344 8.8178 0.0000 32.0570 0.0000
# 6 0.0000 0.0000 0.0000 -6.1521 0.0000 23.2979
#
#
#
# Elastic Compliance Matrix: (Units=1/GPa)
#
#
# Indices 1 2 3 4 5 6 
#
# 1 0.049670 -0.007516 -0.006695 0.000000 -0.007670 0.000000
# 2 -0.007516 0.007918 -0.000918 0.000000 0.009293 0.000000
# 3 -0.006695 -0.000918 0.010962 0.000000 -0.003898 0.000000
# 4 0.000000 0.000000 0.000000 0.032719 0.000000 0.008640
# 5 -0.007670 0.009293 -0.003898 0.000000 0.042851 0.000000
# 6 0.000000 0.000000 0.000000 0.008640 0.000000 0.045204
#
#
# Mechanical properties :
#
#
# Convention : Reuss Voigt Hill
#
# Bulk Modulus (GPa) = 26.11532 51.37379 38.74455
# Shear Modulus (GPa) = 21.51947 35.16832 28.34390
#
# Velocity S-wave (km/s) = 3.14657 4.02251 3.61120
# Velocity P-wave (km/s) = 5.02161 6.72389 5.93411
#
# Compressibility (1/GPa) = 0.03829170
#
# Stress axis : x y z
#
# Youngs Moduli (GPa) = 20.13279 126.28934 91.22520
#
# Poissons Ratio (x) = 0.94925 0.61073
# Poissons Ratio (y) = 0.15133 0.08376
# Poissons Ratio (z) = 0.13478 0.11595
#
# Static dielectric constant tensor:
#      x y z
#    x 1.302580 0.000000 0.120040 
#    y 0.000000 1.859150 0.000000 
#    z 0.120040 0.000000 1.799550 
# 
# From -- ./inp_files/20873.got.cif
#   From: 2010.05.17/outbox.cif.g08.bks.cpg/sg12_11_cif.got.tgz:20873.got - 2010.06.03 13:09:07.
