data_PCOD9217961
_publ_section_title
;
Structure prediction by ZEFSAII (Michael W. Deem and Ramdas Pophale) SiO2 
 PCOD9217961
Probable space group: C 2/M
;
_chemical_formula_sum "Si O2"
_cell_formula_units_Z 48
_cell_length_a 19.867600
_cell_length_b 14.313302
_cell_length_c 16.939065
_cell_angle_alpha 90.000000
_cell_angle_beta 151.538025
_cell_angle_gamma 90.000000
_cell_volume 2295.653379
_symmetry_space_group_name_H-M "C 2/M"
_symmetry_group_IT_number 12
_symmetry_cell_setting 'monoclinic'
loop_
_space_group_symop_operation_xyz
x,y,z
-x,y,-z
-x,-y,-z
x,-y,z
1/2+x,1/2+y,z
1/2-x,1/2+y,-z
1/2-x,1/2-y,-z
1/2+x,1/2-y,z
loop_
_atom_site_type_symbol
_atom_site_label
_atom_site_fract_x
_atom_site_fract_y
_atom_site_fract_z
Si Si1 0.646748 0.000000 0.105293
Si Si2 0.828397 0.000000 0.062312
Si Si3 0.640789 0.299477 0.830317
Si Si4 0.831492 0.183243 0.318660
Si Si5 0.522697 0.000000 0.798911
Si Si6 0.956984 0.000000 0.862914
Si Si7 0.886769 0.795973 0.812144
Si Si8 0.900380 0.297884 0.666439
O O1 0.740662 0.088576 0.226859
O O2 0.500000 0.000000 0.000000
O O3 0.601230 0.000000 0.965882
O O4 0.867295 0.907792 0.152753
O O5 0.914159 0.000000 0.067848
O O6 0.657537 0.000000 0.878573
O O7 0.687870 0.282144 0.790405
O O8 0.494838 0.250111 0.697733
O O9 0.750000 0.250000 0.000000
O O10 0.759096 0.253840 0.305353
O O11 0.000000 0.168039 0.500000
O O12 0.427179 0.091818 0.691074
O O13 0.875061 0.097692 0.769063
O O14 0.000000 0.000000 0.000000
O O15 0.944877 0.734120 0.800270
O O16 0.000000 0.793175 0.000000
O O17 0.750000 0.250000 0.500000
#
# Coordination Sequence:
#
# PCOD9217961 Si02
#       8
#     4   4   8   8   4   4   8   8
#     4  12  23  42  70  98 133 180 233 286 341 434
#     4  12  22  42  72 103 128 178 248 296 332 416
#     4  12  23  42  70  98 134 184 242 293 346 426
#     4  12  25  42  65 103 143 179 225 294 370 418
#     4  12  24  43  69 102 130 184 240 281 355 429
#     4  10  24  39  69 101 129 176 244 294 335 398
#     4  11  23  44  68  98 137 185 239 285 343 426
#     4  12  26  43  66 102 142 180 227 295 357 417
#
# _framework density 20.909079999999999
#
# number of rings (size 3 to 8) (size 9 to 14) (size 15 to 20)
#    0.000    0.333    5.000    4.750    2.333    1.333 
#    0.000    2.083    0.000    0.000    0.000    0.000 
#    0.000    0.000    0.000    0.000    0.000    0.000 
#
# Total GULP energy -134173.896324 kJ/mol
# GULP energy per Si atom -5590.579013 kJ/mol
# Density = 2.086149 g / cm^3
# Si number density = 20.909080 Si / 1000 Ang^3
#
#
#
# Elastic Constant Matrix: (Units=GPa)
#
#
# Indices 1 2 3 4 5 6 
#
# 1 129.5048 43.1739 17.8965 0.0000 24.1200 0.0000
# 2 43.1739 189.8188 48.9271 0.0000 27.6318 0.0000
# 3 17.8965 48.9271 113.1462 0.0000 26.5834 0.0000
# 4 0.0000 0.0000 0.0000 17.4188 0.0000 10.3054
# 5 24.1200 27.6318 26.5834 0.0000 44.3975 0.0000
# 6 0.0000 0.0000 0.0000 10.3054 0.0000 30.5175
#
#
#
# Elastic Compliance Matrix: (Units=1/GPa)
#
#
# Indices 1 2 3 4 5 6 
#
# 1 0.008947 -0.001493 0.000179 0.000000 -0.004039 0.000000
# 2 -0.001493 0.006428 -0.002088 0.000000 -0.001939 0.000000
# 3 0.000179 -0.002088 0.010974 0.000000 -0.005369 0.000000
# 4 0.000000 0.000000 0.000000 0.071742 0.000000 -0.024227
# 5 -0.004039 -0.001939 -0.005369 0.000000 0.029140 0.000000
# 6 0.000000 0.000000 0.000000 -0.024227 0.000000 0.040949
#
#
# Mechanical properties :
#
#
# Convention : Reuss Voigt Hill
#
# Bulk Modulus (GPa) = 51.16197 72.49610 61.82904
# Shear Modulus (GPa) = 27.54838 39.96491 33.75665
#
# Velocity S-wave (km/s) = 3.63372 4.37666 4.02238
# Velocity P-wave (km/s) = 6.49054 7.76451 7.15593
#
# Compressibility (1/GPa) = 0.01954577
#
# Stress axis : x y z
#
# Youngs Moduli (GPa) = 111.76988 155.56166 91.12462
#
# Poissons Ratio (x) = 0.23230 -0.01635
# Poissons Ratio (y) = 0.16691 0.19026
# Poissons Ratio (z) = -0.02006 0.32480
#
# Static dielectric constant tensor:
#      x y z
#    x 1.746190 0.000000 -0.050900 
#    y 0.000000 2.786920 0.000000 
#    z -0.050900 0.000000 1.714540 
# 
# From -- ./inp_files/278296.got.cif
#   From: 2010.05.17/outbox.cif.g08.bks.cpg/sg12_140_cif.got.tgz:278296.got - 2010.06.03 13:09:07.
