data_PCOD9217026
_publ_section_title
;
Structure prediction by ZEFSAII (Michael W. Deem and Ramdas Pophale) SiO2 
 PCOD9217026
Probable space group: C 2/M
;
_chemical_formula_sum "Si O2"
_cell_formula_units_Z 36
_cell_length_a 11.076196
_cell_length_b 13.668214
_cell_length_c 12.033355
_cell_angle_alpha 90.000000
_cell_angle_beta 104.893304
_cell_angle_gamma 90.000000
_cell_volume 1760.551786
_symmetry_space_group_name_H-M "C 2/M"
_symmetry_group_IT_number 12
_symmetry_cell_setting 'monoclinic'
loop_
_space_group_symop_operation_xyz
x,y,z
-x,y,-z
-x,-y,-z
x,-y,z
1/2+x,1/2+y,z
1/2-x,1/2+y,-z
1/2-x,1/2-y,-z
1/2+x,1/2-y,z
loop_
_atom_site_type_symbol
_atom_site_label
_atom_site_fract_x
_atom_site_fract_y
_atom_site_fract_z
Si Si1 0.249627 0.500000 0.721926
Si Si2 0.627510 0.000000 0.461328
Si Si3 0.095717 0.000000 0.920029
Si Si4 0.389995 0.785512 0.568836
Si Si5 0.442164 0.329255 0.801732
Si Si6 0.000000 0.677469 0.000000
Si Si7 0.867930 0.500000 0.090490
O O1 0.227710 0.500000 0.585591
O O2 0.326707 0.404002 0.772498
O O3 0.131908 0.500000 0.775783
O O4 0.500000 0.000000 0.500000
O O5 0.631788 0.101991 0.400096
O O6 0.230597 0.000000 0.004654
O O7 0.061711 0.900804 0.846077
O O8 0.000000 0.000000 0.000000
O O9 0.500000 0.782404 0.500000
O O10 0.250000 0.750000 0.500000
O O11 0.440459 0.724472 0.684075
O O12 0.431652 0.251678 0.899092
O O13 0.926195 0.600775 0.059729
#
# Coordination Sequence:
#
# PCOD9217026 Si02
#       7
#     4   4   4   8   8   4   4
#     4  11  21  42  69  89 132 182 211 269 324 408
#     4  10  23  41  64  95 127 178 222 266 334 391
#     4  11  21  45  65  94 121 179 213 260 323 402
#     4  11  25  44  69 100 134 181 226 276 333 396
#     4  11  23  43  68  97 132 169 227 262 333 392
#     4  11  26  39  64 106 128 169 210 285 324 392
#     4  11  25  41  64  96 138 163 220 264 341 387
#
# _framework density 20.448136000000002
#
# number of rings (size 3 to 8) (size 9 to 14) (size 15 to 20)
#    0.000    1.111    5.556    0.000    6.222    6.222 
#    0.000    5.000    0.000    0.000    0.000    0.000 
#    0.000    0.000    0.000    0.000    0.000    0.000 
#
# Total GULP energy -100422.836322 kJ/mol
# GULP energy per Si atom -5579.046462 kJ/mol
# Density = 2.040160 g / cm^3
# Si number density = 20.448136 Si / 1000 Ang^3
#
#
#
# Elastic Constant Matrix: (Units=GPa)
#
#
# Indices 1 2 3 4 5 6 
#
# 1 44.0259 23.3084 4.9105 0.0000 0.8093 0.0000
# 2 23.3084 178.4651 58.5505 0.0000 -2.2739 0.0000
# 3 4.9105 58.5505 111.6679 0.0000 -4.7164 0.0000
# 4 0.0000 0.0000 0.0000 204.3171 0.0000 72.4430
# 5 0.8093 -2.2739 -4.7164 0.0000 28.7015 0.0000
# 6 0.0000 0.0000 0.0000 72.4430 0.0000 34.0884
#
#
#
# Elastic Compliance Matrix: (Units=1/GPa)
#
#
# Indices 1 2 3 4 5 6 
#
# 1 0.024470 -0.003432 0.000688 0.000000 -0.000849 0.000000
# 2 -0.003432 0.007249 -0.003647 0.000000 0.000072 0.000000
# 3 0.000688 -0.003647 0.010900 0.000000 0.001483 0.000000
# 4 0.000000 0.000000 0.000000 0.019855 0.000000 -0.042195
# 5 -0.000849 0.000072 0.001483 0.000000 0.035115 0.000000
# 6 0.000000 0.000000 0.000000 -0.042195 0.000000 0.119006
#
#
# Mechanical properties :
#
#
# Convention : Reuss Voigt Hill
#
# Bulk Modulus (GPa) = 33.51690 56.41087 44.96388
# Shear Modulus (GPa) = 20.89232 69.91404 45.40318
#
# Velocity S-wave (km/s) = 3.19991 5.85364 4.71723
# Velocity P-wave (km/s) = 5.48446 8.56353 7.19073
#
# Compressibility (1/GPa) = 0.02983570
#
# Stress axis : x y z
#
# Youngs Moduli (GPa) = 40.86645 137.95023 91.74598
#
# Poissons Ratio (x) = 0.47349 -0.06310
# Poissons Ratio (y) = 0.14027 0.33459
# Poissons Ratio (z) = -0.02811 0.50309
#
# Static dielectric constant tensor:
#      x y z
#    x 1.755090 0.000000 0.025430 
#    y 0.000000 1.747260 0.000000 
#    z 0.025430 0.000000 1.816730 
# 
# From -- ./inp_files/128677.got.cif
#   From: 2010.05.17/outbox.cif.g08.bks.cpg/sg12_65_cif.got.tgz:128677.got - 2010.06.03 13:09:07.
