data_PCOD9217755
_publ_section_title
;
Structure prediction by ZEFSAII (Michael W. Deem and Ramdas Pophale) SiO2 
 PCOD9217755
Probable space group: C 2/M
;
_chemical_formula_sum "Si O2"
_cell_formula_units_Z 36
_cell_length_a 18.906535
_cell_length_b 13.842862
_cell_length_c 6.925222
_cell_angle_alpha 90.000000
_cell_angle_beta 102.314180
_cell_angle_gamma 90.000000
_cell_volume 1770.773057
_symmetry_space_group_name_H-M "C 2/M"
_symmetry_group_IT_number 12
_symmetry_cell_setting 'monoclinic'
loop_
_space_group_symop_operation_xyz
x,y,z
-x,y,-z
-x,-y,-z
x,-y,z
1/2+x,1/2+y,z
1/2-x,1/2+y,-z
1/2-x,1/2-y,-z
1/2+x,1/2-y,z
loop_
_atom_site_type_symbol
_atom_site_label
_atom_site_fract_x
_atom_site_fract_y
_atom_site_fract_z
Si Si1 0.702701 0.341462 0.508696
Si Si2 0.584037 0.000000 0.468918
Si Si3 0.245178 0.500000 0.738746
Si Si4 0.000000 0.166017 0.000000
Si Si5 0.454099 0.500000 0.272610
Si Si6 0.283496 0.500000 0.199386
Si Si7 0.934752 0.279456 0.618166
O O1 0.750000 0.250000 0.500000
O O2 0.711762 0.410126 0.329182
O O3 0.737271 0.404038 0.699413
O O4 0.624113 0.296518 0.498086
O O5 0.500000 0.000000 0.500000
O O6 0.588067 0.892552 0.376135
O O7 0.659204 0.000000 0.638477
O O8 0.255464 0.500000 0.970334
O O9 0.951982 0.236866 0.839806
O O10 0.031635 0.093065 0.855812
O O11 0.500000 0.500000 0.500000
O O12 0.370026 0.500000 0.272056
O O13 0.000000 0.277686 0.500000
#
# Coordination Sequence:
#
# PCOD9217755 Si02
#       7
#     8   4   4   4   4   4   8
#     4  11  23  42  66  92 131 169 212 273 322 386
#     4  10  23  45  65  88 135 181 218 277 320 376
#     4  11  23  46  66  98 132 170 224 267 333 392
#     4  11  22  37  68 102 124 171 218 257 324 404
#     4  11  22  41  66  99 141 165 206 275 334 390
#     4  11  24  39  65  97 127 172 214 268 333 391
#     4  11  23  43  66  96 133 173 216 270 330 385
#
# _framework density 20.330103999999999
#
# number of rings (size 3 to 8) (size 9 to 14) (size 15 to 20)
#    0.000    1.111    2.222    4.667    0.000    4.889 
#    8.000    1.667    0.000    0.000    0.000    0.000 
#    0.000    0.000    0.000    0.000    0.000    0.000 
#
# Total GULP energy -100300.410067 kJ/mol
# GULP energy per Si atom -5572.245004 kJ/mol
# Density = 2.028383 g / cm^3
# Si number density = 20.330104 Si / 1000 Ang^3
#
#
#
# Elastic Constant Matrix: (Units=GPa)
#
#
# Indices 1 2 3 4 5 6 
#
# 1 93.5957 39.7949 24.1711 0.0000 1.1155 0.0000
# 2 39.7949 212.3451 79.9634 0.0000 1.3455 0.0000
# 3 24.1711 79.9634 126.9968 0.0000 -5.0243 0.0000
# 4 0.0000 0.0000 0.0000 -6.8344 0.0000 -3.6158
# 5 1.1155 1.3455 -5.0243 0.0000 20.5448 0.0000
# 6 0.0000 0.0000 0.0000 -3.6158 0.0000 32.6214
#
#
#
# Elastic Compliance Matrix: (Units=1/GPa)
#
#
# Indices 1 2 3 4 5 6 
#
# 1 0.011741 -0.001759 -0.001159 0.000000 -0.000806 0.000000
# 2 -0.001759 0.006475 -0.003792 0.000000 -0.001256 0.000000
# 3 -0.001159 -0.003792 0.010597 0.000000 0.002903 0.000000
# 4 0.000000 0.000000 0.000000 -0.138214 0.000000 -0.015320
# 5 -0.000806 -0.001256 0.002903 0.000000 0.049510 0.000000
# 6 0.000000 0.000000 0.000000 -0.015320 0.000000 0.028957
#
#
# Mechanical properties :
#
#
# Convention : Reuss Voigt Hill
#
# Bulk Modulus (GPa) = 64.96205 80.08853 72.52529
# Shear Modulus (GPa) = -403.75979 28.53358 -187.61311
#
# Velocity S-wave (km/s) = -14.10791 3.75041 -9.61685
# Velocity P-wave (km/s) = 15.27594 7.63110 9.35737
#
# Compressibility (1/GPa) = 0.01539360
#
# Stress axis : x y z
#
# Youngs Moduli (GPa) = 85.17179 154.44620 94.36500
#
# Poissons Ratio (x) = 0.27163 0.10938
# Poissons Ratio (y) = 0.14979 0.35781
# Poissons Ratio (z) = 0.09873 0.58562
#
# Static dielectric constant tensor:
#      x y z
#    x 1.754560 0.000000 -0.037250 
#    y 0.000000 1.744230 0.000000 
#    z -0.037250 0.000000 1.695460 
# 
# From -- ./inp_files/19759.got.cif
#   From: 2010.05.17/outbox.cif.g08.bks.cpg/sg12_10_cif.got.tgz:19759.got - 2010.06.03 13:09:07.
