data_PCOD9217817
_publ_section_title
;
Structure prediction by ZEFSAII (Michael W. Deem and Ramdas Pophale) SiO2 
 PCOD9217817
Probable space group: C 2/M
;
_chemical_formula_sum "Si O2"
_cell_formula_units_Z 32
_cell_length_a 12.451868
_cell_length_b 20.500233
_cell_length_c 7.813977
_cell_angle_alpha 90.000000
_cell_angle_beta 137.936250
_cell_angle_gamma 90.000000
_cell_volume 1336.325930
_symmetry_space_group_name_H-M "C 2/M"
_symmetry_group_IT_number 12
_symmetry_cell_setting 'monoclinic'
loop_
_space_group_symop_operation_xyz
x,y,z
-x,y,-z
-x,-y,-z
x,-y,z
1/2+x,1/2+y,z
1/2-x,1/2+y,-z
1/2-x,1/2-y,-z
1/2+x,1/2-y,z
loop_
_atom_site_type_symbol
_atom_site_label
_atom_site_fract_x
_atom_site_fract_y
_atom_site_fract_z
Si Si1 0.392231 0.431220 0.200200
Si Si2 0.364521 0.701586 0.230232
Si Si3 0.849136 0.305456 0.717132
Si Si4 0.991248 0.428153 0.284728
O O1 0.500000 0.434040 0.500000
O O2 0.431001 0.500000 0.152862
O O3 0.423912 0.356768 0.178333
O O4 0.198078 0.431220 0.983217
O O5 0.500000 0.738137 0.500000
O O6 0.266394 0.669738 0.270037
O O7 0.250000 0.750000 0.000000
O O8 0.750000 0.250000 0.500000
O O9 0.918158 0.366847 0.692894
O O10 0.000000 0.275936 0.000000
O O11 0.059561 0.500000 0.316511
O O12 0.000000 0.421751 0.500000
#
# Coordination Sequence:
#
# PCOD9217817 Si02
#       4
#     8   8   8   8
#     4   9  19  38  67  98 128 170 228 283 340 406
#     4  11  24  41  65  93 134 183 224 281 340 407
#     4  12  26  43  66 102 139 181 234 286 342 414
#     4  10  23  45  73 103 138 182 232 289 350 411
#
# _framework density 23.946254
#
# number of rings (size 3 to 8) (size 9 to 14) (size 15 to 20)
#    0.000    1.500    2.500    1.500    3.500    1.500 
#    0.000    0.000    0.000    0.750    0.000    0.000 
#    0.000    0.000    0.000    0.000    0.000    0.000 
#
# Total GULP energy -89100.721912 kJ/mol
# GULP energy per Si atom -5568.795119 kJ/mol
# Density = 2.389175 g / cm^3
# Si number density = 23.946254 Si / 1000 Ang^3
#
#
#
# Elastic Constant Matrix: (Units=GPa)
#
#
# Indices 1 2 3 4 5 6 
#
# 1 60.0775 15.3827 31.1240 0.0000 -1.6195 0.0000
# 2 15.3827 202.0452 110.7867 0.0000 -12.7637 0.0000
# 3 31.1240 110.7867 197.0767 0.0000 17.4844 0.0000
# 4 0.0000 0.0000 0.0000 220.0193 0.0000 54.0755
# 5 -1.6195 -12.7637 17.4844 0.0000 23.2291 0.0000
# 6 0.0000 0.0000 0.0000 54.0755 0.0000 47.1434
#
#
#
# Elastic Compliance Matrix: (Units=1/GPa)
#
#
# Indices 1 2 3 4 5 6 
#
# 1 0.018555 0.001066 -0.003961 0.000000 0.004861 0.000000
# 2 0.001066 0.008666 -0.005860 0.000000 0.009247 0.000000
# 3 -0.003961 -0.005860 0.009970 0.000000 -0.011001 0.000000
# 4 0.000000 0.000000 0.000000 0.006329 0.000000 -0.007260
# 5 0.004861 0.009247 -0.011001 0.000000 0.056749 0.000000
# 6 0.000000 0.000000 0.000000 -0.007260 0.000000 0.029540
#
#
# Mechanical properties :
#
#
# Convention : Reuss Voigt Hill
#
# Bulk Modulus (GPa) = 50.81030 85.97627 68.39328
# Shear Modulus (GPa) = 32.49301 78.20542 55.34921
#
# Velocity S-wave (km/s) = 3.68763 5.72098 4.81291
# Velocity P-wave (km/s) = 6.27662 8.92308 7.71418
#
# Compressibility (1/GPa) = 0.01968105
#
# Stress axis : x y z
#
# Youngs Moduli (GPa) = 53.89297 115.39864 100.30099
#
# Poissons Ratio (x) = -0.12306 0.39731
# Poissons Ratio (y) = -0.05747 0.58778
# Poissons Ratio (z) = 0.21348 0.67625
#
# Static dielectric constant tensor:
#      x y z
#    x 2.039540 0.000000 0.044530 
#    y 0.000000 2.033340 0.000000 
#    z 0.044530 0.000000 1.925980 
# 
# From -- ./inp_files/63023.got.cif
#   From: 2010.05.17/outbox.cif.g08.bks.cpg/sg12_32_cif.got.tgz:63023.got - 2010.06.03 13:09:07.
