data_PCOD9217685
_publ_section_title
;
Structure prediction by ZEFSAII (Michael W. Deem and Ramdas Pophale) SiO2 
 PCOD9217685
Probable space group: C 2/M
;
_chemical_formula_sum "Si O2"
_cell_formula_units_Z 44
_cell_length_a 13.690441
_cell_length_b 22.649235
_cell_length_c 13.388506
_cell_angle_alpha 90.000000
_cell_angle_beta 149.139383
_cell_angle_gamma 90.000000
_cell_volume 2129.507885
_symmetry_space_group_name_H-M "C 2/M"
_symmetry_group_IT_number 12
_symmetry_cell_setting 'monoclinic'
loop_
_space_group_symop_operation_xyz
x,y,z
-x,y,-z
-x,-y,-z
x,-y,z
1/2+x,1/2+y,z
1/2-x,1/2+y,-z
1/2-x,1/2-y,-z
1/2+x,1/2-y,z
loop_
_atom_site_type_symbol
_atom_site_label
_atom_site_fract_x
_atom_site_fract_y
_atom_site_fract_z
Si Si1 0.596992 0.142877 0.820718
Si Si2 0.274661 0.068150 0.421287
Si Si3 0.500000 0.641262 0.500000
Si Si4 0.281982 0.169595 0.281461
Si Si5 0.114404 0.931690 0.794004
Si Si6 0.116954 0.287697 0.201760
O O1 0.437358 0.102633 0.626058
O O2 0.723987 0.169883 0.843201
O O3 0.494982 0.192367 0.798185
O O4 0.723540 0.102573 0.003409
O O5 0.246023 0.104813 0.294365
O O6 0.079925 0.069968 0.312577
O O7 0.327097 0.000000 0.450142
O O8 0.426817 0.600779 0.345737
O O9 0.677718 0.680683 0.620203
O O10 0.500000 0.184670 0.500000
O O11 0.153999 0.218136 0.222700
O O12 0.167209 0.000000 0.824754
O O13 0.000000 0.306401 0.000000
#
# Coordination Sequence:
#
# PCOD9217685 Si02
#       6
#     8   8   4   8   8   8
#     4  11  24  43  67 100 132 172 221 268 329 391
#     4  10  23  44  68  97 136 174 216 270 328 388
#     4  12  23  46  66 100 129 174 224 270 328 392
#     4  10  25  43  67 100 132 176 218 271 326 388
#     4  11  24  42  69 100 131 174 221 271 325 390
#     4  12  25  43  68  96 132 175 219 274 326 391
#
# _framework density 20.662051000000002
#
# number of rings (size 3 to 8) (size 9 to 14) (size 15 to 20)
#    0.000    1.091    4.545    0.818    2.545    9.091 
#    0.000    2.727    0.000    0.000    0.000    0.000 
#    0.000    0.000    0.000    0.000    0.000    0.000 
#
# Total GULP energy -123081.316013 kJ/mol
# GULP energy per Si atom -5594.605273 kJ/mol
# Density = 2.061502 g / cm^3
# Si number density = 20.662051 Si / 1000 Ang^3
#
#
#
# Elastic Constant Matrix: (Units=GPa)
#
#
# Indices 1 2 3 4 5 6 
#
# 1 107.9322 77.1204 29.0519 0.0000 -21.6669 -0.0001
# 2 77.1204 146.7618 34.0027 0.0000 -7.0290 0.0000
# 3 29.0519 34.0027 73.0034 -0.0002 -4.6012 -0.0003
# 4 0.0000 0.0000 -0.0002 10.4158 -0.0001 -8.9668
# 5 -21.6669 -7.0290 -4.6012 -0.0001 33.6327 -0.0001
# 6 -0.0001 0.0000 -0.0003 -8.9668 -0.0001 11.0399
#
#
#
# Elastic Compliance Matrix: (Units=1/GPa)
#
#
# Indices 1 2 3 4 5 6 
#
# 1 0.017765 -0.008279 -0.002624 0.000001 0.009355 0.000001
# 2 -0.008279 0.011538 -0.002283 -0.000001 -0.003235 -0.000001
# 3 -0.002624 -0.002283 0.015805 0.000002 -0.000005 0.000002
# 4 0.000001 -0.000001 0.000002 0.319189 0.000002 0.259248
# 5 0.009355 -0.003235 -0.000005 0.000002 0.035083 0.000002
# 6 0.000001 -0.000001 0.000002 0.259248 0.000002 0.301144
#
#
# Mechanical properties :
#
#
# Convention : Reuss Voigt Hill
#
# Bulk Modulus (GPa) = 53.37308 67.56083 60.46696
# Shear Modulus (GPa) = 6.81995 23.51919 15.16957
#
# Velocity S-wave (km/s) = 1.81876 3.37750 2.71251
# Velocity P-wave (km/s) = 5.50437 6.92669 6.25608
#
# Compressibility (1/GPa) = 0.01873604
#
# Stress axis : x y z
#
# Youngs Moduli (GPa) = 56.29010 86.66676 63.26980
#
# Poissons Ratio (x) = 0.71754 0.16601
# Poissons Ratio (y) = 0.46604 0.14447
# Poissons Ratio (z) = 0.14769 0.19789
#
# Static dielectric constant tensor:
#      x y z
#    x 1.726590 0.000000 0.011260 
#    y 0.000000 1.718200 0.000000 
#    z 0.011260 0.000000 1.729260 
# 
# From -- ./inp_files/136094.got.cif
#   From: 2010.05.17/outbox.cif.g08.bks.cpg/sg12_69_cif.got.tgz:136094.got - 2010.06.03 13:09:07.
