data_PCOD9217419
_publ_section_title
;
Structure prediction by ZEFSAII (Michael W. Deem and Ramdas Pophale) SiO2 
 PCOD9217419
Probable space group: C 2/M
;
_chemical_formula_sum "Si O2"
_cell_formula_units_Z 60
_cell_length_a 17.338493
_cell_length_b 25.311925
_cell_length_c 20.741500
_cell_angle_alpha 90.000000
_cell_angle_beta 159.790864
_cell_angle_gamma 90.000000
_cell_volume 3144.554783
_symmetry_space_group_name_H-M "C 2/M"
_symmetry_group_IT_number 12
_symmetry_cell_setting 'monoclinic'
loop_
_space_group_symop_operation_xyz
x,y,z
-x,y,-z
-x,-y,-z
x,-y,z
1/2+x,1/2+y,z
1/2-x,1/2+y,-z
1/2-x,1/2-y,-z
1/2+x,1/2-y,z
loop_
_atom_site_type_symbol
_atom_site_label
_atom_site_fract_x
_atom_site_fract_y
_atom_site_fract_z
Si Si1 0.296748 0.439750 0.498841
Si Si2 0.104959 0.838872 0.511772
Si Si3 0.698900 0.091704 0.896692
Si Si4 0.163217 0.059967 0.317634
Si Si5 0.242230 0.337568 0.813798
Si Si6 0.000000 0.631831 0.500000
Si Si7 0.120900 0.304461 0.917972
Si Si8 0.232219 0.722434 0.143196
O O1 0.381317 0.500000 0.555167
O O2 0.383907 0.393597 0.520134
O O3 0.339404 0.425458 0.608060
O O4 0.031432 0.439038 0.276250
O O5 0.348851 0.809861 0.703090
O O6 0.000000 0.848556 0.500000
O O7 0.930289 0.801394 0.339398
O O8 0.918824 0.062407 0.093429
O O9 0.692411 0.111483 0.817628
O O10 0.699975 0.146040 0.938222
O O11 0.319228 0.096762 0.396300
O O12 0.249054 0.000000 0.382850
O O13 0.204360 0.283183 0.821958
O O14 0.114649 0.334976 0.646266
O O15 0.500000 0.341069 0.000000
O O16 0.250000 0.250000 0.000000
O O17 0.191406 0.310833 0.047329
O O18 0.000000 0.723470 0.000000
#
# Coordination Sequence:
#
# PCOD9217419 Si02
#       8
#     8   8   8   8   8   4   8   8
#     4  10  23  43  64  89 119 156 209 267 315 370
#     4  11  24  42  66  94 124 167 208 253 322 375
#     4  11  21  40  61  88 118 162 205 254 307 371
#     4  11  23  39  61  87 120 162 209 262 315 363
#     4  11  23  37  58  86 123 166 203 240 301 361
#     4  12  23  38  58  88 126 164 211 256 298 376
#     4  11  23  40  63  93 127 161 210 253 305 367
#     4  11  23  40  62  92 128 165 201 250 302 372
#
# _framework density 19.080601999999999
#
# number of rings (size 3 to 8) (size 9 to 14) (size 15 to 20)
#    0.000    1.067    5.333    1.400    0.933    1.867 
#    0.000    0.667    0.000    0.400    0.000    0.000 
#    0.000    0.000    0.000    0.000    0.000    0.000 
#
# Total GULP energy -167317.077874 kJ/mol
# GULP energy per Si atom -5577.235929 kJ/mol
# Density = 1.903717 g / cm^3
# Si number density = 19.080602 Si / 1000 Ang^3
#
#
#
# Elastic Constant Matrix: (Units=GPa)
#
#
# Indices 1 2 3 4 5 6 
#
# 1 76.5733 28.5038 22.4775 -0.0039 -13.9072 -0.0043
# 2 28.5038 75.2566 16.0855 0.0145 5.2212 -0.0241
# 3 22.4775 16.0855 93.2853 -0.0711 -9.4001 -0.0945
# 4 -0.0039 0.0145 -0.0711 25.7891 -0.0108 -3.3804
# 5 -13.9072 5.2212 -9.4001 -0.0108 35.5429 -0.0277
# 6 -0.0043 -0.0241 -0.0945 -3.3804 -0.0277 13.5394
#
#
#
# Elastic Compliance Matrix: (Units=1/GPa)
#
#
# Indices 1 2 3 4 5 6 
#
# 1 0.017531 -0.006637 -0.002353 0.000002 0.007212 -0.000007
# 2 -0.006637 0.016572 -0.001814 -0.000018 -0.005511 -0.000001
# 3 -0.002353 -0.001814 0.011849 0.000047 0.002480 0.000095
# 4 0.000002 -0.000018 0.000047 0.040088 0.000036 0.010009
# 5 0.007212 -0.005511 0.002480 0.000036 0.032422 0.000085
# 6 -0.000007 -0.000001 0.000095 0.010009 0.000085 0.076359
#
#
# Mechanical properties :
#
#
# Convention : Reuss Voigt Hill
#
# Bulk Modulus (GPa) = 41.07724 42.13877 41.60800
# Shear Modulus (GPa) = 22.26742 26.84415 24.55578
#
# Velocity S-wave (km/s) = 3.41987 3.75491 3.59130
# Velocity P-wave (km/s) = 6.09664 6.39779 6.24903
#
# Compressibility (1/GPa) = 0.02434438
#
# Stress axis : x y z
#
# Youngs Moduli (GPa) = 57.04321 60.34355 84.39198
#
# Poissons Ratio (x) = 0.40052 0.19856
# Poissons Ratio (y) = 0.37861 0.15305
# Poissons Ratio (z) = 0.13421 0.10944
#
# Static dielectric constant tensor:
#      x y z
#    x 1.665620 -0.000010 -0.005680 
#    y -0.000010 1.667130 -0.000020 
#    z -0.005680 -0.000020 1.635140 
# 
# From -- ./inp_files/318375.got.cif
#   From: 2010.05.17/outbox.cif.g08.bks.cpg/sg12_160_cif.got.tgz:318375.got - 2010.06.03 13:09:07.
