data_PCOD9217532
_publ_section_title
;
Structure prediction by ZEFSAII (Michael W. Deem and Ramdas Pophale) SiO2 
 PCOD9217532
Probable space group: C 2/M
;
_chemical_formula_sum "Si O2"
_cell_formula_units_Z 44
_cell_length_a 9.184810
_cell_length_b 20.046449
_cell_length_c 12.875472
_cell_angle_alpha 90.000000
_cell_angle_beta 108.296946
_cell_angle_gamma 90.000000
_cell_volume 2250.812539
_symmetry_space_group_name_H-M "C 2/M"
_symmetry_group_IT_number 12
_symmetry_cell_setting 'monoclinic'
loop_
_space_group_symop_operation_xyz
x,y,z
-x,y,-z
-x,-y,-z
x,-y,z
1/2+x,1/2+y,z
1/2-x,1/2+y,-z
1/2-x,1/2-y,-z
1/2+x,1/2-y,z
loop_
_atom_site_type_symbol
_atom_site_label
_atom_site_fract_x
_atom_site_fract_y
_atom_site_fract_z
Si Si1 0.000000 0.110451 0.000000
Si Si2 0.391173 0.321469 0.189307
Si Si3 0.835097 0.423672 0.147636
Si Si4 0.029733 0.302470 0.121262
Si Si5 0.030834 0.076771 0.386020
Si Si6 0.621947 0.077860 0.605899
O O1 0.930145 0.146258 0.086226
O O2 0.154208 0.076340 0.080217
O O3 0.210569 0.313841 0.168281
O O4 0.469463 0.248879 0.194718
O O5 0.455727 0.369636 0.292911
O O6 0.889825 0.500000 0.147585
O O7 0.860485 0.399129 0.271956
O O8 0.931768 0.370479 0.104065
O O9 0.000000 0.272927 0.000000
O O10 0.212172 0.080083 0.408259
O O11 0.000000 0.089489 0.500000
O O12 0.980948 0.000000 0.350877
O O13 0.500000 0.109886 0.500000
O O14 0.577128 0.000000 0.608214
#
# Coordination Sequence:
#
# PCOD9217532 Si02
#       6
#     4   8   8   8   8   8
#     4  12  21  42  68  96 135 170 218 268 329 402
#     4  12  25  43  69  93 129 179 222 266 330 397
#     4  11  24  40  64 100 134 170 218 274 334 394
#     4  12  25  44  64  93 131 178 218 271 332 391
#     4  10  23  43  67  98 132 168 213 270 335 392
#     4   9  19  37  62  90 126 170 210 257 322 390
#
# _framework density 19.548497000000001
#
# number of rings (size 3 to 8) (size 9 to 14) (size 15 to 20)
#    0.000    1.091    4.545    1.909    2.545    1.818 
#    0.000    1.818    0.000    0.000    0.000    0.000 
#    0.000    0.000    0.000    0.000    0.000    0.000 
#
# Total GULP energy -122684.967751 kJ/mol
# GULP energy per Si atom -5576.589443 kJ/mol
# Density = 1.950400 g / cm^3
# Si number density = 19.548497 Si / 1000 Ang^3
#
#
#
# Elastic Constant Matrix: (Units=GPa)
#
#
# Indices 1 2 3 4 5 6 
#
# 1 113.3805 62.1973 45.2927 0.0000 10.9277 0.0000
# 2 62.1973 114.3383 58.1905 0.0000 3.1662 0.0000
# 3 45.2927 58.1905 124.6373 0.0000 10.5867 0.0000
# 4 0.0000 0.0000 0.0000 46.6640 0.0000 11.3690
# 5 10.9277 3.1662 10.5867 0.0000 34.6060 0.0000
# 6 0.0000 0.0000 0.0000 11.3690 0.0000 -5.4074
#
#
#
# Elastic Compliance Matrix: (Units=1/GPa)
#
#
# Indices 1 2 3 4 5 6 
#
# 1 0.013205 -0.006282 -0.001602 0.000000 -0.003105 0.000000
# 2 -0.006282 0.014473 -0.004651 0.000000 0.002082 0.000000
# 3 -0.001602 -0.004651 0.010983 0.000000 -0.002429 0.000000
# 4 0.000000 0.000000 0.000000 0.014171 0.000000 0.029794
# 5 -0.003105 0.002082 -0.002429 0.000000 0.030430 0.000000
# 6 0.000000 0.000000 0.000000 0.029794 0.000000 -0.122289
#
#
# Mechanical properties :
#
#
# Convention : Reuss Voigt Hill
#
# Bulk Modulus (GPa) = 73.57837 75.96857 74.77347
# Shear Modulus (GPa) = -530.36391 27.61756 -251.37318
#
# Velocity S-wave (km/s) = -16.48926 3.76276 -11.35203
# Velocity P-wave (km/s) = 18.02240 7.60420 11.55386
#
# Compressibility (1/GPa) = 0.01359095
#
# Stress axis : x y z
#
# Youngs Moduli (GPa) = 75.72761 69.09614 91.04835
#
# Poissons Ratio (x) = 0.43406 0.14586
# Poissons Ratio (y) = 0.47572 0.42346
# Poissons Ratio (z) = 0.12132 0.32136
#
# Static dielectric constant tensor:
#      x y z
#    x 1.690590 0.000000 -0.008630 
#    y 0.000000 1.714610 0.000000 
#    z -0.008630 0.000000 1.718800 
# 
# From -- ./inp_files/120808.got.cif
#   From: 2010.05.17/outbox.cif.g08.bks.cpg/sg12_61_cif.got.tgz:120808.got - 2010.06.03 13:09:07.
