data_PCOD9217687
_publ_section_title
;
Structure prediction by ZEFSAII (Michael W. Deem and Ramdas Pophale) SiO2 
 PCOD9217687
Probable space group: C 2/M
;
_chemical_formula_sum "Si O2"
_cell_formula_units_Z 48
_cell_length_a 19.863186
_cell_length_b 27.797031
_cell_length_c 12.351844
_cell_angle_alpha 90.000000
_cell_angle_beta 159.276434
_cell_angle_gamma 90.000000
_cell_volume 2413.293034
_symmetry_space_group_name_H-M "C 2/M"
_symmetry_group_IT_number 12
_symmetry_cell_setting 'monoclinic'
loop_
_space_group_symop_operation_xyz
x,y,z
-x,y,-z
-x,-y,-z
x,-y,z
1/2+x,1/2+y,z
1/2-x,1/2+y,-z
1/2-x,1/2-y,-z
1/2+x,1/2-y,z
loop_
_atom_site_type_symbol
_atom_site_label
_atom_site_fract_x
_atom_site_fract_y
_atom_site_fract_z
Si Si1 0.219165 0.621108 0.301611
Si Si2 0.965478 0.055578 0.826744
Si Si3 0.205735 0.444365 0.851388
Si Si4 0.770568 0.731209 0.650848
Si Si5 0.287252 0.629886 0.161594
Si Si6 0.561079 0.215743 0.715576
O O1 0.323549 0.586817 0.542356
O O2 0.289587 0.675898 0.421776
O O3 0.239472 0.607670 0.206380
O O4 0.000000 0.621031 0.000000
O O5 0.900283 0.000000 0.737057
O O6 0.000000 0.073902 0.000000
O O7 0.158350 0.056516 0.047956
O O8 0.192430 0.500000 0.869207
O O9 0.000000 0.428412 0.500000
O O10 0.285356 0.410124 0.064880
O O11 0.750000 0.750000 0.500000
O O12 0.627395 0.761341 0.512322
O O13 0.000000 0.733648 0.000000
O O14 0.500000 0.650819 0.500000
O O15 0.135522 0.669994 0.896563
O O16 0.500000 0.204295 0.500000
O O17 0.750000 0.250000 0.000000
#
# Coordination Sequence:
#
# PCOD9217687 Si02
#       6
#     8   8   8   8   8   8
#     4  11  24  42  65  96 133 173 217 274 331 395
#     4  10  23  44  68  98 134 172 218 272 331 398
#     4  10  23  44  69  97 133 176 220 270 332 404
#     4  11  24  45  64  91 131 176 223 268 330 399
#     4  12  24  43  66  97 135 170 223 277 333 403
#     4  12  24  41  68  98 134 179 227 284 338 392
#
# _framework density 19.889835000000001
#
# number of rings (size 3 to 8) (size 9 to 14) (size 15 to 20)
#    0.000    1.000    1.667    6.000    2.333    2.000 
#    6.000    0.000    0.000    0.000    0.000    0.000 
#    0.000    0.000    0.000    0.000    0.000    0.000 
#
# Total GULP energy -133992.151635 kJ/mol
# GULP energy per Si atom -5583.006318 kJ/mol
# Density = 1.984457 g / cm^3
# Si number density = 19.889835 Si / 1000 Ang^3
#
#
#
# Elastic Constant Matrix: (Units=GPa)
#
#
# Indices 1 2 3 4 5 6 
#
# 1 132.7726 44.6677 41.1513 0.0000 -24.3407 0.0000
# 2 44.6677 73.8423 64.0087 0.0000 -13.3599 0.0000
# 3 41.1513 64.0087 118.1471 0.0001 -22.9166 0.0000
# 4 0.0000 0.0000 0.0001 30.2282 0.0000 -1.6270
# 5 -24.3407 -13.3599 -22.9166 0.0000 44.8354 0.0000
# 6 0.0000 0.0000 0.0000 -1.6270 0.0000 32.6127
#
#
#
# Elastic Compliance Matrix: (Units=1/GPa)
#
#
# Indices 1 2 3 4 5 6 
#
# 1 0.010054 -0.005649 0.000323 0.000000 0.003940 0.000000
# 2 -0.005649 0.028721 -0.013906 0.000000 -0.001616 0.000000
# 3 0.000323 -0.013906 0.016780 0.000000 0.004608 0.000000
# 4 0.000000 0.000000 0.000000 0.033171 0.000000 0.001655
# 5 0.003940 -0.001616 0.004608 0.000000 0.026316 0.000000
# 6 0.000000 0.000000 0.000000 0.001655 0.000000 0.030745
#
#
# Mechanical properties :
#
#
# Convention : Reuss Voigt Hill
#
# Bulk Modulus (GPa) = 58.51327 69.37971 63.94649
# Shear Modulus (GPa) = 26.32271 33.19755 29.76013
#
# Velocity S-wave (km/s) = 3.64184 4.08986 3.87233
# Velocity P-wave (km/s) = 6.86779 7.56705 7.22589
#
# Compressibility (1/GPa) = 0.01709014
#
# Stress axis : x y z
#
# Youngs Moduli (GPa) = 99.45912 34.81718 59.59626
#
# Poissons Ratio (x) = 0.19667 -0.01922
# Poissons Ratio (y) = 0.56182 0.82878
# Poissons Ratio (z) = -0.03208 0.48418
#
# Static dielectric constant tensor:
#      x y z
#    x 1.681320 0.000000 0.011380 
#    y 0.000000 1.718730 0.000000 
#    z 0.011380 0.000000 1.643580 
# 
# From -- ./inp_files/170665.got.cif
#   From: 2010.05.17/outbox.cif.g08.bks.cpg/sg12_86_cif.got.tgz:170665.got - 2010.06.03 13:09:07.
