data_PCOD9217099
_publ_section_title
;
Structure prediction by ZEFSAII (Michael W. Deem and Ramdas Pophale) SiO2 
 PCOD9217099
Probable space group: C 2/M
;
_chemical_formula_sum "Si O2"
_cell_formula_units_Z 58
_cell_length_a 11.549893
_cell_length_b 29.034783
_cell_length_c 17.321983
_cell_angle_alpha 90.000000
_cell_angle_beta 150.279570
_cell_angle_gamma 90.000000
_cell_volume 2879.870538
_symmetry_space_group_name_H-M "C 2/M"
_symmetry_group_IT_number 12
_symmetry_cell_setting 'monoclinic'
loop_
_space_group_symop_operation_xyz
x,y,z
-x,y,-z
-x,-y,-z
x,-y,z
1/2+x,1/2+y,z
1/2-x,1/2+y,-z
1/2-x,1/2-y,-z
1/2+x,1/2-y,z
loop_
_atom_site_type_symbol
_atom_site_label
_atom_site_fract_x
_atom_site_fract_y
_atom_site_fract_z
Si Si1 0.779656 0.893946 0.326251
Si Si2 0.956487 0.776566 0.161495
Si Si3 0.152361 0.308280 0.361380
Si Si4 0.620100 0.054578 0.985560
Si Si5 0.154703 0.913071 0.288914
Si Si6 0.309915 0.345094 0.824328
Si Si7 0.000000 0.500000 0.500000
Si Si8 0.509292 0.657927 0.321011
O O1 0.712356 0.849359 0.337175
O O2 0.000000 0.915792 0.500000
O O3 0.864555 0.875109 0.292831
O O4 0.558011 0.925706 0.181525
O O5 0.119782 0.738828 0.296668
O O6 0.087740 0.806958 0.174485
O O7 0.871326 0.811631 0.178943
O O8 0.750000 0.750000 0.000000
O O9 0.351550 0.308270 0.541435
O O10 0.914901 0.323646 0.265395
O O11 0.875211 0.077398 0.126625
O O12 0.647754 0.000000 0.992027
O O13 0.500000 0.062156 0.000000
O O14 0.229756 0.889902 0.251596
O O15 0.183412 0.874593 0.372576
O O16 0.297450 0.959141 0.386604
O O17 0.500000 0.355509 0.000000
#
# Coordination Sequence:
#
# PCOD9217099 Si02
#       8
#     8   8   8   8   8   8   2   8
#     4  10  23  41  68  96 131 177 216 273 333 396
#     4  11  24  39  63  94 126 179 222 272 324 389
#     4  11  23  41  64  94 131 175 221 274 324 389
#     4  11  22  40  69 100 134 167 216 278 337 401
#     4  11  23  43  70  98 131 180 222 279 340 395
#     4  11  23  42  65  92 138 171 219 274 334 396
#     4  12  24  44  72 104 132 168 240 280 330 424
#     4  10  23  44  64  94 134 171 222 268 334 394
#
# _framework density 20.139793999999998
#
# number of rings (size 3 to 8) (size 9 to 14) (size 15 to 20)
#    0.000    1.241    3.448    2.069    3.862    1.931 
#    2.483    0.345   15.172    0.000    0.000    0.000 
#    0.000    0.000    0.000    0.000    0.000    0.000 
#
# Total GULP energy -161804.803537 kJ/mol
# GULP energy per Si atom -5579.475984 kJ/mol
# Density = 2.009396 g / cm^3
# Si number density = 20.139794 Si / 1000 Ang^3
#
#
#
# Elastic Constant Matrix: (Units=GPa)
#
#
# Indices 1 2 3 4 5 6 
#
# 1 73.2636 7.4588 19.9647 0.0002 -17.3630 0.0000
# 2 7.4588 84.9518 34.9903 0.0002 -21.9607 0.0000
# 3 19.9647 34.9903 94.1275 -0.0001 -6.1578 -0.0008
# 4 0.0002 0.0002 -0.0001 33.6186 0.0000 4.8762
# 5 -17.3630 -21.9607 -6.1578 0.0000 31.0576 -0.0002
# 6 0.0000 0.0000 -0.0008 4.8762 -0.0002 16.4116
#
#
#
# Elastic Compliance Matrix: (Units=1/GPa)
#
#
# Indices 1 2 3 4 5 6 
#
# 1 0.016995 0.002941 -0.003992 0.000000 0.010789 0.000000
# 2 0.002941 0.017366 -0.006250 0.000000 0.012685 0.000000
# 3 -0.003992 -0.006250 0.013534 0.000000 -0.003968 0.000001
# 4 0.000000 0.000000 0.000000 0.031085 0.000000 -0.009236
# 5 0.010789 0.012685 -0.003968 0.000000 0.046413 0.000001
# 6 0.000000 0.000000 0.000001 -0.009236 0.000001 0.063677
#
#
# Mechanical properties :
#
#
# Convention : Reuss Voigt Hill
#
# Bulk Modulus (GPa) = 30.03508 41.90782 35.97145
# Shear Modulus (GPa) = 23.28079 28.87951 26.08015
#
# Velocity S-wave (km/s) = 3.40363 3.79086 3.60245
# Velocity P-wave (km/s) = 5.51289 6.32570 5.93323
#
# Compressibility (1/GPa) = 0.03329440
#
# Stress axis : x y z
#
# Youngs Moduli (GPa) = 58.84162 57.58228 73.88637
#
# Poissons Ratio (x) = -0.16937 0.29497
# Poissons Ratio (y) = -0.17307 0.46177
# Poissons Ratio (z) = 0.23491 0.35987
#
# Static dielectric constant tensor:
#      x y z
#    x 1.793630 0.000000 -0.000160 
#    y 0.000000 1.681620 0.000000 
#    z -0.000160 0.000000 1.738660 
# 
# From -- ./inp_files/266020.got.cif
#   From: 2010.05.17/outbox.cif.g08.bks.cpg/sg12_134_cif.got.tgz:266020.got - 2010.06.03 13:09:07.
