data_PCOD9217997
_publ_section_title
;
Structure prediction by ZEFSAII (Michael W. Deem and Ramdas Pophale) SiO2 
 PCOD9217997
Probable space group: C 2/M
;
_chemical_formula_sum "Si O2"
_cell_formula_units_Z 30
_cell_length_a 5.318195
_cell_length_b 32.410499
_cell_length_c 7.172067
_cell_angle_alpha 90.000000
_cell_angle_beta 106.169048
_cell_angle_gamma 90.000000
_cell_volume 1187.316433
_symmetry_space_group_name_H-M "C 2/M"
_symmetry_group_IT_number 12
_symmetry_cell_setting 'monoclinic'
loop_
_space_group_symop_operation_xyz
x,y,z
-x,y,-z
-x,-y,-z
x,-y,z
1/2+x,1/2+y,z
1/2-x,1/2+y,-z
1/2-x,1/2-y,-z
1/2+x,1/2-y,z
loop_
_atom_site_type_symbol
_atom_site_label
_atom_site_fract_x
_atom_site_fract_y
_atom_site_fract_z
Si Si1 0.000000 0.000000 0.000000
Si Si2 0.256273 0.065557 0.820167
Si Si3 0.900164 0.234953 0.215860
Si Si4 0.047528 0.143080 0.288704
Si Si5 0.500000 0.911277 0.500000
O O1 0.028508 0.964078 0.843630
O O2 0.333735 0.063431 0.618153
O O3 0.168856 0.112490 0.839444
O O4 0.500000 0.052612 0.000000
O O5 0.651077 0.235845 0.304084
O O6 0.017459 0.189460 0.216918
O O7 0.750000 0.250000 0.000000
O O8 0.320595 0.118854 0.336013
O O9 0.000000 0.144998 0.500000
#
# Coordination Sequence:
#
# PCOD9217997 Si02
#       5
#     2   8   8   8   4
#     4  12  26  46  70 120 142 186 236 306 386 456
#     4  11  25  45  76 104 147 189 246 305 376 456
#     4  10  24  40  65 102 143 191 249 310 373 437
#     4  10  24  44  70 100 142 194 249 304 374 443
#     4  10  24  47  72 106 140 206 246 304 370 457
#
# _framework density 25.267063
#
# number of rings (size 3 to 8) (size 9 to 14) (size 15 to 20)
#    0.000    1.600    0.000    2.000   11.200    5.867 
#    0.000   12.667    0.000    0.000    0.000    0.000 
#    0.000    0.000    0.000    0.000    0.000    0.000 
#
# Total GULP energy -83573.356746 kJ/mol
# GULP energy per Si atom -5571.557116 kJ/mol
# Density = 2.520955 g / cm^3
# Si number density = 25.267063 Si / 1000 Ang^3
#
#
#
# Elastic Constant Matrix: (Units=GPa)
#
#
# Indices 1 2 3 4 5 6 
#
# 1 131.5866 17.4527 26.1115 0.0000 -17.4822 0.0000
# 2 17.4527 136.7855 29.2202 0.0000 -22.9893 0.0000
# 3 26.1115 29.2202 115.3197 0.0000 -13.5307 0.0000
# 4 0.0000 0.0000 0.0000 6.4961 0.0000 -20.0726
# 5 -17.4822 -22.9893 -13.5307 0.0000 32.6118 0.0000
# 6 0.0000 0.0000 0.0000 -20.0726 0.0000 30.9009
#
#
#
# Elastic Compliance Matrix: (Units=1/GPa)
#
#
# Indices 1 2 3 4 5 6 
#
# 1 0.008407 -0.000125 -0.001423 0.000000 0.003828 0.000000
# 2 -0.000125 0.008545 -0.001512 0.000000 0.005330 0.000000
# 3 -0.001423 -0.001512 0.009631 0.000000 0.002168 0.000000
# 4 0.000000 0.000000 0.000000 -0.152845 0.000000 -0.099285
# 5 0.003828 0.005330 0.002168 0.000000 0.037372 0.000000
# 6 0.000000 0.000000 0.000000 -0.099285 0.000000 -0.032132
#
#
# Mechanical properties :
#
#
# Convention : Reuss Voigt Hill
#
# Bulk Modulus (GPa) = 48.86556 58.80673 53.83615
# Shear Modulus (GPa) = -46.26201 34.72893 -5.76654
#
# Velocity S-wave (km/s) = -4.28357 3.71141 -1.51235
# Velocity P-wave (km/s) = 2.25470 6.45683 4.27826
#
# Compressibility (1/GPa) = 0.02046431
#
# Stress axis : x y z
#
# Youngs Moduli (GPa) = 118.94729 117.02282 103.83113
#
# Poissons Ratio (x) = 0.01467 0.14772
# Poissons Ratio (y) = 0.01491 0.15694
# Poissons Ratio (z) = 0.16922 0.17688
#
# Static dielectric constant tensor:
#      x y z
#    x 2.248860 0.000000 -0.080670 
#    y 0.000000 1.973600 0.000000 
#    z -0.080670 0.000000 2.047420 
# 
# From -- ./inp_files/34672.got.cif
#   From: 2010.05.17/outbox.cif.g08.bks.cpg/sg12_18_cif.got.tgz:34672.got - 2010.06.03 13:09:07.
