data_PCOD9217555
_publ_section_title
;
Structure prediction by ZEFSAII (Michael W. Deem and Ramdas Pophale) SiO2 
 PCOD9217555
Probable space group: C 2/M
;
_chemical_formula_sum "Si O2"
_cell_formula_units_Z 20
_cell_length_a 18.045317
_cell_length_b 9.944287
_cell_length_c 5.455101
_cell_angle_alpha 90.000000
_cell_angle_beta 64.899122
_cell_angle_gamma 90.000000
_cell_volume 886.460308
_symmetry_space_group_name_H-M "C 2/M"
_symmetry_group_IT_number 12
_symmetry_cell_setting 'monoclinic'
loop_
_space_group_symop_operation_xyz
x,y,z
-x,y,-z
-x,-y,-z
x,-y,z
1/2+x,1/2+y,z
1/2-x,1/2+y,-z
1/2-x,1/2-y,-z
1/2+x,1/2-y,z
loop_
_atom_site_type_symbol
_atom_site_label
_atom_site_fract_x
_atom_site_fract_y
_atom_site_fract_z
Si Si1 0.208329 0.000000 0.172570
Si Si2 0.687123 0.000000 0.476645
Si Si3 0.096865 0.737796 0.359619
Si Si4 0.947966 0.500000 0.832323
O O1 0.151993 0.132428 0.263197
O O2 0.263273 0.000000 0.341629
O O3 0.254118 0.000000 0.845761
O O4 0.632727 0.863531 0.517901
O O5 0.101654 0.637360 0.120547
O O6 0.000000 0.775067 0.500000
O O7 0.000000 0.500000 0.500000
O O8 0.000000 0.500000 0.000000
#
# Coordination Sequence:
#
# PCOD9217555 Si02
#       4
#     4   4   8   4
#     4  12  25  43  65  98 133 166 210 272 327 371
#     4  11  25  44  65  92 133 176 210 255 327 394
#     4  10  23  43  68  96 127 170 219 265 313 381
#     4   9  20  37  60  88 120 158 203 251 305 367
#
# _framework density 22.561641000000002
#
# number of rings (size 3 to 8) (size 9 to 14) (size 15 to 20)
#    0.000    1.600    0.000    4.800    0.000   19.200 
#    0.000    3.000    0.000    0.000    0.000    0.000 
#    0.000    0.000    0.000    0.000    0.000    0.000 
#
# Total GULP energy -55781.059265 kJ/mol
# GULP energy per Si atom -5578.105926 kJ/mol
# Density = 2.251029 g / cm^3
# Si number density = 22.561641 Si / 1000 Ang^3
#
#
#
# Elastic Constant Matrix: (Units=GPa)
#
#
# Indices 1 2 3 4 5 6 
#
# 1 186.6663 94.5868 106.0538 0.0000 19.8721 0.0000
# 2 94.5868 176.8108 68.1511 0.0000 12.2062 0.0000
# 3 106.0538 68.1511 179.4461 0.0000 16.1090 0.0000
# 4 0.0000 0.0000 0.0000 7.1579 0.0000 0.2556
# 5 19.8721 12.2062 16.1090 0.0000 56.0810 0.0000
# 6 0.0000 0.0000 0.0000 0.2556 0.0000 80.2319
#
#
#
# Elastic Compliance Matrix: (Units=1/GPa)
#
#
# Indices 1 2 3 4 5 6 
#
# 1 0.009688 -0.003427 -0.004293 0.000000 -0.001454 0.000000
# 2 -0.003427 0.007868 -0.000942 0.000000 -0.000227 0.000000
# 3 -0.004293 -0.000942 0.008533 0.000000 -0.000725 0.000000
# 4 0.000000 0.000000 0.000000 0.139722 0.000000 -0.000445
# 5 -0.001454 -0.000227 -0.000725 0.000000 0.018604 0.000000
# 6 0.000000 0.000000 0.000000 -0.000445 0.000000 0.012465
#
#
# Mechanical properties :
#
#
# Convention : Reuss Voigt Hill
#
# Bulk Modulus (GPa) = 114.11568 120.05627 117.08597
# Shear Modulus (GPa) = 23.02792 46.96959 34.99876
#
# Velocity S-wave (km/s) = 3.19825 4.56766 3.94286
# Velocity P-wave (km/s) = 8.02046 9.00811 8.52860
#
# Compressibility (1/GPa) = 0.00876304
#
# Stress axis : x y z
#
# Youngs Moduli (GPa) = 103.22112 127.09464 117.19148
#
# Poissons Ratio (x) = 0.43561 0.50316
# Poissons Ratio (y) = 0.35378 0.11041
# Poissons Ratio (z) = 0.44318 0.11975
#
# Static dielectric constant tensor:
#      x y z
#    x 1.981400 0.000000 -0.080650 
#    y 0.000000 1.845790 0.000000 
#    z -0.080650 0.000000 1.881730 
# 
# From -- ./inp_files/13431.got.cif
#   From: 2010.05.17/outbox.cif.g08.bks.cpg/sg12_7_cif.got.tgz:13431.got - 2010.06.03 13:09:07.
