data_PCOD9217808
_publ_section_title
;
Structure prediction by ZEFSAII (Michael W. Deem and Ramdas Pophale) SiO2 
 PCOD9217808
Probable space group: C 2/M
;
_chemical_formula_sum "Si O2"
_cell_formula_units_Z 44
_cell_length_a 11.653630
_cell_length_b 22.800458
_cell_length_c 14.183384
_cell_angle_alpha 90.000000
_cell_angle_beta 145.548891
_cell_angle_gamma 90.000000
_cell_volume 2131.930206
_symmetry_space_group_name_H-M "C 2/M"
_symmetry_group_IT_number 12
_symmetry_cell_setting 'monoclinic'
loop_
_space_group_symop_operation_xyz
x,y,z
-x,y,-z
-x,-y,-z
x,-y,z
1/2+x,1/2+y,z
1/2-x,1/2+y,-z
1/2-x,1/2-y,-z
1/2+x,1/2-y,z
loop_
_atom_site_type_symbol
_atom_site_label
_atom_site_fract_x
_atom_site_fract_y
_atom_site_fract_z
Si Si1 0.576300 0.291588 0.151763
Si Si2 0.779274 0.000000 0.803238
Si Si3 0.958435 0.000000 0.182221
Si Si4 0.527726 0.904441 0.330557
Si Si5 0.000000 0.338319 0.500000
Si Si6 0.239834 0.126196 0.972737
Si Si7 0.500000 0.824046 0.000000
Si Si8 0.644597 0.500000 0.507013
O O1 0.809040 0.303918 0.329198
O O2 0.430019 0.324221 0.125445
O O3 0.551035 0.222239 0.117977
O O4 0.500000 0.318128 0.000000
O O5 0.650245 0.054798 0.748116
O O6 0.824008 0.000000 0.722711
O O7 0.000000 0.000000 0.000000
O O8 0.847235 0.939787 0.078584
O O9 0.995597 0.000000 0.317381
O O10 0.591219 0.871396 0.469467
O O11 0.705183 0.943906 0.404716
O O12 0.415755 0.868729 0.171530
O O13 0.328012 0.136032 0.928318
O O14 0.500000 0.500000 0.500000
#
# Coordination Sequence:
#
# PCOD9217808 Si02
#       8
#     8   4   4   8   4   8   4   4
#     4  10  23  45  71  99 133 175 231 291 342 395
#     4  11  19  36  61  99 136 170 226 283 339 405
#     4  12  25  38  67 102 137 183 221 280 354 405
#     4  11  22  38  64  99 131 183 225 278 348 406
#     4  12  22  41  76 102 128 165 234 304 356 388
#     4  12  23  44  72 101 136 182 231 283 347 416
#     4  10  26  45  70  93 142 186 232 288 336 418
#     4  11  26  42  54  88 154 185 225 275 320 429
#
# _framework density 20.638573999999998
#
# number of rings (size 3 to 8) (size 9 to 14) (size 15 to 20)
#    0.545    0.364    3.636    4.364    2.545    1.818 
#    0.000    5.455    0.000    0.000    0.000    0.000 
#    0.000    0.000    0.000    0.000    0.000    0.000 
#
# Total GULP energy -122715.323240 kJ/mol
# GULP energy per Si atom -5577.969238 kJ/mol
# Density = 2.059160 g / cm^3
# Si number density = 20.638574 Si / 1000 Ang^3
#
#
#
# Elastic Constant Matrix: (Units=GPa)
#
#
# Indices 1 2 3 4 5 6 
#
# 1 158.4253 41.1593 17.5018 0.0000 13.1619 0.0000
# 2 41.1593 77.8713 16.8002 0.0000 7.2916 0.0000
# 3 17.5018 16.8002 95.0312 0.0001 -4.1634 0.0000
# 4 0.0000 0.0000 0.0001 75.6717 0.0001 -18.5890
# 5 13.1619 7.2916 -4.1634 0.0001 30.7419 0.0000
# 6 0.0000 0.0000 0.0000 -18.5890 0.0000 10.8221
#
#
#
# Elastic Compliance Matrix: (Units=1/GPa)
#
#
# Indices 1 2 3 4 5 6 
#
# 1 0.007542 -0.003565 -0.000868 0.000000 -0.002501 0.000000
# 2 -0.003565 0.015423 -0.002176 0.000000 -0.002427 0.000000
# 3 -0.000868 -0.002176 0.011173 0.000000 0.002401 0.000000
# 4 0.000000 0.000000 0.000000 0.022862 0.000000 0.039269
# 5 -0.002501 -0.002427 0.002401 0.000000 0.034500 0.000000
# 6 0.000000 0.000000 0.000000 0.039269 0.000000 0.159855
#
#
# Mechanical properties :
#
#
# Convention : Reuss Voigt Hill
#
# Bulk Modulus (GPa) = 47.80482 53.58338 50.69410
# Shear Modulus (GPa) = 18.41305 40.50491 29.45898
#
# Velocity S-wave (km/s) = 2.99016 4.43491 3.78216
# Velocity P-wave (km/s) = 5.92744 7.22798 6.60977
#
# Compressibility (1/GPa) = 0.02091839
#
# Stress axis : x y z
#
# Youngs Moduli (GPa) = 132.59084 64.83974 89.50376
#
# Poissons Ratio (x) = 0.23114 0.07772
# Poissons Ratio (y) = 0.47266 0.19479
# Poissons Ratio (z) = 0.11514 0.14111
#
# Static dielectric constant tensor:
#      x y z
#    x 1.773600 0.000000 -0.035480 
#    y 0.000000 1.826830 0.000000 
#    z -0.035480 0.000000 1.754260 
# 
# From -- ./inp_files/209255.got.cif
#   From: 2010.05.17/outbox.cif.g08.bks.cpg/sg12_105_cif.got.tgz:209255.got - 2010.06.03 13:09:07.
