data_PCOD9217340
_publ_section_title
;
Structure prediction by ZEFSAII (Michael W. Deem and Ramdas Pophale) SiO2 
 PCOD9217340
Probable space group: C 2/M
;
_chemical_formula_sum "Si O2"
_cell_formula_units_Z 32
_cell_length_a 5.154646
_cell_length_b 22.683348
_cell_length_c 12.162243
_cell_angle_alpha 90.000000
_cell_angle_beta 71.989647
_cell_angle_gamma 90.000000
_cell_volume 1352.385472
_symmetry_space_group_name_H-M "C 2/M"
_symmetry_group_IT_number 12
_symmetry_cell_setting 'monoclinic'
loop_
_space_group_symop_operation_xyz
x,y,z
-x,y,-z
-x,-y,-z
x,-y,z
1/2+x,1/2+y,z
1/2-x,1/2+y,-z
1/2-x,1/2-y,-z
1/2+x,1/2-y,z
loop_
_atom_site_type_symbol
_atom_site_label
_atom_site_fract_x
_atom_site_fract_y
_atom_site_fract_z
Si Si1 0.312102 0.500000 0.418083
Si Si2 0.434659 0.284152 0.137627
Si Si3 0.254841 0.382289 0.292042
Si Si4 0.319481 0.930349 0.926535
Si Si5 0.000000 0.706968 0.500000
O O1 0.500000 0.500000 0.500000
O O2 0.353690 0.440266 0.342915
O O3 0.000000 0.500000 0.500000
O O4 0.620350 0.234813 0.169730
O O5 0.481126 0.341018 0.206079
O O6 0.500000 0.292235 0.000000
O O7 0.106217 0.404890 0.201688
O O8 0.088859 0.338254 0.392051
O O9 0.374236 0.000000 0.912762
O O10 0.500000 0.903750 0.000000
O O11 0.000000 0.924362 0.000000
O O12 0.750000 0.750000 0.500000
#
# Coordination Sequence:
#
# PCOD9217340 Si02
#       5
#     4   8   8   8   4
#     4  12  30  50  72 112 148 198 246 301 373 442
#     4  10  23  43  71 106 144 189 240 294 359 428
#     4  12  25  50  77 106 152 190 247 301 375 435
#     4  10  23  42  68 108 146 185 232 286 360 443
#     4  12  30  49  76 107 142 196 258 312 364 422
#
# _framework density 23.661892000000002
#
# number of rings (size 3 to 8) (size 9 to 14) (size 15 to 20)
#    0.000    1.000    2.500    2.250    1.750   11.000 
#    0.000    0.000    0.000    0.000    0.000    0.000 
#    0.000    0.000    0.000    0.000    0.000    0.000 
#
# Total GULP energy -89485.408950 kJ/mol
# GULP energy per Si atom -5592.838059 kJ/mol
# Density = 2.360804 g / cm^3
# Si number density = 23.661892 Si / 1000 Ang^3
#
#
#
# Elastic Constant Matrix: (Units=GPa)
#
#
# Indices 1 2 3 4 5 6 
#
# 1 141.1148 61.2452 69.1810 0.0000 34.7782 0.0000
# 2 61.2452 184.2489 97.0247 0.0000 24.9420 0.0000
# 3 69.1810 97.0247 182.1698 0.0000 43.6378 0.0000
# 4 0.0000 0.0000 0.0000 64.1757 0.0000 12.5686
# 5 34.7782 24.9420 43.6378 0.0000 30.3959 0.0000
# 6 0.0000 0.0000 0.0000 12.5686 0.0000 9.4012
#
#
#
# Elastic Compliance Matrix: (Units=1/GPa)
#
#
# Indices 1 2 3 4 5 6 
#
# 1 0.010607 -0.001830 -0.000771 0.000000 -0.009527 0.000000
# 2 -0.001830 0.007867 -0.003735 0.000000 0.001000 0.000000
# 3 -0.000771 -0.003735 0.010404 0.000000 -0.010989 0.000000
# 4 0.000000 0.000000 0.000000 0.021109 0.000000 -0.028221
# 5 -0.009527 0.001000 -0.010989 0.000000 0.058756 0.000000
# 6 0.000000 0.000000 0.000000 -0.028221 0.000000 0.144099
#
#
# Mechanical properties :
#
#
# Convention : Reuss Voigt Hill
#
# Bulk Modulus (GPa) = 61.70549 106.93725 84.32137
# Shear Modulus (GPa) = 18.45596 39.46672 28.96134
#
# Velocity S-wave (km/s) = 2.79585 4.08848 3.50232
# Velocity P-wave (km/s) = 6.04624 8.22068 7.21583
#
# Compressibility (1/GPa) = 0.01620601
#
# Stress axis : x y z
#
# Youngs Moduli (GPa) = 94.28004 127.11370 96.11937
#
# Poissons Ratio (x) = 0.23260 0.07413
# Poissons Ratio (y) = 0.17252 0.35897
# Poissons Ratio (z) = 0.07271 0.47472
#
# Static dielectric constant tensor:
#      x y z
#    x 1.857860 0.000000 -0.070260 
#    y 0.000000 1.957270 0.000000 
#    z -0.070260 0.000000 1.851860 
# 
# From -- ./inp_files/114942.got.cif
#   From: 2010.05.17/outbox.cif.g08.bks.cpg/sg12_58_cif.got.tgz:114942.got - 2010.06.03 13:09:07.
