data_PCOD9217822
_publ_section_title
;
Structure prediction by ZEFSAII (Michael W. Deem and Ramdas Pophale) SiO2 
 PCOD9217822
Probable space group: C 2/M
;
_chemical_formula_sum "Si O2"
_cell_formula_units_Z 18
_cell_length_a 5.157182
_cell_length_b 18.746706
_cell_length_c 6.927636
_cell_angle_alpha 90.000000
_cell_angle_beta 105.988993
_cell_angle_gamma 90.000000
_cell_volume 643.854950
_symmetry_space_group_name_H-M "C 2/M"
_symmetry_group_IT_number 12
_symmetry_cell_setting 'monoclinic'
loop_
_space_group_symop_operation_xyz
x,y,z
-x,y,-z
-x,-y,-z
x,-y,z
1/2+x,1/2+y,z
1/2-x,1/2+y,-z
1/2-x,1/2-y,-z
1/2+x,1/2-y,z
loop_
_atom_site_type_symbol
_atom_site_label
_atom_site_fract_x
_atom_site_fract_y
_atom_site_fract_z
Si Si1 0.485033 0.425697 0.727383
Si Si2 0.000000 0.500000 0.000000
Si Si3 0.712217 0.220894 0.774574
O O1 0.500000 0.423507 0.500000
O O2 0.327448 0.500000 0.753430
O O3 0.334437 0.356528 0.768756
O O4 0.781528 0.438777 0.873691
O O5 0.392895 0.225131 0.684529
O O6 0.750000 0.250000 0.000000
#
# Coordination Sequence:
#
# PCOD9217822 Si02
#       3
#     8   2   8
#     4   9  20  43  78 120 154 207 268 333 393 476
#     4   8  18  40  80 114 150 206 260 330 390 460
#     4  10  23  45  75 117 160 208 264 324 407 485
#
# _framework density 27.956605
#
# number of rings (size 3 to 8) (size 9 to 14) (size 15 to 20)
#    1.333    1.333    0.000    0.000    0.000    8.889 
#    0.000   11.111    0.000   13.333    0.000   12.444 
#    0.000    0.000    0.000    0.000    0.000    0.000 
#
# Total GULP energy -50239.346152 kJ/mol
# GULP energy per Si atom -5582.149572 kJ/mol
# Density = 2.789297 g / cm^3
# Si number density = 27.956605 Si / 1000 Ang^3
#
#
#
# Elastic Constant Matrix: (Units=GPa)
#
#
# Indices 1 2 3 4 5 6 
#
# 1 184.5395 93.6180 63.9646 0.0000 14.1693 0.0000
# 2 93.6180 272.6390 72.5302 0.0000 -10.0759 0.0000
# 3 63.9646 72.5302 195.2872 0.0000 2.1383 0.0000
# 4 0.0000 0.0000 0.0000 39.2480 0.0000 -8.4138
# 5 14.1693 -10.0759 2.1383 0.0000 42.6677 0.0000
# 6 0.0000 0.0000 0.0000 -8.4138 0.0000 75.0059
#
#
#
# Elastic Compliance Matrix: (Units=1/GPa)
#
#
# Indices 1 2 3 4 5 6 
#
# 1 0.007288 -0.002199 -0.001539 0.000000 -0.002862 0.000000
# 2 -0.002199 0.004780 -0.001076 0.000000 0.001913 0.000000
# 3 -0.001539 -0.001076 0.006025 0.000000 -0.000045 0.000000
# 4 0.000000 0.000000 0.000000 0.026107 0.000000 0.002929
# 5 -0.002862 0.001913 -0.000045 0.000000 0.024841 0.000000
# 6 0.000000 0.000000 0.000000 0.002929 0.000000 0.013661
#
#
# Mechanical properties :
#
#
# Convention : Reuss Voigt Hill
#
# Bulk Modulus (GPa) = 118.13744 123.63239 120.88491
# Shear Modulus (GPa) = 52.54847 59.54118 56.04482
#
# Velocity S-wave (km/s) = 4.34019 4.61995 4.48225
# Velocity P-wave (km/s) = 8.21374 8.53098 8.37386
#
# Compressibility (1/GPa) = 0.00846472
#
# Stress axis : x y z
#
# Youngs Moduli (GPa) = 137.22064 209.21444 165.97855
#
# Poissons Ratio (x) = 0.46000 0.25544
# Poissons Ratio (y) = 0.30171 0.17859
# Poissons Ratio (z) = 0.21118 0.22511
#
# Static dielectric constant tensor:
#      x y z
#    x 12.892760 0.000000 -1.239660 
#    y 0.000000 2.194270 0.000000 
#    z -1.239660 0.000000 3.361000 
# 
# From -- ./inp_files/33211.got.cif
#   From: 2010.05.17/outbox.cif.g08.bks.cpg/sg12_17_cif.got.tgz:33211.got - 2010.06.03 13:09:07.
