data_PCOD9217172
_publ_section_title
;
Structure prediction by ZEFSAII (Michael W. Deem and Ramdas Pophale) SiO2 
 PCOD9217172
Probable space group: C 2/M
;
_chemical_formula_sum "Si O2"
_cell_formula_units_Z 36
_cell_length_a 9.612395
_cell_length_b 23.670286
_cell_length_c 8.839911
_cell_angle_alpha 90.000000
_cell_angle_beta 106.590967
_cell_angle_gamma 90.000000
_cell_volume 1927.592070
_symmetry_space_group_name_H-M "C 2/M"
_symmetry_group_IT_number 12
_symmetry_cell_setting 'monoclinic'
loop_
_space_group_symop_operation_xyz
x,y,z
-x,y,-z
-x,-y,-z
x,-y,z
1/2+x,1/2+y,z
1/2-x,1/2+y,-z
1/2-x,1/2-y,-z
1/2+x,1/2-y,z
loop_
_atom_site_type_symbol
_atom_site_label
_atom_site_fract_x
_atom_site_fract_y
_atom_site_fract_z
Si Si1 0.487264 0.206787 0.818355
Si Si2 0.500000 0.596784 0.000000
Si Si3 0.730800 0.500000 0.543789
Si Si4 0.798097 0.181584 0.766047
Si Si5 0.979210 0.000000 0.234654
Si Si6 0.853084 0.377439 0.550553
O O1 0.646120 0.203989 0.789276
O O2 0.410522 0.267457 0.777748
O O3 0.384933 0.160897 0.705454
O O4 0.500000 0.195122 0.000000
O O5 0.370128 0.636630 0.902433
O O6 0.541543 0.555042 0.875702
O O7 0.638848 0.500000 0.359223
O O8 0.626325 0.500000 0.655854
O O9 0.817635 0.441810 0.576179
O O10 0.765441 0.150965 0.596516
O O11 0.000000 0.376633 0.500000
#
# Coordination Sequence:
#
# PCOD9217172 Si02
#       6
#     8   4   4   8   4   8
#     4  11  24  40  62  95 123 164 207 254 304 368
#     4  11  22  42  64  92 126 161 202 256 312 363
#     4  11  21  42  62  92 119 162 210 253 303 368
#     4  11  23  41  65  89 129 164 201 254 311 365
#     4  10  24  38  63  93 122 158 207 254 309 363
#     4  10  23  42  63  89 126 164 203 251 313 363
#
# _framework density 18.676151000000001
#
# number of rings (size 3 to 8) (size 9 to 14) (size 15 to 20)
#    0.000    1.333    3.333    1.667    3.111    0.000 
#    0.000    0.556    0.000    0.000    0.000    0.000 
#    0.000    0.000    0.000    0.000    0.000    0.000 
#
# Total GULP energy -100543.888487 kJ/mol
# GULP energy per Si atom -5585.771583 kJ/mol
# Density = 1.863364 g / cm^3
# Si number density = 18.676151 Si / 1000 Ang^3
#
#
#
# Elastic Constant Matrix: (Units=GPa)
#
#
# Indices 1 2 3 4 5 6 
#
# 1 47.8600 49.6237 36.5586 0.0000 11.4109 0.0000
# 2 49.6237 175.9459 84.1122 0.0000 12.3497 0.0000
# 3 36.5586 84.1122 116.7775 0.0000 16.7035 0.0000
# 4 0.0000 0.0000 0.0000 77.9601 0.0000 35.5953
# 5 11.4109 12.3497 16.7035 0.0000 25.1025 0.0000
# 6 0.0000 0.0000 0.0000 35.5953 0.0000 30.8852
#
#
#
# Elastic Compliance Matrix: (Units=1/GPa)
#
#
# Indices 1 2 3 4 5 6 
#
# 1 0.033262 -0.006691 -0.004312 0.000000 -0.008959 0.000000
# 2 -0.006691 0.010015 -0.005359 0.000000 0.001681 0.000000
# 3 -0.004312 -0.005359 0.014495 0.000000 -0.005049 0.000000
# 4 0.000000 0.000000 0.000000 0.027074 0.000000 -0.031203
# 5 -0.008959 0.001681 -0.005049 0.000000 0.046442 0.000000
# 6 0.000000 0.000000 0.000000 -0.031203 0.000000 0.068339
#
#
# Mechanical properties :
#
#
# Convention : Reuss Voigt Hill
#
# Bulk Modulus (GPa) = 39.92430 75.68584 57.80507
# Shear Modulus (GPa) = 20.77280 38.14214 29.45747
#
# Velocity S-wave (km/s) = 3.33868 4.52407 3.97580
# Velocity P-wave (km/s) = 6.02378 8.24033 7.21765
#
# Compressibility (1/GPa) = 0.02504740
#
# Stress axis : x y z
#
# Youngs Moduli (GPa) = 30.06475 99.85424 68.98703
#
# Poissons Ratio (x) = 0.66810 0.29749
# Poissons Ratio (y) = 0.20116 0.36971
# Poissons Ratio (z) = 0.12965 0.53512
#
# Static dielectric constant tensor:
#      x y z
#    x 1.628520 0.000000 0.021980 
#    y 0.000000 1.619380 0.000000 
#    z 0.021980 0.000000 1.649500 
# 
# From -- ./inp_files/38940.got.cif
#   From: 2010.05.17/outbox.cif.g08.bks.cpg/sg12_20_cif.got.tgz:38940.got - 2010.06.03 13:09:07.
