data_PCOD9217553
_publ_section_title
;
Structure prediction by ZEFSAII (Michael W. Deem and Ramdas Pophale) SiO2 
 PCOD9217553
Probable space group: C 2/M
;
_chemical_formula_sum "Si O2"
_cell_formula_units_Z 44
_cell_length_a 21.255360
_cell_length_b 17.745156
_cell_length_c 7.472629
_cell_angle_alpha 90.000000
_cell_angle_beta 134.181299
_cell_angle_gamma 90.000000
_cell_volume 2021.270865
_symmetry_space_group_name_H-M "C 2/M"
_symmetry_group_IT_number 12
_symmetry_cell_setting 'monoclinic'
loop_
_space_group_symop_operation_xyz
x,y,z
-x,y,-z
-x,-y,-z
x,-y,z
1/2+x,1/2+y,z
1/2-x,1/2+y,-z
1/2-x,1/2-y,-z
1/2+x,1/2-y,z
loop_
_atom_site_type_symbol
_atom_site_label
_atom_site_fract_x
_atom_site_fract_y
_atom_site_fract_z
Si Si1 0.279236 0.312141 0.418574
Si Si2 0.432430 0.410367 0.718265
Si Si3 0.579367 0.912719 0.417134
Si Si4 0.377932 0.912114 0.918799
Si Si5 0.000000 0.829372 0.500000
Si Si6 0.349281 0.226689 0.245000
O O1 0.250000 0.250000 0.500000
O O2 0.336492 0.383188 0.591299
O O3 0.192968 0.350401 0.159209
O O4 0.349787 0.267678 0.439912
O O5 0.433565 0.500000 0.716635
O O6 0.463537 0.381293 0.586195
O O7 0.500000 0.381457 0.000000
O O8 0.616092 0.904312 0.286630
O O9 0.624710 0.857731 0.649112
O O10 0.590738 0.000000 0.491835
O O11 0.475043 0.898303 0.189449
O O12 0.355325 0.000000 0.911882
O O13 0.922235 0.773059 0.280619
O O14 0.250000 0.250000 0.000000
#
# Coordination Sequence:
#
# PCOD9217553 Si02
#       6
#     8   8   8   8   4   8
#     4  11  22  36  61  95 128 163 217 276 323 397
#     4  10  23  43  68  95 127 178 225 270 338 400
#     4   9  19  38  62  91 126 167 211 263 333 397
#     4   9  18  35  63  94 124 159 210 278 331 386
#     4  10  25  44  65  92 138 166 222 288 317 396
#     4  11  25  41  60  95 130 173 215 263 337 396
#
# _framework density 21.768484000000001
#
# number of rings (size 3 to 8) (size 9 to 14) (size 15 to 20)
#    0.000    2.000    1.818    1.909    5.091    1.455 
#    0.000    5.909    0.000    0.000    0.000    0.000 
#    0.000    0.000    0.000    0.000    0.000    0.000 
#
# Total GULP energy -122707.888986 kJ/mol
# GULP energy per Si atom -5577.631318 kJ/mol
# Density = 2.171894 g / cm^3
# Si number density = 21.768484 Si / 1000 Ang^3
#
#
#
# Elastic Constant Matrix: (Units=GPa)
#
#
# Indices 1 2 3 4 5 6 
#
# 1 70.3757 39.3256 6.7895 0.0000 8.9007 0.0000
# 2 39.3256 125.8057 54.3966 0.0000 11.3479 0.0000
# 3 6.7895 54.3966 105.4262 0.0000 18.5495 0.0000
# 4 0.0000 0.0000 0.0000 32.8712 0.0000 8.9552
# 5 8.9007 11.3479 18.5495 0.0000 34.8776 0.0000
# 6 0.0000 0.0000 0.0000 8.9552 0.0000 33.9738
#
#
#
# Elastic Compliance Matrix: (Units=1/GPa)
#
#
# Indices 1 2 3 4 5 6 
#
# 1 0.018105 -0.006562 0.002932 0.000000 -0.004044 0.000000
# 2 -0.006562 0.012620 -0.006246 0.000000 0.000890 0.000000
# 3 0.002932 -0.006246 0.013562 0.000000 -0.005929 0.000000
# 4 0.000000 0.000000 0.000000 0.032775 0.000000 -0.008639
# 5 -0.004044 0.000890 -0.005929 0.000000 0.032568 0.000000
# 6 0.000000 0.000000 0.000000 -0.008639 0.000000 0.031712
#
#
# Mechanical properties :
#
#
# Convention : Reuss Voigt Hill
#
# Bulk Modulus (GPa) = 40.75829 55.84789 48.30309
# Shear Modulus (GPa) = 29.53801 33.75089 31.64445
#
# Velocity S-wave (km/s) = 3.68763 3.94184 3.81685
# Velocity P-wave (km/s) = 6.07418 6.81385 6.45462
#
# Compressibility (1/GPa) = 0.02453489
#
# Stress axis : x y z
#
# Youngs Moduli (GPa) = 55.23318 79.23744 73.73377
#
# Poissons Ratio (x) = 0.51997 -0.21615
# Poissons Ratio (y) = 0.36245 0.46052
# Poissons Ratio (z) = -0.16192 0.49489
#
# Static dielectric constant tensor:
#      x y z
#    x 1.852950 0.000000 -0.042260 
#    y 0.000000 1.861190 0.000000 
#    z -0.042260 0.000000 1.841830 
# 
# From -- ./inp_files/98237.got.cif
#   From: 2010.05.17/outbox.cif.g08.bks.cpg/sg12_50_cif.got.tgz:98237.got - 2010.06.03 13:09:07.
