data_PCOD9217092
_publ_section_title
;
Structure prediction by ZEFSAII (Michael W. Deem and Ramdas Pophale) SiO2 
 PCOD9217092
Probable space group: C 2/M
;
_chemical_formula_sum "Si O2"
_cell_formula_units_Z 28
_cell_length_a 5.385416
_cell_length_b 21.657396
_cell_length_c 10.929321
_cell_angle_alpha 90.000000
_cell_angle_beta 105.611738
_cell_angle_gamma 90.000000
_cell_volume 1227.703290
_symmetry_space_group_name_H-M "C 2/M"
_symmetry_group_IT_number 12
_symmetry_cell_setting 'monoclinic'
loop_
_space_group_symop_operation_xyz
x,y,z
-x,y,-z
-x,-y,-z
x,-y,z
1/2+x,1/2+y,z
1/2-x,1/2+y,-z
1/2-x,1/2-y,-z
1/2+x,1/2-y,z
loop_
_atom_site_type_symbol
_atom_site_label
_atom_site_fract_x
_atom_site_fract_y
_atom_site_fract_z
Si Si1 0.217341 0.000000 0.129067
Si Si2 0.104764 0.715887 0.651659
Si Si3 0.565919 0.109286 0.212799
Si Si4 0.500000 0.791852 0.000000
Si Si5 0.061455 0.000000 0.653444
O O1 0.375549 0.938785 0.126299
O O2 0.149763 0.000000 0.265381
O O3 0.000000 0.000000 0.000000
O O4 0.396488 0.740234 0.692631
O O5 0.000000 0.716368 0.500000
O O6 0.073685 0.647464 0.698678
O O7 0.612018 0.162199 0.119170
O O8 0.783767 0.063863 0.296279
O O9 0.250000 0.750000 0.000000
O O10 0.000000 0.000000 0.500000
#
# Coordination Sequence:
#
# PCOD9217092 Si02
#       5
#     4   8   8   4   4
#     4  11  26  47  76 101 146 202 254 314 391 445
#     4  10  23  41  68 101 140 188 235 293 370 440
#     4  11  26  45  72 106 148 188 257 314 377 453
#     4  12  28  47  80 115 150 202 262 318 394 462
#     4  11  28  45  76 112 151 206 258 317 396 461
#
# _framework density 22.806812999999998
#
# number of rings (size 3 to 8) (size 9 to 14) (size 15 to 20)
#    0.000    1.143    0.000    3.429   14.000    4.571 
#    0.000    0.000    0.000    0.000    0.000    0.000 
#    0.000    0.000    0.000    0.000    0.000    0.000 
#
# Total GULP energy -78179.827410 kJ/mol
# GULP energy per Si atom -5584.273386 kJ/mol
# Density = 2.275490 g / cm^3
# Si number density = 22.806813 Si / 1000 Ang^3
#
#
#
# Elastic Constant Matrix: (Units=GPa)
#
#
# Indices 1 2 3 4 5 6 
#
# 1 108.4706 79.0724 48.8894 0.0000 -6.2200 0.0000
# 2 79.0724 197.4180 65.2639 0.0000 -8.1870 0.0000
# 3 48.8894 65.2639 133.2739 0.0000 2.4947 0.0000
# 4 0.0000 0.0000 0.0000 -48.0929 0.0000 -63.0872
# 5 -6.2200 -8.1870 2.4947 0.0000 33.2441 0.0000
# 6 0.0000 0.0000 0.0000 -63.0872 0.0000 11.4635
#
#
#
# Elastic Compliance Matrix: (Units=1/GPa)
#
#
# Indices 1 2 3 4 5 6 
#
# 1 0.013952 -0.004552 -0.002921 0.000000 0.001709 0.000000
# 2 -0.004552 0.007628 -0.002088 0.000000 0.001184 0.000000
# 3 -0.002921 -0.002088 0.009631 0.000000 -0.001783 0.000000
# 4 0.000000 0.000000 0.000000 -0.002530 0.000000 -0.013923
# 5 0.001709 0.001184 -0.001783 0.000000 0.030826 0.000000
# 6 0.000000 0.000000 0.000000 -0.013923 0.000000 0.010613
#
#
# Mechanical properties :
#
#
# Convention : Reuss Voigt Hill
#
# Bulk Modulus (GPa) = 82.71805 91.73486 87.22646
# Shear Modulus (GPa) = 53.60809 15.71872 34.66341
#
# Velocity S-wave (km/s) = 4.85349 2.62813 3.90278
# Velocity P-wave (km/s) = 8.23141 7.03700 7.65753
#
# Compressibility (1/GPa) = 0.01208926
#
# Stress axis : x y z
#
# Youngs Moduli (GPa) = 71.67638 131.10091 103.83537
#
# Poissons Ratio (x) = 0.59671 0.30331
# Poissons Ratio (y) = 0.32624 0.21678
# Poissons Ratio (z) = 0.20937 0.27371
#
# Static dielectric constant tensor:
#      x y z
#    x 1.900160 0.000000 -0.055040 
#    y 0.000000 1.772620 0.000000 
#    z -0.055040 0.000000 1.857150 
# 
# From -- ./inp_files/114566.got.cif
#   From: 2010.05.17/outbox.cif.g08.bks.cpg/sg12_58_cif.got.tgz:114566.got - 2010.06.03 13:09:07.
