data_PCOD9217641
_publ_section_title
;
Structure prediction by ZEFSAII (Michael W. Deem and Ramdas Pophale) SiO2 
 PCOD9217641
Probable space group: C 2/M
;
_chemical_formula_sum "Si O2"
_cell_formula_units_Z 32
_cell_length_a 29.328243
_cell_length_b 10.549058
_cell_length_c 5.036603
_cell_angle_alpha 90.000000
_cell_angle_beta 102.845415
_cell_angle_gamma 90.000000
_cell_volume 1519.253448
_symmetry_space_group_name_H-M "C 2/M"
_symmetry_group_IT_number 12
_symmetry_cell_setting 'monoclinic'
loop_
_space_group_symop_operation_xyz
x,y,z
-x,y,-z
-x,-y,-z
x,-y,z
1/2+x,1/2+y,z
1/2-x,1/2+y,-z
1/2-x,1/2-y,-z
1/2+x,1/2-y,z
loop_
_atom_site_type_symbol
_atom_site_label
_atom_site_fract_x
_atom_site_fract_y
_atom_site_fract_z
Si Si1 0.610446 0.854549 0.277345
Si Si2 0.171236 0.703158 0.851420
Si Si3 0.966001 0.856793 0.704336
Si Si4 0.758909 0.864049 0.306712
O O1 0.649381 0.856668 0.559525
O O2 0.571486 0.754871 0.319591
O O3 0.594143 0.000000 0.215313
O O4 0.633200 0.802882 0.034845
O O5 0.192619 0.836584 0.782459
O O6 0.216861 0.638610 0.039924
O O7 0.000000 0.838081 0.500000
O O8 0.945208 0.000000 0.660024
O O9 0.000000 0.853313 0.000000
O O10 0.750000 0.750000 0.500000
O O11 0.759741 0.000000 0.443889
#
# Coordination Sequence:
#
# PCOD9217641 Si02
#       4
#     8   8   8   8
#     4  12  24  41  68  97 128 167 216 271 320 379
#     4  11  25  42  62  96 133 173 214 270 325 376
#     4  10  23  44  67  93 129 167 204 258 326 390
#     4  11  24  43  67  93 132 179 224 271 323 381
#
# _framework density 21.062977
#
# number of rings (size 3 to 8) (size 9 to 14) (size 15 to 20)
#    0.000    1.000    2.500    3.750    0.000    8.000 
#    0.000    0.000    0.000    0.000    0.000    0.000 
#    0.000    0.000    0.000    0.000    0.000    0.000 
#
# Total GULP energy -89373.315856 kJ/mol
# GULP energy per Si atom -5585.832241 kJ/mol
# Density = 2.101504 g / cm^3
# Si number density = 21.062977 Si / 1000 Ang^3
#
#
#
# Elastic Constant Matrix: (Units=GPa)
#
#
# Indices 1 2 3 4 5 6 
#
# 1 98.2064 90.5567 25.7236 0.0000 -19.2611 0.0000
# 2 90.5567 196.3429 34.1840 0.0000 -9.2226 0.0000
# 3 25.7236 34.1840 96.7506 0.0000 -27.4689 0.0000
# 4 0.0000 0.0000 0.0000 12.3754 0.0000 -10.2823
# 5 -19.2611 -9.2226 -27.4689 0.0000 36.2794 0.0000
# 6 0.0000 0.0000 0.0000 -10.2823 0.0000 -14.3088
#
#
#
# Elastic Compliance Matrix: (Units=1/GPa)
#
#
# Indices 1 2 3 4 5 6 
#
# 1 0.019942 -0.008839 0.000241 0.000000 0.008522 0.000000
# 2 -0.008839 0.009345 -0.002050 0.000000 -0.003870 0.000000
# 3 0.000241 -0.002050 0.013865 0.000000 0.010105 0.000000
# 4 0.000000 0.000000 0.000000 0.050597 0.000000 -0.036358
# 5 0.008522 -0.003870 0.010105 0.000000 0.038756 0.000000
# 6 0.000000 0.000000 0.000000 -0.036358 0.000000 -0.043760
#
#
# Mechanical properties :
#
#
# Convention : Reuss Voigt Hill
#
# Bulk Modulus (GPa) = 45.75730 76.91428 61.33579
# Shear Modulus (GPa) = 42.61632 22.92490 32.77061
#
# Velocity S-wave (km/s) = 4.50297 3.30267 3.94869
# Velocity P-wave (km/s) = 6.98619 7.15116 7.06916
#
# Compressibility (1/GPa) = 0.02185443
#
# Stress axis : x y z
#
# Youngs Moduli (GPa) = 50.14644 107.00860 72.12347
#
# Poissons Ratio (x) = 0.94585 -0.01736
# Poissons Ratio (y) = 0.44324 0.14788
# Poissons Ratio (z) = -0.01207 0.21940
#
# Static dielectric constant tensor:
#      x y z
#    x 1.757240 0.000000 -0.010100 
#    y 0.000000 1.800600 0.000000 
#    z -0.010100 0.000000 1.732920 
# 
# From -- ./inp_files/23362.got.cif
#   From: 2010.05.17/outbox.cif.g08.bks.cpg/sg12_12_cif.got.tgz:23362.got - 2010.06.03 13:09:07.
