data_PCOD9217455
_publ_section_title
;
Structure prediction by ZEFSAII (Michael W. Deem and Ramdas Pophale) SiO2 
 PCOD9217455
Probable space group: C 2/M
;
_chemical_formula_sum "Si O2"
_cell_formula_units_Z 40
_cell_length_a 11.921436
_cell_length_b 22.608772
_cell_length_c 10.392448
_cell_angle_alpha 90.000000
_cell_angle_beta 39.825812
_cell_angle_gamma 90.000000
_cell_volume 1793.959089
_symmetry_space_group_name_H-M "C 2/M"
_symmetry_group_IT_number 12
_symmetry_cell_setting 'monoclinic'
loop_
_space_group_symop_operation_xyz
x,y,z
-x,y,-z
-x,-y,-z
x,-y,z
1/2+x,1/2+y,z
1/2-x,1/2+y,-z
1/2-x,1/2-y,-z
1/2+x,1/2-y,z
loop_
_atom_site_type_symbol
_atom_site_label
_atom_site_fract_x
_atom_site_fract_y
_atom_site_fract_z
Si Si1 0.756966 0.569462 0.010972
Si Si2 0.436877 0.644121 0.194211
Si Si3 0.914610 0.241596 0.758360
Si Si4 0.192080 0.658882 0.798863
Si Si5 0.915405 0.368518 0.388714
O O1 0.751800 0.500000 0.037036
O O2 0.923438 0.587165 0.775809
O O3 0.577183 0.594199 0.110030
O O4 0.780042 0.606034 0.123580
O O5 0.457243 0.697723 0.277438
O O6 0.238527 0.620661 0.374076
O O7 0.500000 0.665646 0.000000
O O8 0.832423 0.208820 0.707691
O O9 0.000180 0.304540 0.659685
O O10 0.750000 0.250000 0.000000
O O11 0.182698 0.635196 0.663370
O O12 0.000000 0.683988 0.000000
#
# Coordination Sequence:
#
# PCOD9217455 Si02
#       5
#     8   8   8   8   8
#     4  10  23  43  65  94 125 159 214 267 312 372
#     4  11  26  43  63  90 129 169 211 257 314 372
#     4  11  20  39  62  96 127 165 199 255 310 381
#     4   9  19  37  65  92 130 160 203 254 315 369
#     4  11  23  42  65  95 126 170 206 256 319 371
#
# _framework density 22.297053999999999
#
# number of rings (size 3 to 8) (size 9 to 14) (size 15 to 20)
#    0.000    1.600    6.000    0.600    2.800    8.800 
#    3.600    2.000    0.000    0.000    0.000    0.000 
#    0.000    0.000    0.000    0.000    0.000    0.000 
#
# Total GULP energy -111964.947974 kJ/mol
# GULP energy per Si atom -5598.247399 kJ/mol
# Density = 2.224630 g / cm^3
# Si number density = 22.297054 Si / 1000 Ang^3
#
#
#
# Elastic Constant Matrix: (Units=GPa)
#
#
# Indices 1 2 3 4 5 6 
#
# 1 81.0682 40.4321 16.2334 0.0000 -4.6009 0.0000
# 2 40.4321 124.6984 23.1995 0.0000 -27.9332 0.0000
# 3 16.2334 23.1995 142.9313 0.0000 -24.5989 0.0000
# 4 0.0000 0.0000 0.0000 15.0500 0.0000 -1.5078
# 5 -4.6009 -27.9332 -24.5989 0.0000 27.9058 0.0000
# 6 0.0000 0.0000 0.0000 -1.5078 0.0000 0.6787
#
#
#
# Elastic Compliance Matrix: (Units=1/GPa)
#
#
# Indices 1 2 3 4 5 6 
#
# 1 0.015218 -0.005660 -0.001595 0.000000 -0.004562 0.000000
# 2 -0.005660 0.012444 0.000715 0.000000 0.012153 0.000000
# 3 -0.001595 0.000715 0.008416 0.000000 0.007871 0.000000
# 4 0.000000 0.000000 0.000000 0.085468 0.000000 0.189874
# 5 -0.004562 0.012153 0.007871 0.000000 0.054186 0.000000
# 6 0.000000 0.000000 0.000000 0.189874 0.000000 1.895165
#
#
# Mechanical properties :
#
#
# Convention : Reuss Voigt Hill
#
# Bulk Modulus (GPa) = 43.48134 56.49200 49.98667
# Shear Modulus (GPa) = 2.39046 26.64909 14.51978
#
# Velocity S-wave (km/s) = 1.03655 3.46089 2.55462
# Velocity P-wave (km/s) = 4.57994 6.43129 5.58289
#
# Compressibility (1/GPa) = 0.02299837
#
# Stress axis : x y z
#
# Youngs Moduli (GPa) = 65.70982 80.36159 118.81878
#
# Poissons Ratio (x) = 0.45481 0.18951
# Poissons Ratio (y) = 0.37189 -0.08490
# Poissons Ratio (z) = 0.10480 -0.05742
#
# Static dielectric constant tensor:
#      x y z
#    x 1.893450 0.000000 0.021490 
#    y 0.000000 1.746360 0.000000 
#    z 0.021490 0.000000 1.878300 
# 
# From -- ./inp_files/135130.got.cif
#   From: 2010.05.17/outbox.cif.g08.bks.cpg/sg12_68_cif.got.tgz:135130.got - 2010.06.03 13:09:07.
