data_PCOD9217844
_publ_section_title
;
Structure prediction by ZEFSAII (Michael W. Deem and Ramdas Pophale) SiO2 
 PCOD9217844
Probable space group: C 2/M
;
_chemical_formula_sum "Si O2"
_cell_formula_units_Z 34
_cell_length_a 9.554681
_cell_length_b 14.688952
_cell_length_c 10.032901
_cell_angle_alpha 90.000000
_cell_angle_beta 88.260485
_cell_angle_gamma 90.000000
_cell_volume 1407.451198
_symmetry_space_group_name_H-M "C 2/M"
_symmetry_group_IT_number 12
_symmetry_cell_setting 'monoclinic'
loop_
_space_group_symop_operation_xyz
x,y,z
-x,y,-z
-x,-y,-z
x,-y,z
1/2+x,1/2+y,z
1/2-x,1/2+y,-z
1/2-x,1/2-y,-z
1/2+x,1/2-y,z
loop_
_atom_site_type_symbol
_atom_site_label
_atom_site_fract_x
_atom_site_fract_y
_atom_site_fract_z
Si Si1 0.771524 0.500000 0.315780
Si Si2 0.500000 0.146043 0.000000
Si Si3 0.233420 0.807226 0.167927
Si Si4 0.574412 0.652149 0.789260
Si Si5 0.567785 0.000000 0.224373
Si Si6 0.350236 0.500000 0.389122
Si Si7 0.500000 0.500000 0.000000
O O1 0.737940 0.409755 0.230179
O O2 0.695355 0.500000 0.458173
O O3 0.938150 0.500000 0.329609
O O4 0.651011 0.188363 0.953671
O O5 0.455673 0.084260 0.874631
O O6 0.301767 0.722599 0.243018
O O7 0.066847 0.793173 0.171307
O O8 0.564558 0.588309 0.660416
O O9 0.583605 0.580333 0.911821
O O10 0.710836 0.000000 0.300746
#
# Coordination Sequence:
#
# PCOD9217844 Si02
#       7
#     4   4   8   8   4   4   2
#     4  10  23  46  72  95 140 182 245 287 355 402
#     4   9  21  38  69  93 140 170 221 277 353 419
#     4  11  25  45  68 105 136 189 227 294 345 427
#     4  11  27  42  70 104 143 182 238 281 359 411
#     4   9  20  39  67 104 127 176 226 284 347 411
#     4  11  25  44  69  99 138 193 234 296 341 424
#     4  10  24  44  68 100 142 182 224 282 342 438
#
# _framework density 24.157140999999999
#
# number of rings (size 3 to 8) (size 9 to 14) (size 15 to 20)
#    0.000    1.647    0.000    3.176   13.176    4.706 
#    0.000    0.000    0.000    0.000    0.000    0.000 
#    0.000    0.000    0.000    0.000    0.000    0.000 
#
# Total GULP energy -94715.404205 kJ/mol
# GULP energy per Si atom -5571.494365 kJ/mol
# Density = 2.410216 g / cm^3
# Si number density = 24.157141 Si / 1000 Ang^3
#
#
#
# Elastic Constant Matrix: (Units=GPa)
#
#
# Indices 1 2 3 4 5 6 
#
# 1 184.4154 44.1675 28.6585 0.0000 -16.5712 0.0000
# 2 44.1675 145.8403 18.1541 0.0000 -14.3221 0.0000
# 3 28.6585 18.1541 110.3336 0.0000 -37.2536 0.0000
# 4 0.0000 0.0000 0.0000 12.3188 0.0000 -6.1850
# 5 -16.5712 -14.3221 -37.2536 0.0000 41.9814 0.0000
# 6 0.0000 0.0000 0.0000 -6.1850 0.0000 35.9060
#
#
#
# Elastic Compliance Matrix: (Units=1/GPa)
#
#
# Indices 1 2 3 4 5 6 
#
# 1 0.006048 -0.001615 -0.000978 0.000000 0.000968 0.000000
# 2 -0.001615 0.007545 -0.000240 0.000000 0.001724 0.000000
# 3 -0.000978 -0.000240 0.013134 0.000000 0.011187 0.000000
# 4 0.000000 0.000000 0.000000 0.088862 0.000000 0.015307
# 5 0.000968 0.001724 0.011187 0.000000 0.034718 0.000000
# 6 0.000000 0.000000 0.000000 0.015307 0.000000 0.030487
#
#
# Mechanical properties :
#
#
# Convention : Reuss Voigt Hill
#
# Bulk Modulus (GPa) = 47.48069 69.17217 58.32643
# Shear Modulus (GPa) = 25.84235 41.34854 33.59545
#
# Velocity S-wave (km/s) = 3.27427 4.14170 3.73326
# Velocity P-wave (km/s) = 5.83027 7.18108 6.54064
#
# Compressibility (1/GPa) = 0.02106119
#
# Stress axis : x y z
#
# Youngs Moduli (GPa) = 165.33430 132.53793 76.13640
#
# Poissons Ratio (x) = 0.21403 0.07449
# Poissons Ratio (y) = 0.26699 0.01828
# Poissons Ratio (z) = 0.16176 0.03181
#
# Static dielectric constant tensor:
#      x y z
#    x 2.004730 0.000000 0.060280 
#    y 0.000000 1.938880 0.000000 
#    z 0.060280 0.000000 1.907270 
# 
# From -- ./inp_files/118577.got.cif
#   From: 2010.05.17/outbox.cif.g08.bks.cpg/sg12_60_cif.got.tgz:118577.got - 2010.06.03 13:09:07.
