data_PCOD9217267
_publ_section_title
;
Structure prediction by ZEFSAII (Michael W. Deem and Ramdas Pophale) SiO2 
 PCOD9217267
Probable space group: C 2/M
;
_chemical_formula_sum "Si O2"
_cell_formula_units_Z 48
_cell_length_a 26.997929
_cell_length_b 8.761307
_cell_length_c 11.727884
_cell_angle_alpha 90.000000
_cell_angle_beta 122.763798
_cell_angle_gamma 90.000000
_cell_volume 2332.748197
_symmetry_space_group_name_H-M "C 2/M"
_symmetry_group_IT_number 12
_symmetry_cell_setting 'monoclinic'
loop_
_space_group_symop_operation_xyz
x,y,z
-x,y,-z
-x,-y,-z
x,-y,z
1/2+x,1/2+y,z
1/2-x,1/2+y,-z
1/2-x,1/2-y,-z
1/2+x,1/2-y,z
loop_
_atom_site_type_symbol
_atom_site_label
_atom_site_fract_x
_atom_site_fract_y
_atom_site_fract_z
Si Si1 0.938933 0.321637 0.354296
Si Si2 0.333064 0.682593 0.367595
Si Si3 0.980027 0.817352 0.168315
Si Si4 0.381836 0.683030 0.675433
Si Si5 0.729100 0.681580 0.094103
Si Si6 0.878434 0.680950 0.910123
O O1 0.922452 0.500000 0.322129
O O2 0.888575 0.233173 0.360045
O O3 0.951283 0.248727 0.247264
O O4 0.000000 0.312678 0.500000
O O5 0.325133 0.500000 0.349281
O O6 0.347850 0.721656 0.516980
O O7 0.276537 0.767271 0.247506
O O8 0.049051 0.777263 0.253605
O O9 0.975309 0.000000 0.160333
O O10 0.942632 0.748640 0.018278
O O11 0.378103 0.500000 0.687522
O O12 0.359876 0.766663 0.760878
O O13 0.725611 0.500000 0.081488
O O14 0.666824 0.749211 0.055407
O O15 0.750000 0.750000 0.000000
O O16 0.879174 0.500000 0.919936
#
# Coordination Sequence:
#
# PCOD9217267 Si02
#       6
#     8   8   8   8   8   8
#     4  11  22  36  59  93 131 166 208 259 313 371
#     4  11  23  42  67  96 130 168 213 263 317 377
#     4  11  22  40  65  93 129 172 216 263 317 377
#     4  10  23  42  65  94 129 170 213 259 316 380
#     4  12  26  47  71  95 126 165 211 263 318 378
#     4  12  26  43  65  94 128 169 215 263 317 377
#
# _framework density 20.576588000000001
#
# number of rings (size 3 to 8) (size 9 to 14) (size 15 to 20)
#    0.000    0.833    1.667    6.000    0.000    6.000 
#    0.000    0.000    0.000    0.000    0.000    0.000 
#    0.000    0.000    0.000    0.000    0.000    0.000 
#
# Total GULP energy -134397.113194 kJ/mol
# GULP energy per Si atom -5599.879716 kJ/mol
# Density = 2.052975 g / cm^3
# Si number density = 20.576588 Si / 1000 Ang^3
#
#
#
# Elastic Constant Matrix: (Units=GPa)
#
#
# Indices 1 2 3 4 5 6 
#
# 1 58.9449 16.5688 29.7633 0.0000 -12.4274 0.0000
# 2 16.5688 63.1532 40.2072 0.0000 -13.5062 0.0000
# 3 29.7633 40.2072 111.3672 0.0000 -6.4977 0.0000
# 4 0.0000 0.0000 0.0000 37.1440 0.0000 -1.2907
# 5 -12.4274 -13.5062 -6.4977 0.0000 35.8822 0.0000
# 6 0.0000 0.0000 0.0000 -1.2907 0.0000 29.8419
#
#
#
# Elastic Compliance Matrix: (Units=1/GPa)
#
#
# Indices 1 2 3 4 5 6 
#
# 1 0.020992 -0.001146 -0.004849 0.000000 0.005961 0.000000
# 2 -0.001146 0.022221 -0.007329 0.000000 0.006640 0.000000
# 3 -0.004849 -0.007329 0.012797 0.000000 -0.002121 0.000000
# 4 0.000000 0.000000 0.000000 0.026963 0.000000 0.001166
# 5 0.005961 0.006640 -0.002121 0.000000 0.032049 0.000000
# 6 0.000000 0.000000 0.000000 0.001166 0.000000 0.033560
#
#
# Mechanical properties :
#
#
# Convention : Reuss Voigt Hill
#
# Bulk Modulus (GPa) = 34.05522 45.17156 39.61339
# Shear Modulus (GPa) = 27.02441 30.36869 28.69655
#
# Velocity S-wave (km/s) = 3.62796 3.84589 3.73851
# Velocity P-wave (km/s) = 5.84259 6.45924 6.15864
#
# Compressibility (1/GPa) = 0.02936408
#
# Stress axis : x y z
#
# Youngs Moduli (GPa) = 47.63690 45.00184 78.14034
#
# Poissons Ratio (x) = 0.05155 0.37889
# Poissons Ratio (y) = 0.05457 0.57270
# Poissons Ratio (z) = 0.23098 0.32982
#
# Static dielectric constant tensor:
#      x y z
#    x 1.715820 0.000000 0.029980 
#    y 0.000000 1.682500 0.000000 
#    z 0.029980 0.000000 2.246130 
# 
# From -- ./inp_files/179738.got.cif
#   From: 2010.05.17/outbox.cif.g08.bks.cpg/sg12_90_cif.got.tgz:179738.got - 2010.06.03 13:09:07.
