data_PCOD9217397
_publ_section_title
;
Structure prediction by ZEFSAII (Michael W. Deem and Ramdas Pophale) SiO2 
 PCOD9217397
Probable space group: C 2/M
;
_chemical_formula_sum "Si O2"
_cell_formula_units_Z 48
_cell_length_a 9.087566
_cell_length_b 14.814607
_cell_length_c 15.009254
_cell_angle_alpha 90.000000
_cell_angle_beta 97.698090
_cell_angle_gamma 90.000000
_cell_volume 2002.465624
_symmetry_space_group_name_H-M "C 2/M"
_symmetry_group_IT_number 12
_symmetry_cell_setting 'monoclinic'
loop_
_space_group_symop_operation_xyz
x,y,z
-x,y,-z
-x,-y,-z
x,-y,z
1/2+x,1/2+y,z
1/2-x,1/2+y,-z
1/2-x,1/2-y,-z
1/2+x,1/2-y,z
loop_
_atom_site_type_symbol
_atom_site_label
_atom_site_fract_x
_atom_site_fract_y
_atom_site_fract_z
Si Si1 0.442501 0.854413 0.089156
Si Si2 0.084104 0.697359 0.422881
Si Si3 0.876494 0.174625 0.866258
Si Si4 0.342463 0.500000 0.621007
Si Si5 0.288021 0.812385 0.325294
Si Si6 0.619099 0.000000 0.211851
Si Si7 0.956434 0.000000 0.197222
Si Si8 0.302084 0.000000 0.570113
O O1 0.262701 0.850974 0.081035
O O2 0.511851 0.753834 0.098295
O O3 0.517498 0.915465 0.172644
O O4 0.500000 0.892932 0.000000
O O5 0.222094 0.750097 0.396989
O O6 0.123550 0.594979 0.448073
O O7 0.000000 0.739276 0.500000
O O8 0.961979 0.700353 0.335775
O O9 0.787595 0.209950 0.772862
O O10 0.969496 0.087205 0.843002
O O11 0.254074 0.413152 0.649429
O O12 0.493289 0.500000 0.692845
O O13 0.336815 0.500000 0.512420
O O14 0.778988 0.000000 0.175586
O O15 0.672441 0.000000 0.319920
#
# Coordination Sequence:
#
# PCOD9217397 Si02
#       8
#     8   8   8   4   8   4   4   4
#     4  12  26  48  75 107 140 178 232 292 363 433
#     4  12  24  40  61  95 131 185 233 285 334 390
#     4  11  23  45  72 104 139 186 226 290 352 420
#     4  10  23  43  62  96 132 190 228 279 327 394
#     4  11  23  42  64  93 136 176 233 279 339 404
#     4  12  26  46  70 105 139 187 234 296 352 418
#     4  10  25  46  70 103 149 182 234 287 346 412
#     4  12  24  42  68  93 135 187 244 279 331 406
#
# _framework density 23.970447
#
# number of rings (size 3 to 8) (size 9 to 14) (size 15 to 20)
#    0.000    0.667    1.667    6.500    0.000    5.667 
#    0.000    1.250    0.000    0.000    0.000    0.000 
#    0.000    0.000    0.000    0.000    0.000    0.000 
#
# Total GULP energy -134160.783981 kJ/mol
# GULP energy per Si atom -5590.032666 kJ/mol
# Density = 2.391589 g / cm^3
# Si number density = 23.970447 Si / 1000 Ang^3
#
#
#
# Elastic Constant Matrix: (Units=GPa)
#
#
# Indices 1 2 3 4 5 6 
#
# 1 91.4561 29.5414 -20.9670 0.0000 -0.1924 0.0000
# 2 29.5414 98.7739 10.7392 0.0000 3.3090 0.0000
# 3 -20.9670 10.7392 87.8104 0.0000 -9.3302 0.0000
# 4 0.0000 0.0000 0.0000 14.5156 0.0000 5.5978
# 5 -0.1924 3.3090 -9.3302 0.0000 34.2834 0.0000
# 6 0.0000 0.0000 0.0000 5.5978 0.0000 7.1293
#
#
#
# Elastic Compliance Matrix: (Units=1/GPa)
#
#
# Indices 1 2 3 4 5 6 
#
# 1 0.013260 -0.004439 0.003874 0.000000 0.001557 0.000000
# 2 -0.004439 0.011810 -0.002706 0.000000 -0.001901 0.000000
# 3 0.003874 -0.002706 0.013052 0.000000 0.003835 0.000000
# 4 0.000000 0.000000 0.000000 0.098811 0.000000 -0.077585
# 5 0.001557 -0.001901 0.003835 0.000000 0.030405 0.000000
# 6 0.000000 0.000000 0.000000 -0.077585 0.000000 0.201184
#
#
# Mechanical properties :
#
#
# Convention : Reuss Voigt Hill
#
# Bulk Modulus (GPa) = 31.66644 35.18528 33.42586
# Shear Modulus (GPa) = 12.96717 28.43412 20.70064
#
# Velocity S-wave (km/s) = 2.32839 3.44788 2.94188
# Velocity P-wave (km/s) = 4.52414 5.52820 5.05118
#
# Compressibility (1/GPa) = 0.03157917
#
# Stress axis : x y z
#
# Youngs Moduli (GPa) = 75.41693 84.67592 76.61801
#
# Poissons Ratio (x) = 0.37589 -0.29685
# Poissons Ratio (y) = 0.33479 0.20735
# Poissons Ratio (z) = -0.29220 0.22916
#
# Static dielectric constant tensor:
#      x y z
#    x 1.856030 0.000000 0.002600 
#    y 0.000000 1.859510 0.000000 
#    z 0.002600 0.000000 1.989700 
# 
# From -- ./inp_files/255878.got.cif
#   From: 2010.05.17/outbox.cif.g08.bks.cpg/sg12_128_cif.got.tgz:255878.got - 2010.06.03 13:09:07.
