data_PCOD9217898
_publ_section_title
;
Structure prediction by ZEFSAII (Michael W. Deem and Ramdas Pophale) SiO2 
 PCOD9217898
Probable space group: C 2/M
;
_chemical_formula_sum "Si O2"
_cell_formula_units_Z 44
_cell_length_a 8.264429
_cell_length_b 22.159495
_cell_length_c 11.276897
_cell_angle_alpha 90.000000
_cell_angle_beta 111.132774
_cell_angle_gamma 90.000000
_cell_volume 1926.310980
_symmetry_space_group_name_H-M "C 2/M"
_symmetry_group_IT_number 12
_symmetry_cell_setting 'monoclinic'
loop_
_space_group_symop_operation_xyz
x,y,z
-x,y,-z
-x,-y,-z
x,-y,z
1/2+x,1/2+y,z
1/2-x,1/2+y,-z
1/2-x,1/2-y,-z
1/2+x,1/2-y,z
loop_
_atom_site_type_symbol
_atom_site_label
_atom_site_fract_x
_atom_site_fract_y
_atom_site_fract_z
Si Si1 0.919438 0.295084 0.842683
Si Si2 0.235040 0.898656 0.673793
Si Si3 0.159754 0.928305 0.391136
Si Si4 0.296931 0.500000 0.048258
Si Si5 0.000000 0.099799 0.000000
Si Si6 0.975096 0.500000 0.810799
Si Si7 0.253332 0.167330 0.215175
O O1 0.767839 0.343220 0.772607
O O2 0.852446 0.228801 0.791527
O O3 0.060290 0.313302 0.781414
O O4 0.000000 0.297584 0.000000
O O5 0.214870 0.893600 0.526881
O O6 0.050748 0.928189 0.660427
O O7 0.404874 0.940865 0.729437
O O8 0.233796 0.884876 0.307883
O O9 0.213407 0.000000 0.402527
O O10 0.424638 0.443947 0.079730
O O11 0.176609 0.500000 0.897359
O O12 0.151555 0.500000 0.107986
O O13 0.159937 0.139638 0.076621
#
# Coordination Sequence:
#
# PCOD9217898 Si02
#       7
#     8   8   8   4   4   4   8
#     4  12  28  49  73 107 141 184 240 294 357 426
#     4  11  23  44  75 103 145 188 235 292 352 414
#     4  11  24  48  73 108 145 189 239 288 350 421
#     4  10  24  34  61  99 146 182 236 280 352 428
#     4  11  24  42  60 100 140 189 226 292 354 413
#     4  11  20  39  65 103 138 187 227 296 350 406
#     4  12  27  46  74 101 142 190 232 298 356 416
#
# _framework density 22.841587000000001
#
# number of rings (size 3 to 8) (size 9 to 14) (size 15 to 20)
#    0.000    0.727    2.727    4.364   10.182    1.455 
#    1.636    0.909    0.000    0.000    0.000    0.000 
#    0.000    0.000    0.000    0.000    0.000    0.000 
#
# Total GULP energy -122783.173670 kJ/mol
# GULP energy per Si atom -5581.053349 kJ/mol
# Density = 2.278960 g / cm^3
# Si number density = 22.841587 Si / 1000 Ang^3
#
#
#
# Elastic Constant Matrix: (Units=GPa)
#
#
# Indices 1 2 3 4 5 6 
#
# 1 88.8264 24.2813 14.6160 0.0000 -9.2614 0.0000
# 2 24.2813 139.6771 32.9761 0.0000 -4.8195 0.0000
# 3 14.6160 32.9761 103.5736 0.0000 -7.3798 0.0000
# 4 0.0000 0.0000 0.0000 54.4177 0.0000 -5.7114
# 5 -9.2614 -4.8195 -7.3798 0.0000 32.4357 0.0000
# 6 0.0000 0.0000 0.0000 -5.7114 0.0000 29.1232
#
#
#
# Elastic Compliance Matrix: (Units=1/GPa)
#
#
# Indices 1 2 3 4 5 6 
#
# 1 0.012217 -0.001799 -0.000937 0.000000 0.003008 0.000000
# 2 -0.001799 0.008018 -0.002288 0.000000 0.000157 0.000000
# 3 -0.000937 -0.002288 0.010645 0.000000 0.001814 0.000000
# 4 0.000000 0.000000 0.000000 0.018763 0.000000 0.003680
# 5 0.003008 0.000157 0.001814 0.000000 0.032125 0.000000
# 6 0.000000 0.000000 0.000000 0.003680 0.000000 0.035058
#
#
# Mechanical properties :
#
#
# Convention : Reuss Voigt Hill
#
# Bulk Modulus (GPa) = 48.00115 52.86933 50.43524
# Shear Modulus (GPa) = 37.36434 40.54223 38.95329
#
# Velocity S-wave (km/s) = 4.04889 4.21756 4.13409
# Velocity P-wave (km/s) = 6.55122 6.84934 6.70194
#
# Compressibility (1/GPa) = 0.02083283
#
# Stress axis : x y z
#
# Youngs Moduli (GPa) = 81.85011 124.72581 93.94235
#
# Poissons Ratio (x) = 0.22436 0.08803
# Poissons Ratio (y) = 0.14724 0.21490
# Poissons Ratio (z) = 0.07670 0.28533
#
# Static dielectric constant tensor:
#      x y z
#    x 1.857740 0.000000 -0.095440 
#    y 0.000000 1.925590 0.000000 
#    z -0.095440 0.000000 2.283830 
# 
# From -- ./inp_files/120893.got.cif
#   From: 2010.05.17/outbox.cif.g08.bks.cpg/sg12_61_cif.got.tgz:120893.got - 2010.06.03 13:09:07.
