data_PCOD9217838
_publ_section_title
;
Structure prediction by ZEFSAII (Michael W. Deem and Ramdas Pophale) SiO2 
 PCOD9217838
Probable space group: C 2/M
;
_chemical_formula_sum "Si O2"
_cell_formula_units_Z 40
_cell_length_a 7.826939
_cell_length_b 24.716056
_cell_length_c 10.839563
_cell_angle_alpha 90.000000
_cell_angle_beta 55.125313
_cell_angle_gamma 90.000000
_cell_volume 1720.326831
_symmetry_space_group_name_H-M "C 2/M"
_symmetry_group_IT_number 12
_symmetry_cell_setting 'monoclinic'
loop_
_space_group_symop_operation_xyz
x,y,z
-x,y,-z
-x,-y,-z
x,-y,z
1/2+x,1/2+y,z
1/2-x,1/2+y,-z
1/2-x,1/2-y,-z
1/2+x,1/2-y,z
loop_
_atom_site_type_symbol
_atom_site_label
_atom_site_fract_x
_atom_site_fract_y
_atom_site_fract_z
Si Si1 0.870813 0.893522 0.441462
Si Si2 0.483087 0.828586 0.672987
Si Si3 0.704687 0.833423 0.985693
Si Si4 0.056261 0.062469 0.123130
Si Si5 0.084380 0.789048 0.697402
O O1 0.637266 0.877797 0.579627
O O2 0.980660 0.834611 0.374040
O O3 0.000000 0.920361 0.500000
O O4 0.887941 0.923671 0.301558
O O5 0.351903 0.839011 0.849466
O O6 0.305885 0.811614 0.649600
O O7 0.602433 0.772475 0.650942
O O8 0.500000 0.813873 0.000000
O O9 0.766878 0.893925 0.918741
O O10 0.903332 0.795862 0.874417
O O11 0.114519 0.000000 0.111050
O O12 0.000000 0.070981 0.000000
#
# Coordination Sequence:
#
# PCOD9217838 Si02
#       5
#     8   8   8   8   8
#     4  11  23  41  64  96 133 169 213 269 326 382
#     4  12  22  38  62  93 133 175 219 264 316 379
#     4  11  22  39  63  93 130 171 218 267 320 384
#     4  10  23  46  71  94 125 167 216 271 333 397
#     4  11  23  38  59  92 134 178 215 254 314 386
#
# _framework density 23.251397000000001
#
# number of rings (size 3 to 8) (size 9 to 14) (size 15 to 20)
#    0.000    1.000    0.000    9.600    0.000    0.800 
#    0.000    1.000    0.000   14.400    0.000    0.000 
#    0.000    0.000    0.000    0.000    0.000    0.000 
#
# Total GULP energy -111720.383445 kJ/mol
# GULP energy per Si atom -5586.019172 kJ/mol
# Density = 2.319848 g / cm^3
# Si number density = 23.251397 Si / 1000 Ang^3
#
#
#
# Elastic Constant Matrix: (Units=GPa)
#
#
# Indices 1 2 3 4 5 6 
#
# 1 119.0234 17.7792 48.4246 0.0000 -2.9486 0.0000
# 2 17.7792 85.2544 17.4584 0.0000 -1.2753 0.0000
# 3 48.4246 17.4584 159.6948 0.0000 2.5278 0.0000
# 4 0.0000 0.0000 0.0000 30.2301 0.0000 6.9334
# 5 -2.9486 -1.2753 2.5278 0.0000 40.0709 0.0000
# 6 0.0000 0.0000 0.0000 6.9334 0.0000 14.4230
#
#
#
# Elastic Compliance Matrix: (Units=1/GPa)
#
#
# Indices 1 2 3 4 5 6 
#
# 1 0.009788 -0.001450 -0.002823 0.000000 0.000852 0.000000
# 2 -0.001450 0.012222 -0.000902 0.000000 0.000339 0.000000
# 3 -0.002823 -0.000902 0.007227 0.000000 -0.000692 0.000000
# 4 0.000000 0.000000 0.000000 0.037179 0.000000 -0.017873
# 5 0.000852 0.000339 -0.000692 0.000000 0.025073 0.000000
# 6 0.000000 0.000000 0.000000 -0.017873 0.000000 0.077925
#
#
# Mechanical properties :
#
#
# Convention : Reuss Voigt Hill
#
# Bulk Modulus (GPa) = 52.94592 59.03300 55.98946
# Shear Modulus (GPa) = 26.87302 35.63217 31.25259
#
# Velocity S-wave (km/s) = 3.40333 3.91893 3.67020
# Velocity P-wave (km/s) = 6.18580 6.77654 6.48790
#
# Compressibility (1/GPa) = 0.01888720
#
# Stress axis : x y z
#
# Youngs Moduli (GPa) = 102.16605 81.82113 138.36058
#
# Poissons Ratio (x) = 0.11867 0.39059
# Poissons Ratio (y) = 0.14818 0.12476
# Poissons Ratio (z) = 0.28841 0.07378
#
# Static dielectric constant tensor:
#      x y z
#    x 1.966020 0.000000 0.093110 
#    y 0.000000 1.851550 0.000000 
#    z 0.093110 0.000000 2.040730 
# 
# From -- ./inp_files/123405.got.cif
#   From: 2010.05.17/outbox.cif.g08.bks.cpg/sg12_62_cif.got.tgz:123405.got - 2010.06.03 13:09:07.
