data_PCOD9217704
_publ_section_title
;
Structure prediction by ZEFSAII (Michael W. Deem and Ramdas Pophale) SiO2 
 PCOD9217704
Probable space group: C 2/M
;
_chemical_formula_sum "Si O2"
_cell_formula_units_Z 48
_cell_length_a 11.039108
_cell_length_b 21.207199
_cell_length_c 12.019507
_cell_angle_alpha 90.000000
_cell_angle_beta 128.544323
_cell_angle_gamma 90.000000
_cell_volume 2200.801482
_symmetry_space_group_name_H-M "C 2/M"
_symmetry_group_IT_number 12
_symmetry_cell_setting 'monoclinic'
loop_
_space_group_symop_operation_xyz
x,y,z
-x,y,-z
-x,-y,-z
x,-y,z
1/2+x,1/2+y,z
1/2-x,1/2+y,-z
1/2-x,1/2-y,-z
1/2+x,1/2-y,z
loop_
_atom_site_type_symbol
_atom_site_label
_atom_site_fract_x
_atom_site_fract_y
_atom_site_fract_z
Si Si1 0.183757 0.072057 0.900695
Si Si2 0.239348 0.427670 0.809364
Si Si3 0.360269 0.622523 0.654792
Si Si4 0.587963 0.872352 0.342862
Si Si5 0.518723 0.738501 0.638635
Si Si6 0.843905 0.681597 0.862359
O O1 0.299464 0.123217 0.916663
O O2 0.018652 0.082977 0.748134
O O3 0.236047 0.000000 0.916664
O O4 0.168523 0.084194 0.023895
O O5 0.267411 0.500000 0.790898
O O6 0.285323 0.383973 0.733092
O O7 0.059364 0.417864 0.737429
O O8 0.236544 0.601045 0.492157
O O9 0.412441 0.693232 0.653271
O O10 0.535746 0.809502 0.378664
O O11 0.628563 0.848153 0.243224
O O12 0.500000 0.718192 0.500000
O O13 0.696435 0.727438 0.774792
O O14 0.000000 0.711790 0.000000
#
# Coordination Sequence:
#
# PCOD9217704 Si02
#       6
#     8   8   8   8   8   8
#     4  10  23  44  69  95 133 182 221 267 330 394
#     4  11  24  43  67  98 137 179 220 272 336 392
#     4  11  23  41  68  98 131 170 223 274 325 397
#     4  12  25  42  68 100 134 175 221 276 335 394
#     4  11  24  44  69  95 132 179 219 270 339 399
#     4  11  24  45  66  98 132 171 228 274 327 394
#
# _framework density 21.810237000000001
#
# number of rings (size 3 to 8) (size 9 to 14) (size 15 to 20)
#    0.000    1.000    3.333    3.000    2.333    5.000 
#    0.000    0.833    0.000    0.000    0.000    0.000 
#    0.000    0.000    0.000    0.000    0.000    0.000 
#
# Total GULP energy -134334.369349 kJ/mol
# GULP energy per Si atom -5597.265390 kJ/mol
# Density = 2.176060 g / cm^3
# Si number density = 21.810237 Si / 1000 Ang^3
#
#
#
# Elastic Constant Matrix: (Units=GPa)
#
#
# Indices 1 2 3 4 5 6 
#
# 1 76.9895 14.6676 26.0684 0.0000 -3.8666 0.0000
# 2 14.6676 46.5481 18.4397 0.0000 -11.4772 0.0000
# 3 26.0684 18.4397 134.4011 0.0000 15.4682 0.0000
# 4 0.0000 0.0000 0.0000 21.5454 0.0000 -4.0211
# 5 -3.8666 -11.4772 15.4682 0.0000 41.1386 0.0000
# 6 0.0000 0.0000 0.0000 -4.0211 0.0000 12.0197
#
#
#
# Elastic Compliance Matrix: (Units=1/GPa)
#
#
# Indices 1 2 3 4 5 6 
#
# 1 0.014534 -0.003223 -0.002541 0.000000 0.001422 0.000000
# 2 -0.003223 0.026147 -0.003937 0.000000 0.008472 0.000000
# 3 -0.002541 -0.003937 0.009018 0.000000 -0.004728 0.000000
# 4 0.000000 0.000000 0.000000 0.049505 0.000000 0.016561
# 5 0.001422 0.008472 -0.004728 0.000000 0.028583 0.000000
# 6 0.000000 0.000000 0.000000 0.016561 0.000000 0.088737
#
#
# Mechanical properties :
#
#
# Convention : Reuss Voigt Hill
#
# Bulk Modulus (GPa) = 33.00567 41.81002 37.40784
# Shear Modulus (GPa) = 20.32313 28.19161 24.25737
#
# Velocity S-wave (km/s) = 3.05588 3.59916 3.33859
# Velocity P-wave (km/s) = 5.25520 6.04015 5.66130
#
# Compressibility (1/GPa) = 0.03029783
#
# Stress axis : x y z
#
# Youngs Moduli (GPa) = 68.80207 38.24464 110.89516
#
# Poissons Ratio (x) = 0.12325 0.28174
# Poissons Ratio (y) = 0.22173 0.43664
# Poissons Ratio (z) = 0.17480 0.15058
#
# Static dielectric constant tensor:
#      x y z
#    x 1.794380 0.000000 0.020830 
#    y 0.000000 1.750850 0.000000 
#    z 0.020830 0.000000 1.791000 
# 
# From -- ./inp_files/134088.got.cif
#   From: 2010.05.17/outbox.cif.g08.bks.cpg/sg12_68_cif.got.tgz:134088.got - 2010.06.03 13:09:07.
