data_PCOD9217323
_publ_section_title
;
Structure prediction by ZEFSAII (Michael W. Deem and Ramdas Pophale) SiO2 
 PCOD9217323
Probable space group: C 2/M
;
_chemical_formula_sum "Si O2"
_cell_formula_units_Z 24
_cell_length_a 10.772318
_cell_length_b 7.618107
_cell_length_c 13.523151
_cell_angle_alpha 90.000000
_cell_angle_beta 102.146967
_cell_angle_gamma 90.000000
_cell_volume 1084.926320
_symmetry_space_group_name_H-M "C 2/M"
_symmetry_group_IT_number 12
_symmetry_cell_setting 'monoclinic'
loop_
_space_group_symop_operation_xyz
x,y,z
-x,y,-z
-x,-y,-z
x,-y,z
1/2+x,1/2+y,z
1/2-x,1/2+y,-z
1/2-x,1/2-y,-z
1/2+x,1/2-y,z
loop_
_atom_site_type_symbol
_atom_site_label
_atom_site_fract_x
_atom_site_fract_y
_atom_site_fract_z
Si Si1 0.413818 0.200140 0.285433
Si Si2 0.392948 0.789282 0.058056
Si Si3 0.902300 0.500000 0.574456
Si Si4 0.636107 0.500000 0.574598
O O1 0.411832 0.270925 0.174093
O O2 0.556158 0.164330 0.350533
O O3 0.353114 0.331739 0.352482
O O4 0.358980 0.000000 0.276607
O O5 0.407952 0.000000 0.063796
O O6 0.500000 0.721531 0.000000
O O7 0.250000 0.750000 0.000000
O O8 0.756680 0.500000 0.523060
O O9 0.000000 0.500000 0.500000
O O10 0.500000 0.500000 0.500000
#
# Coordination Sequence:
#
# PCOD9217323 Si02
#       4
#     8   8   4   4
#     4   9  24  45  64 101 136 176 216 278 333 400
#     4  10  23  42  67  97 136 172 217 274 331 390
#     4  10  24  48  66  95 140 172 222 283 333 400
#     4  12  26  44  74 100 128 182 228 276 341 398
#
# _framework density 22.121317000000001
#
# number of rings (size 3 to 8) (size 9 to 14) (size 15 to 20)
#    1.000    1.000    0.000    1.000    7.000    6.000 
#    3.000    0.000    0.000    0.000    0.000    0.000 
#    0.000    0.000    0.000    0.000    0.000    0.000 
#
# Total GULP energy -66932.769605 kJ/mol
# GULP energy per Si atom -5577.730800 kJ/mol
# Density = 2.207097 g / cm^3
# Si number density = 22.121317 Si / 1000 Ang^3
#
#
#
# Elastic Constant Matrix: (Units=GPa)
#
#
# Indices 1 2 3 4 5 6 
#
# 1 189.1586 15.8420 91.4986 0.0000 -3.9891 0.0000
# 2 15.8420 77.6312 16.6940 0.0000 -16.8720 0.0000
# 3 91.4986 16.6940 173.1372 0.0000 -7.4728 0.0000
# 4 0.0000 0.0000 0.0000 15.9122 0.0000 -1.4198
# 5 -3.9891 -16.8720 -7.4728 0.0000 26.3760 0.0000
# 6 0.0000 0.0000 0.0000 -1.4198 0.0000 19.1253
#
#
#
# Elastic Compliance Matrix: (Units=1/GPa)
#
#
# Indices 1 2 3 4 5 6 
#
# 1 0.007140 -0.000757 -0.003720 0.000000 -0.000458 0.000000
# 2 -0.000757 0.015230 -0.000661 0.000000 0.009440 0.000000
# 3 -0.003720 -0.000661 0.007859 0.000000 0.001241 0.000000
# 4 0.000000 0.000000 0.000000 0.063264 0.000000 0.004697
# 5 -0.000458 0.009440 0.001241 0.000000 0.044234 0.000000
# 6 0.000000 0.000000 0.000000 0.004697 0.000000 0.052635
#
#
# Mechanical properties :
#
#
# Convention : Reuss Voigt Hill
#
# Bulk Modulus (GPa) = 50.11796 76.44404 63.28100
# Shear Modulus (GPa) = 24.12098 33.34219 28.73159
#
# Velocity S-wave (km/s) = 3.30570 3.88653 3.60782
# Velocity P-wave (km/s) = 6.10535 7.40081 6.78407
#
# Compressibility (1/GPa) = 0.01995293
#
# Stress axis : x y z
#
# Youngs Moduli (GPa) = 140.06260 65.66120 127.24286
#
# Poissons Ratio (x) = 0.04968 0.47334
# Poissons Ratio (y) = 0.10597 0.08413
# Poissons Ratio (z) = 0.52103 0.04341
#
# Static dielectric constant tensor:
#      x y z
#    x 1.799680 0.000000 -0.011360 
#    y 0.000000 1.874430 0.000000 
#    z -0.011360 0.000000 1.849130 
# 
# From -- ./inp_files/192798.got.cif
#   From: 2010.05.17/outbox.cif.g08.bks.cpg/sg12_97_cif.got.tgz:192798.got - 2010.06.03 13:09:07.
