data_PCOD9217828
_publ_section_title
;
Structure prediction by ZEFSAII (Michael W. Deem and Ramdas Pophale) SiO2 
 PCOD9217828
Probable space group: C 2/M
;
_chemical_formula_sum "Si O2"
_cell_formula_units_Z 56
_cell_length_a 14.703090
_cell_length_b 22.257270
_cell_length_c 9.371055
_cell_angle_alpha 90.000000
_cell_angle_beta 118.627805
_cell_angle_gamma 90.000000
_cell_volume 2691.783434
_symmetry_space_group_name_H-M "C 2/M"
_symmetry_group_IT_number 12
_symmetry_cell_setting 'monoclinic'
loop_
_space_group_symop_operation_xyz
x,y,z
-x,y,-z
-x,-y,-z
x,-y,z
1/2+x,1/2+y,z
1/2-x,1/2+y,-z
1/2-x,1/2-y,-z
1/2+x,1/2-y,z
loop_
_atom_site_type_symbol
_atom_site_label
_atom_site_fract_x
_atom_site_fract_y
_atom_site_fract_z
Si Si1 0.135600 0.251139 0.341643
Si Si2 0.610033 0.153319 0.545192
Si Si3 0.120025 0.650082 0.102308
Si Si4 0.102378 0.066403 0.667357
Si Si5 0.709973 0.071018 0.387404
Si Si6 0.240842 0.685152 0.923751
Si Si7 0.028786 0.853566 0.874149
O O1 0.250000 0.250000 0.500000
O O2 0.076939 0.292190 0.414801
O O3 0.157943 0.292470 0.221084
O O4 0.060856 0.194302 0.245327
O O5 0.500000 0.123091 0.500000
O O6 0.682779 0.108717 0.507666
O O7 0.674667 0.176587 0.729880
O O8 0.127437 0.591030 0.206249
O O9 0.183283 0.645546 0.003185
O O10 0.000000 0.663739 0.000000
O O11 0.186169 0.091628 0.618122
O O12 0.066068 0.105998 0.771510
O O13 0.000000 0.059208 0.500000
O O14 0.140516 0.000000 0.742174
O O15 0.715003 0.000000 0.418268
O O16 0.250000 0.750000 0.000000
O O17 0.361767 0.673456 0.993607
O O18 0.000000 0.887072 0.000000
#
# Coordination Sequence:
#
# PCOD9217828 Si02
#       7
#     8   8   8   8   8   8   8
#     4  11  24  41  65  95 135 180 219 266 340 422
#     4  11  24  42  66  98 135 177 226 282 335 399
#     4  11  22  41  64  95 134 172 220 277 337 408
#     4  10  24  45  69  95 128 176 229 278 334 403
#     4  10  23  46  69  94 131 179 233 279 331 405
#     4  12  23  39  63  97 137 175 213 278 344 403
#     4  12  25  40  66 101 132 170 221 277 343 404
#
# _framework density 20.804051000000001
#
# number of rings (size 3 to 8) (size 9 to 14) (size 15 to 20)
#    0.000    1.000    1.429    6.429    6.000    2.571 
#    0.000    1.429    0.000    0.000    0.000    0.000 
#    0.000    0.000    0.000    0.000    0.000    0.000 
#
# Total GULP energy -155970.773102 kJ/mol
# GULP energy per Si atom -5570.384754 kJ/mol
# Density = 2.075670 g / cm^3
# Si number density = 20.804051 Si / 1000 Ang^3
#
#
#
# Elastic Constant Matrix: (Units=GPa)
#
#
# Indices 1 2 3 4 5 6 
#
# 1 131.5083 43.7434 60.1167 0.0000 -12.8036 0.0000
# 2 43.7434 58.5024 45.3514 0.0000 -10.0116 0.0000
# 3 60.1167 45.3514 135.7993 0.0000 -13.7817 0.0000
# 4 0.0000 0.0000 0.0000 15.0817 0.0000 -10.3931
# 5 -12.8036 -10.0116 -13.7817 0.0000 43.0105 0.0000
# 6 0.0000 0.0000 0.0000 -10.3931 0.0000 32.3321
#
#
#
# Elastic Compliance Matrix: (Units=1/GPa)
#
#
# Indices 1 2 3 4 5 6 
#
# 1 0.010913 -0.005832 -0.002782 0.000000 0.001000 0.000000
# 2 -0.005832 0.026562 -0.006034 0.000000 0.002513 0.000000
# 3 -0.002782 -0.006034 0.010733 0.000000 0.001206 0.000000
# 4 0.000000 0.000000 0.000000 0.085173 0.000000 0.027379
# 5 0.001000 0.002513 0.001206 0.000000 0.024519 0.000000
# 6 0.000000 0.000000 0.000000 0.027379 0.000000 0.039730
#
#
# Mechanical properties :
#
#
# Convention : Reuss Voigt Hill
#
# Bulk Modulus (GPa) = 52.87674 69.35924 61.11799
# Shear Modulus (GPa) = 21.43816 29.85810 25.64813
#
# Velocity S-wave (km/s) = 3.21359 3.79252 3.51500
# Velocity P-wave (km/s) = 6.26429 7.25185 6.77608
#
# Compressibility (1/GPa) = 0.01891191
#
# Stress axis : x y z
#
# Youngs Moduli (GPa) = 91.63304 37.64839 93.17311
#
# Poissons Ratio (x) = 0.21958 0.25920
# Poissons Ratio (y) = 0.53443 0.56216
# Poissons Ratio (z) = 0.25491 0.22715
#
# Static dielectric constant tensor:
#      x y z
#    x 1.306360 0.000000 -0.170070 
#    y 0.000000 1.909880 0.000000 
#    z -0.170070 0.000000 1.761020 
# 
# From -- ./inp_files/65966.got.cif
#   From: 2010.05.17/outbox.cif.g08.bks.cpg/sg12_33_cif.got.tgz:65966.got - 2010.06.03 13:09:07.
