data_PCOD9217263
_publ_section_title
;
Structure prediction by ZEFSAII (Michael W. Deem and Ramdas Pophale) SiO2 
 PCOD9217263
Probable space group: C 2/M
;
_chemical_formula_sum "Si O2"
_cell_formula_units_Z 40
_cell_length_a 9.403444
_cell_length_b 9.848208
_cell_length_c 21.564070
_cell_angle_alpha 90.000000
_cell_angle_beta 78.435877
_cell_angle_gamma 90.000000
_cell_volume 1956.448520
_symmetry_space_group_name_H-M "C 2/M"
_symmetry_group_IT_number 12
_symmetry_cell_setting 'monoclinic'
loop_
_space_group_symop_operation_xyz
x,y,z
-x,y,-z
-x,-y,-z
x,-y,z
1/2+x,1/2+y,z
1/2-x,1/2+y,-z
1/2-x,1/2-y,-z
1/2+x,1/2-y,z
loop_
_atom_site_type_symbol
_atom_site_label
_atom_site_fract_x
_atom_site_fract_y
_atom_site_fract_z
Si Si1 0.010592 0.656149 0.133270
Si Si2 0.392239 0.500000 0.567712
Si Si3 0.968639 0.756430 0.652856
Si Si4 0.311757 0.163511 0.271005
Si Si5 0.954278 0.500000 0.432337
Si Si6 0.252136 0.840593 0.061563
O O1 0.067440 0.500000 0.131734
O O2 0.906478 0.678667 0.201254
O O3 0.907301 0.664767 0.081963
O O4 0.134407 0.768396 0.116224
O O5 0.500000 0.500000 0.500000
O O6 0.433434 0.374545 0.607912
O O7 0.222329 0.500000 0.561535
O O8 0.847867 0.773975 0.716867
O O9 0.116656 0.744785 0.678248
O O10 0.974989 0.625684 0.609314
O O11 0.307086 0.000000 0.284154
O O12 0.000000 0.500000 0.500000
O O13 0.218883 0.000000 0.053064
O O14 0.250000 0.750000 0.000000
#
# Coordination Sequence:
#
# PCOD9217263 Si02
#       6
#     8   4   8   8   4   8
#     4  10  23  42  65  93 131 173 217 270 325 381
#     4  12  28  46  68  98 130 170 217 269 322 392
#     4  12  22  46  67  93 131 169 214 268 328 382
#     4  11  23  44  66  96 131 167 219 272 321 390
#     4  12  28  46  66  98 132 164 219 267 320 392
#     4  11  23  41  65  97 133 175 220 267 324 384
#
# _framework density 20.445209999999999
#
# number of rings (size 3 to 8) (size 9 to 14) (size 15 to 20)
#    0.000    0.800    4.000    3.000    2.800    5.600 
#    3.600    0.000    0.000    0.000    0.000    0.000 
#    0.000    0.000    0.000    0.000    0.000    0.000 
#
# Total GULP energy -111668.531979 kJ/mol
# GULP energy per Si atom -5583.426599 kJ/mol
# Density = 2.039868 g / cm^3
# Si number density = 20.445210 Si / 1000 Ang^3
#
#
#
# Elastic Constant Matrix: (Units=GPa)
#
#
# Indices 1 2 3 4 5 6 
#
# 1 66.7746 47.3122 6.3475 0.0000 -6.4017 0.0000
# 2 47.3122 137.5699 31.4312 0.0000 -8.1828 0.0000
# 3 6.3475 31.4312 86.2799 0.0000 -6.4742 0.0000
# 4 0.0000 0.0000 0.0000 35.5938 0.0000 -8.6508
# 5 -6.4017 -8.1828 -6.4742 0.0000 41.8523 0.0000
# 6 0.0000 0.0000 0.0000 -8.6508 0.0000 30.4006
#
#
#
# Elastic Compliance Matrix: (Units=1/GPa)
#
#
# Indices 1 2 3 4 5 6 
#
# 1 0.020044 -0.007065 0.001240 0.000000 0.001876 0.000000
# 2 -0.007065 0.010471 -0.003260 0.000000 0.000462 0.000000
# 3 0.001240 -0.003260 0.012802 0.000000 0.001533 0.000000
# 4 0.000000 0.000000 0.000000 0.030182 0.000000 0.008589
# 5 0.001876 0.000462 0.001533 0.000000 0.024508 0.000000
# 6 0.000000 0.000000 0.000000 0.008589 0.000000 0.035338
#
#
# Mechanical properties :
#
#
# Convention : Reuss Voigt Hill
#
# Bulk Modulus (GPa) = 39.76770 51.20067 45.48419
# Shear Modulus (GPa) = 31.27019 35.27158 33.27089
#
# Velocity S-wave (km/s) = 3.91508 4.15803 4.03838
# Velocity P-wave (km/s) = 6.31903 6.93899 6.63625
#
# Compressibility (1/GPa) = 0.02514603
#
# Stress axis : x y z
#
# Youngs Moduli (GPa) = 49.89141 95.50084 78.11519
#
# Poissons Ratio (x) = 0.67471 -0.09686
# Poissons Ratio (y) = 0.35248 0.25466
# Poissons Ratio (z) = -0.06186 0.31134
#
# Static dielectric constant tensor:
#      x y z
#    x 1.711620 0.000000 -0.019130 
#    y 0.000000 1.689680 0.000000 
#    z -0.019130 0.000000 1.761460 
# 
# From -- ./inp_files/331779.got.cif
#   From: 2010.05.17/outbox.cif.g08.bks.cpg/sg12_166_cif.got.tgz:331779.got - 2010.06.03 13:09:07.
