data_PCOD9217735
_publ_section_title
;
Structure prediction by ZEFSAII (Michael W. Deem and Ramdas Pophale) SiO2 
 PCOD9217735
Probable space group: C 2/M
;
_chemical_formula_sum "Si O2"
_cell_formula_units_Z 32
_cell_length_a 8.943703
_cell_length_b 16.465172
_cell_length_c 11.248864
_cell_angle_alpha 90.000000
_cell_angle_beta 60.627041
_cell_angle_gamma 90.000000
_cell_volume 1443.552183
_symmetry_space_group_name_H-M "C 2/M"
_symmetry_group_IT_number 12
_symmetry_cell_setting 'monoclinic'
loop_
_space_group_symop_operation_xyz
x,y,z
-x,y,-z
-x,-y,-z
x,-y,z
1/2+x,1/2+y,z
1/2-x,1/2+y,-z
1/2-x,1/2-y,-z
1/2+x,1/2-y,z
loop_
_atom_site_type_symbol
_atom_site_label
_atom_site_fract_x
_atom_site_fract_y
_atom_site_fract_z
Si Si1 0.258241 0.261149 0.853607
Si Si2 0.814358 0.913641 0.131630
Si Si3 0.079098 0.297782 0.595042
Si Si4 0.563176 0.091087 0.812702
O O1 0.186242 0.178155 0.820962
O O2 0.447401 0.258783 0.722283
O O3 0.151000 0.339939 0.858420
O O4 0.250000 0.250000 0.000000
O O5 0.645365 0.911464 0.112270
O O6 0.793669 0.000000 0.208066
O O7 0.000000 0.918701 0.000000
O O8 0.250000 0.250000 0.500000
O O9 0.109289 0.377432 0.662818
O O10 0.000000 0.320702 0.500000
O O11 0.621483 0.000000 0.818483
#
# Coordination Sequence:
#
# PCOD9217735 Si02
#       4
#     8   8   8   8
#     4  11  25  40  71 103 140 189 242 298 360 429
#     4   9  21  38  61  97 141 182 231 288 355 427
#     4  11  23  45  71 101 144 190 243 298 362 434
#     4  10  23  44  71 105 146 194 244 301 367 437
#
# _framework density 22.167539999999999
#
# number of rings (size 3 to 8) (size 9 to 14) (size 15 to 20)
#    0.000    1.750    2.500    0.000    7.000    1.500 
#    0.000    8.750    0.000    0.000    0.000    0.000 
#    0.000    0.000    0.000    0.000    0.000    0.000 
#
# Total GULP energy -89147.881390 kJ/mol
# GULP energy per Si atom -5571.742587 kJ/mol
# Density = 2.211709 g / cm^3
# Si number density = 22.167540 Si / 1000 Ang^3
#
#
#
# Elastic Constant Matrix: (Units=GPa)
#
#
# Indices 1 2 3 4 5 6 
#
# 1 76.3807 79.2528 58.8743 0.0000 -11.8295 0.0000
# 2 79.2528 230.5586 41.5609 0.0000 -1.7349 0.0000
# 3 58.8743 41.5609 135.6782 0.0000 -1.9135 0.0000
# 4 0.0000 0.0000 0.0000 23.2537 0.0000 11.8262
# 5 -11.8295 -1.7349 -1.9135 0.0000 62.0990 0.0000
# 6 0.0000 0.0000 0.0000 11.8262 0.0000 29.8461
#
#
#
# Elastic Compliance Matrix: (Units=1/GPa)
#
#
# Indices 1 2 3 4 5 6 
#
# 1 0.031454 -0.008811 -0.010873 0.000000 0.005411 0.000000
# 2 -0.008811 0.007060 0.001641 0.000000 -0.001431 0.000000
# 3 -0.010873 0.001641 0.011562 0.000000 -0.001669 0.000000
# 4 0.000000 0.000000 0.000000 0.053857 0.000000 -0.021340
# 5 0.005411 -0.001431 -0.001669 0.000000 0.017043 0.000000
# 6 0.000000 0.000000 0.000000 -0.021340 0.000000 0.041961
#
#
# Mechanical properties :
#
#
# Convention : Reuss Voigt Hill
#
# Bulk Modulus (GPa) = 71.48794 89.11040 80.29917
# Shear Modulus (GPa) = 24.54741 40.56840 32.55791
#
# Velocity S-wave (km/s) = 3.33131 4.28259 3.83655
# Velocity P-wave (km/s) = 6.86409 8.04611 7.47849
#
# Compressibility (1/GPa) = 0.01398837
#
# Stress axis : x y z
#
# Youngs Moduli (GPa) = 31.79218 141.65097 86.48668
#
# Poissons Ratio (x) = 1.24814 0.94040
# Poissons Ratio (y) = 0.28013 -0.14191
# Poissons Ratio (z) = 0.34569 -0.23242
#
# Static dielectric constant tensor:
#      x y z
#    x 1.910830 0.000000 -0.004060 
#    y 0.000000 1.897220 0.000000 
#    z -0.004060 0.000000 1.863220 
# 
# From -- ./inp_files/118123.got.cif
#   From: 2010.05.17/outbox.cif.g08.bks.cpg/sg12_60_cif.got.tgz:118123.got - 2010.06.03 13:09:07.
