data_PCOD9217484
_publ_section_title
;
Structure prediction by ZEFSAII (Michael W. Deem and Ramdas Pophale) SiO2 
 PCOD9217484
Probable space group: C 2/M
;
_chemical_formula_sum "Si O2"
_cell_formula_units_Z 40
_cell_length_a 8.376996
_cell_length_b 13.387315
_cell_length_c 14.516885
_cell_angle_alpha 90.000000
_cell_angle_beta 95.008111
_cell_angle_gamma 90.000000
_cell_volume 1621.787951
_symmetry_space_group_name_H-M "C 2/M"
_symmetry_group_IT_number 12
_symmetry_cell_setting 'monoclinic'
loop_
_space_group_symop_operation_xyz
x,y,z
-x,y,-z
-x,-y,-z
x,-y,z
1/2+x,1/2+y,z
1/2-x,1/2+y,-z
1/2-x,1/2-y,-z
1/2+x,1/2-y,z
loop_
_atom_site_type_symbol
_atom_site_label
_atom_site_fract_x
_atom_site_fract_y
_atom_site_fract_z
Si Si1 0.185265 0.379361 0.636071
Si Si2 0.865120 0.881109 0.826460
Si Si3 0.039454 0.294876 0.895923
Si Si4 0.825126 0.878121 0.455559
Si Si5 0.143975 0.380687 0.276950
O O1 0.190746 0.500000 0.632077
O O2 0.322857 0.354971 0.717907
O O3 0.208760 0.345940 0.532788
O O4 0.014144 0.356771 0.670882
O O5 0.019770 0.822283 0.870477
O O6 0.707508 0.844166 0.875125
O O7 0.880900 0.000000 0.834911
O O8 0.898462 0.339766 0.824866
O O9 0.000000 0.310889 0.000000
O O10 0.786086 0.843330 0.350234
O O11 0.000000 0.854031 0.500000
O O12 0.814355 0.000000 0.449894
O O13 0.158488 0.500000 0.268140
#
# Coordination Sequence:
#
# PCOD9217484 Si02
#       5
#     8   8   8   8   8
#     4   8  15  31  54  79 117 165 206 252 311 378
#     4  10  23  43  66  95 131 171 216 268 327 387
#     4  11  23  42  66  95 130 169 220 275 321 382
#     4   9  16  27  49  86 126 161 203 257 315 376
#     4   9  18  33  56  86 122 168 213 256 316 380
#
# _framework density 24.664137
#
# number of rings (size 3 to 8) (size 9 to 14) (size 15 to 20)
#    0.000    2.600    0.000    3.000    0.000    6.000 
#    0.000    5.000    0.000    0.000    0.000    0.000 
#    0.000    0.000    0.000    0.000    0.000    0.000 
#
# Total GULP energy -111940.617216 kJ/mol
# GULP energy per Si atom -5597.030861 kJ/mol
# Density = 2.460800 g / cm^3
# Si number density = 24.664137 Si / 1000 Ang^3
#
#
#
# Elastic Constant Matrix: (Units=GPa)
#
#
# Indices 1 2 3 4 5 6 
#
# 1 25.6138 22.8404 40.6921 0.0000 11.0123 0.0000
# 2 22.8404 114.7744 59.4610 0.0000 -4.0412 0.0000
# 3 40.6921 59.4610 179.9298 0.0000 27.1824 0.0000
# 4 0.0000 0.0000 0.0000 26.3737 0.0000 9.0559
# 5 11.0123 -4.0412 27.1824 0.0000 15.1395 0.0000
# 6 0.0000 0.0000 0.0000 9.0559 0.0000 34.7788
#
#
#
# Elastic Compliance Matrix: (Units=1/GPa)
#
#
# Indices 1 2 3 4 5 6 
#
# 1 0.087771 -0.016658 -0.005527 0.000000 -0.058366 0.000000
# 2 -0.016658 0.015701 -0.005331 0.000000 0.025879 0.000000
# 3 -0.005527 -0.005331 0.011221 0.000000 -0.017548 0.000000
# 4 0.000000 0.000000 0.000000 0.041639 0.000000 -0.010842
# 5 -0.058366 0.025879 -0.017548 0.000000 0.146922 0.000000
# 6 0.000000 0.000000 0.000000 -0.010842 0.000000 0.031576
#
#
# Mechanical properties :
#
#
# Convention : Reuss Voigt Hill
#
# Bulk Modulus (GPa) = 16.76189 62.92278 39.84233
# Shear Modulus (GPa) = 12.20259 28.41339 20.30799
#
# Velocity S-wave (km/s) = 2.22671 3.39781 2.87258
# Velocity P-wave (km/s) = 3.66358 6.40006 5.21453
#
# Compressibility (1/GPa) = 0.05965913
#
# Stress axis : x y z
#
# Youngs Moduli (GPa) = 11.39333 63.69139 89.12215
#
# Poissons Ratio (x) = 1.06097 0.49262
# Poissons Ratio (y) = 0.18979 0.47510
# Poissons Ratio (z) = 0.06298 0.33953
#
# Static dielectric constant tensor:
#      x y z
#    x 1.928500 0.000000 0.007260 
#    y 0.000000 2.077980 0.000000 
#    z 0.007260 0.000000 1.922430 
# 
# From -- ./inp_files/194555.got.cif
#   From: 2010.05.17/outbox.cif.g08.bks.cpg/sg12_98_cif.got.tgz:194555.got - 2010.06.03 13:09:07.
