data_PCOD9217833
_publ_section_title
;
Structure prediction by ZEFSAII (Michael W. Deem and Ramdas Pophale) SiO2 
 PCOD9217833
Probable space group: C 2/M
;
_chemical_formula_sum "Si O2"
_cell_formula_units_Z 58
_cell_length_a 18.862356
_cell_length_b 25.848492
_cell_length_c 12.037518
_cell_angle_alpha 90.000000
_cell_angle_beta 153.057364
_cell_angle_gamma 90.000000
_cell_volume 2659.257788
_symmetry_space_group_name_H-M "C 2/M"
_symmetry_group_IT_number 12
_symmetry_cell_setting 'monoclinic'
loop_
_space_group_symop_operation_xyz
x,y,z
-x,y,-z
-x,-y,-z
x,-y,z
1/2+x,1/2+y,z
1/2-x,1/2+y,-z
1/2-x,1/2-y,-z
1/2+x,1/2-y,z
loop_
_atom_site_type_symbol
_atom_site_label
_atom_site_fract_x
_atom_site_fract_y
_atom_site_fract_z
Si Si1 0.844235 0.218685 0.726727
Si Si2 0.685702 0.792843 0.735306
Si Si3 0.468711 0.059950 0.333543
Si Si4 0.736643 0.820791 0.173481
Si Si5 0.959470 0.598963 0.793128
Si Si6 0.861891 0.859956 0.569416
Si Si7 0.330585 0.618490 0.095516
Si Si8 0.000000 0.500000 0.000000
O O1 0.750000 0.250000 0.500000
O O2 0.729519 0.201331 0.665981
O O3 0.909104 0.170552 0.745917
O O4 0.000000 0.244071 0.000000
O O5 0.500000 0.788667 0.500000
O O6 0.767637 0.737519 0.876962
O O7 0.756636 0.838272 0.909613
O O8 0.500000 0.080439 0.500000
O O9 0.559730 0.089116 0.364396
O O10 0.286340 0.070704 0.058571
O O11 0.509207 0.000000 0.387269
O O12 0.822128 0.821328 0.411901
O O13 0.574469 0.851785 0.963175
O O14 0.830800 0.854479 0.215498
O O15 0.795421 0.610336 0.621266
O O16 0.023795 0.546468 0.938520
O O17 0.001174 0.894700 0.717885
#
# Coordination Sequence:
#
# PCOD9217833 Si02
#       8
#     8   8   8   8   8   8   8   2
#     4  12  28  45  69 101 145 194 246 297 362 429
#     4  12  26  44  67  99 141 194 241 293 346 440
#     4  10  23  46  70  95 128 176 232 292 360 432
#     4  11  24  43  64 101 138 188 231 289 356 423
#     4  11  25  42  76  99 141 181 237 299 363 438
#     4  12  24  42  64 100 139 180 227 300 357 432
#     4  11  25  42  67  98 139 180 239 286 363 427
#     4  12  20  48  70 114 130 184 244 300 370 440
#
# _framework density 21.810597999999999
#
# number of rings (size 3 to 8) (size 9 to 14) (size 15 to 20)
#    0.000    0.690    4.828    2.069    7.724    0.000 
#    1.241    0.000    0.000    4.966    0.000    0.000 
#    0.000    0.000    0.000    0.000    0.000    0.000 
#
# Total GULP energy -161845.923207 kJ/mol
# GULP energy per Si atom -5580.893904 kJ/mol
# Density = 2.176096 g / cm^3
# Si number density = 21.810598 Si / 1000 Ang^3
#
#
#
# Elastic Constant Matrix: (Units=GPa)
#
#
# Indices 1 2 3 4 5 6 
#
# 1 172.2919 5.0982 47.3361 0.0000 3.1596 0.0000
# 2 5.0982 57.0078 23.2349 0.0000 2.2565 0.0000
# 3 47.3361 23.2349 80.9407 0.0000 10.2372 0.0000
# 4 0.0000 0.0000 0.0000 14.6977 0.0000 -0.6814
# 5 3.1596 2.2565 10.2372 0.0000 58.7856 0.0000
# 6 0.0000 0.0000 0.0000 -0.6814 0.0000 20.6314
#
#
#
# Elastic Compliance Matrix: (Units=1/GPa)
#
#
# Indices 1 2 3 4 5 6 
#
# 1 0.006992 0.001184 -0.004474 0.000000 0.000358 0.000000
# 2 0.001184 0.020069 -0.006491 0.000000 0.000296 0.000000
# 3 -0.004474 -0.006491 0.017150 0.000000 -0.002497 0.000000
# 4 0.000000 0.000000 0.000000 0.068142 0.000000 0.002251
# 5 0.000358 0.000296 -0.002497 0.000000 0.017415 0.000000
# 6 0.000000 0.000000 0.000000 0.002251 0.000000 0.048544
#
#
# Mechanical properties :
#
#
# Convention : Reuss Voigt Hill
#
# Bulk Modulus (GPa) = 40.56898 51.28652 45.92775
# Shear Modulus (GPa) = 24.26103 34.46103 29.36103
#
# Velocity S-wave (km/s) = 3.33881 3.97925 3.67302
# Velocity P-wave (km/s) = 5.78831 6.68417 6.25230
#
# Compressibility (1/GPa) = 0.02464937
#
# Stress axis : x y z
#
# Youngs Moduli (GPa) = 143.02609 49.82697 58.30749
#
# Poissons Ratio (x) = -0.05900 0.26087
# Poissons Ratio (y) = -0.16936 0.37848
# Poissons Ratio (z) = 0.63991 0.32343
#
# Static dielectric constant tensor:
#      x y z
#    x 1.816950 0.000000 -0.017920 
#    y 0.000000 1.777490 0.000000 
#    z -0.017920 0.000000 1.853670 
# 
# From -- ./inp_files/160941.got.cif
#   From: 2010.05.17/outbox.cif.g08.bks.cpg/sg12_81_cif.got.tgz:160941.got - 2010.06.03 13:09:07.
