data_PCOD9217799
_publ_section_title
;
Structure prediction by ZEFSAII (Michael W. Deem and Ramdas Pophale) SiO2 
 PCOD9217799
Probable space group: C 2/M
;
_chemical_formula_sum "Si O2"
_cell_formula_units_Z 48
_cell_length_a 10.723046
_cell_length_b 24.442311
_cell_length_c 7.259557
_cell_angle_alpha 90.000000
_cell_angle_beta 82.832651
_cell_angle_gamma 90.000000
_cell_volume 1887.833259
_symmetry_space_group_name_H-M "C 2/M"
_symmetry_group_IT_number 12
_symmetry_cell_setting 'monoclinic'
loop_
_space_group_symop_operation_xyz
x,y,z
-x,y,-z
-x,-y,-z
x,-y,z
1/2+x,1/2+y,z
1/2-x,1/2+y,-z
1/2-x,1/2-y,-z
1/2+x,1/2-y,z
loop_
_atom_site_type_symbol
_atom_site_label
_atom_site_fract_x
_atom_site_fract_y
_atom_site_fract_z
Si Si1 0.795478 0.937395 0.865597
Si Si2 0.592456 0.819606 0.628008
Si Si3 0.924139 0.412414 0.847891
Si Si4 0.218928 0.422824 0.468431
Si Si5 0.136108 0.767827 0.888417
Si Si6 0.043065 0.875224 0.697493
O O1 0.727718 0.942358 0.676708
O O2 0.921146 0.902687 0.811559
O O3 0.815626 0.000000 0.926276
O O4 0.707403 0.904210 0.022505
O O5 0.500000 0.792932 0.500000
O O6 0.506902 0.859928 0.772317
O O7 0.685216 0.859263 0.503226
O O8 0.662795 0.773266 0.718613
O O9 0.884262 0.440653 0.662820
O O10 0.000000 0.440911 0.000000
O O11 0.356688 0.423813 0.357238
O O12 0.106285 0.827540 0.807587
O O13 0.250000 0.750000 0.000000
O O14 0.000000 0.752387 0.000000
O O15 0.000000 0.855889 0.500000
#
# Coordination Sequence:
#
# PCOD9217799 Si02
#       6
#     8   8   8   8   8   8
#     4  11  26  49  78 108 146 197 258 321 384 450
#     4  10  23  45  71 106 152 204 249 309 384 462
#     4  11  23  42  75 107 150 196 246 316 380 456
#     4  10  24  43  75 103 150 195 249 316 374 459
#     4  12  30  42  74 117 154 203 256 318 377 468
#     4  10  26  48  72 104 153 201 251 314 378 459
#
# _framework density 25.425974
#
# number of rings (size 3 to 8) (size 9 to 14) (size 15 to 20)
#    0.000    1.333    1.667    1.000   14.000    4.667 
#    0.000    1.667    0.000    0.000    0.000    0.000 
#    0.000    0.000    0.000    0.000    0.000    0.000 
#
# Total GULP energy -134046.059193 kJ/mol
# GULP energy per Si atom -5585.252466 kJ/mol
# Density = 2.536810 g / cm^3
# Si number density = 25.425974 Si / 1000 Ang^3
#
#
#
# Elastic Constant Matrix: (Units=GPa)
#
#
# Indices 1 2 3 4 5 6 
#
# 1 132.0313 30.8072 68.1136 0.0000 5.3355 0.0000
# 2 30.8072 80.4169 23.4683 0.0000 28.0222 0.0000
# 3 68.1136 23.4683 121.1861 0.0000 27.1764 0.0000
# 4 0.0000 0.0000 0.0000 -13.2230 0.0000 -28.6595
# 5 5.3355 28.0222 27.1764 0.0000 79.9495 0.0000
# 6 0.0000 0.0000 0.0000 -28.6595 0.0000 14.8282
#
#
#
# Elastic Compliance Matrix: (Units=1/GPa)
#
#
# Indices 1 2 3 4 5 6 
#
# 1 0.011601 -0.003484 -0.006437 0.000000 0.002635 0.000000
# 2 -0.003484 0.015569 0.000124 0.000000 -0.005267 0.000000
# 3 -0.006437 0.000124 0.012729 0.000000 -0.003941 0.000000
# 4 0.000000 0.000000 0.000000 -0.014574 0.000000 -0.028168
# 5 0.002635 -0.005267 -0.003941 0.000000 0.015518 0.000000
# 6 0.000000 0.000000 0.000000 -0.028168 0.000000 0.012996
#
#
# Mechanical properties :
#
#
# Convention : Reuss Voigt Hill
#
# Bulk Modulus (GPa) = 49.24564 64.26806 56.75685
# Shear Modulus (GPa) = 62.34381 30.39395 46.36888
#
# Velocity S-wave (km/s) = 4.95711 3.46119 4.27509
# Velocity P-wave (km/s) = 7.22317 6.42686 6.83662
#
# Compressibility (1/GPa) = 0.02030637
#
# Stress axis : x y z
#
# Youngs Moduli (GPa) = 86.19952 64.23089 78.55943
#
# Poissons Ratio (x) = 0.22378 0.50566
# Poissons Ratio (y) = 0.30032 -0.00976
# Poissons Ratio (z) = 0.55483 -0.00798
#
# Static dielectric constant tensor:
#      x y z
#    x 1.960910 0.000000 0.057100 
#    y 0.000000 1.972200 0.000000 
#    z 0.057100 0.000000 2.066410 
# 
# From -- ./inp_files/52002.got.cif
#   From: 2010.05.17/outbox.cif.g08.bks.cpg/sg12_27_cif.got.tgz:52002.got - 2010.06.03 13:09:07.
