data_PCOD9217769
_publ_section_title
;
Structure prediction by ZEFSAII (Michael W. Deem and Ramdas Pophale) SiO2 
 PCOD9217769
Probable space group: C 2/M
;
_chemical_formula_sum "Si O2"
_cell_formula_units_Z 48
_cell_length_a 20.182502
_cell_length_b 9.832972
_cell_length_c 30.805275
_cell_angle_alpha 90.000000
_cell_angle_beta 25.253778
_cell_angle_gamma 90.000000
_cell_volume 2608.162439
_symmetry_space_group_name_H-M "C 2/M"
_symmetry_group_IT_number 12
_symmetry_cell_setting 'monoclinic'
loop_
_space_group_symop_operation_xyz
x,y,z
-x,y,-z
-x,-y,-z
x,-y,z
1/2+x,1/2+y,z
1/2-x,1/2+y,-z
1/2-x,1/2-y,-z
1/2+x,1/2-y,z
loop_
_atom_site_type_symbol
_atom_site_label
_atom_site_fract_x
_atom_site_fract_y
_atom_site_fract_z
Si Si1 0.792726 0.331195 0.430701
Si Si2 0.377084 0.757664 0.804895
Si Si3 0.658642 0.841384 0.432652
Si Si4 0.849041 0.500000 0.058214
Si Si5 0.023665 0.500000 0.115089
Si Si6 0.133797 0.000000 0.048905
Si Si7 0.344769 0.500000 0.065935
Si Si8 0.041163 0.760843 0.798956
O O1 0.786470 0.500000 0.436435
O O2 0.750000 0.250000 0.500000
O O3 0.685624 0.266913 0.455544
O O4 0.966041 0.279147 0.315398
O O5 0.271542 0.624102 0.864701
O O6 0.434184 0.775242 0.820798
O O7 0.259334 0.872791 0.861339
O O8 0.500000 0.821168 0.500000
O O9 0.801936 0.819646 0.314652
O O10 0.663176 0.000000 0.445532
O O11 0.925987 0.500000 0.964712
O O12 0.000000 0.500000 0.000000
O O13 0.933354 0.631846 0.185455
O O14 0.187887 0.500000 0.042783
O O15 0.050765 0.129548 0.118753
O O16 0.120050 0.000000 0.005817
O O17 0.500000 0.500000 0.000000
#
# Coordination Sequence:
#
# PCOD9217769 Si02
#       8
#     8   8   8   4   4   4   4   8
#     4  11  25  45  72  99 126 173 225 272 330 402
#     4  11  22  42  66  91 126 167 216 265 319 389
#     4  10  23  45  68  97 135 166 212 280 340 387
#     4  12  26  42  61  94 136 174 211 262 332 378
#     4  12  22  38  63  92 128 162 217 260 300 394
#     4  12  20  38  63  90 120 162 217 248 304 382
#     4  12  24  40  59  92 132 168 205 264 322 376
#     4  11  21  38  66  95 117 168 214 259 313 377
#
# _framework density 18.403762
#
# number of rings (size 3 to 8) (size 9 to 14) (size 15 to 20)
#    0.000    0.833    5.000    2.500    8.167    0.333 
#    6.000    0.000    0.000    0.000    0.000    0.000 
#    0.000    0.000    0.000    0.000    0.000    0.000 
#
# Total GULP energy -133904.025976 kJ/mol
# GULP energy per Si atom -5579.334416 kJ/mol
# Density = 1.836187 g / cm^3
# Si number density = 18.403762 Si / 1000 Ang^3
#
#
#
# Elastic Constant Matrix: (Units=GPa)
#
#
# Indices 1 2 3 4 5 6 
#
# 1 118.5394 36.5947 66.0723 -0.0006 -1.1186 -0.0003
# 2 36.5947 142.0677 41.0372 -0.0003 5.1768 -0.0001
# 3 66.0723 41.0372 83.3591 -0.0013 -1.7063 -0.0007
# 4 -0.0006 -0.0003 -0.0013 33.4079 -0.0002 2.2738
# 5 -1.1186 5.1768 -1.7063 -0.0002 40.4397 0.0000
# 6 -0.0003 -0.0001 -0.0007 2.2738 0.0000 33.5344
#
#
#
# Elastic Compliance Matrix: (Units=1/GPa)
#
#
# Indices 1 2 3 4 5 6 
#
# 1 0.015144 -0.000505 -0.011755 0.000000 -0.000012 0.000000
# 2 -0.000505 0.008283 -0.003703 0.000000 -0.001231 0.000000
# 3 -0.011755 -0.003703 0.023160 0.000001 0.001126 0.000000
# 4 0.000000 0.000000 0.000001 0.030072 0.000000 -0.002039
# 5 -0.000012 -0.001231 0.001126 0.000000 0.024933 0.000000
# 6 0.000000 0.000000 0.000000 -0.002039 0.000000 0.029958
#
#
# Mechanical properties :
#
#
# Convention : Reuss Voigt Hill
#
# Bulk Modulus (GPa) = 68.20731 70.15272 69.18001
# Shear Modulus (GPa) = 29.69777 34.82719 32.26248
#
# Velocity S-wave (km/s) = 4.02142 4.35489 4.19147
# Velocity P-wave (km/s) = 7.66189 7.96795 7.81641
#
# Compressibility (1/GPa) = 0.01466119
#
# Stress axis : x y z
#
# Youngs Moduli (GPa) = 66.03322 120.72351 43.17858
#
# Poissons Ratio (x) = 0.06095 0.50757
# Poissons Ratio (y) = 0.03334 0.15989
# Poissons Ratio (z) = 0.77623 0.44703
#
# Static dielectric constant tensor:
#      x y z
#    x 1.612630 0.000000 0.014450 
#    y 0.000000 1.556340 0.000000 
#    z 0.014450 0.000000 1.613640 
# 
# From -- ./inp_files/377950.got.cif
#   From: 2010.05.17/outbox.cif.g08.bks.cpg/sg12_189_cif.got.tgz:377950.got - 2010.06.03 13:09:07.
