data_PCOD9217565
_publ_section_title
;
Structure prediction by ZEFSAII (Michael W. Deem and Ramdas Pophale) SiO2 
 PCOD9217565
Probable space group: C 2/M
;
_chemical_formula_sum "Si O2"
_cell_formula_units_Z 64
_cell_length_a 26.468708
_cell_length_b 18.806176
_cell_length_c 15.514187
_cell_angle_alpha 90.000000
_cell_angle_beta 153.710925
_cell_angle_gamma 90.000000
_cell_volume 3420.331340
_symmetry_space_group_name_H-M "C 2/M"
_symmetry_group_IT_number 12
_symmetry_cell_setting 'monoclinic'
loop_
_space_group_symop_operation_xyz
x,y,z
-x,y,-z
-x,-y,-z
x,-y,z
1/2+x,1/2+y,z
1/2-x,1/2+y,-z
1/2-x,1/2-y,-z
1/2+x,1/2-y,z
loop_
_atom_site_type_symbol
_atom_site_label
_atom_site_fract_x
_atom_site_fract_y
_atom_site_fract_z
Si Si1 0.787362 0.699572 0.299897
Si Si2 0.490621 0.084360 0.882356
Si Si3 0.191648 0.323481 0.939979
Si Si4 0.134916 0.420572 0.693354
Si Si5 0.159365 0.712139 0.422470
Si Si6 0.441075 0.723257 0.161075
Si Si7 0.444282 0.663151 0.509142
Si Si8 0.734416 0.082921 0.165264
O O1 0.835155 0.623253 0.345529
O O2 0.782085 0.702610 0.394552
O O3 0.874502 0.761820 0.402717
O O4 0.668689 0.711423 0.066948
O O5 0.397675 0.139374 0.701738
O O6 0.465702 0.000000 0.827441
O O7 0.500000 0.093471 0.000000
O O8 0.616202 0.099877 0.033541
O O9 0.176995 0.372236 0.835814
O O10 0.077604 0.295965 0.812768
O O11 0.250000 0.250000 0.000000
O O12 0.247417 0.370460 0.099185
O O13 0.182453 0.500000 0.766773
O O14 0.000000 0.424841 0.500000
O O15 0.250000 0.750000 0.500000
O O16 0.053029 0.765320 0.276145
O O17 0.464055 0.667371 0.273122
O O18 0.500000 0.653109 0.500000
O O19 0.349613 0.604855 0.390058
O O20 0.731871 0.000000 0.141117
#
# Coordination Sequence:
#
# PCOD9217565 Si02
#       8
#     8   8   8   8   8   8   8   8
#     4  11  22  41  59  89 123 168 211 252 317 369
#     4  10  23  43  69  94 124 162 205 261 328 381
#     4  12  20  37  62  88 124 165 208 253 301 362
#     4  11  23  36  57  91 128 164 207 251 303 371
#     4  11  25  38  66  96 124 155 205 276 316 375
#     4  11  22  37  62  89 123 166 208 253 310 367
#     4  11  22  36  59  90 124 167 211 252 298 365
#     4  11  23  40  62  91 127 166 210 262 310 370
#
# _framework density 18.711638000000001
#
# number of rings (size 3 to 8) (size 9 to 14) (size 15 to 20)
#    0.000    1.000    3.750    3.750    5.250    0.750 
#    0.000    0.625    0.000    0.750    0.000    1.750 
#    0.000    0.000    0.000    0.000    0.000    0.000 
#
# Total GULP energy -178561.400252 kJ/mol
# GULP energy per Si atom -5580.043758 kJ/mol
# Density = 1.866905 g / cm^3
# Si number density = 18.711638 Si / 1000 Ang^3
#
#
#
# Elastic Constant Matrix: (Units=GPa)
#
#
# Indices 1 2 3 4 5 6 
#
# 1 134.4515 60.3336 59.4401 0.0000 3.8095 0.0000
# 2 60.3336 111.3412 39.9831 0.0000 1.0116 0.0000
# 3 59.4401 39.9831 123.6188 0.0000 -5.1945 0.0000
# 4 0.0000 0.0000 0.0000 15.0680 0.0000 16.4432
# 5 3.8095 1.0116 -5.1945 0.0000 34.5388 0.0000
# 6 0.0000 0.0000 0.0000 16.4432 0.0000 12.3191
#
#
#
# Elastic Compliance Matrix: (Units=1/GPa)
#
#
# Indices 1 2 3 4 5 6 
#
# 1 0.011375 -0.004704 -0.004020 0.000000 -0.001721 0.000000
# 2 -0.004704 0.012129 -0.001665 0.000000 -0.000087 0.000000
# 3 -0.004020 -0.001665 0.010649 0.000000 0.002094 0.000000
# 4 0.000000 0.000000 0.000000 -0.145350 0.000000 0.194009
# 5 -0.001721 -0.000087 0.002094 0.000000 0.029460 0.000000
# 6 0.000000 0.000000 0.000000 0.194009 0.000000 -0.177783
#
#
# Mechanical properties :
#
#
# Convention : Reuss Voigt Hill
#
# Bulk Modulus (GPa) = 74.77002 76.54721 75.65862
# Shear Modulus (GPa) = -21.34168 26.36215 2.51023
#
# Velocity S-wave (km/s) = -3.38088 3.75756 1.15950
# Velocity P-wave (km/s) = 4.98050 7.73455 6.50495
#
# Compressibility (1/GPa) = 0.01337434
#
# Stress axis : x y z
#
# Youngs Moduli (GPa) = 87.91423 82.44546 93.90769
#
# Poissons Ratio (x) = 0.38786 0.37752
# Poissons Ratio (y) = 0.41359 0.15632
# Poissons Ratio (z) = 0.35342 0.13724
#
# Static dielectric constant tensor:
#      x y z
#    x 1.540400 0.000000 -0.082190 
#    y 0.000000 1.664040 0.000000 
#    z -0.082190 0.000000 1.702250 
# 
# From -- ./inp_files/241538.got.cif
#   From: 2010.05.17/outbox.cif.g08.bks.cpg/sg12_121_cif.got.tgz:241538.got - 2010.06.03 13:09:07.
