data_PCOD9217093
_publ_section_title
;
Structure prediction by ZEFSAII (Michael W. Deem and Ramdas Pophale) SiO2 
 PCOD9217093
Probable space group: C 2/M
;
_chemical_formula_sum "Si O2"
_cell_formula_units_Z 60
_cell_length_a 26.382417
_cell_length_b 15.003904
_cell_length_c 14.282489
_cell_angle_alpha 90.000000
_cell_angle_beta 30.847152
_cell_angle_gamma 90.000000
_cell_volume 2898.865515
_symmetry_space_group_name_H-M "C 2/M"
_symmetry_group_IT_number 12
_symmetry_cell_setting 'monoclinic'
loop_
_space_group_symop_operation_xyz
x,y,z
-x,y,-z
-x,-y,-z
x,-y,z
1/2+x,1/2+y,z
1/2-x,1/2+y,-z
1/2-x,1/2-y,-z
1/2+x,1/2-y,z
loop_
_atom_site_type_symbol
_atom_site_label
_atom_site_fract_x
_atom_site_fract_y
_atom_site_fract_z
Si Si1 0.082173 0.217915 0.594159
Si Si2 0.789743 0.393694 0.936367
Si Si3 0.059689 0.898699 0.308490
Si Si4 0.776018 0.000000 0.315126
Si Si5 0.098200 0.601087 0.886877
Si Si6 0.607903 0.796994 0.054930
Si Si7 0.229367 0.659466 0.242633
Si Si8 0.778395 0.853939 0.474743
O O1 0.004232 0.163047 0.656654
O O2 0.160018 0.268732 0.404975
O O3 0.135410 0.155483 0.585135
O O4 0.010441 0.288702 0.758382
O O5 0.801645 0.500000 0.929853
O O6 0.673935 0.371064 0.139642
O O7 0.855146 0.341291 0.907800
O O8 0.812396 0.368177 0.793024
O O9 0.000000 0.899575 0.500000
O O10 0.063241 0.000000 0.265422
O O11 0.745198 0.922682 0.286393
O O12 0.802043 0.919060 0.351022
O O13 0.072084 0.500000 0.953044
O O14 0.182266 0.604852 0.676177
O O15 0.136863 0.645069 0.919535
O O16 0.000000 0.645558 0.000000
O O17 0.665139 0.704825 0.947156
O O18 0.750000 0.750000 0.500000
#
# Coordination Sequence:
#
# PCOD9217093 Si02
#       8
#     8   8   8   4   8   8   8   8
#     4  12  26  42  73 103 142 183 247 292 364 438
#     4  11  24  47  73 104 149 191 242 296 367 435
#     4  10  23  41  68 102 140 185 237 297 360 425
#     4  12  26  48  76  99 146 194 237 307 369 423
#     4  11  24  42  70 101 139 181 235 301 359 418
#     4  12  25  45  72 105 141 190 241 293 359 440
#     4  12  25  46  71 102 147 189 233 300 363 426
#     4  12  24  46  69 104 138 188 240 299 362 428
#
# _framework density 20.697752000000001
#
# number of rings (size 3 to 8) (size 9 to 14) (size 15 to 20)
#    0.000    0.533    5.333    2.400    2.800    0.000 
#    1.200    1.333    0.000    0.000    0.000    0.000 
#    0.000    0.000    0.000    0.000    0.000    0.000 
#
# Total GULP energy -167113.582545 kJ/mol
# GULP energy per Si atom -5570.452751 kJ/mol
# Density = 2.065064 g / cm^3
# Si number density = 20.697752 Si / 1000 Ang^3
#
#
#
# Elastic Constant Matrix: (Units=GPa)
#
#
# Indices 1 2 3 4 5 6 
#
# 1 123.5822 47.2243 25.2745 0.0000 0.5656 0.0000
# 2 47.2243 87.7936 7.6605 0.0000 2.9382 0.0000
# 3 25.2745 7.6605 78.4963 0.0000 -8.2920 0.0000
# 4 0.0000 0.0000 0.0000 18.2477 0.0000 16.4347
# 5 0.5656 2.9382 -8.2920 0.0000 24.8065 0.0000
# 6 0.0000 0.0000 0.0000 16.4347 0.0000 38.7286
#
#
#
# Elastic Compliance Matrix: (Units=1/GPa)
#
#
# Indices 1 2 3 4 5 6 
#
# 1 0.010827 -0.005542 -0.003008 0.000000 -0.000596 0.000000
# 2 -0.005542 0.014402 0.000220 0.000000 -0.001506 0.000000
# 3 -0.003008 0.000220 0.014192 0.000000 0.004787 0.000000
# 4 0.000000 0.000000 0.000000 0.088703 0.000000 -0.037642
# 5 -0.000596 -0.001506 0.004787 0.000000 0.042104 0.000000
# 6 0.000000 0.000000 0.000000 -0.037642 0.000000 0.041794
#
#
# Mechanical properties :
#
#
# Convention : Reuss Voigt Hill
#
# Bulk Modulus (GPa) = 43.93398 50.02120 46.97759
# Shear Modulus (GPa) = 21.16212 30.33740 25.74976
#
# Velocity S-wave (km/s) = 3.20102 3.83264 3.53099
# Velocity P-wave (km/s) = 5.91055 6.61857 6.27455
#
# Compressibility (1/GPa) = 0.02276142
#
# Stress axis : x y z
#
# Youngs Moduli (GPa) = 92.35836 69.43266 70.46070
#
# Poissons Ratio (x) = 0.38477 0.21197
# Poissons Ratio (y) = 0.51182 -0.01548
# Poissons Ratio (z) = 0.27785 -0.01525
#
# Static dielectric constant tensor:
#      x y z
#    x 1.742930 0.000000 0.008390 
#    y 0.000000 1.777790 0.000000 
#    z 0.008390 0.000000 1.774910 
# 
# From -- ./inp_files/246705.got.cif
#   From: 2010.05.17/outbox.cif.g08.bks.cpg/sg12_124_cif.got.tgz:246705.got - 2010.06.03 13:09:07.
