data_PCOD9217710
_publ_section_title
;
Structure prediction by ZEFSAII (Michael W. Deem and Ramdas Pophale) SiO2 
 PCOD9217710
Probable space group: C 2/M
;
_chemical_formula_sum "Si O2"
_cell_formula_units_Z 64
_cell_length_a 9.281567
_cell_length_b 25.385260
_cell_length_c 12.716824
_cell_angle_alpha 90.000000
_cell_angle_beta 94.025663
_cell_angle_gamma 90.000000
_cell_volume 2988.881689
_symmetry_space_group_name_H-M "C 2/M"
_symmetry_group_IT_number 12
_symmetry_cell_setting 'monoclinic'
loop_
_space_group_symop_operation_xyz
x,y,z
-x,y,-z
-x,-y,-z
x,-y,z
1/2+x,1/2+y,z
1/2-x,1/2+y,-z
1/2-x,1/2-y,-z
1/2+x,1/2-y,z
loop_
_atom_site_type_symbol
_atom_site_label
_atom_site_fract_x
_atom_site_fract_y
_atom_site_fract_z
Si Si1 0.384077 0.061106 0.221684
Si Si2 0.916045 0.846295 0.106859
Si Si3 0.792732 0.737632 0.341153
Si Si4 0.924595 0.057980 0.879680
Si Si5 0.418491 0.866369 0.892659
Si Si6 0.327246 0.663591 0.480650
Si Si7 0.973500 0.742637 0.794352
Si Si8 0.668776 0.061017 0.538372
O O1 0.247351 0.066928 0.135346
O O2 0.517432 0.097817 0.197090
O O3 0.324515 0.071753 0.335737
O O4 0.429587 0.000000 0.221374
O O5 0.751688 0.865085 0.095390
O O6 0.001726 0.892421 0.171748
O O7 0.929022 0.789744 0.159118
O O8 0.000000 0.840340 0.000000
O O9 0.738456 0.697932 0.426893
O O10 0.792940 0.798263 0.380397
O O11 0.681803 0.733395 0.239415
O O12 0.952984 0.724409 0.310829
O O13 0.949945 0.000000 0.834049
O O14 0.000000 0.056400 0.000000
O O15 0.463584 0.806511 0.869887
O O16 0.500000 0.885535 0.000000
O O17 0.500000 0.660256 0.500000
O O18 0.256969 0.605915 0.481531
O O19 0.500000 0.064664 0.500000
O O20 0.714562 0.000000 0.521945
#
# Coordination Sequence:
#
# PCOD9217710 Si02
#       8
#     8   8   8   8   8   8   8   8
#     4  10  23  44  69  97 128 171 220 266 326 389
#     4  11  25  40  60  90 127 167 211 263 324 382
#     4  11  25  42  63  97 126 168 214 270 320 385
#     4   9  19  38  64  91 123 162 207 262 318 375
#     4  12  26  40  64  95 127 174 218 268 325 381
#     4  11  24  41  66  97 132 164 214 265 327 386
#     4  12  25  42  64  90 129 168 218 261 322 384
#     4  10  24  44  69  99 133 173 214 267 329 389
#
# _framework density 21.412690999999999
#
# number of rings (size 3 to 8) (size 9 to 14) (size 15 to 20)
#    0.000    1.250    2.500    2.625    8.750    2.000 
#    0.000    0.000    0.000    5.250    0.000    0.000 
#    0.000    0.000    0.000    0.000    0.000    0.000 
#
# Total GULP energy -178682.606192 kJ/mol
# GULP energy per Si atom -5583.831443 kJ/mol
# Density = 2.136395 g / cm^3
# Si number density = 21.412691 Si / 1000 Ang^3
#
#
#
# Elastic Constant Matrix: (Units=GPa)
#
#
# Indices 1 2 3 4 5 6 
#
# 1 113.8114 42.9956 10.8099 0.0000 -7.0465 0.0000
# 2 42.9956 92.8239 10.2527 0.0000 -18.8300 0.0000
# 3 10.8099 10.2527 35.4616 0.0000 -1.9133 0.0000
# 4 0.0000 0.0000 0.0000 17.3998 0.0000 13.3774
# 5 -7.0465 -18.8300 -1.9133 0.0000 28.8413 0.0000
# 6 0.0000 0.0000 0.0000 13.3774 0.0000 -9.2165
#
#
#
# Elastic Compliance Matrix: (Units=1/GPa)
#
#
# Indices 1 2 3 4 5 6 
#
# 1 0.010785 -0.004930 -0.001901 0.000000 -0.000710 0.000000
# 2 -0.004930 0.015035 -0.002388 0.000000 0.008453 0.000000
# 3 -0.001901 -0.002388 0.029466 0.000000 -0.000069 0.000000
# 4 0.000000 0.000000 0.000000 0.027162 0.000000 0.039424
# 5 -0.000710 0.008453 -0.000069 0.000000 0.040014 0.000000
# 6 0.000000 0.000000 0.000000 0.039424 0.000000 -0.051278
#
#
# Mechanical properties :
#
#
# Convention : Reuss Voigt Hill
#
# Bulk Modulus (GPa) = 27.13779 41.13479 34.13629
# Shear Modulus (GPa) = 49.06602 19.27417 34.17009
#
# Velocity S-wave (km/s) = 4.79210 3.00347 3.99906
# Velocity P-wave (km/s) = 6.58180 5.59285 6.10738
#
# Compressibility (1/GPa) = 0.03684898
#
# Stress axis : x y z
#
# Youngs Moduli (GPa) = 92.71767 66.51094 33.93779
#
# Poissons Ratio (x) = 0.32788 0.06451
# Poissons Ratio (y) = 0.45708 0.08105
# Poissons Ratio (z) = 0.17623 0.15884
#
# Static dielectric constant tensor:
#      x y z
#    x 1.767630 0.000000 -0.003620 
#    y 0.000000 1.796410 0.000000 
#    z -0.003620 0.000000 1.838900 
# 
# From -- ./inp_files/198905.got.cif
#   From: 2010.05.17/outbox.cif.g08.bks.cpg/sg12_100_cif.got.tgz:198905.got - 2010.06.03 13:09:07.
