data_PCOD9217786
_publ_section_title
;
Structure prediction by ZEFSAII (Michael W. Deem and Ramdas Pophale) SiO2 
 PCOD9217786
Probable space group: C 2/M
;
_chemical_formula_sum "Si O2"
_cell_formula_units_Z 48
_cell_length_a 26.097214
_cell_length_b 12.896180
_cell_length_c 13.950638
_cell_angle_alpha 90.000000
_cell_angle_beta 147.127319
_cell_angle_gamma 90.000000
_cell_volume 2548.404598
_symmetry_space_group_name_H-M "C 2/M"
_symmetry_group_IT_number 12
_symmetry_cell_setting 'monoclinic'
loop_
_space_group_symop_operation_xyz
x,y,z
-x,y,-z
-x,-y,-z
x,-y,z
1/2+x,1/2+y,z
1/2-x,1/2+y,-z
1/2-x,1/2-y,-z
1/2+x,1/2-y,z
loop_
_atom_site_type_symbol
_atom_site_label
_atom_site_fract_x
_atom_site_fract_y
_atom_site_fract_z
Si Si1 0.032181 0.121317 0.440667
Si Si2 0.396025 0.500000 0.962517
Si Si3 0.254729 0.123873 0.784323
Si Si4 0.474961 0.112909 0.849147
Si Si5 0.881280 0.000000 0.718397
Si Si6 0.770168 0.647177 0.586509
Si Si7 0.093080 0.220079 0.918947
O O1 0.143154 0.148980 0.610214
O O2 0.000000 0.129050 0.500000
O O3 0.963249 0.187708 0.265053
O O4 0.024113 0.000000 0.397960
O O5 0.508707 0.500000 0.124258
O O6 0.375882 0.610322 0.982852
O O7 0.356132 0.500000 0.791502
O O8 0.290057 0.144271 0.730778
O O9 0.264096 0.000000 0.820198
O O10 0.317418 0.201586 0.947369
O O11 0.361842 0.107150 0.674379
O O12 0.518582 0.211111 0.863689
O O13 0.511521 0.000000 0.871564
O O14 0.500000 0.123250 0.000000
O O15 0.829415 0.908053 0.583803
O O16 0.750000 0.750000 0.500000
#
# Coordination Sequence:
#
# PCOD9217786 Si02
#       7
#     8   4   8   8   4   8   8
#     4  10  23  45  70  94 120 159 213 273 331 385
#     4  11  24  36  51  90 123 160 211 260 314 357
#     4  11  22  40  65  94 124 165 216 255 314 382
#     4  11  22  37  55  87 126 167 206 242 290 363
#     4  11  22  34  49  76 122 168 204 252 289 353
#     4  12  21  35  56  83 121 167 211 245 290 359
#     4  12  23  39  65  91 129 164 212 267 311 377
#
# _framework density 18.835314
#
# number of rings (size 3 to 8) (size 9 to 14) (size 15 to 20)
#    0.000    0.833    4.167    4.500    2.333    0.667 
#    0.000    0.000    1.833    2.000    0.000    0.000 
#    0.000    0.000    0.000    0.000    0.000    0.000 
#
# Total GULP energy -133793.076919 kJ/mol
# GULP energy per Si atom -5574.711538 kJ/mol
# Density = 1.879244 g / cm^3
# Si number density = 18.835314 Si / 1000 Ang^3
#
#
#
# Elastic Constant Matrix: (Units=GPa)
#
#
# Indices 1 2 3 4 5 6 
#
# 1 48.4970 26.1010 27.8620 0.0000 -1.3751 0.0000
# 2 26.1010 130.4536 49.3123 0.0000 -8.6627 0.0000
# 3 27.8620 49.3123 126.6700 0.0000 -2.1617 0.0000
# 4 0.0000 0.0000 0.0000 48.1276 0.0000 -2.7278
# 5 -1.3751 -8.6627 -2.1617 0.0000 21.8253 0.0000
# 6 0.0000 0.0000 0.0000 -2.7278 0.0000 26.4898
#
#
#
# Elastic Compliance Matrix: (Units=1/GPa)
#
#
# Indices 1 2 3 4 5 6 
#
# 1 0.024829 -0.003419 -0.004134 0.000000 -0.000202 0.000000
# 2 -0.003419 0.009692 -0.002964 0.000000 0.003338 0.000000
# 3 -0.004134 -0.002964 0.009950 0.000000 -0.000451 0.000000
# 4 0.000000 0.000000 0.000000 0.020900 0.000000 0.002152
# 5 -0.000202 0.003338 -0.000451 0.000000 0.047086 0.000000
# 6 0.000000 0.000000 0.000000 0.002152 0.000000 0.037972
#
#
# Mechanical properties :
#
#
# Convention : Reuss Voigt Hill
#
# Bulk Modulus (GPa) = 42.66653 56.90791 49.78722
# Shear Modulus (GPa) = 27.89030 32.77822 30.33426
#
# Velocity S-wave (km/s) = 3.85222 4.17616 4.01746
# Velocity P-wave (km/s) = 6.51826 7.31661 6.92894
#
# Compressibility (1/GPa) = 0.02343758
#
# Stress axis : x y z
#
# Youngs Moduli (GPa) = 40.27565 103.18216 100.50253
#
# Poissons Ratio (x) = 0.35273 0.41547
# Poissons Ratio (y) = 0.13768 0.29789
# Poissons Ratio (z) = 0.16650 0.30583
#
# Static dielectric constant tensor:
#      x y z
#    x 1.647380 0.000000 0.025900 
#    y 0.000000 1.646770 0.000000 
#    z 0.025900 0.000000 1.658930 
# 
# From -- ./inp_files/246037.got.cif
#   From: 2010.05.17/outbox.cif.g08.bks.cpg/sg12_124_cif.got.tgz:246037.got - 2010.06.03 13:09:07.
