data_PCOD9217683
_publ_section_title
;
Structure prediction by ZEFSAII (Michael W. Deem and Ramdas Pophale) SiO2 
 PCOD9217683
Probable space group: C 2/M
;
_chemical_formula_sum "Si O2"
_cell_formula_units_Z 48
_cell_length_a 14.923053
_cell_length_b 17.067300
_cell_length_c 18.251823
_cell_angle_alpha 90.000000
_cell_angle_beta 155.102862
_cell_angle_gamma 90.000000
_cell_volume 1957.046086
_symmetry_space_group_name_H-M "C 2/M"
_symmetry_group_IT_number 12
_symmetry_cell_setting 'monoclinic'
loop_
_space_group_symop_operation_xyz
x,y,z
-x,y,-z
-x,-y,-z
x,-y,z
1/2+x,1/2+y,z
1/2-x,1/2+y,-z
1/2-x,1/2-y,-z
1/2+x,1/2-y,z
loop_
_atom_site_type_symbol
_atom_site_label
_atom_site_fract_x
_atom_site_fract_y
_atom_site_fract_z
Si Si1 0.552089 0.413941 0.124699
Si Si2 0.491237 0.587910 0.292373
Si Si3 0.303436 0.086938 0.798683
Si Si4 0.300505 0.841631 0.041066
Si Si5 0.192569 0.260577 0.696723
Si Si6 0.096367 0.676542 0.387541
O O1 0.644839 0.500000 0.209736
O O2 0.684734 0.336627 0.241608
O O3 0.500000 0.411891 0.000000
O O4 0.337337 0.398613 0.008984
O O5 0.467778 0.500000 0.249951
O O6 0.424008 0.591157 0.327759
O O7 0.734261 0.612716 0.457975
O O8 0.297893 0.632799 0.109545
O O9 0.323656 0.178953 0.789913
O O10 0.305029 0.000000 0.759657
O O11 0.500000 0.078479 0.000000
O O12 0.520994 0.845349 0.249796
O O13 0.250000 0.750000 0.000000
O O14 0.000000 0.245915 0.500000
O O15 0.097505 0.293038 0.704273
O O16 0.250000 0.750000 0.500000
#
# Coordination Sequence:
#
# PCOD9217683 Si02
#       6
#     8   8   8   8   8   8
#     4  11  25  45  67  98 137 179 232 285 337 410
#     4  11  25  44  68 100 138 176 225 290 349 411
#     4  10  23  44  68  97 134 176 228 287 343 407
#     4  12  24  42  73  99 135 182 231 283 345 417
#     4  12  25  40  71  98 134 182 226 278 350 414
#     4  12  24  43  65 103 135 177 229 282 345 415
#
# _framework density 24.526759999999999
#
# number of rings (size 3 to 8) (size 9 to 14) (size 15 to 20)
#    0.000    0.667    5.000    2.000    2.333    2.667 
#    0.000    0.000    0.000    0.000    0.000    0.000 
#    0.000    0.000    0.000    0.000    0.000    0.000 
#
# Total GULP energy -133675.183020 kJ/mol
# GULP energy per Si atom -5569.799293 kJ/mol
# Density = 2.447094 g / cm^3
# Si number density = 24.526760 Si / 1000 Ang^3
#
#
#
# Elastic Constant Matrix: (Units=GPa)
#
#
# Indices 1 2 3 4 5 6 
#
# 1 57.1999 -2.8770 -8.1232 -0.0032 0.3332 0.0028
# 2 -2.8770 235.0810 60.6382 -0.0413 -0.8588 -0.0144
# 3 -8.1232 60.6382 118.1546 -0.0623 -5.8969 -0.0218
# 4 -0.0032 -0.0413 -0.0623 31.2560 -0.0177 8.3533
# 5 0.3332 -0.8588 -5.8969 -0.0177 23.0267 0.0004
# 6 0.0028 -0.0144 -0.0218 8.3533 0.0004 14.2402
#
#
#
# Elastic Compliance Matrix: (Units=1/GPa)
#
#
# Indices 1 2 3 4 5 6 
#
# 1 0.017658 -0.000113 0.001275 0.000006 0.000067 -0.000005
# 2 -0.000113 0.004909 -0.002550 0.000001 -0.000468 0.000001
# 3 0.001275 -0.002550 0.009982 0.000017 0.002443 0.000002
# 4 0.000006 0.000001 0.000017 0.037942 0.000034 -0.022257
# 5 0.000067 -0.000468 0.002443 0.000034 0.044035 -0.000018
# 6 -0.000005 0.000001 0.000002 -0.022257 -0.000018 0.083279
#
#
# Mechanical properties :
#
#
# Convention : Reuss Voigt Hill
#
# Bulk Modulus (GPa) = 33.58797 56.63461 45.11129
# Shear Modulus (GPa) = 23.75250 37.75778 30.75514
#
# Velocity S-wave (km/s) = 3.11534 3.92784 3.54495
# Velocity P-wave (km/s) = 5.16378 6.61148 5.93196
#
# Compressibility (1/GPa) = 0.02977256
#
# Stress axis : x y z
#
# Youngs Moduli (GPa) = 56.63295 203.72444 100.18148
#
# Poissons Ratio (x) = 0.02293 -0.12774
# Poissons Ratio (y) = 0.00637 0.25549
# Poissons Ratio (z) = -0.07221 0.51955
#
# Static dielectric constant tensor:
#      x y z
#    x 2.185830 -0.000670 0.026100 
#    y -0.000670 5.057040 -0.007400 
#    z 0.026100 -0.007400 1.879080 
# 
# From -- ./inp_files/285456.got.cif
#   From: 2010.05.17/outbox.cif.g08.bks.cpg/sg12_143_cif.got.tgz:285456.got - 2010.06.03 13:09:07.
