data_PCOD9217494
_publ_section_title
;
Structure prediction by ZEFSAII (Michael W. Deem and Ramdas Pophale) SiO2 
 PCOD9217494
Probable space group: C 2/M
;
_chemical_formula_sum "Si O2"
_cell_formula_units_Z 42
_cell_length_a 11.521622
_cell_length_b 14.372854
_cell_length_c 11.590913
_cell_angle_alpha 90.000000
_cell_angle_beta 92.914705
_cell_angle_gamma 90.000000
_cell_volume 1916.955757
_symmetry_space_group_name_H-M "C 2/M"
_symmetry_group_IT_number 12
_symmetry_cell_setting 'monoclinic'
loop_
_space_group_symop_operation_xyz
x,y,z
-x,y,-z
-x,-y,-z
x,-y,z
1/2+x,1/2+y,z
1/2-x,1/2+y,-z
1/2-x,1/2-y,-z
1/2+x,1/2-y,z
loop_
_atom_site_type_symbol
_atom_site_label
_atom_site_fract_x
_atom_site_fract_y
_atom_site_fract_z
Si Si1 0.620979 0.362599 0.951886
Si Si2 0.730845 0.608540 0.563718
Si Si3 0.522122 0.602540 0.709956
Si Si4 0.000000 0.500000 0.000000
Si Si5 0.846348 0.348480 0.098611
Si Si6 0.708212 0.295049 0.318292
O O1 0.613725 0.392922 0.819088
O O2 0.624313 0.250835 0.955952
O O3 0.500000 0.395198 0.000000
O O4 0.736653 0.392288 0.023610
O O5 0.765297 0.500000 0.577743
O O6 0.596941 0.615571 0.599023
O O7 0.738510 0.645010 0.433667
O O8 0.792197 0.686822 0.645479
O O9 0.467552 0.500000 0.704836
O O10 0.421197 0.675924 0.725633
O O11 0.951369 0.418518 0.086723
O O12 0.798462 0.322470 0.222950
#
# Coordination Sequence:
#
# PCOD9217494 Si02
#       6
#     8   8   8   2   8   8
#     4  11  22  43  68  97 139 177 234 286 349 411
#     4  10  23  43  67 101 136 181 237 286 345 418
#     4  11  23  40  68 104 131 172 230 293 351 405
#     4  12  28  44  66 104 142 188 234 274 354 436
#     4  11  25  42  66 101 141 187 224 287 351 420
#     4  11  22  41  71  98 141 182 228 292 352 409
#
# _framework density 21.909741
#
# number of rings (size 3 to 8) (size 9 to 14) (size 15 to 20)
#    0.000    1.143    4.762    1.143    4.000    1.905 
#    0.000    0.000    0.000   10.286    0.000    0.000 
#    0.000    0.000    0.000    0.000    0.000    0.000 
#
# Total GULP energy -117072.293616 kJ/mol
# GULP energy per Si atom -5574.871125 kJ/mol
# Density = 2.185987 g / cm^3
# Si number density = 21.909741 Si / 1000 Ang^3
#
#
#
# Elastic Constant Matrix: (Units=GPa)
#
#
# Indices 1 2 3 4 5 6 
#
# 1 28.9793 17.3506 32.3165 0.0000 -3.8998 0.0000
# 2 17.3506 164.9102 28.8600 0.0000 -1.4042 0.0000
# 3 32.3165 28.8600 114.9481 0.0000 -14.9528 0.0000
# 4 0.0000 0.0000 0.0000 16.7897 0.0000 -6.0410
# 5 -3.8998 -1.4042 -14.9528 0.0000 30.4237 0.0000
# 6 0.0000 0.0000 0.0000 -6.0410 0.0000 4.6222
#
#
#
# Elastic Compliance Matrix: (Units=1/GPa)
#
#
# Indices 1 2 3 4 5 6 
#
# 1 0.051675 -0.003023 -0.013808 0.000000 -0.000302 0.000000
# 2 -0.003023 0.006527 -0.000855 0.000000 -0.000506 0.000000
# 3 -0.013808 -0.000855 0.013419 0.000000 0.004786 0.000000
# 4 0.000000 0.000000 0.000000 0.112431 0.000000 0.146943
# 5 -0.000302 -0.000506 0.004786 0.000000 0.035159 0.000000
# 6 0.000000 0.000000 0.000000 0.146943 0.000000 0.408398
#
#
# Mechanical properties :
#
#
# Convention : Reuss Voigt Hill
#
# Bulk Modulus (GPa) = 27.58688 51.76577 39.67633
# Shear Modulus (GPa) = 7.40670 25.72114 16.56392
#
# Velocity S-wave (km/s) = 1.84062 3.43003 2.75254
# Velocity P-wave (km/s) = 4.13953 6.27414 5.31510
#
# Compressibility (1/GPa) = 0.03624911
#
# Stress axis : x y z
#
# Youngs Moduli (GPa) = 19.35168 153.20419 74.52238
#
# Poissons Ratio (x) = 0.46313 1.02903
# Poissons Ratio (y) = 0.05850 0.06370
# Poissons Ratio (z) = 0.26721 0.13096
#
# Static dielectric constant tensor:
#      x y z
#    x 1.826630 0.000000 0.026540 
#    y 0.000000 1.900750 0.000000 
#    z 0.026540 0.000000 1.815940 
# 
# From -- ./inp_files/129701.got.cif
#   From: 2010.05.17/outbox.cif.g08.bks.cpg/sg12_65_cif.got.tgz:129701.got - 2010.06.03 13:09:07.
