data_PCOD9217840
_publ_section_title
;
Structure prediction by ZEFSAII (Michael W. Deem and Ramdas Pophale) SiO2 
 PCOD9217840
Probable space group: C 2/M
;
_chemical_formula_sum "Si O2"
_cell_formula_units_Z 36
_cell_length_a 7.830660
_cell_length_b 22.181258
_cell_length_c 12.763866
_cell_angle_alpha 90.000000
_cell_angle_beta 40.673918
_cell_angle_gamma 90.000000
_cell_volume 1444.940497
_symmetry_space_group_name_H-M "C 2/M"
_symmetry_group_IT_number 12
_symmetry_cell_setting 'monoclinic'
loop_
_space_group_symop_operation_xyz
x,y,z
-x,y,-z
-x,-y,-z
x,-y,z
1/2+x,1/2+y,z
1/2-x,1/2+y,-z
1/2-x,1/2-y,-z
1/2+x,1/2-y,z
loop_
_atom_site_type_symbol
_atom_site_label
_atom_site_fract_x
_atom_site_fract_y
_atom_site_fract_z
Si Si1 0.000000 0.651049 0.000000
Si Si2 0.376330 0.845349 0.695817
Si Si3 0.465185 0.764693 0.184462
Si Si4 0.650395 0.431535 0.539426
Si Si5 0.079919 0.068506 0.122268
O O1 0.836376 0.609113 0.998476
O O2 0.833886 0.694267 0.154091
O O3 0.485199 0.807181 0.741655
O O4 0.625002 0.883186 0.542555
O O5 0.158448 0.896324 0.820426
O O6 0.212035 0.793574 0.711160
O O7 0.750000 0.750000 0.000000
O O8 0.500000 0.418884 0.500000
O O9 0.760434 0.500000 0.477770
O O10 0.477174 0.432421 0.725230
O O11 0.111543 0.000000 0.072373
#
# Coordination Sequence:
#
# PCOD9217840 Si02
#       5
#     4   8   8   8   8
#     4  12  23  44  68  96 137 184 222 284 336 408
#     4  12  23  43  71  97 132 184 223 277 344 401
#     4  12  23  42  68  94 134 179 224 278 339 398
#     4  10  23  46  72 101 138 178 223 283 341 398
#     4  11  24  43  69 101 137 177 226 281 340 403
#
# _framework density 24.914522000000002
#
# number of rings (size 3 to 8) (size 9 to 14) (size 15 to 20)
#    0.000    0.667    4.444    3.000    0.000    1.778 
#    0.000   20.000    0.000    0.000    0.000    0.000 
#    0.000    0.000    0.000    0.000    0.000    0.000 
#
# Total GULP energy -100699.632229 kJ/mol
# GULP energy per Si atom -5594.424013 kJ/mol
# Density = 2.485782 g / cm^3
# Si number density = 24.914522 Si / 1000 Ang^3
#
#
#
# Elastic Constant Matrix: (Units=GPa)
#
#
# Indices 1 2 3 4 5 6 
#
# 1 119.8170 55.3976 16.9768 0.0000 3.6344 0.0000
# 2 55.3976 196.9514 38.6883 0.0000 -18.3756 0.0000
# 3 16.9768 38.6883 52.1875 0.0000 -8.2247 0.0000
# 4 0.0000 0.0000 0.0000 39.8553 0.0000 -1.4705
# 5 3.6344 -18.3756 -8.2247 0.0000 29.5224 0.0000
# 6 0.0000 0.0000 0.0000 -1.4705 0.0000 44.2973
#
#
#
# Elastic Compliance Matrix: (Units=1/GPa)
#
#
# Indices 1 2 3 4 5 6 
#
# 1 0.009985 -0.002792 -0.001722 0.000000 -0.003447 0.000000
# 2 -0.002792 0.006918 -0.003648 0.000000 0.003634 0.000000
# 3 -0.001722 -0.003648 0.023117 0.000000 0.004381 0.000000
# 4 0.000000 0.000000 0.000000 0.025122 0.000000 0.000834
# 5 -0.003447 0.003634 0.004381 0.000000 0.037779 0.000000
# 6 0.000000 0.000000 0.000000 0.000834 0.000000 0.022602
#
#
# Mechanical properties :
#
#
# Convention : Reuss Voigt Hill
#
# Bulk Modulus (GPa) = 42.19920 65.67570 53.93745
# Shear Modulus (GPa) = 33.38994 39.92788 36.65891
#
# Velocity S-wave (km/s) = 3.66482 4.00758 3.84003
# Velocity P-wave (km/s) = 5.90612 6.91606 6.43095
#
# Compressibility (1/GPa) = 0.02369713
#
# Stress axis : x y z
#
# Youngs Moduli (GPa) = 100.14554 144.54387 43.25911
#
# Poissons Ratio (x) = 0.40357 0.07448
# Poissons Ratio (y) = 0.27961 0.15780
# Poissons Ratio (z) = 0.17242 0.52727
#
# Static dielectric constant tensor:
#      x y z
#    x 2.027800 0.000000 0.052910 
#    y 0.000000 1.971850 0.000000 
#    z 0.052910 0.000000 2.028990 
# 
# From -- ./inp_files/197449.got.cif
#   From: 2010.05.17/outbox.cif.g08.bks.cpg/sg12_99_cif.got.tgz:197449.got - 2010.06.03 13:09:07.
