data_PCOD9217524
_publ_section_title
;
Structure prediction by ZEFSAII (Michael W. Deem and Ramdas Pophale) SiO2 
 PCOD9217524
Probable space group: C 2/M
;
_chemical_formula_sum "Si O2"
_cell_formula_units_Z 40
_cell_length_a 19.679687
_cell_length_b 14.965473
_cell_length_c 13.469185
_cell_angle_alpha 90.000000
_cell_angle_beta 151.325046
_cell_angle_gamma 90.000000
_cell_volume 1903.471678
_symmetry_space_group_name_H-M "C 2/M"
_symmetry_group_IT_number 12
_symmetry_cell_setting 'monoclinic'
loop_
_space_group_symop_operation_xyz
x,y,z
-x,y,-z
-x,-y,-z
x,-y,z
1/2+x,1/2+y,z
1/2-x,1/2+y,-z
1/2-x,1/2-y,-z
1/2+x,1/2-y,z
loop_
_atom_site_type_symbol
_atom_site_label
_atom_site_fract_x
_atom_site_fract_y
_atom_site_fract_z
Si Si1 0.634385 0.819218 0.896610
Si Si2 0.641899 0.704617 0.438286
Si Si3 0.447419 0.607057 0.038027
Si Si4 0.646617 0.898968 0.716037
Si Si5 0.845893 0.392397 0.854441
O O1 0.478399 0.775999 0.686194
O O2 0.650323 0.899566 0.839284
O O3 0.750000 0.750000 0.000000
O O4 0.653665 0.851795 0.033874
O O5 0.750000 0.750000 0.500000
O O6 0.552716 0.633253 0.260064
O O7 0.728268 0.657445 0.636832
O O8 0.441058 0.500000 0.024922
O O9 0.500000 0.642497 0.000000
O O10 0.290237 0.642311 0.858534
O O11 0.500000 0.852607 0.500000
O O12 0.641904 0.000000 0.669412
O O13 0.821356 0.500000 0.826280
O O14 0.000000 0.378788 0.000000
#
# Coordination Sequence:
#
# PCOD9217524 Si02
#       5
#     8   8   8   8   8
#     4  12  26  44  69 102 139 175 225 287 347 401
#     4  12  26  42  71 101 136 176 232 284 342 405
#     4  10  23  43  67  96 133 175 222 274 334 407
#     4  10  23  43  67  97 134 175 219 271 339 411
#     4  11  26  49  72 101 142 191 237 282 347 425
#
# _framework density 21.014234999999999
#
# number of rings (size 3 to 8) (size 9 to 14) (size 15 to 20)
#    0.000    1.000    4.000    1.200    8.400    0.000 
#    0.000    1.000    0.000    0.000    0.000    0.000 
#    0.000    0.000    0.000    0.000    0.000    0.000 
#
# Total GULP energy -111711.619801 kJ/mol
# GULP energy per Si atom -5585.580990 kJ/mol
# Density = 2.096641 g / cm^3
# Si number density = 21.014235 Si / 1000 Ang^3
#
#
#
# Elastic Constant Matrix: (Units=GPa)
#
#
# Indices 1 2 3 4 5 6 
#
# 1 183.8412 41.3134 97.6470 0.0000 6.3225 0.0000
# 2 41.3134 80.7944 42.7362 0.0000 5.8652 0.0000
# 3 97.6470 42.7362 183.3274 0.0000 4.4422 0.0000
# 4 0.0000 0.0000 0.0000 28.5618 0.0000 -9.1467
# 5 6.3225 5.8652 4.4422 0.0000 49.6859 0.0000
# 6 0.0000 0.0000 0.0000 -9.1467 0.0000 31.6641
#
#
#
# Elastic Compliance Matrix: (Units=1/GPa)
#
#
# Indices 1 2 3 4 5 6 
#
# 1 0.007885 -0.002036 -0.003715 0.000000 -0.000431 0.000000
# 2 -0.002036 0.014738 -0.002320 0.000000 -0.001273 0.000000
# 3 -0.003715 -0.002320 0.007973 0.000000 0.000034 0.000000
# 4 0.000000 0.000000 0.000000 0.038581 0.000000 0.011145
# 5 -0.000431 -0.001273 0.000034 0.000000 0.020329 0.000000
# 6 0.000000 0.000000 0.000000 0.011145 0.000000 0.034801
#
#
# Mechanical properties :
#
#
# Convention : Reuss Voigt Hill
#
# Bulk Modulus (GPa) = 69.18329 90.15067 79.66698
# Shear Modulus (GPa) = 34.41956 39.73348 37.07652
#
# Velocity S-wave (km/s) = 4.05151 4.35304 4.20498
# Velocity P-wave (km/s) = 7.40810 8.26185 7.84659
#
# Compressibility (1/GPa) = 0.01445436
#
# Stress axis : x y z
#
# Youngs Moduli (GPa) = 126.82547 67.85255 125.41577
#
# Poissons Ratio (x) = 0.13812 0.46589
# Poissons Ratio (y) = 0.25817 0.29103
# Poissons Ratio (z) = 0.47113 0.15745
#
# Static dielectric constant tensor:
#      x y z
#    x 1.748070 0.000000 0.008870 
#    y 0.000000 1.644200 0.000000 
#    z 0.008870 0.000000 1.752930 
# 
# From -- ./inp_files/47151.got.cif
#   From: 2010.05.17/outbox.cif.g08.bks.cpg/sg12_24_cif.got.tgz:47151.got - 2010.06.03 13:09:07.
