data_PCOD9217084
_publ_section_title
;
Structure prediction by ZEFSAII (Michael W. Deem and Ramdas Pophale) SiO2 
 PCOD9217084
Probable space group: C 2/M
;
_chemical_formula_sum "Si O2"
_cell_formula_units_Z 40
_cell_length_a 9.375233
_cell_length_b 22.479634
_cell_length_c 14.603198
_cell_angle_alpha 90.000000
_cell_angle_beta 33.342140
_cell_angle_gamma 90.000000
_cell_volume 1691.591712
_symmetry_space_group_name_H-M "C 2/M"
_symmetry_group_IT_number 12
_symmetry_cell_setting 'monoclinic'
loop_
_space_group_symop_operation_xyz
x,y,z
-x,y,-z
-x,-y,-z
x,-y,z
1/2+x,1/2+y,z
1/2-x,1/2+y,-z
1/2-x,1/2-y,-z
1/2+x,1/2-y,z
loop_
_atom_site_type_symbol
_atom_site_label
_atom_site_fract_x
_atom_site_fract_y
_atom_site_fract_z
Si Si1 0.372119 0.434688 0.443972
Si Si2 0.981175 0.568387 0.118905
Si Si3 0.212164 0.771453 0.122651
Si Si4 0.789566 0.870788 0.316358
Si Si5 0.585991 0.140337 0.236192
O O1 0.278726 0.500000 0.523128
O O2 0.673431 0.428864 0.304687
O O3 0.342621 0.428077 0.350163
O O4 0.194617 0.383700 0.581799
O O5 0.068602 0.500000 0.086073
O O6 0.117763 0.612982 0.117254
O O7 0.000000 0.580520 0.000000
O O8 0.000630 0.822971 0.235597
O O9 0.114901 0.711459 0.224517
O O10 0.500000 0.788872 0.000000
O O11 0.250000 0.750000 0.000000
O O12 0.500000 0.849544 0.500000
O O13 0.777958 0.881582 0.213967
#
# Coordination Sequence:
#
# PCOD9217084 Si02
#       5
#     8   8   8   8   8
#     4  10  23  44  72 106 146 190 237 294 362 437
#     4  10  23  41  67 105 146 189 240 298 365 431
#     4  12  27  47  71 104 147 191 241 301 363 426
#     4  10  25  45  70 107 144 186 242 292 359 431
#     4  11  24  42  71  99 138 187 241 291 357 426
#
# _framework density 23.646367000000001
#
# number of rings (size 3 to 8) (size 9 to 14) (size 15 to 20)
#    0.000    1.400    2.000    1.200    5.600   10.800 
#    0.000    0.000    0.000    6.000    0.000    0.000 
#    0.000    0.000    0.000    0.000    0.000    0.000 
#
# Total GULP energy -111862.072186 kJ/mol
# GULP energy per Si atom -5593.103609 kJ/mol
# Density = 2.359255 g / cm^3
# Si number density = 23.646367 Si / 1000 Ang^3
#
#
#
# Elastic Constant Matrix: (Units=GPa)
#
#
# Indices 1 2 3 4 5 6 
#
# 1 175.9868 42.5256 43.4781 -0.0006 5.6918 -0.0004
# 2 42.5256 116.5168 51.1235 -0.0001 -14.2852 -0.0006
# 3 43.4781 51.1235 89.0003 -0.0092 -24.1345 -0.0009
# 4 -0.0006 -0.0001 -0.0092 32.0544 0.0032 4.7481
# 5 5.6918 -14.2852 -24.1345 0.0032 53.6493 0.0001
# 6 -0.0004 -0.0006 -0.0009 4.7481 0.0001 30.2017
#
#
#
# Elastic Compliance Matrix: (Units=1/GPa)
#
#
# Indices 1 2 3 4 5 6 
#
# 1 0.006913 -0.001405 -0.003269 -0.000001 -0.002578 0.000000
# 2 -0.001405 0.011760 -0.005899 -0.000002 0.000627 0.000000
# 3 -0.003269 -0.005899 0.018097 0.000004 0.006917 0.000000
# 4 -0.000001 -0.000002 0.000004 0.031941 0.000000 -0.005021
# 5 -0.002578 0.000627 0.006917 0.000000 0.022192 0.000000
# 6 0.000000 0.000000 0.000000 -0.005021 0.000000 0.033900
#
#
# Mechanical properties :
#
#
# Convention : Reuss Voigt Hill
#
# Bulk Modulus (GPa) = 64.00312 72.86203 68.43258
# Shear Modulus (GPa) = 33.07810 39.47287 36.27548
#
# Velocity S-wave (km/s) = 3.74420 4.09014 3.92099
# Velocity P-wave (km/s) = 6.76887 7.29286 7.03574
#
# Compressibility (1/GPa) = 0.01562424
#
# Stress axis : x y z
#
# Youngs Moduli (GPa) = 144.66108 85.03170 55.25642
#
# Poissons Ratio (x) = 0.11944 0.18065
# Poissons Ratio (y) = 0.20319 0.32597
# Poissons Ratio (z) = 0.47293 0.50162
#
# Static dielectric constant tensor:
#      x y z
#    x 1.920160 0.000000 0.062910 
#    y 0.000000 1.912450 0.000000 
#    z 0.062910 0.000000 1.951730 
# 
# From -- ./inp_files/198201.got.cif
#   From: 2010.05.17/outbox.cif.g08.bks.cpg/sg12_100_cif.got.tgz:198201.got - 2010.06.03 13:09:07.
