data_PCOD9217571
_publ_section_title
;
Structure prediction by ZEFSAII (Michael W. Deem and Ramdas Pophale) SiO2 
 PCOD9217571
Probable space group: C 2/M
;
_chemical_formula_sum "Si O2"
_cell_formula_units_Z 48
_cell_length_a 18.653938
_cell_length_b 13.931896
_cell_length_c 9.411000
_cell_angle_alpha 90.000000
_cell_angle_beta 99.847357
_cell_angle_gamma 90.000000
_cell_volume 2409.741235
_symmetry_space_group_name_H-M "C 2/M"
_symmetry_group_IT_number 12
_symmetry_cell_setting 'monoclinic'
loop_
_space_group_symop_operation_xyz
x,y,z
-x,y,-z
-x,-y,-z
x,-y,z
1/2+x,1/2+y,z
1/2-x,1/2+y,-z
1/2-x,1/2-y,-z
1/2+x,1/2-y,z
loop_
_atom_site_type_symbol
_atom_site_label
_atom_site_fract_x
_atom_site_fract_y
_atom_site_fract_z
Si Si1 0.159738 0.500000 0.441584
Si Si2 0.056363 0.300844 0.804813
Si Si3 0.823916 0.214451 0.950050
Si Si4 0.108881 0.299018 0.293694
Si Si5 0.132397 0.500000 0.770609
Si Si6 0.310031 0.500000 0.326391
Si Si7 0.580196 0.665005 0.547531
Si Si8 0.214509 0.000000 0.018939
O O1 0.123820 0.402723 0.367686
O O2 0.153115 0.500000 0.610319
O O3 0.241667 0.500000 0.408953
O O4 0.086071 0.407193 0.794240
O O5 0.067175 0.247148 0.659181
O O6 0.970682 0.300936 0.805801
O O7 0.107250 0.246499 0.933426
O O8 0.832101 0.267443 0.802278
O O9 0.750000 0.250000 0.000000
O O10 0.821811 0.099035 0.940642
O O11 0.105982 0.217626 0.413628
O O12 0.204670 0.500000 0.890270
O O13 0.360360 0.591589 0.375643
O O14 0.286052 0.500000 0.153214
O O15 0.500000 0.619338 0.500000
#
# Coordination Sequence:
#
# PCOD9217571 Si02
#       8
#     4   8   8   8   4   4   8   4
#     4  12  27  41  69 105 137 176 225 290 345 417
#     4  11  23  45  70  98 135 184 223 284 339 406
#     4  12  25  45  70  98 143 182 230 279 339 408
#     4  11  26  44  69 103 136 175 233 282 346 406
#     4  12  25  42  71 101 137 178 225 281 352 406
#     4  12  25  43  68  97 138 182 230 276 342 407
#     4  10  23  43  69  97 133 178 227 281 338 405
#     4  12  26  44  67 102 136 183 229 280 340 401
#
# _framework density 19.919150999999999
#
# number of rings (size 3 to 8) (size 9 to 14) (size 15 to 20)
#    0.000    0.667    5.000    2.250    2.333    1.333 
#    0.000    4.167    0.000    0.000    0.000    0.000 
#    0.000    0.000    0.000    0.000    0.000    0.000 
#
# Total GULP energy -134243.945958 kJ/mol
# GULP energy per Si atom -5593.497748 kJ/mol
# Density = 1.987381 g / cm^3
# Si number density = 19.919151 Si / 1000 Ang^3
#
#
#
# Elastic Constant Matrix: (Units=GPa)
#
#
# Indices 1 2 3 4 5 6 
#
# 1 112.4919 52.7578 47.8414 0.0000 -1.8777 0.0000
# 2 52.7578 139.8226 35.0388 0.0000 7.4957 0.0000
# 3 47.8414 35.0388 108.5676 0.0000 -2.5637 0.0000
# 4 0.0000 0.0000 0.0000 46.6778 0.0000 31.6563
# 5 -1.8777 7.4957 -2.5637 0.0000 32.9142 0.0000
# 6 0.0000 0.0000 0.0000 31.6563 0.0000 49.6507
#
#
#
# Elastic Compliance Matrix: (Units=1/GPa)
#
#
# Indices 1 2 3 4 5 6 
#
# 1 0.012459 -0.003697 -0.004268 0.000000 0.001220 0.000000
# 2 -0.003697 0.009008 -0.001334 0.000000 -0.002366 0.000000
# 3 -0.004268 -0.001334 0.011545 0.000000 0.000960 0.000000
# 4 0.000000 0.000000 0.000000 0.037744 0.000000 -0.024065
# 5 0.001220 -0.002366 0.000960 0.000000 0.031065 0.000000
# 6 0.000000 0.000000 0.000000 -0.024065 0.000000 0.035484
#
#
# Mechanical properties :
#
#
# Convention : Reuss Voigt Hill
#
# Bulk Modulus (GPa) = 69.37898 70.23980 69.80939
# Shear Modulus (GPa) = 31.11247 40.86483 35.98865
#
# Velocity S-wave (km/s) = 3.95642 4.53430 4.25518
# Velocity P-wave (km/s) = 7.46840 7.92163 7.69835
#
# Compressibility (1/GPa) = 0.01441359
#
# Stress axis : x y z
#
# Youngs Moduli (GPa) = 80.26398 111.01306 86.61835
#
# Poissons Ratio (x) = 0.41039 0.36971
# Poissons Ratio (y) = 0.29672 0.11555
# Poissons Ratio (z) = 0.34259 0.14810
#
# Static dielectric constant tensor:
#      x y z
#    x 1.698310 0.000000 0.004930 
#    y 0.000000 1.681420 0.000000 
#    z 0.004930 0.000000 1.695300 
# 
# From -- ./inp_files/73708.got.cif
#   From: 2010.05.17/outbox.cif.g08.bks.cpg/sg12_37_cif.got.tgz:73708.got - 2010.06.03 13:09:07.
