data_PCOD9217910
_publ_section_title
;
Structure prediction by ZEFSAII (Michael W. Deem and Ramdas Pophale) SiO2 
 PCOD9217910
Probable space group: C 2/M
;
_chemical_formula_sum "Si O2"
_cell_formula_units_Z 36
_cell_length_a 21.381735
_cell_length_b 9.084368
_cell_length_c 12.710035
_cell_angle_alpha 90.000000
_cell_angle_beta 40.319717
_cell_angle_gamma 90.000000
_cell_volume 1597.436941
_symmetry_space_group_name_H-M "C 2/M"
_symmetry_group_IT_number 12
_symmetry_cell_setting 'monoclinic'
loop_
_space_group_symop_operation_xyz
x,y,z
-x,y,-z
-x,-y,-z
x,-y,z
1/2+x,1/2+y,z
1/2-x,1/2+y,-z
1/2-x,1/2-y,-z
1/2+x,1/2-y,z
loop_
_atom_site_type_symbol
_atom_site_label
_atom_site_fract_x
_atom_site_fract_y
_atom_site_fract_z
Si Si1 0.391206 0.500000 0.435355
Si Si2 0.434301 0.000000 0.213662
Si Si3 0.285382 0.254153 0.700796
Si Si4 0.745716 0.500000 0.592889
Si Si5 0.298748 0.000000 0.829371
Si Si6 0.660174 0.000000 0.977503
Si Si7 0.928460 0.000000 0.929413
Si Si8 0.500000 0.742902 0.000000
O O1 0.358298 0.358602 0.543889
O O2 0.331452 0.500000 0.401823
O O3 0.502319 0.500000 0.260317
O O4 0.351973 0.000000 0.405417
O O5 0.426688 0.855228 0.151505
O O6 0.544751 0.000000 0.111130
O O7 0.211353 0.359745 0.857560
O O8 0.238743 0.142626 0.675618
O O9 0.334171 0.145722 0.723404
O O10 0.320431 0.000000 0.923606
O O11 0.182483 0.000000 0.961262
O O12 0.956406 0.860829 0.966047
#
# Coordination Sequence:
#
# PCOD9217910 Si02
#       8
#     4   4   8   4   4   4   4   4
#     4  11  24  39  61  93 135 165 202 254 325 385
#     4  11  24  39  65  90 130 160 218 248 323 364
#     4  10  24  41  62  94 126 165 215 253 316 374
#     4  11  24  39  61  93 135 165 202 254 325 385
#     4  11  24  44  67  91 124 169 221 262 300 367
#     4  11  24  44  67  91 124 169 221 262 300 367
#     4  11  24  39  65  90 130 160 218 248 323 364
#     4  10  24  36  64  96 120 164 208 264 304 378
#
# _framework density 22.536100999999999
#
# number of rings (size 3 to 8) (size 9 to 14) (size 15 to 20)
#    0.000    1.333    0.000    4.000   18.667    0.000 
#    0.000    6.667    0.000    0.000    0.000    0.000 
#    0.000    0.000    0.000    0.000    0.000    0.000 
#
# Total GULP energy -100868.899200 kJ/mol
# GULP energy per Si atom -5603.827733 kJ/mol
# Density = 2.248481 g / cm^3
# Si number density = 22.536101 Si / 1000 Ang^3
#
#
#
# Elastic Constant Matrix: (Units=GPa)
#
#
# Indices 1 2 3 4 5 6 
#
# 1 103.9044 42.7590 40.7197 -0.0002 34.2097 0.0000
# 2 42.7590 183.2320 56.2172 0.0007 26.6548 0.0002
# 3 40.7197 56.2172 138.4108 0.0001 26.8618 0.0000
# 4 -0.0002 0.0007 0.0001 -66.6672 0.0001 -27.8827
# 5 34.2097 26.6548 26.8618 0.0001 32.9344 0.0000
# 6 0.0000 0.0002 0.0000 -27.8827 0.0000 6.6761
#
#
#
# Elastic Compliance Matrix: (Units=1/GPa)
#
#
# Indices 1 2 3 4 5 6 
#
# 1 0.015124 -0.001126 -0.001331 0.000000 -0.013713 0.000000
# 2 -0.001126 0.006686 -0.001855 0.000000 -0.002729 0.000000
# 3 -0.001331 -0.001855 0.009279 0.000000 -0.004685 0.000000
# 4 0.000000 0.000000 0.000000 -0.005461 0.000000 -0.022808
# 5 -0.013713 -0.002729 -0.004685 0.000000 0.050637 0.000000
# 6 0.000000 0.000000 0.000000 -0.022808 0.000000 0.054533
#
#
# Mechanical properties :
#
#
# Convention : Reuss Voigt Hill
#
# Bulk Modulus (GPa) = 44.51218 78.32657 61.41937
# Shear Modulus (GPa) = 34.03450 13.64541 23.83995
#
# Velocity S-wave (km/s) = 3.89037 2.46334 3.25600
# Velocity P-wave (km/s) = 6.32253 6.55151 6.43804
#
# Compressibility (1/GPa) = 0.02246576
#
# Stress axis : x y z
#
# Youngs Moduli (GPa) = 66.11987 149.55658 107.77176
#
# Poissons Ratio (x) = 0.16844 0.14341
# Poissons Ratio (y) = 0.07447 0.19990
# Poissons Ratio (z) = 0.08798 0.27740
#
# Static dielectric constant tensor:
#      x y z
#    x 1.805000 0.000000 -0.001840 
#    y 0.000000 1.854620 0.000000 
#    z -0.001840 0.000000 1.820750 
# 
# From -- ./inp_files/244586.got.cif
#   From: 2010.05.17/outbox.cif.g08.bks.cpg/sg12_123_cif.got.tgz:244586.got - 2010.06.03 13:09:07.
