data_PCOD9217928
_publ_section_title
;
Structure prediction by ZEFSAII (Michael W. Deem and Ramdas Pophale) SiO2 
 PCOD9217928
Probable space group: C 2/M
;
_chemical_formula_sum "Si O2"
_cell_formula_units_Z 28
_cell_length_a 9.248283
_cell_length_b 15.001617
_cell_length_c 16.070127
_cell_angle_alpha 90.000000
_cell_angle_beta 141.885756
_cell_angle_gamma 90.000000
_cell_volume 1376.152519
_symmetry_space_group_name_H-M "C 2/M"
_symmetry_group_IT_number 12
_symmetry_cell_setting 'monoclinic'
loop_
_space_group_symop_operation_xyz
x,y,z
-x,y,-z
-x,-y,-z
x,-y,z
1/2+x,1/2+y,z
1/2-x,1/2+y,-z
1/2-x,1/2-y,-z
1/2+x,1/2-y,z
loop_
_atom_site_type_symbol
_atom_site_label
_atom_site_fract_x
_atom_site_fract_y
_atom_site_fract_z
Si Si1 0.499694 0.177032 0.323089
Si Si2 0.500000 0.268053 0.500000
Si Si3 0.786548 0.500000 0.967536
Si Si4 0.223047 0.500000 0.851276
Si Si5 0.265190 0.308777 0.089467
O O1 0.461900 0.206189 0.401350
O O2 0.774448 0.172888 0.423118
O O3 0.406659 0.257679 0.223666
O O4 0.361664 0.088230 0.234528
O O5 0.647618 0.408280 0.890916
O O6 0.888608 0.500000 0.106830
O O7 0.000000 0.500000 0.000000
O O8 0.500000 0.500000 0.000000
O O9 0.250000 0.250000 0.000000
O O10 0.000000 0.316566 0.000000
#
# Coordination Sequence:
#
# PCOD9217928 Si02
#       5
#     8   4   4   4   8
#     4  11  24  45  67  95 136 172 231 265 322 402
#     4  10  26  46  66  90 126 202 220 258 316 382
#     4  10  24  38  59 105 127 169 206 252 369 383
#     4  12  26  42  69 107 131 165 213 290 347 383
#     4  11  21  38  65  96 133 166 206 282 338 385
#
# _framework density 20.346581
#
# number of rings (size 3 to 8) (size 9 to 14) (size 15 to 20)
#    0.000    1.143    2.857    2.571    8.000    1.143 
#    0.000    5.714    0.000    0.000    0.000    0.000 
#    0.000    0.000    0.000    0.000    0.000    0.000 
#
# Total GULP energy -78223.557067 kJ/mol
# GULP energy per Si atom -5587.396933 kJ/mol
# Density = 2.030027 g / cm^3
# Si number density = 20.346581 Si / 1000 Ang^3
#
#
#
# Elastic Constant Matrix: (Units=GPa)
#
#
# Indices 1 2 3 4 5 6 
#
# 1 134.7025 40.2968 53.0417 0.0000 -18.0591 0.0000
# 2 40.2968 194.6623 73.4736 -0.0001 -18.2604 0.0000
# 3 53.0417 73.4736 117.7451 0.0000 -22.7834 0.0000
# 4 0.0000 -0.0001 0.0000 39.4221 0.0000 -1.9570
# 5 -18.0591 -18.2604 -22.7834 0.0000 56.3751 0.0000
# 6 0.0000 0.0000 0.0000 -1.9570 0.0000 15.7504
#
#
#
# Elastic Compliance Matrix: (Units=1/GPa)
#
#
# Indices 1 2 3 4 5 6 
#
# 1 0.009145 -0.000406 -0.003607 0.000000 0.001340 0.000000
# 2 -0.000406 0.006752 -0.003941 0.000000 0.000464 0.000000
# 3 -0.003607 -0.003941 0.013133 0.000000 0.002876 0.000000
# 4 0.000000 0.000000 0.000000 0.025524 0.000000 0.003171
# 5 0.001340 0.000464 0.002876 0.000000 0.019480 0.000000
# 6 0.000000 0.000000 0.000000 0.003171 0.000000 0.063885
#
#
# Mechanical properties :
#
#
# Convention : Reuss Voigt Hill
#
# Bulk Modulus (GPa) = 76.20014 86.74821 81.47418
# Shear Modulus (GPa) = 31.60534 40.99603 36.30068
#
# Velocity S-wave (km/s) = 3.94553 4.49362 4.22846
# Velocity P-wave (km/s) = 7.63470 8.34573 7.99812
#
# Compressibility (1/GPa) = 0.01312334
#
# Stress axis : x y z
#
# Youngs Moduli (GPa) = 109.34630 148.10339 76.14275
#
# Poissons Ratio (x) = 0.06012 0.27465
# Poissons Ratio (y) = 0.04439 0.30005
# Poissons Ratio (z) = 0.39442 0.58361
#
# Static dielectric constant tensor:
#      x y z
#    x 1.777230 0.000000 0.039330 
#    y 0.000000 1.752510 0.000000 
#    z 0.039330 0.000000 1.710890 
# 
# From -- ./inp_files/117338.got.cif
#   From: 2010.05.17/outbox.cif.g08.bks.cpg/sg12_59_cif.got.tgz:117338.got - 2010.06.03 13:09:07.
