data_PCOD9217111
_publ_section_title
;
Structure prediction by ZEFSAII (Michael W. Deem and Ramdas Pophale) SiO2 
 PCOD9217111
Probable space group: C 2/M
;
_chemical_formula_sum "Si O2"
_cell_formula_units_Z 60
_cell_length_a 9.414339
_cell_length_b 24.516567
_cell_length_c 12.031897
_cell_angle_alpha 90.000000
_cell_angle_beta 72.792950
_cell_angle_gamma 90.000000
_cell_volume 2652.754074
_symmetry_space_group_name_H-M "C 2/M"
_symmetry_group_IT_number 12
_symmetry_cell_setting 'monoclinic'
loop_
_space_group_symop_operation_xyz
x,y,z
-x,y,-z
-x,-y,-z
x,-y,z
1/2+x,1/2+y,z
1/2-x,1/2+y,-z
1/2-x,1/2-y,-z
1/2+x,1/2-y,z
loop_
_atom_site_type_symbol
_atom_site_label
_atom_site_fract_x
_atom_site_fract_y
_atom_site_fract_z
Si Si1 0.791720 0.000000 0.985321
Si Si2 0.333149 0.586977 0.172424
Si Si3 0.928153 0.790996 0.135710
Si Si4 0.506977 0.937495 0.319658
Si Si5 0.373681 0.907943 0.115741
Si Si6 0.282658 0.618974 0.568904
Si Si7 0.300741 0.696784 0.756847
Si Si8 0.019881 0.061762 0.646980
O O1 0.726493 0.047019 0.917360
O O2 0.168141 0.047240 0.930840
O O3 0.358023 0.649233 0.134578
O O4 0.462374 0.568732 0.226817
O O5 0.179268 0.578987 0.276416
O O6 0.801597 0.749306 0.203475
O O7 0.049600 0.794962 0.206723
O O8 0.000000 0.774404 0.000000
O O9 0.458248 0.933117 0.202165
O O10 0.389172 0.897346 0.405866
O O11 0.492211 0.000000 0.361853
O O12 0.285170 0.854285 0.169603
O O13 0.500000 0.891418 0.000000
O O14 0.311764 0.675978 0.625662
O O15 0.357994 0.574342 0.635500
O O16 0.375465 0.606665 0.436714
O O17 0.064537 0.000000 0.608041
#
# Coordination Sequence:
#
# PCOD9217111 Si02
#       8
#     4   8   8   8   8   8   8   8
#     4  12  21  40  61 100 144 182 213 278 335 408
#     4  12  24  39  66 100 143 174 227 285 343 396
#     4  12  27  47  68  99 135 183 229 287 339 406
#     4  11  20  36  62  99 133 178 226 267 329 407
#     4  11  20  36  64  96 135 180 222 263 333 412
#     4  10  23  41  70  95 131 178 228 280 336 421
#     4  11  26  45  70  95 130 178 239 282 342 403
#     4  11  21  44  69 102 140 181 218 280 356 413
#
# _framework density 22.618002000000001
#
# number of rings (size 3 to 8) (size 9 to 14) (size 15 to 20)
#    0.000    0.800    4.667    3.400    3.733    0.533 
#    0.000    5.000    0.000    0.000    0.000    0.000 
#    0.000    0.000    0.000    0.000    0.000    0.000 
#
# Total GULP energy -167377.464683 kJ/mol
# GULP energy per Si atom -5579.248823 kJ/mol
# Density = 2.256652 g / cm^3
# Si number density = 22.618002 Si / 1000 Ang^3
#
#
#
# Elastic Constant Matrix: (Units=GPa)
#
#
# Indices 1 2 3 4 5 6 
#
# 1 104.4861 32.3692 11.0449 0.0000 -0.6089 0.0000
# 2 32.3692 150.3766 15.6298 0.0000 3.8804 0.0000
# 3 11.0449 15.6298 44.0189 0.0000 1.9175 0.0000
# 4 0.0000 0.0000 0.0000 23.9252 0.0000 -19.4857
# 5 -0.6089 3.8804 1.9175 0.0000 42.8616 0.0000
# 6 0.0000 0.0000 0.0000 -19.4857 0.0000 156.2467
#
#
#
# Elastic Compliance Matrix: (Units=1/GPa)
#
#
# Indices 1 2 3 4 5 6 
#
# 1 0.010410 -0.002054 -0.001901 0.000000 0.000419 0.000000
# 2 -0.002054 0.007322 -0.002058 0.000000 -0.000600 0.000000
# 3 -0.001901 -0.002058 0.023965 0.000000 -0.000913 0.000000
# 4 0.000000 0.000000 0.000000 0.046522 0.000000 0.005802
# 5 0.000419 -0.000600 -0.000913 0.000000 0.023432 0.000000
# 6 0.000000 0.000000 0.000000 0.005802 0.000000 0.007124
#
#
# Mechanical properties :
#
#
# Convention : Reuss Voigt Hill
#
# Bulk Modulus (GPa) = 33.70353 46.32994 40.01673
# Shear Modulus (GPa) = 35.53875 60.59587 48.06731
#
# Velocity S-wave (km/s) = 3.96821 5.18162 4.61497
# Velocity P-wave (km/s) = 5.99409 7.50513 6.79176
#
# Compressibility (1/GPa) = 0.02967049
#
# Stress axis : x y z
#
# Youngs Moduli (GPa) = 96.05781 136.58356 41.72750
#
# Poissons Ratio (x) = 0.28056 0.07932
# Poissons Ratio (y) = 0.19731 0.08588
# Poissons Ratio (z) = 0.18261 0.28110
#
# Static dielectric constant tensor:
#      x y z
#    x 1.867720 0.000000 -0.051010 
#    y 0.000000 1.771030 0.000000 
#    z -0.051010 0.000000 1.922900 
# 
# From -- ./inp_files/198854.got.cif
#   From: 2010.05.17/outbox.cif.g08.bks.cpg/sg12_100_cif.got.tgz:198854.got - 2010.06.03 13:09:07.
