data_PCOD9217241
_publ_section_title
;
Structure prediction by ZEFSAII (Michael W. Deem and Ramdas Pophale) SiO2 
 PCOD9217241
Probable space group: C 2/M
;
_chemical_formula_sum "Si O2"
_cell_formula_units_Z 56
_cell_length_a 20.783547
_cell_length_b 18.938285
_cell_length_c 22.128260
_cell_angle_alpha 90.000000
_cell_angle_beta 159.853865
_cell_angle_gamma 90.000000
_cell_volume 2999.788138
_symmetry_space_group_name_H-M "C 2/M"
_symmetry_group_IT_number 12
_symmetry_cell_setting 'monoclinic'
loop_
_space_group_symop_operation_xyz
x,y,z
-x,y,-z
-x,-y,-z
x,-y,z
1/2+x,1/2+y,z
1/2-x,1/2+y,-z
1/2-x,1/2-y,-z
1/2+x,1/2-y,z
loop_
_atom_site_type_symbol
_atom_site_label
_atom_site_fract_x
_atom_site_fract_y
_atom_site_fract_z
Si Si1 0.034287 0.918381 0.290468
Si Si2 0.650617 0.418646 0.002122
Si Si3 0.949010 0.581603 0.703378
Si Si4 0.826318 0.676274 0.703300
Si Si5 0.211607 0.418164 0.212134
Si Si6 0.579455 0.323047 0.700896
Si Si7 0.076799 0.221179 0.000520
O O1 0.934673 0.865166 0.248627
O O2 0.256556 0.910230 0.496430
O O3 0.986908 0.000000 0.264832
O O4 0.968286 0.907468 0.164067
O O5 0.626880 0.500000 0.000237
O O6 0.592391 0.360884 0.999134
O O7 0.866535 0.407774 0.173371
O O8 0.954261 0.500000 0.730350
O O9 0.938152 0.635060 0.749722
O O10 0.786631 0.621055 0.722304
O O11 0.628378 0.699377 0.501233
O O12 0.941060 0.739811 0.833571
O O13 0.264643 0.500000 0.264435
O O14 0.342479 0.377189 0.280579
O O15 0.000000 0.414521 0.000000
O O16 0.723255 0.258945 0.829862
O O17 0.000000 0.233656 0.000000
#
# Coordination Sequence:
#
# PCOD9217241 Si02
#       7
#     8   8   8   8   8   8   8
#     4   9  19  36  59  89 120 149 189 233 275 339
#     4  10  23  42  65  82 105 147 189 245 311 351
#     4   9  19  36  59  89 120 149 189 233 275 339
#     4  11  21  36  58  85 120 161 191 225 281 337
#     4  11  21  33  53  84 123 166 204 230 258 317
#     4  11  21  36  58  85 120 161 191 225 281 337
#     4  12  25  42  57  83 116 146 196 249 288 341
#
# _framework density 18.667985000000002
#
# number of rings (size 3 to 8) (size 9 to 14) (size 15 to 20)
#    0.000    1.571    2.857    2.143    0.000    6.000 
#    0.000    2.857    0.000    0.000    0.000    6.000 
#    0.000    0.000    0.000    0.000    0.000    0.000 
#
# Total GULP energy -156489.073530 kJ/mol
# GULP energy per Si atom -5588.895483 kJ/mol
# Density = 1.862550 g / cm^3
# Si number density = 18.667985 Si / 1000 Ang^3
#
#
#
# Elastic Constant Matrix: (Units=GPa)
#
#
# Indices 1 2 3 4 5 6 
#
# 1 17.5036 25.9999 17.1313 -0.0041 3.0963 0.0236
# 2 25.9999 93.4338 35.0687 -0.0287 3.4634 -0.0187
# 3 17.1313 35.0687 72.0531 -0.0929 6.5087 -0.0347
# 4 -0.0041 -0.0287 -0.0929 -13.9288 -0.0650 -4.1533
# 5 3.0963 3.4634 6.5087 -0.0650 10.4005 0.0236
# 6 0.0236 -0.0187 -0.0347 -4.1533 0.0236 36.5091
#
#
#
# Elastic Compliance Matrix: (Units=1/GPa)
#
#
# Indices 1 2 3 4 5 6 
#
# 1 0.109623 -0.025290 -0.012261 0.000198 -0.016539 -0.000062
# 2 -0.025290 0.018931 -0.003510 -0.000029 0.003421 0.000017
# 3 -0.012261 -0.003510 0.019149 -0.000089 -0.007165 0.000019
# 4 0.000198 -0.000029 -0.000089 -0.069436 -0.000409 -0.007899
# 5 -0.016539 0.003421 -0.007165 -0.000409 0.104415 -0.000108
# 6 -0.000062 0.000017 0.000019 -0.007899 -0.000108 0.026492
#
#
# Mechanical properties :
#
#
# Convention : Reuss Voigt Hill
#
# Bulk Modulus (GPa) = 15.24823 37.71004 26.47913
# Shear Modulus (GPa) = 15.96651 13.58221 14.77436
#
# Velocity S-wave (km/s) = 2.92770 2.70027 2.81628
# Velocity P-wave (km/s) = 4.42882 5.47414 4.97899
#
# Compressibility (1/GPa) = 0.06558139
#
# Stress axis : x y z
#
# Youngs Moduli (GPa) = 9.12221 52.82421 52.22146
#
# Poissons Ratio (x) = 1.33591 0.64028
# Poissons Ratio (y) = 0.23070 0.18329
# Poissons Ratio (z) = 0.11185 0.18541
#
# Static dielectric constant tensor:
#      x y z
#    x 1.602760 -0.000010 0.003850 
#    y -0.000010 1.635010 -0.000020 
#    z 0.003850 -0.000020 1.659360 
# 
# From -- ./inp_files/286068.got.cif
#   From: 2010.05.17/outbox.cif.g08.bks.cpg/sg12_144_cif.got.tgz:286068.got - 2010.06.03 13:09:07.
