data_PCOD9217374
_publ_section_title
;
Structure prediction by ZEFSAII (Michael W. Deem and Ramdas Pophale) SiO2 
 PCOD9217374
Probable space group: C 2/M
;
_chemical_formula_sum "Si O2"
_cell_formula_units_Z 60
_cell_length_a 9.176753
_cell_length_b 17.742924
_cell_length_c 16.118098
_cell_angle_alpha 90.000000
_cell_angle_beta 69.576746
_cell_angle_gamma 90.000000
_cell_volume 2459.420035
_symmetry_space_group_name_H-M "C 2/M"
_symmetry_group_IT_number 12
_symmetry_cell_setting 'monoclinic'
loop_
_space_group_symop_operation_xyz
x,y,z
-x,y,-z
-x,-y,-z
x,-y,z
1/2+x,1/2+y,z
1/2-x,1/2+y,-z
1/2-x,1/2-y,-z
1/2+x,1/2-y,z
loop_
_atom_site_type_symbol
_atom_site_label
_atom_site_fract_x
_atom_site_fract_y
_atom_site_fract_z
Si Si1 0.820949 0.083829 0.349729
Si Si2 0.109778 0.080205 0.897665
Si Si3 0.828450 0.352062 0.117531
Si Si4 0.145962 0.416659 0.559586
Si Si5 0.339353 0.367946 0.672748
Si Si6 0.101133 0.299499 0.328100
Si Si7 0.832212 0.000000 0.886845
Si Si8 0.135362 0.708073 0.132630
O O1 0.732667 0.091923 0.455448
O O2 0.754731 0.149026 0.304512
O O3 0.000179 0.094496 0.333637
O O4 0.789443 0.000000 0.323488
O O5 0.227860 0.147579 0.881100
O O6 0.199729 0.000000 0.884665
O O7 0.976307 0.065045 0.855702
O O8 0.000000 0.082404 0.000000
O O9 0.768799 0.365242 0.224634
O O10 0.797347 0.432279 0.082344
O O11 0.720169 0.287184 0.098696
O O12 0.003508 0.320071 0.095593
O O13 0.071064 0.500000 0.575850
O O14 0.264355 0.412109 0.612167
O O15 0.027892 0.349192 0.600944
O O16 0.370930 0.281956 0.638936
O O17 0.060385 0.285472 0.239965
#
# Coordination Sequence:
#
# PCOD9217374 Si02
#       8
#     8   8   8   8   8   8   4   8
#     4  11  25  39  60  85 120 168 213 269 337 400
#     4   9  22  46  75 101 143 177 220 266 325 388
#     4  11  25  41  67 104 136 176 228 277 329 392
#     4  11  23  42  57  85 124 161 212 273 331 399
#     4  11  24  39  60  88 124 161 217 268 328 389
#     4  11  24  39  62  89 119 163 216 270 327 386
#     4  10  23  42  71 104 139 174 216 275 316 396
#     4  11  24  44  68  98 139 178 222 278 336 394
#
# _framework density 24.395994999999999
#
# number of rings (size 3 to 8) (size 9 to 14) (size 15 to 20)
#    0.400    0.933    1.333    3.200   10.267    6.400 
#    0.000    4.000    0.000    0.000    0.000    0.000 
#    0.000    0.000    0.000    0.000    0.000    0.000 
#
# Total GULP energy -167407.095897 kJ/mol
# GULP energy per Si atom -5580.236530 kJ/mol
# Density = 2.434047 g / cm^3
# Si number density = 24.395995 Si / 1000 Ang^3
#
#
#
# Elastic Constant Matrix: (Units=GPa)
#
#
# Indices 1 2 3 4 5 6 
#
# 1 146.1104 55.3693 15.8728 0.0000 2.3468 0.0000
# 2 55.3693 201.8302 16.5923 0.0000 -4.0867 0.0000
# 3 15.8728 16.5923 67.3534 0.0000 2.7849 0.0000
# 4 0.0000 0.0000 0.0000 13.1241 0.0000 -14.9388
# 5 2.3468 -4.0867 2.7849 0.0000 29.9889 0.0000
# 6 0.0000 0.0000 0.0000 -14.9388 0.0000 45.2648
#
#
#
# Elastic Compliance Matrix: (Units=1/GPa)
#
#
# Indices 1 2 3 4 5 6 
#
# 1 0.007771 -0.002041 -0.001297 0.000000 -0.000766 0.000000
# 2 -0.002041 0.005613 -0.000944 0.000000 0.001012 0.000000
# 3 -0.001297 -0.000944 0.015446 0.000000 -0.001461 0.000000
# 4 0.000000 0.000000 0.000000 0.122043 0.000000 0.040278
# 5 -0.000766 0.001012 -0.001461 0.000000 0.033679 0.000000
# 6 0.000000 0.000000 0.000000 0.040278 0.000000 0.035385
#
#
# Mechanical properties :
#
#
# Convention : Reuss Voigt Hill
#
# Bulk Modulus (GPa) = 49.34246 65.66250 57.50248
# Shear Modulus (GPa) = 21.25360 39.50621 30.37991
#
# Velocity S-wave (km/s) = 2.95480 4.02851 3.53268
# Velocity P-wave (km/s) = 5.64895 6.97225 6.34519
#
# Compressibility (1/GPa) = 0.02026652
#
# Stress axis : x y z
#
# Youngs Moduli (GPa) = 128.68946 178.17211 64.74351
#
# Poissons Ratio (x) = 0.36359 0.08397
# Poissons Ratio (y) = 0.26261 0.06109
# Poissons Ratio (z) = 0.16690 0.16812
#
# Static dielectric constant tensor:
#      x y z
#    x 1.938380 0.000000 0.018100 
#    y 0.000000 2.005540 0.000000 
#    z 0.018100 0.000000 2.000670 
# 
# From -- ./inp_files/300728.got.cif
#   From: 2010.05.17/outbox.cif.g08.bks.cpg/sg12_151_cif.got.tgz:300728.got - 2010.06.03 13:09:07.
