data_PCOD9217013
_publ_section_title
;
Structure prediction by ZEFSAII (Michael W. Deem and Ramdas Pophale) SiO2 
 PCOD9217013
Probable space group: C 2/M
;
_chemical_formula_sum "Si O2"
_cell_formula_units_Z 56
_cell_length_a 20.166489
_cell_length_b 21.147151
_cell_length_c 16.703495
_cell_angle_alpha 90.000000
_cell_angle_beta 156.828038
_cell_angle_gamma 90.000000
_cell_volume 2803.015540
_symmetry_space_group_name_H-M "C 2/M"
_symmetry_group_IT_number 12
_symmetry_cell_setting 'monoclinic'
loop_
_space_group_symop_operation_xyz
x,y,z
-x,y,-z
-x,-y,-z
x,-y,z
1/2+x,1/2+y,z
1/2-x,1/2+y,-z
1/2-x,1/2-y,-z
1/2+x,1/2-y,z
loop_
_atom_site_type_symbol
_atom_site_label
_atom_site_fract_x
_atom_site_fract_y
_atom_site_fract_z
Si Si1 0.173013 0.656652 0.651369
Si Si2 0.543956 0.719553 0.954465
Si Si3 0.378337 0.925124 0.552451
Si Si4 0.892600 0.858532 0.648476
Si Si5 0.755905 0.075963 0.020631
Si Si6 0.374735 0.299160 0.461806
Si Si7 0.249087 0.160436 0.836201
O O1 0.309128 0.667334 0.871437
O O2 0.204994 0.606077 0.618466
O O3 0.155869 0.726111 0.592293
O O4 0.000000 0.638881 0.500000
O O5 0.609212 0.786498 0.994505
O O6 0.500000 0.728669 0.000000
O O7 0.421292 0.689322 0.754021
O O8 0.575334 0.904680 0.780652
O O9 0.257216 0.904867 0.490929
O O10 0.379949 0.000000 0.547173
O O11 0.835444 0.819930 0.507118
O O12 0.072544 0.892476 0.825218
O O13 0.771566 0.000000 0.033736
O O14 0.735533 0.099913 0.090322
O O15 0.277120 0.343128 0.288775
O O16 0.572934 0.308661 0.668175
#
# Coordination Sequence:
#
# PCOD9217013 Si02
#       7
#     8   8   8   8   8   8   8
#     4  11  20  39  61  85 125 155 200 255 299 367
#     4  11  21  36  58  94 119 153 199 253 315 355
#     4  11  25  42  60  88 125 164 207 249 294 362
#     4  11  23  40  65  90 122 159 206 255 305 356
#     4  10  23  41  64  90 123 166 206 244 298 364
#     4   9  19  36  63  93 120 159 196 252 319 353
#     4   9  19  38  59  90 128 153 201 255 299 366
#
# _framework density 19.978483000000001
#
# number of rings (size 3 to 8) (size 9 to 14) (size 15 to 20)
#    0.000    1.714    4.286    1.286    2.000    4.286 
#    0.000    8.571    0.000    2.143    0.000    0.000 
#    0.000    0.000    0.000    0.000    0.000    0.000 
#
# Total GULP energy -156076.504811 kJ/mol
# GULP energy per Si atom -5574.160886 kJ/mol
# Density = 1.993301 g / cm^3
# Si number density = 19.978483 Si / 1000 Ang^3
#
#
#
# Elastic Constant Matrix: (Units=GPa)
#
#
# Indices 1 2 3 4 5 6 
#
# 1 97.1678 24.8264 16.0789 0.0000 -8.1106 0.0000
# 2 24.8264 46.1209 11.3980 0.0000 -9.3006 0.0000
# 3 16.0789 11.3980 39.9442 -0.0001 5.4561 0.0000
# 4 0.0000 0.0000 -0.0001 16.0912 0.0000 6.5710
# 5 -8.1106 -9.3006 5.4561 0.0000 30.1795 0.0000
# 6 0.0000 0.0000 0.0000 6.5710 0.0000 29.3812
#
#
#
# Elastic Compliance Matrix: (Units=1/GPa)
#
#
# Indices 1 2 3 4 5 6 
#
# 1 0.012479 -0.005278 -0.003848 0.000000 0.002423 0.000000
# 2 -0.005278 0.027963 -0.007011 0.000000 0.008467 0.000000
# 3 -0.003848 -0.007011 0.029756 0.000000 -0.008574 0.000000
# 4 0.000000 0.000000 0.000000 0.068392 0.000000 -0.015296
# 5 0.002423 0.008467 -0.008574 0.000000 0.037946 0.000000
# 6 0.000000 0.000000 0.000000 -0.015296 0.000000 0.037456
#
#
# Mechanical properties :
#
#
# Convention : Reuss Voigt Hill
#
# Bulk Modulus (GPa) = 26.36878 31.98216 29.17547
# Shear Modulus (GPa) = 19.31193 23.85902 21.58547
#
# Velocity S-wave (km/s) = 3.11245 3.45952 3.29056
# Velocity P-wave (km/s) = 5.11309 5.65692 5.39187
#
# Compressibility (1/GPa) = 0.03792363
#
# Stress axis : x y z
#
# Youngs Moduli (GPa) = 80.13495 35.76138 33.60690
#
# Poissons Ratio (x) = 0.18874 0.12933
# Poissons Ratio (y) = 0.42293 0.23563
# Poissons Ratio (z) = 0.30837 0.25073
#
# Static dielectric constant tensor:
#      x y z
#    x 1.757520 0.000000 0.032160 
#    y 0.000000 1.659880 0.000000 
#    z 0.032160 0.000000 1.788440 
# 
# From -- ./inp_files/227638.got.cif
#   From: 2010.05.17/outbox.cif.g08.bks.cpg/sg12_114_cif.got.tgz:227638.got - 2010.06.03 13:09:07.
