data_PCOD9217330
_publ_section_title
;
Structure prediction by ZEFSAII (Michael W. Deem and Ramdas Pophale) SiO2 
 PCOD9217330
Probable space group: C 2/M
;
_chemical_formula_sum "Si O2"
_cell_formula_units_Z 50
_cell_length_a 9.140283
_cell_length_b 27.799798
_cell_length_c 12.808121
_cell_angle_alpha 90.000000
_cell_angle_beta 132.587424
_cell_angle_gamma 90.000000
_cell_volume 2396.124830
_symmetry_space_group_name_H-M "C 2/M"
_symmetry_group_IT_number 12
_symmetry_cell_setting 'monoclinic'
loop_
_space_group_symop_operation_xyz
x,y,z
-x,y,-z
-x,-y,-z
x,-y,z
1/2+x,1/2+y,z
1/2-x,1/2+y,-z
1/2-x,1/2-y,-z
1/2+x,1/2-y,z
loop_
_atom_site_type_symbol
_atom_site_label
_atom_site_fract_x
_atom_site_fract_y
_atom_site_fract_z
Si Si1 0.772547 0.302102 0.853643
Si Si2 0.218607 0.412762 0.156000
Si Si3 0.143941 0.672879 0.475478
Si Si4 0.682396 0.926990 0.385320
Si Si5 0.414841 0.248543 0.719986
Si Si6 0.828204 0.500000 0.218642
Si Si7 0.000000 0.000000 0.500000
Si Si8 0.601434 0.500000 0.885323
O O1 0.707899 0.357754 0.815711
O O2 0.619459 0.273408 0.852055
O O3 0.781728 0.274757 0.746452
O O4 0.000000 0.301641 0.000000
O O5 0.189923 0.424913 0.263168
O O6 0.344924 0.452817 0.156328
O O7 0.000000 0.414199 0.000000
O O8 0.208987 0.624278 0.451128
O O9 0.305076 0.709096 0.602924
O O10 0.039833 0.704773 0.336126
O O11 0.000000 0.659736 0.500000
O O12 0.474317 0.954329 0.308939
O O13 0.871853 0.959106 0.501229
O O14 0.628540 0.500000 0.190925
O O15 0.742743 0.500000 0.057827
#
# Coordination Sequence:
#
# PCOD9217330 Si02
#       8
#     8   8   8   8   8   4   2   4
#     4  11  24  42  69 101 134 173 218 283 345 399
#     4  11  22  40  70 101 133 175 224 276 332 407
#     4  11  24  42  71  95 131 184 227 277 330 400
#     4  11  23  45  67  97 137 176 226 276 331 399
#     4  11  23  44  67  97 134 176 224 278 336 398
#     4  10  23  42  67  99 145 175 212 278 337 413
#     4  10  26  42  66 100 130 170 216 286 326 388
#     4  11  21  41  70 103 138 180 217 265 352 404
#
# _framework density 20.867027
#
# number of rings (size 3 to 8) (size 9 to 14) (size 15 to 20)
#    0.000    1.120    4.800    1.680    2.240    1.280 
#    2.880    0.800    0.000    0.000    0.000    0.000 
#    0.000    0.000    0.000    0.000    0.000    0.000 
#
# Total GULP energy -139337.513504 kJ/mol
# GULP energy per Si atom -5573.500540 kJ/mol
# Density = 2.081953 g / cm^3
# Si number density = 20.867027 Si / 1000 Ang^3
#
#
#
# Elastic Constant Matrix: (Units=GPa)
#
#
# Indices 1 2 3 4 5 6 
#
# 1 116.5510 86.9975 16.6859 0.0000 2.2954 0.0000
# 2 86.9975 196.2618 40.8776 0.0000 7.9838 0.0000
# 3 16.6859 40.8776 44.3300 0.0000 4.3729 0.0000
# 4 0.0000 0.0000 0.0000 27.0381 0.0000 -17.7753
# 5 2.2954 7.9838 4.3729 0.0000 31.0899 0.0000
# 6 0.0000 0.0000 0.0000 -17.7753 0.0000 34.6263
#
#
#
# Elastic Compliance Matrix: (Units=1/GPa)
#
#
# Indices 1 2 3 4 5 6 
#
# 1 0.012839 -0.005810 0.000478 0.000000 0.000477 0.000000
# 2 -0.005810 0.008956 -0.005970 0.000000 -0.001031 0.000000
# 3 0.000478 -0.005970 0.028126 0.000000 -0.002458 0.000000
# 4 0.000000 0.000000 0.000000 0.055825 0.000000 0.028657
# 5 0.000477 -0.001031 -0.002458 0.000000 0.032740 0.000000
# 6 0.000000 0.000000 0.000000 0.028657 0.000000 0.043591
#
#
# Mechanical properties :
#
#
# Convention : Reuss Voigt Hill
#
# Bulk Modulus (GPa) = 36.60781 71.80720 54.20751
# Shear Modulus (GPa) = 23.38787 32.72299 28.05543
#
# Velocity S-wave (km/s) = 3.35147 3.96431 3.67070
# Velocity P-wave (km/s) = 5.70596 7.44586 6.63320
#
# Compressibility (1/GPa) = 0.02731657
#
# Stress axis : x y z
#
# Youngs Moduli (GPa) = 77.88782 111.65603 35.55476
#
# Poissons Ratio (x) = 0.64874 -0.01699
# Poissons Ratio (y) = 0.45254 0.21226
# Poissons Ratio (z) = -0.03723 0.66658
#
# Static dielectric constant tensor:
#      x y z
#    x 1.740570 0.000000 -0.005100 
#    y 0.000000 1.725370 0.000000 
#    z -0.005100 0.000000 1.829320 
# 
# From -- ./inp_files/200005.got.cif
#   From: 2010.05.17/outbox.cif.g08.bks.cpg/sg12_101_cif.got.tgz:200005.got - 2010.06.03 13:09:07.
