data_PCOD9217485
_publ_section_title
;
Structure prediction by ZEFSAII (Michael W. Deem and Ramdas Pophale) SiO2 
 PCOD9217485
Probable space group: C 2/M
;
_chemical_formula_sum "Si O2"
_cell_formula_units_Z 48
_cell_length_a 11.687309
_cell_length_b 15.673857
_cell_length_c 12.098659
_cell_angle_alpha 90.000000
_cell_angle_beta 117.523001
_cell_angle_gamma 90.000000
_cell_volume 1965.467036
_symmetry_space_group_name_H-M "C 2/M"
_symmetry_group_IT_number 12
_symmetry_cell_setting 'monoclinic'
loop_
_space_group_symop_operation_xyz
x,y,z
-x,y,-z
-x,-y,-z
x,-y,z
1/2+x,1/2+y,z
1/2-x,1/2+y,-z
1/2-x,1/2-y,-z
1/2+x,1/2-y,z
loop_
_atom_site_type_symbol
_atom_site_label
_atom_site_fract_x
_atom_site_fract_y
_atom_site_fract_z
Si Si1 0.868516 0.323712 0.308092
Si Si2 0.414150 0.098935 0.748983
Si Si3 0.346286 0.396116 0.931030
Si Si4 0.753279 0.649080 0.475124
Si Si5 0.769738 0.595254 0.889065
Si Si6 0.030937 0.130416 0.637142
O O1 0.728538 0.340661 0.193011
O O2 0.854825 0.366100 0.422751
O O3 0.915994 0.227415 0.347889
O O4 0.967548 0.360487 0.262969
O O5 0.297298 0.106848 0.608826
O O6 0.371754 0.136229 0.848965
O O7 0.441452 0.000000 0.777805
O O8 0.326822 0.500000 0.907333
O O9 0.500000 0.382286 0.000000
O O10 0.278982 0.368639 0.016936
O O11 0.750000 0.750000 0.500000
O O12 0.610371 0.625262 0.372490
O O13 0.818219 0.500000 0.935991
O O14 0.640136 0.587744 0.758048
O O15 0.000000 0.099725 0.500000
#
# Coordination Sequence:
#
# PCOD9217485 Si02
#       6
#     8   8   8   8   8   8
#     4  12  24  39  66  94 131 175 218 267 328 393
#     4  11  23  39  64  99 134 172 219 269 326 392
#     4  10  23  46  69  94 131 175 221 272 326 385
#     4  12  22  40  60  93 135 175 211 265 326 388
#     4  10  23  43  66  95 131 172 223 271 319 387
#     4  12  22  39  67  93 130 170 215 266 328 383
#
# _framework density 24.421676999999999
#
# number of rings (size 3 to 8) (size 9 to 14) (size 15 to 20)
#    0.000    0.833    5.000    2.000    0.000    4.333 
#    0.000    2.500    0.000    0.000    0.000    0.000 
#    0.000    0.000    0.000    0.000    0.000    0.000 
#
# Total GULP energy -134161.942703 kJ/mol
# GULP energy per Si atom -5590.080946 kJ/mol
# Density = 2.436609 g / cm^3
# Si number density = 24.421677 Si / 1000 Ang^3
#
#
#
# Elastic Constant Matrix: (Units=GPa)
#
#
# Indices 1 2 3 4 5 6 
#
# 1 155.3676 9.0326 39.7829 0.0000 -26.3687 0.0000
# 2 9.0326 51.0402 5.7108 0.0000 2.1144 0.0000
# 3 39.7829 5.7108 118.7741 0.0000 -13.8413 0.0000
# 4 0.0000 0.0000 0.0000 0.6498 0.0000 -0.6768
# 5 -26.3687 2.1144 -13.8413 0.0000 63.6556 0.0000
# 6 0.0000 0.0000 0.0000 -0.6768 0.0000 15.8804
#
#
#
# Elastic Compliance Matrix: (Units=1/GPa)
#
#
# Indices 1 2 3 4 5 6 
#
# 1 0.007511 -0.001200 -0.002145 0.000000 0.002685 0.000000
# 2 -0.001200 0.019939 -0.000710 0.000000 -0.001314 0.000000
# 3 -0.002145 -0.000710 0.009307 0.000000 0.001159 0.000000
# 4 0.000000 0.000000 0.000000 1.610379 0.000000 0.068633
# 5 0.002685 -0.001314 0.001159 0.000000 0.017117 0.000000
# 6 0.000000 0.000000 0.000000 0.068633 0.000000 0.065896
#
#
# Mechanical properties :
#
#
# Convention : Reuss Voigt Hill
#
# Bulk Modulus (GPa) = 34.90880 48.24828 41.57854
# Shear Modulus (GPa) = 2.86072 34.08087 18.47080
#
# Velocity S-wave (km/s) = 1.08348 3.73971 2.75313
# Velocity P-wave (km/s) = 3.98628 6.20053 5.21234
#
# Compressibility (1/GPa) = 0.02864607
#
# Stress axis : x y z
#
# Youngs Moduli (GPa) = 133.13633 50.15381 107.44571
#
# Poissons Ratio (x) = 0.06021 0.23049
# Poissons Ratio (y) = 0.15982 0.07625
# Poissons Ratio (z) = 0.28561 0.03559
#
# Static dielectric constant tensor:
#      x y z
#    x 2.005470 0.000000 -0.008130 
#    y 0.000000 1.936630 0.000000 
#    z -0.008130 0.000000 1.934820 
# 
# From -- ./inp_files/131734.got.cif
#   From: 2010.05.17/outbox.cif.g08.bks.cpg/sg12_66_cif.got.tgz:131734.got - 2010.06.03 13:09:07.
