data_PCOD9217608
_publ_section_title
;
Structure prediction by ZEFSAII (Michael W. Deem and Ramdas Pophale) SiO2 
 PCOD9217608
Probable space group: C 2/M
;
_chemical_formula_sum "Si O2"
_cell_formula_units_Z 54
_cell_length_a 11.126899
_cell_length_b 30.826175
_cell_length_c 13.953748
_cell_angle_alpha 90.000000
_cell_angle_beta 33.446505
_cell_angle_gamma 90.000000
_cell_volume 2637.915714
_symmetry_space_group_name_H-M "C 2/M"
_symmetry_group_IT_number 12
_symmetry_cell_setting 'monoclinic'
loop_
_space_group_symop_operation_xyz
x,y,z
-x,y,-z
-x,-y,-z
x,-y,z
1/2+x,1/2+y,z
1/2-x,1/2+y,-z
1/2-x,1/2-y,-z
1/2+x,1/2-y,z
loop_
_atom_site_type_symbol
_atom_site_label
_atom_site_fract_x
_atom_site_fract_y
_atom_site_fract_z
Si Si1 0.974835 0.107534 0.327018
Si Si2 0.156573 0.569474 0.686652
Si Si3 0.007656 0.746952 0.111724
Si Si4 0.245171 0.165727 0.689678
Si Si5 0.500000 0.387608 0.000000
Si Si6 0.836583 0.345730 0.198965
Si Si7 0.000000 0.000000 0.500000
Si Si8 0.178193 0.950955 0.042303
O O1 0.099261 0.140598 0.315826
O O2 0.145863 0.074307 0.164148
O O3 0.787976 0.079038 0.501982
O O4 0.865008 0.136198 0.318174
O O5 0.113681 0.616201 0.760795
O O6 0.315951 0.538225 0.639083
O O7 0.923606 0.547507 0.840750
O O8 0.868635 0.787615 0.239525
O O9 0.886420 0.701073 0.211748
O O10 0.250000 0.750000 0.000000
O O11 0.000000 0.749923 0.000000
O O12 0.500000 0.168399 0.500000
O O13 0.186167 0.143542 0.831523
O O14 0.563400 0.419875 0.042510
O O15 0.000000 0.348263 0.000000
O O16 0.090929 0.000000 0.107125
#
# Coordination Sequence:
#
# PCOD9217608 Si02
#       8
#     8   8   8   8   4   8   2   8
#     4  11  24  41  64  97 132 173 226 279 340 407
#     4  12  24  41  64  94 135 170 214 278 341 400
#     4  11  25  44  72 102 140 179 231 292 346 413
#     4  11  23  43  68  97 131 178 228 279 340 413
#     4  10  23  44  64  92 134 170 224 285 336 388
#     4  11  22  42  66  95 132 176 222 272 342 410
#     4  12  24  40  62  98 134 168 218 280 336 410
#     4  11  24  40  66  93 128 177 225 275 336 416
#
# _framework density 20.470707999999998
#
# number of rings (size 3 to 8) (size 9 to 14) (size 15 to 20)
#    0.000    0.889    4.444    2.889    3.111    2.370 
#    0.000    4.074    0.000    4.889    0.000    0.000 
#    0.000    0.000    0.000    0.000    0.000    0.000 
#
# Total GULP energy -150395.086365 kJ/mol
# GULP energy per Si atom -5570.188384 kJ/mol
# Density = 2.042412 g / cm^3
# Si number density = 20.470708 Si / 1000 Ang^3
#
#
#
# Elastic Constant Matrix: (Units=GPa)
#
#
# Indices 1 2 3 4 5 6 
#
# 1 64.6004 43.9225 16.4766 0.0000 -3.6180 0.0000
# 2 43.9225 183.5443 65.4140 0.0000 -6.9366 0.0000
# 3 16.4766 65.4140 101.6284 0.0000 -8.9670 0.0000
# 4 0.0000 0.0000 0.0000 21.2267 0.0000 -13.3308
# 5 -3.6180 -6.9366 -8.9670 0.0000 30.8978 0.0000
# 6 0.0000 0.0000 0.0000 -13.3308 0.0000 20.5623
#
#
#
# Elastic Compliance Matrix: (Units=1/GPa)
#
#
# Indices 1 2 3 4 5 6 
#
# 1 0.018531 -0.004356 -0.000098 0.000000 0.001164 0.000000
# 2 -0.004356 0.008096 -0.004505 0.000000 0.000000 0.000000
# 3 -0.000098 -0.004505 0.012998 0.000000 0.002749 0.000000
# 4 0.000000 0.000000 0.000000 0.079465 0.000000 0.051518
# 5 0.001164 0.000000 0.002749 0.000000 0.033299 0.000000
# 6 0.000000 0.000000 0.000000 0.051518 0.000000 0.082032
#
#
# Mechanical properties :
#
#
# Convention : Reuss Voigt Hill
#
# Bulk Modulus (GPa) = 46.06622 66.82214 56.44418
# Shear Modulus (GPa) = 19.26225 29.46802 24.36513
#
# Velocity S-wave (km/s) = 3.07085 3.79822 3.45373
# Velocity P-wave (km/s) = 5.92670 7.20756 6.59829
#
# Compressibility (1/GPa) = 0.02170788
#
# Stress axis : x y z
#
# Youngs Moduli (GPa) = 53.96231 123.51570 76.93528
#
# Poissons Ratio (x) = 0.53799 0.00756
# Poissons Ratio (y) = 0.23504 0.34659
# Poissons Ratio (z) = 0.00530 0.55643
#
# Static dielectric constant tensor:
#      x y z
#    x 1.778300 0.000000 0.005220 
#    y 0.000000 1.737500 0.000000 
#    z 0.005220 0.000000 1.745070 
# 
# From -- ./inp_files/210027.got.cif
#   From: 2010.05.17/outbox.cif.g08.bks.cpg/sg12_106_cif.got.tgz:210027.got - 2010.06.03 13:09:07.
