data_PCOD9217762
_publ_section_title
;
Structure prediction by ZEFSAII (Michael W. Deem and Ramdas Pophale) SiO2 
 PCOD9217762
Probable space group: C 2/M
;
_chemical_formula_sum "Si O2"
_cell_formula_units_Z 32
_cell_length_a 8.044576
_cell_length_b 23.456668
_cell_length_c 13.864408
_cell_angle_alpha 90.000000
_cell_angle_beta 35.834229
_cell_angle_gamma 90.000000
_cell_volume 1531.633178
_symmetry_space_group_name_H-M "C 2/M"
_symmetry_group_IT_number 12
_symmetry_cell_setting 'monoclinic'
loop_
_space_group_symop_operation_xyz
x,y,z
-x,y,-z
-x,-y,-z
x,-y,z
1/2+x,1/2+y,z
1/2-x,1/2+y,-z
1/2-x,1/2-y,-z
1/2+x,1/2-y,z
loop_
_atom_site_type_symbol
_atom_site_label
_atom_site_fract_x
_atom_site_fract_y
_atom_site_fract_z
Si Si1 0.131299 0.064578 0.331519
Si Si2 0.288196 0.128059 0.918476
Si Si3 0.284495 0.219948 0.310805
Si Si4 0.055139 0.832748 0.232881
O O1 0.462903 0.081655 0.186593
O O2 0.990828 0.110815 0.325792
O O3 0.000000 0.067915 0.500000
O O4 0.101059 0.000000 0.310009
O O5 0.444269 0.180945 0.790518
O O6 0.201014 0.147645 0.066388
O O7 0.000000 0.110711 0.000000
O O8 0.243143 0.204602 0.218497
O O9 0.321592 0.286384 0.313642
O O10 0.000000 0.201088 0.500000
#
# Coordination Sequence:
#
# PCOD9217762 Si02
#       4
#     8   8   8   8
#     4  10  23  45  67  88 119 162 210 257 310 369
#     4  11  23  39  62  94 130 162 204 254 306 367
#     4  11  22  38  59  89 129 167 203 244 302 368
#     4  11  22  37  62  93 125 163 204 252 304 363
#
# _framework density 20.892731000000001
#
# number of rings (size 3 to 8) (size 9 to 14) (size 15 to 20)
#    0.000    1.250    0.000    9.000    0.000    6.500 
#    0.000    0.000    0.000    3.750    0.000    0.000 
#    0.000    0.000    0.000    0.000    0.000    0.000 
#
# Total GULP energy -89276.870920 kJ/mol
# GULP energy per Si atom -5579.804433 kJ/mol
# Density = 2.084518 g / cm^3
# Si number density = 20.892731 Si / 1000 Ang^3
#
#
#
# Elastic Constant Matrix: (Units=GPa)
#
#
# Indices 1 2 3 4 5 6 
#
# 1 59.8898 19.2223 -3.9604 0.0000 11.2087 0.0000
# 2 19.2223 170.3616 10.9887 0.0000 10.1826 0.0000
# 3 -3.9604 10.9887 59.6314 0.0000 2.3653 0.0000
# 4 0.0000 0.0000 0.0000 139.5620 0.0000 93.4313
# 5 11.2087 10.1826 2.3653 0.0000 8.9336 0.0000
# 6 0.0000 0.0000 0.0000 93.4313 0.0000 111.7652
#
#
#
# Elastic Compliance Matrix: (Units=1/GPa)
#
#
# Indices 1 2 3 4 5 6 
#
# 1 0.022390 -0.001054 0.002777 0.000000 -0.027625 0.000000
# 2 -0.001054 0.006395 -0.001023 0.000000 -0.005696 0.000000
# 3 0.002777 -0.001023 0.017417 0.000000 -0.006930 0.000000
# 4 0.000000 0.000000 0.000000 0.016272 0.000000 -0.013602
# 5 -0.027625 -0.005696 -0.006930 0.000000 0.154925 0.000000
# 6 0.000000 0.000000 0.000000 -0.013602 0.000000 0.020318
#
#
# Mechanical properties :
#
#
# Convention : Reuss Voigt Hill
#
# Bulk Modulus (GPa) = 21.00721 38.04267 29.52494
# Shear Modulus (GPa) = 19.82675 69.62764 44.72720
#
# Velocity S-wave (km/s) = 3.08389 5.77915 4.63190
# Velocity P-wave (km/s) = 4.77044 7.92336 6.53975
#
# Compressibility (1/GPa) = 0.04760271
#
# Stress axis : x y z
#
# Youngs Moduli (GPa) = 44.66370 156.36671 57.41368
#
# Poissons Ratio (x) = 0.16484 -0.15944
# Poissons Ratio (y) = 0.04708 0.05871
# Poissons Ratio (z) = -0.12403 0.15990
#
# Static dielectric constant tensor:
#      x y z
#    x 1.806250 0.000000 -0.040980 
#    y 0.000000 1.776230 0.000000 
#    z -0.040980 0.000000 1.768950 
# 
# From -- ./inp_files/38336.got.cif
#   From: 2010.05.17/outbox.cif.g08.bks.cpg/sg12_20_cif.got.tgz:38336.got - 2010.06.03 13:09:07.
