data_PCOD9217059
_publ_section_title
;
Structure prediction by ZEFSAII (Michael W. Deem and Ramdas Pophale) SiO2 
 PCOD9217059
Probable space group: C 2/M
;
_chemical_formula_sum "Si O2"
_cell_formula_units_Z 40
_cell_length_a 5.074003
_cell_length_b 17.464775
_cell_length_c 20.050247
_cell_angle_alpha 90.000000
_cell_angle_beta 87.234873
_cell_angle_gamma 90.000000
_cell_volume 1774.710388
_symmetry_space_group_name_H-M "C 2/M"
_symmetry_group_IT_number 12
_symmetry_cell_setting 'monoclinic'
loop_
_space_group_symop_operation_xyz
x,y,z
-x,y,-z
-x,-y,-z
x,-y,z
1/2+x,1/2+y,z
1/2-x,1/2+y,-z
1/2-x,1/2-y,-z
1/2+x,1/2-y,z
loop_
_atom_site_type_symbol
_atom_site_label
_atom_site_fract_x
_atom_site_fract_y
_atom_site_fract_z
Si Si1 0.599195 0.305846 0.242901
Si Si2 0.016222 0.302804 0.576183
Si Si3 0.256281 0.410963 0.043850
Si Si4 0.548982 0.911174 0.827012
Si Si5 0.763629 0.411972 0.685967
O O1 0.349205 0.249760 0.246393
O O2 0.512222 0.368080 0.299017
O O3 0.690026 0.359725 0.180573
O O4 0.800321 0.234766 0.584448
O O5 0.931541 0.366792 0.629444
O O6 0.000000 0.330969 0.500000
O O7 0.330969 0.500000 0.057155
O O8 0.150491 0.379369 0.115131
O O9 0.500000 0.375937 0.000000
O O10 0.000000 0.410858 0.000000
O O11 0.410485 0.909669 0.756210
O O12 0.613240 0.000000 0.841766
O O13 0.722290 0.500000 0.668566
#
# Coordination Sequence:
#
# PCOD9217059 Si02
#       5
#     8   8   8   8   8
#     4  12  24  41  62  90 127 171 217 257 317 388
#     4  10  23  44  68  95 131 176 220 259 311 385
#     4   9  19  35  59  89 123 164 210 261 319 382
#     4  10  23  41  65  99 132 164 215 276 328 377
#     4  11  24  41  66 101 136 167 213 274 331 379
#
# _framework density 22.538886999999999
#
# number of rings (size 3 to 8) (size 9 to 14) (size 15 to 20)
#    0.000    1.600    2.000    1.800    5.600    0.400 
#    0.000    0.000    0.000    7.200    0.000    0.000 
#    0.000    0.000    0.000    0.000    0.000    0.000 
#
# Total GULP energy -111780.641323 kJ/mol
# GULP energy per Si atom -5589.032066 kJ/mol
# Density = 2.248759 g / cm^3
# Si number density = 22.538887 Si / 1000 Ang^3
#
#
#
# Elastic Constant Matrix: (Units=GPa)
#
#
# Indices 1 2 3 4 5 6 
#
# 1 134.1868 32.4521 47.8867 0.0000 -28.6172 0.0000
# 2 32.4521 94.4251 43.3566 0.0000 -18.4675 0.0000
# 3 47.8867 43.3566 159.0669 0.0000 -39.1355 0.0000
# 4 0.0000 0.0000 0.0000 19.9255 0.0000 -23.8528
# 5 -28.6172 -18.4675 -39.1355 0.0000 44.1427 0.0000
# 6 0.0000 0.0000 0.0000 -23.8528 0.0000 12.4729
#
#
#
# Elastic Compliance Matrix: (Units=1/GPa)
#
#
# Indices 1 2 3 4 5 6 
#
# 1 0.009212 -0.001777 -0.001282 0.000000 0.004092 0.000000
# 2 -0.001777 0.012712 -0.002436 0.000000 0.002006 0.000000
# 3 -0.001282 -0.002436 0.008801 0.000000 0.005952 0.000000
# 4 0.000000 0.000000 0.000000 -0.038926 0.000000 -0.074441
# 5 0.004092 0.002006 0.005952 0.000000 0.031423 0.000000
# 6 0.000000 0.000000 0.000000 -0.074441 0.000000 -0.062185
#
#
# Mechanical properties :
#
#
# Convention : Reuss Voigt Hill
#
# Bulk Modulus (GPa) = 50.67273 70.56329 60.61801
# Shear Modulus (GPa) = -233.72604 32.90712 -100.40946
#
# Velocity S-wave (km/s) = -10.19432 3.82516 -6.68178
# Velocity P-wave (km/s) = 10.77192 7.13333 5.70745
#
# Compressibility (1/GPa) = 0.01973448
#
# Stress axis : x y z
#
# Youngs Moduli (GPa) = 108.55024 78.66455 113.62071
#
# Poissons Ratio (x) = 0.13979 0.14569
# Poissons Ratio (y) = 0.19290 0.27682
# Poissons Ratio (z) = 0.13918 0.19166
#
# Static dielectric constant tensor:
#      x y z
#    x 1.910960 0.000000 0.049300 
#    y 0.000000 1.837480 0.000000 
#    z 0.049300 0.000000 1.887400 
# 
# From -- ./inp_files/297568.got.cif
#   From: 2010.05.17/outbox.cif.g08.bks.cpg/sg12_149_cif.got.tgz:297568.got - 2010.06.03 13:09:07.
