data_PCOD9217650
_publ_section_title
;
Structure prediction by ZEFSAII (Michael W. Deem and Ramdas Pophale) SiO2 
 PCOD9217650
Probable space group: C 2/M
;
_chemical_formula_sum "Si O2"
_cell_formula_units_Z 40
_cell_length_a 10.952210
_cell_length_b 28.302180
_cell_length_c 5.270313
_cell_angle_alpha 90.000000
_cell_angle_beta 94.171302
_cell_angle_gamma 90.000000
_cell_volume 1629.318927
_symmetry_space_group_name_H-M "C 2/M"
_symmetry_group_IT_number 12
_symmetry_cell_setting 'monoclinic'
loop_
_space_group_symop_operation_xyz
x,y,z
-x,y,-z
-x,-y,-z
x,-y,z
1/2+x,1/2+y,z
1/2-x,1/2+y,-z
1/2-x,1/2-y,-z
1/2+x,1/2-y,z
loop_
_atom_site_type_symbol
_atom_site_label
_atom_site_fract_x
_atom_site_fract_y
_atom_site_fract_z
Si Si1 0.583713 0.446301 0.259320
Si Si2 0.611750 0.693651 0.862433
Si Si3 0.319783 0.216301 0.307074
Si Si4 0.917634 0.553279 0.741019
Si Si5 0.251088 0.627302 0.483406
O O1 0.500000 0.442843 0.500000
O O2 0.635373 0.500000 0.259921
O O3 0.686769 0.406312 0.299510
O O4 0.500000 0.440618 0.000000
O O5 0.578105 0.747167 0.770281
O O6 0.648111 0.659543 0.639988
O O7 0.500000 0.673293 0.000000
O O8 0.727906 0.701922 0.064380
O O9 0.250000 0.250000 0.500000
O O10 0.346452 0.165842 0.432568
O O11 0.866626 0.500000 0.733894
O O12 0.812299 0.591720 0.718200
O O13 0.000000 0.558336 0.500000
O O14 0.000000 0.558956 0.000000
#
# Coordination Sequence:
#
# PCOD9217650 Si02
#       5
#     8   8   8   8   8
#     4  10  24  42  64 102 144 181 222 277 347 417
#     4  10  23  44  67  95 140 182 226 289 357 424
#     4   9  22  43  60  96 134 178 230 283 352 411
#     4  10  24  47  72 102 141 186 236 295 356 409
#     4  11  24  40  70 102 136 184 239 289 344 428
#
# _framework density 24.550136999999999
#
# number of rings (size 3 to 8) (size 9 to 14) (size 15 to 20)
#    0.000    2.000    0.000    0.600    8.400    2.400 
#   10.800    6.000    0.000    3.000    0.000    0.000 
#    0.000    0.000    0.000    0.000    0.000    0.000 
#
# Total GULP energy -111947.305009 kJ/mol
# GULP energy per Si atom -5597.365250 kJ/mol
# Density = 2.449426 g / cm^3
# Si number density = 24.550137 Si / 1000 Ang^3
#
#
#
# Elastic Constant Matrix: (Units=GPa)
#
#
# Indices 1 2 3 4 5 6 
#
# 1 40.5277 50.0855 14.4833 0.0000 -0.3719 0.0000
# 2 50.0855 223.0761 52.0872 0.0000 17.5727 0.0000
# 3 14.4833 52.0872 132.0959 0.0000 10.0357 0.0000
# 4 0.0000 0.0000 0.0000 0.0472 0.0000 14.4173
# 5 -0.3719 17.5727 10.0357 0.0000 33.3449 0.0000
# 6 0.0000 0.0000 0.0000 14.4173 0.0000 10.4186
#
#
#
# Elastic Compliance Matrix: (Units=1/GPa)
#
#
# Indices 1 2 3 4 5 6 
#
# 1 0.034976 -0.007994 -0.001057 0.000000 0.004921 0.000000
# 2 -0.007994 0.006907 -0.001600 0.000000 -0.003248 0.000000
# 3 -0.001057 -0.001600 0.008447 0.000000 -0.001711 0.000000
# 4 0.000000 0.000000 0.000000 -0.050243 0.000000 0.069526
# 5 0.004921 -0.003248 -0.001711 0.000000 0.032271 0.000000
# 6 0.000000 0.000000 0.000000 0.069526 0.000000 -0.000227
#
#
# Mechanical properties :
#
#
# Convention : Reuss Voigt Hill
#
# Bulk Modulus (GPa) = 34.44852 69.89017 52.16935
# Shear Modulus (GPa) = 79.22758 27.36505 53.29632
#
# Velocity S-wave (km/s) = 5.68699 3.34227 4.66437
# Velocity P-wave (km/s) = 7.56206 6.58973 7.09258
#
# Compressibility (1/GPa) = 0.02902882
#
# Stress axis : x y z
#
# Youngs Moduli (GPa) = 28.59071 144.77901 118.38351
#
# Poissons Ratio (x) = 1.15735 0.12509
# Poissons Ratio (y) = 0.22855 0.18946
# Poissons Ratio (z) = 0.03021 0.23170
#
# Static dielectric constant tensor:
#      x y z
#    x 1.891630 0.000000 -0.095830 
#    y 0.000000 1.949100 0.000000 
#    z -0.095830 0.000000 1.961250 
# 
# From -- ./inp_files/7713.got.cif
#   From: 2010.05.17/outbox.cif.g08.bks.cpg/sg12_4_cif.got.tgz:7713.got - 2010.06.03 13:09:07.
