data_PCOD9217870
_publ_section_title
;
Structure prediction by ZEFSAII (Michael W. Deem and Ramdas Pophale) SiO2 
 PCOD9217870
Probable space group: C 2/M
;
_chemical_formula_sum "Si O2"
_cell_formula_units_Z 28
_cell_length_a 9.984982
_cell_length_b 26.167287
_cell_length_c 5.089143
_cell_angle_alpha 90.000000
_cell_angle_beta 110.639064
_cell_angle_gamma 90.000000
_cell_volume 1244.350419
_symmetry_space_group_name_H-M "C 2/M"
_symmetry_group_IT_number 12
_symmetry_cell_setting 'monoclinic'
loop_
_space_group_symop_operation_xyz
x,y,z
-x,y,-z
-x,-y,-z
x,-y,z
1/2+x,1/2+y,z
1/2-x,1/2+y,-z
1/2-x,1/2-y,-z
1/2+x,1/2-y,z
loop_
_atom_site_type_symbol
_atom_site_label
_atom_site_fract_x
_atom_site_fract_y
_atom_site_fract_z
Si Si1 0.156882 0.783054 0.717878
Si Si2 0.272130 0.610499 0.038409
Si Si3 0.145505 0.351101 0.443726
Si Si4 0.401012 0.500000 0.183328
O O1 0.128820 0.839752 0.832032
O O2 0.234080 0.700085 0.440456
O O3 0.000000 0.766794 0.500000
O O4 0.250000 0.750000 0.000000
O O5 0.145946 0.622923 0.159303
O O6 0.319281 0.553558 0.127836
O O7 0.233637 0.614591 0.707598
O O8 0.000000 0.342289 0.500000
O O9 0.500000 0.500000 0.500000
O O10 0.500000 0.500000 0.000000
#
# Coordination Sequence:
#
# PCOD9217870 Si02
#       4
#     8   8   8   4
#     4  10  25  48  80 111 157 202 269 322 401 467
#     4  10  24  43  76 107 156 196 262 316 393 458
#     4  10  23  47  74 106 157 204 255 318 393 473
#     4  12  24  42  77 116 155 200 259 329 395 466
#
# _framework density 22.501701000000001
#
# number of rings (size 3 to 8) (size 9 to 14) (size 15 to 20)
#    1.714    0.000    0.000    3.429    4.000    2.286 
#    0.000    5.714    0.000    0.000    0.000    0.000 
#    0.000    0.000    0.000    0.000    0.000    0.000 
#
# Total GULP energy -77941.975104 kJ/mol
# GULP energy per Si atom -5567.283936 kJ/mol
# Density = 2.245049 g / cm^3
# Si number density = 22.501701 Si / 1000 Ang^3
#
#
#
# Elastic Constant Matrix: (Units=GPa)
#
#
# Indices 1 2 3 4 5 6 
#
# 1 154.4276 45.4456 47.9094 0.0000 -6.9064 0.0000
# 2 45.4456 195.8147 47.8956 0.0000 24.5094 0.0000
# 3 47.9094 47.8956 139.5476 0.0000 3.4599 0.0000
# 4 0.0000 0.0000 0.0000 38.5951 0.0000 -8.3707
# 5 -6.9064 24.5094 3.4599 0.0000 48.4351 0.0000
# 6 0.0000 0.0000 0.0000 -8.3707 0.0000 10.2946
#
#
#
# Elastic Compliance Matrix: (Units=1/GPa)
#
#
# Indices 1 2 3 4 5 6 
#
# 1 0.007681 -0.001503 -0.002171 0.000000 0.002011 0.000000
# 2 -0.001503 0.006242 -0.001545 0.000000 -0.003263 0.000000
# 3 -0.002171 -0.001545 0.008445 0.000000 -0.000131 0.000000
# 4 0.000000 0.000000 0.000000 0.031458 0.000000 0.025579
# 5 0.002011 -0.003263 -0.000131 0.000000 0.022593 0.000000
# 6 0.000000 0.000000 0.000000 0.025579 0.000000 0.117937
#
#
# Mechanical properties :
#
#
# Convention : Reuss Voigt Hill
#
# Bulk Modulus (GPa) = 83.83005 85.81014 84.82009
# Shear Modulus (GPa) = 23.94952 42.70090 33.32521
#
# Velocity S-wave (km/s) = 3.26597 4.36096 3.85256
# Velocity P-wave (km/s) = 7.18038 7.97339 7.58726
#
# Compressibility (1/GPa) = 0.01192890
#
# Stress axis : x y z
#
# Youngs Moduli (GPa) = 130.18360 160.20063 118.41287
#
# Poissons Ratio (x) = 0.24085 0.25708
# Poissons Ratio (y) = 0.19572 0.18299
# Poissons Ratio (z) = 0.28263 0.24757
#
# Static dielectric constant tensor:
#      x y z
#    x 1.941450 0.000000 -0.010650 
#    y 0.000000 1.288040 0.000000 
#    z -0.010650 0.000000 1.869650 
# 
# From -- ./inp_files/6226.got.cif
#   From: 2010.05.17/outbox.cif.g08.bks.cpg/sg12_4_cif.got.tgz:6226.got - 2010.06.03 13:09:07.
