data_PCOD9217662
_publ_section_title
;
Structure prediction by ZEFSAII (Michael W. Deem and Ramdas Pophale) SiO2 
 PCOD9217662
Probable space group: C 2/M
;
_chemical_formula_sum "Si O2"
_cell_formula_units_Z 48
_cell_length_a 32.040810
_cell_length_b 12.805197
_cell_length_c 13.155025
_cell_angle_alpha 90.000000
_cell_angle_beta 28.451030
_cell_angle_gamma 90.000000
_cell_volume 2571.342884
_symmetry_space_group_name_H-M "C 2/M"
_symmetry_group_IT_number 12
_symmetry_cell_setting 'monoclinic'
loop_
_space_group_symop_operation_xyz
x,y,z
-x,y,-z
-x,-y,-z
x,-y,z
1/2+x,1/2+y,z
1/2-x,1/2+y,-z
1/2-x,1/2-y,-z
1/2+x,1/2-y,z
loop_
_atom_site_type_symbol
_atom_site_label
_atom_site_fract_x
_atom_site_fract_y
_atom_site_fract_z
Si Si1 0.233095 0.876048 0.333592
Si Si2 0.539282 0.882278 0.530446
Si Si3 0.914851 0.885319 0.740152
Si Si4 0.182673 0.199917 0.220921
Si Si5 0.033314 0.878031 0.813373
Si Si6 0.406636 0.763367 0.944900
O O1 0.220548 0.847315 0.241935
O O2 0.137017 0.851077 0.585880
O O3 0.248769 0.000000 0.313724
O O4 0.317848 0.808208 0.184921
O O5 0.500000 0.879382 0.500000
O O6 0.610919 0.791164 0.394422
O O7 0.461311 0.857250 0.776279
O O8 0.574246 0.000000 0.471096
O O9 0.853255 0.889893 0.775020
O O10 0.884839 0.811816 0.895345
O O11 0.000000 0.842634 0.500000
O O12 0.934024 0.000000 0.740186
O O13 0.250000 0.250000 0.000000
O O14 0.971947 0.803347 0.876563
O O15 0.026006 0.000000 0.794906
O O16 0.000000 0.872079 0.000000
#
# Coordination Sequence:
#
# PCOD9217662 Si02
#       6
#     8   8   8   8   8   8
#     4  11  23  39  63  92 123 161 204 248 302 367
#     4  11  21  35  54  81 122 166 202 244 295 355
#     4  11  20  32  52  79 116 160 202 242 286 346
#     4  12  20  35  51  82 122 162 201 237 285 359
#     4  10  23  44  68  91 118 157 205 259 317 369
#     4  12  20  38  62  88 120 157 204 250 307 363
#
# _framework density 18.667290000000001
#
# number of rings (size 3 to 8) (size 9 to 14) (size 15 to 20)
#    0.000    0.833    6.667    1.500    0.000    6.000 
#    0.000    0.000    0.000    2.000    0.000    0.000 
#    0.000    0.000    0.000    0.000    0.000    0.000 
#
# Total GULP energy -133722.217290 kJ/mol
# GULP energy per Si atom -5571.759054 kJ/mol
# Density = 1.862480 g / cm^3
# Si number density = 18.667290 Si / 1000 Ang^3
#
#
#
# Elastic Constant Matrix: (Units=GPa)
#
#
# Indices 1 2 3 4 5 6 
#
# 1 38.5902 22.9206 24.0088 0.0000 -7.2927 0.0000
# 2 22.9206 115.4715 36.6947 0.0000 -13.1407 0.0000
# 3 24.0088 36.6947 131.8514 0.0000 -11.7692 0.0000
# 4 0.0000 0.0000 0.0000 10.5267 0.0000 -0.1730
# 5 -7.2927 -13.1407 -11.7692 0.0000 25.1761 0.0000
# 6 0.0000 0.0000 0.0000 -0.1730 0.0000 13.3279
#
#
#
# Elastic Compliance Matrix: (Units=1/GPa)
#
#
# Indices 1 2 3 4 5 6 
#
# 1 0.032107 -0.004483 -0.004151 0.000000 0.005020 0.000000
# 2 -0.004483 0.010505 -0.001809 0.000000 0.003339 0.000000
# 3 -0.004151 -0.001809 0.009029 0.000000 0.002074 0.000000
# 4 0.000000 0.000000 0.000000 0.095017 0.000000 0.001233
# 5 0.005020 0.003339 0.002074 0.000000 0.043887 0.000000
# 6 0.000000 0.000000 0.000000 0.001233 0.000000 0.075047
#
#
# Mechanical properties :
#
#
# Convention : Reuss Voigt Hill
#
# Bulk Modulus (GPa) = 32.51491 50.35124 41.43307
# Shear Modulus (GPa) = 16.85049 23.29208 20.07129
#
# Velocity S-wave (km/s) = 3.00771 3.53618 3.28260
# Velocity P-wave (km/s) = 5.43302 6.61092 6.05070
#
# Compressibility (1/GPa) = 0.03075513
#
# Stress axis : x y z
#
# Youngs Moduli (GPa) = 31.14595 95.19415 110.75740
#
# Poissons Ratio (x) = 0.42673 0.45972
# Poissons Ratio (y) = 0.13962 0.20039
# Poissons Ratio (z) = 0.12928 0.17223
#
# Static dielectric constant tensor:
#      x y z
#    x 2.132060 0.000000 -0.577490 
#    y 0.000000 1.628180 0.000000 
#    z -0.577490 0.000000 2.193070 
# 
# From -- ./inp_files/189370.got.cif
#   From: 2010.05.17/outbox.cif.g08.bks.cpg/sg12_95_cif.got.tgz:189370.got - 2010.06.03 13:09:07.
