data_PCOD9217420
_publ_section_title
;
Structure prediction by ZEFSAII (Michael W. Deem and Ramdas Pophale) SiO2 
 PCOD9217420
Probable space group: C 2/M
;
_chemical_formula_sum "Si O2"
_cell_formula_units_Z 56
_cell_length_a 10.063821
_cell_length_b 14.841982
_cell_length_c 23.457386
_cell_angle_alpha 90.000000
_cell_angle_beta 123.709279
_cell_angle_gamma 90.000000
_cell_volume 2914.653159
_symmetry_space_group_name_H-M "C 2/M"
_symmetry_group_IT_number 12
_symmetry_cell_setting 'monoclinic'
loop_
_space_group_symop_operation_xyz
x,y,z
-x,y,-z
-x,-y,-z
x,-y,z
1/2+x,1/2+y,z
1/2-x,1/2+y,-z
1/2-x,1/2-y,-z
1/2+x,1/2-y,z
loop_
_atom_site_type_symbol
_atom_site_label
_atom_site_fract_x
_atom_site_fract_y
_atom_site_fract_z
Si Si1 0.611068 0.896351 0.220864
Si Si2 0.915812 0.107964 0.228366
Si Si3 0.942495 0.391451 0.665937
Si Si4 0.769856 0.391578 0.351943
Si Si5 0.741761 0.828716 0.077531
Si Si6 0.580452 0.842296 0.930993
Si Si7 0.816410 0.764042 0.452627
O O1 0.776515 0.854125 0.236891
O O2 0.543331 0.861509 0.264465
O O3 0.485876 0.895301 0.139086
O O4 0.649359 0.000000 0.241952
O O5 0.864695 0.129492 0.151571
O O6 0.093376 0.134641 0.287973
O O7 0.911420 0.000000 0.231820
O O8 0.919625 0.500000 0.657038
O O9 0.793493 0.337734 0.604628
O O10 0.099381 0.372461 0.665767
O O11 0.772678 0.500000 0.364480
O O12 0.808109 0.329445 0.415229
O O13 0.580699 0.810527 0.075100
O O14 0.819544 0.738622 0.071971
O O15 0.685950 0.883588 0.007692
O O16 0.750000 0.750000 0.500000
O O17 0.000000 0.793254 0.500000
#
# Coordination Sequence:
#
# PCOD9217420 Si02
#       7
#     8   8   8   8   8   8   8
#     4   9  19  35  56  83 112 147 193 239 287 338
#     4   9  19  35  56  83 111 148 194 237 286 341
#     4  10  23  43  64  89 123 159 195 240 294 350
#     4  10  23  43  65  88 122 162 195 237 293 353
#     4   9  18  32  50  76 110 148 191 235 284 333
#     4   9  18  32  50  76 110 149 189 236 285 332
#     4  12  26  44  65  95 121 150 198 239 290 358
#
# _framework density 19.213263999999999
#
# number of rings (size 3 to 8) (size 9 to 14) (size 15 to 20)
#    0.000    2.286    1.429    0.000    4.000    2.857 
#    0.000    2.857    0.000    0.000    0.000    8.000 
#    0.000    0.000    0.000    0.000    0.000    0.000 
#
# Total GULP energy -156001.294966 kJ/mol
# GULP energy per Si atom -5571.474820 kJ/mol
# Density = 1.916953 g / cm^3
# Si number density = 19.213264 Si / 1000 Ang^3
#
#
#
# Elastic Constant Matrix: (Units=GPa)
#
#
# Indices 1 2 3 4 5 6 
#
# 1 107.0875 34.4659 77.1375 0.0000 -22.2599 0.0000
# 2 34.4659 41.5116 23.0824 0.0000 -7.9045 0.0000
# 3 77.1375 23.0824 121.8127 0.0000 -21.5198 0.0000
# 4 0.0000 0.0000 0.0000 66.0176 0.0000 -3.0622
# 5 -22.2599 -7.9045 -21.5198 0.0000 33.4180 0.0000
# 6 0.0000 0.0000 0.0000 -3.0622 0.0000 16.1606
#
#
#
# Elastic Compliance Matrix: (Units=1/GPa)
#
#
# Indices 1 2 3 4 5 6 
#
# 1 0.021670 -0.011079 -0.010760 0.000000 0.004885 0.000000
# 2 -0.011079 0.032954 0.000953 0.000000 0.001029 0.000000
# 3 -0.010760 0.000953 0.015364 0.000000 0.002952 0.000000
# 4 0.000000 0.000000 0.000000 0.015282 0.000000 0.002896
# 5 0.004885 0.001029 0.002952 0.000000 0.035322 0.000000
# 6 0.000000 0.000000 0.000000 0.002896 0.000000 0.062427
#
#
# Mechanical properties :
#
#
# Convention : Reuss Voigt Hill
#
# Bulk Modulus (GPa) = 35.44085 59.97595 47.70840
# Shear Modulus (GPa) = 21.34955 32.16764 26.75860
#
# Velocity S-wave (km/s) = 3.33707 4.09619 3.73596
# Velocity P-wave (km/s) = 5.77357 7.32498 6.59505
#
# Compressibility (1/GPa) = 0.02821603
#
# Stress axis : x y z
#
# Youngs Moduli (GPa) = 46.14675 30.34525 65.08683
#
# Poissons Ratio (x) = 0.33619 0.70034
# Poissons Ratio (y) = 0.51125 -0.06201
# Poissons Ratio (z) = 0.49655 -0.02891
#
# Static dielectric constant tensor:
#      x y z
#    x 1.647980 0.000000 -0.013430 
#    y 0.000000 1.682680 0.000000 
#    z -0.013430 0.000000 1.695580 
# 
# From -- ./inp_files/333017.got.cif
#   From: 2010.05.17/outbox.cif.g08.bks.cpg/sg12_167_cif.got.tgz:333017.got - 2010.06.03 13:09:07.
