data_PCOD9217720
_publ_section_title
;
Structure prediction by ZEFSAII (Michael W. Deem and Ramdas Pophale) SiO2 
 PCOD9217720
Probable space group: C 2/M
;
_chemical_formula_sum "Si O2"
_cell_formula_units_Z 56
_cell_length_a 25.332636
_cell_length_b 18.899382
_cell_length_c 6.157408
_cell_angle_alpha 90.000000
_cell_angle_beta 119.004063
_cell_angle_gamma 90.000000
_cell_volume 2578.268270
_symmetry_space_group_name_H-M "C 2/M"
_symmetry_group_IT_number 12
_symmetry_cell_setting 'monoclinic'
loop_
_space_group_symop_operation_xyz
x,y,z
-x,y,-z
-x,-y,-z
x,-y,z
1/2+x,1/2+y,z
1/2-x,1/2+y,-z
1/2-x,1/2-y,-z
1/2+x,1/2-y,z
loop_
_atom_site_type_symbol
_atom_site_label
_atom_site_fract_x
_atom_site_fract_y
_atom_site_fract_z
Si Si1 0.929008 0.788151 0.919799
Si Si2 0.248011 0.419942 0.558748
Si Si3 0.362381 0.143239 0.944444
Si Si4 0.014708 0.419716 0.778090
Si Si5 0.650622 0.617179 0.534052
Si Si6 0.935063 0.077787 0.256604
Si Si7 0.239517 0.331585 0.962531
O O1 0.895062 0.716643 0.933822
O O2 0.890594 0.819697 0.642164
O O3 0.927110 0.853071 0.090017
O O4 0.000000 0.776600 0.000000
O O5 0.231542 0.500000 0.588641
O O6 0.191545 0.386569 0.312987
O O7 0.315511 0.423090 0.592008
O O8 0.254131 0.366327 0.766627
O O9 0.413568 0.085363 0.071719
O O10 0.328908 0.154382 0.105527
O O11 0.990561 0.500000 0.726136
O O12 0.000000 0.389148 0.500000
O O13 0.000000 0.392128 0.000000
O O14 0.611784 0.578638 0.638203
O O15 0.711123 0.640061 0.774725
O O16 0.000000 0.083430 0.500000
O O17 0.932189 0.000000 0.138996
O O18 0.250000 0.250000 0.000000
#
# Coordination Sequence:
#
# PCOD9217720 Si02
#       7
#     8   8   8   8   8   8   8
#     4  12  25  44  69 101 139 184 232 285 350 430
#     4  11  25  44  72 103 137 182 232 292 357 423
#     4  11  25  43  69 102 139 183 236 291 354 433
#     4  10  23  44  70 104 146 192 242 301 366 435
#     4  11  23  43  67  98 136 176 228 287 346 427
#     4  11  24  42  65  97 135 177 226 286 346 416
#     4  11  24  44  68  97 135 182 230 295 355 417
#
# _framework density 21.720006000000001
#
# number of rings (size 3 to 8) (size 9 to 14) (size 15 to 20)
#    0.000    1.000    1.429    4.714    2.000    8.857 
#    2.571    0.000    0.000    0.000    0.000    0.000 
#    0.000    0.000    0.000    0.000    0.000    0.000 
#
# Total GULP energy -155940.333651 kJ/mol
# GULP energy per Si atom -5569.297630 kJ/mol
# Density = 2.167057 g / cm^3
# Si number density = 21.720006 Si / 1000 Ang^3
#
#
#
# Elastic Constant Matrix: (Units=GPa)
#
#
# Indices 1 2 3 4 5 6 
#
# 1 149.8526 28.3159 26.5009 0.0000 2.3012 0.0000
# 2 28.3159 93.5418 1.8407 0.0000 -9.7462 0.0000
# 3 26.5009 1.8407 74.0629 0.0000 2.3400 0.0000
# 4 0.0000 0.0000 0.0000 18.7214 0.0000 -7.0940
# 5 2.3012 -9.7462 2.3400 0.0000 39.2579 0.0000
# 6 0.0000 0.0000 0.0000 -7.0940 0.0000 78.4019
#
#
#
# Elastic Compliance Matrix: (Units=1/GPa)
#
#
# Indices 1 2 3 4 5 6 
#
# 1 0.007594 -0.002337 -0.002632 0.000000 -0.000869 0.000000
# 2 -0.002337 0.011703 0.000450 0.000000 0.003016 0.000000
# 3 -0.002632 0.000450 0.014451 0.000000 -0.000595 0.000000
# 4 0.000000 0.000000 0.000000 0.055311 0.000000 0.005005
# 5 -0.000869 0.003016 -0.000595 0.000000 0.026308 0.000000
# 6 0.000000 0.000000 0.000000 0.005005 0.000000 0.013208
#
#
# Mechanical properties :
#
#
# Convention : Reuss Voigt Hill
#
# Bulk Modulus (GPa) = 40.46833 47.86362 44.16597
# Shear Modulus (GPa) = 34.28204 44.66291 39.47247
#
# Velocity S-wave (km/s) = 3.97717 4.53957 4.26764
# Velocity P-wave (km/s) = 6.30577 7.03998 6.68297
#
# Compressibility (1/GPa) = 0.02471068
#
# Stress axis : x y z
#
# Youngs Moduli (GPa) = 131.68964 85.44610 69.19799
#
# Poissons Ratio (x) = 0.19972 0.18210
# Poissons Ratio (y) = 0.30781 -0.03115
# Poissons Ratio (z) = 0.34655 -0.03847
#
# Static dielectric constant tensor:
#      x y z
#    x 1.841500 0.000000 -0.257410 
#    y 0.000000 1.792090 0.000000 
#    z -0.257410 0.000000 3.330910 
# 
# From -- ./inp_files/25660.got.cif
#   From: 2010.05.17/outbox.cif.g08.bks.cpg/sg12_13_cif.got.tgz:25660.got - 2010.06.03 13:09:07.
