data_PCOD9217421
_publ_section_title
;
Structure prediction by ZEFSAII (Michael W. Deem and Ramdas Pophale) SiO2 
 PCOD9217421
Probable space group: C 2/M
;
_chemical_formula_sum "Si O2"
_cell_formula_units_Z 56
_cell_length_a 9.335069
_cell_length_b 26.334855
_cell_length_c 16.322664
_cell_angle_alpha 90.000000
_cell_angle_beta 132.919726
_cell_angle_gamma 90.000000
_cell_volume 2938.553327
_symmetry_space_group_name_H-M "C 2/M"
_symmetry_group_IT_number 12
_symmetry_cell_setting 'monoclinic'
loop_
_space_group_symop_operation_xyz
x,y,z
-x,y,-z
-x,-y,-z
x,-y,z
1/2+x,1/2+y,z
1/2-x,1/2+y,-z
1/2-x,1/2-y,-z
1/2+x,1/2-y,z
loop_
_atom_site_type_symbol
_atom_site_label
_atom_site_fract_x
_atom_site_fract_y
_atom_site_fract_z
Si Si1 0.821200 0.597089 0.490964
Si Si2 0.790992 0.211757 0.589624
Si Si3 0.303672 0.761535 0.266219
Si Si4 0.771173 0.855623 0.888639
Si Si5 0.929108 0.060577 0.383367
Si Si6 0.576617 0.791207 0.938287
Si Si7 0.519845 0.060631 0.271264
O O1 0.769840 0.656598 0.466244
O O2 0.606507 0.572927 0.391655
O O3 0.000000 0.586172 0.500000
O O4 0.899043 0.576158 0.607778
O O5 0.750000 0.250000 0.500000
O O6 0.681961 0.221532 0.633324
O O7 0.021240 0.224222 0.693011
O O8 0.277720 0.810664 0.196581
O O9 0.105262 0.730037 0.182757
O O10 0.660385 0.840754 0.928676
O O11 0.675058 0.907550 0.820461
O O12 0.000000 0.856925 0.000000
O O13 0.703774 0.076487 0.283953
O O14 0.000000 0.081529 0.500000
O O15 0.920542 0.000000 0.387358
O O16 0.500000 0.797198 0.000000
O O17 0.750000 0.750000 0.000000
O O18 0.490887 0.000000 0.255375
#
# Coordination Sequence:
#
# PCOD9217421 Si02
#       7
#     8   8   8   8   8   8   8
#     4  11  22  37  57  91 126 160 210 256 309 370
#     4  12  25  37  54  86 133 172 206 248 302 375
#     4  12  23  39  60  87 130 173 205 254 310 380
#     4  12  24  41  67  95 125 164 216 268 322 377
#     4   8  17  35  58  80 107 149 201 250 300 365
#     4  12  21  41  64  94 123 163 210 263 318 377
#     4  10  23  43  64  89 123 167 216 263 314 371
#
# _framework density 19.056996999999999
#
# number of rings (size 3 to 8) (size 9 to 14) (size 15 to 20)
#    0.000    1.000    4.286    4.286    2.000    3.714 
#    0.000    0.000    0.000    0.429    0.000    0.000 
#    0.000    0.000    0.000    0.000    0.000    0.000 
#
# Total GULP energy -156139.233623 kJ/mol
# GULP energy per Si atom -5576.401201 kJ/mol
# Density = 1.901362 g / cm^3
# Si number density = 19.056997 Si / 1000 Ang^3
#
#
#
# Elastic Constant Matrix: (Units=GPa)
#
#
# Indices 1 2 3 4 5 6 
#
# 1 121.3059 28.7273 38.0154 0.0000 19.4364 0.0000
# 2 28.7273 53.5891 26.9554 0.0000 9.5736 0.0000
# 3 38.0154 26.9554 79.0506 0.0000 16.7888 0.0000
# 4 0.0000 0.0000 0.0000 24.2374 0.0000 6.1991
# 5 19.4364 9.5736 16.7888 0.0000 36.0648 0.0000
# 6 0.0000 0.0000 0.0000 6.1991 0.0000 23.5451
#
#
#
# Elastic Compliance Matrix: (Units=1/GPa)
#
#
# Indices 1 2 3 4 5 6 
#
# 1 0.010602 -0.003479 -0.003213 0.000000 -0.003295 0.000000
# 2 -0.003479 0.023899 -0.006133 0.000000 -0.001614 0.000000
# 3 -0.003213 -0.006133 0.017282 0.000000 -0.004685 0.000000
# 4 0.000000 0.000000 0.000000 0.044237 0.000000 -0.011647
# 5 -0.003295 -0.001614 -0.004685 0.000000 0.032113 0.000000
# 6 0.000000 0.000000 0.000000 -0.011647 0.000000 0.045538
#
#
# Mechanical properties :
#
#
# Convention : Reuss Voigt Hill
#
# Bulk Modulus (GPa) = 38.26615 49.03797 43.65206
# Shear Modulus (GPa) = 24.03476 27.45264 25.74370
#
# Velocity S-wave (km/s) = 3.55520 3.79958 3.67942
# Velocity P-wave (km/s) = 6.08079 6.71098 6.40364
#
# Compressibility (1/GPa) = 0.02613275
#
# Stress axis : x y z
#
# Youngs Moduli (GPa) = 94.32027 41.84292 57.86515
#
# Poissons Ratio (x) = 0.14557 0.18589
# Poissons Ratio (y) = 0.32813 0.35491
# Poissons Ratio (z) = 0.30301 0.25664
#
# Static dielectric constant tensor:
#      x y z
#    x 1.745290 0.000000 0.025330 
#    y 0.000000 1.691700 0.000000 
#    z 0.025330 0.000000 1.749010 
# 
# From -- ./inp_files/259861.got.cif
#   From: 2010.05.17/outbox.cif.g08.bks.cpg/sg12_130_cif.got.tgz:259861.got - 2010.06.03 13:09:07.
