data_PCOD9217383
_publ_section_title
;
Structure prediction by ZEFSAII (Michael W. Deem and Ramdas Pophale) SiO2 
 PCOD9217383
Probable space group: C 2/M
;
_chemical_formula_sum "Si O2"
_cell_formula_units_Z 56
_cell_length_a 11.551623
_cell_length_b 29.232727
_cell_length_c 9.523287
_cell_angle_alpha 90.000000
_cell_angle_beta 59.604107
_cell_angle_gamma 90.000000
_cell_volume 2773.853112
_symmetry_space_group_name_H-M "C 2/M"
_symmetry_group_IT_number 12
_symmetry_cell_setting 'monoclinic'
loop_
_space_group_symop_operation_xyz
x,y,z
-x,y,-z
-x,-y,-z
x,-y,z
1/2+x,1/2+y,z
1/2-x,1/2+y,-z
1/2-x,1/2-y,-z
1/2+x,1/2-y,z
loop_
_atom_site_type_symbol
_atom_site_label
_atom_site_fract_x
_atom_site_fract_y
_atom_site_fract_z
Si Si1 0.498019 0.317288 0.654859
Si Si2 0.665101 0.154289 0.243352
Si Si3 0.892360 0.110129 0.939152
Si Si4 0.538410 0.551878 0.640565
Si Si5 0.239292 0.247671 0.174582
Si Si6 0.250771 0.366643 0.481023
Si Si7 0.424666 0.167518 0.183437
O O1 0.500000 0.340396 0.500000
O O2 0.424278 0.346394 0.819810
O O3 0.408391 0.272127 0.696264
O O4 0.655674 0.321026 0.586077
O O5 0.754513 0.199865 0.204424
O O6 0.652551 0.135116 0.408006
O O7 0.536303 0.171682 0.236410
O O8 0.748195 0.118466 0.097318
O O9 0.919036 0.067863 0.818325
O O10 0.000000 0.108390 0.000000
O O11 0.500000 0.553253 0.500000
O O12 0.579154 0.500000 0.649141
O O13 0.654174 0.589482 0.594015
O O14 0.348108 0.213524 0.178004
O O15 0.250000 0.250000 0.000000
O O16 0.182671 0.364845 0.674758
O O17 0.500000 0.149195 0.000000
#
# Coordination Sequence:
#
# PCOD9217383 Si02
#       7
#     8   8   8   8   8   8   8
#     4  11  21  39  64  87 122 180 227 274 331 374
#     4  12  26  41  62  94 135 178 227 272 335 389
#     4  11  20  38  66  98 131 170 206 272 342 395
#     4  10  23  42  73 108 133 163 214 277 339 410
#     4  12  25  40  60  89 129 175 239 285 313 377
#     4  11  24  44  66  95 135 170 221 278 343 397
#     4  12  26  43  63  91 126 188 224 277 326 395
#
# _framework density 20.188523
#
# number of rings (size 3 to 8) (size 9 to 14) (size 15 to 20)
#    0.000    0.714    7.143    2.143    4.000    2.571 
#    0.000    0.000    0.000    3.000    0.000    0.000 
#    0.000    0.000    0.000    0.000    0.000    0.000 
#
# Total GULP energy -156106.100527 kJ/mol
# GULP energy per Si atom -5575.217876 kJ/mol
# Density = 2.014257 g / cm^3
# Si number density = 20.188523 Si / 1000 Ang^3
#
#
#
# Elastic Constant Matrix: (Units=GPa)
#
#
# Indices 1 2 3 4 5 6 
#
# 1 106.2998 21.9100 33.1766 0.0000 14.5073 0.0000
# 2 21.9100 73.5505 38.3866 0.0000 2.1031 0.0000
# 3 33.1766 38.3866 129.6254 0.0000 3.6986 0.0000
# 4 0.0000 0.0000 0.0000 20.7275 0.0000 1.1293
# 5 14.5073 2.1031 3.6986 0.0000 41.0962 0.0000
# 6 0.0000 0.0000 0.0000 1.1293 0.0000 -0.3713
#
#
#
# Elastic Compliance Matrix: (Units=1/GPa)
#
#
# Indices 1 2 3 4 5 6 
#
# 1 0.010977 -0.002075 -0.002093 0.000000 -0.003580 0.000000
# 2 -0.002075 0.016480 -0.004357 0.000000 0.000281 0.000000
# 3 -0.002093 -0.004357 0.009538 0.000000 0.000103 0.000000
# 4 0.000000 0.000000 0.000000 0.041388 0.000000 0.125867
# 5 -0.003580 0.000281 0.000103 0.000000 0.025573 0.000000
# 6 0.000000 0.000000 0.000000 0.125867 0.000000 -2.310202
#
#
# Mechanical properties :
#
#
# Convention : Reuss Voigt Hill
#
# Bulk Modulus (GPa) = 50.13997 55.15801 52.64899
# Shear Modulus (GPa) = -2.29090 26.69063 12.19986
#
# Velocity S-wave (km/s) = -1.06640 3.63997 2.46091
# Velocity P-wave (km/s) = 4.83462 6.71168 5.84894
#
# Compressibility (1/GPa) = 0.01994417
#
# Stress axis : x y z
#
# Youngs Moduli (GPa) = 91.10051 60.67824 104.84877
#
# Poissons Ratio (x) = 0.12593 0.21942
# Poissons Ratio (y) = 0.18906 0.45686
# Poissons Ratio (z) = 0.19065 0.26439
#
# Static dielectric constant tensor:
#      x y z
#    x 1.811830 0.000000 -0.010110 
#    y 0.000000 1.701930 0.000000 
#    z -0.010110 0.000000 1.756730 
# 
# From -- ./inp_files/54594.got.cif
#   From: 2010.05.17/outbox.cif.g08.bks.cpg/sg12_28_cif.got.tgz:54594.got - 2010.06.03 13:09:07.
