data_PCOD9217732
_publ_section_title
;
Structure prediction by ZEFSAII (Michael W. Deem and Ramdas Pophale) SiO2 
 PCOD9217732
Probable space group: C 2/M
;
_chemical_formula_sum "Si O2"
_cell_formula_units_Z 40
_cell_length_a 13.783303
_cell_length_b 15.294098
_cell_length_c 24.480863
_cell_angle_alpha 90.000000
_cell_angle_beta 159.064131
_cell_angle_gamma 90.000000
_cell_volume 1844.015594
_symmetry_space_group_name_H-M "C 2/M"
_symmetry_group_IT_number 12
_symmetry_cell_setting 'monoclinic'
loop_
_space_group_symop_operation_xyz
x,y,z
-x,y,-z
-x,-y,-z
x,-y,z
1/2+x,1/2+y,z
1/2-x,1/2+y,-z
1/2-x,1/2-y,-z
1/2+x,1/2-y,z
loop_
_atom_site_type_symbol
_atom_site_label
_atom_site_fract_x
_atom_site_fract_y
_atom_site_fract_z
Si Si1 0.208891 0.000000 0.031014
Si Si2 0.739788 0.158600 0.024161
Si Si3 0.317585 0.398538 0.250132
Si Si4 0.417940 0.000000 0.262166
Si Si5 0.805208 0.835635 0.647460
Si Si6 0.767246 0.825034 0.461602
O O1 0.381423 0.000000 0.177367
O O2 0.267344 0.915982 0.025087
O O3 0.888022 0.000000 0.876125
O O4 0.000234 0.149291 0.199239
O O5 0.750000 0.250000 0.000000
O O6 0.458134 0.151229 0.909157
O O7 0.258207 0.500000 0.222059
O O8 0.549220 0.383890 0.326539
O O9 0.435454 0.363743 0.369654
O O10 0.571761 0.910135 0.360879
O O11 0.500000 0.865233 0.500000
O O12 0.786697 0.733132 0.620190
O O13 0.750000 0.750000 0.500000
#
# Coordination Sequence:
#
# PCOD9217732 Si02
#       6
#     4   8   8   4   8   8
#     4  11  28  43  72 106 141 186 239 283 362 419
#     4  12  26  46  71 101 147 185 235 290 350 422
#     4  11  24  45  72 104 141 183 233 293 354 414
#     4  11  24  47  72 105 142 184 232 298 348 425
#     4  11  26  43  70 104 140 184 238 283 352 419
#     4  10  23  44  71 102 141 183 237 282 352 416
#
# _framework density 21.691790000000001
#
# number of rings (size 3 to 8) (size 9 to 14) (size 15 to 20)
#    0.000    1.000    2.000    3.000   12.600    1.200 
#    0.000    1.500    0.000    0.000    0.000    0.000 
#    0.000    0.000    0.000    0.000    0.000    0.000 
#
# Total GULP energy -111741.985979 kJ/mol
# GULP energy per Si atom -5587.099299 kJ/mol
# Density = 2.164242 g / cm^3
# Si number density = 21.691790 Si / 1000 Ang^3
#
#
#
# Elastic Constant Matrix: (Units=GPa)
#
#
# Indices 1 2 3 4 5 6 
#
# 1 82.5002 42.8730 45.5024 -0.0001 3.3684 0.0077
# 2 42.8730 148.0091 40.2701 -0.0209 0.8748 0.0135
# 3 45.5024 40.2701 164.5975 0.0124 9.2650 0.0150
# 4 -0.0001 -0.0209 0.0124 39.9182 0.0049 -4.6210
# 5 3.3684 0.8748 9.2650 0.0049 39.6368 0.0015
# 6 0.0077 0.0135 0.0150 -4.6210 0.0015 26.4966
#
#
#
# Elastic Compliance Matrix: (Units=1/GPa)
#
#
# Indices 1 2 3 4 5 6 
#
# 1 0.015975 -0.003675 -0.003491 -0.000001 -0.000460 -0.000001
# 2 -0.003675 0.008086 -0.000983 0.000004 0.000364 -0.000002
# 3 -0.003491 -0.000983 0.007360 -0.000003 -0.001402 -0.000003
# 4 -0.000001 0.000004 -0.000003 0.025567 -0.000003 0.004459
# 5 -0.000460 0.000364 -0.001402 -0.000003 0.025588 -0.000001
# 6 -0.000001 -0.000002 -0.000003 0.004459 -0.000001 0.038518
#
#
# Mechanical properties :
#
#
# Convention : Reuss Voigt Hill
#
# Bulk Modulus (GPa) = 66.12332 72.48863 69.30598
# Shear Modulus (GPa) = 35.10393 38.97441 37.03917
#
# Velocity S-wave (km/s) = 4.02718 4.24339 4.13670
# Velocity P-wave (km/s) = 7.22312 7.58278 7.40514
#
# Compressibility (1/GPa) = 0.01512326
#
# Stress axis : x y z
#
# Youngs Moduli (GPa) = 62.59665 123.66915 135.87005
#
# Poissons Ratio (x) = 0.45446 0.47436
# Poissons Ratio (y) = 0.23003 0.13355
# Poissons Ratio (z) = 0.21854 0.12155
#
# Static dielectric constant tensor:
#      x y z
#    x 1.849730 0.000010 -0.001840 
#    y 0.000010 1.735610 -0.000020 
#    z -0.001840 -0.000020 1.803270 
# 
# From -- ./inp_files/361515.got.cif
#   From: 2010.05.17/outbox.cif.g08.bks.cpg/sg12_181_cif.got.tgz:361515.got - 2010.06.03 13:09:07.
