data_PCOD9217981
_publ_section_title
;
Structure prediction by ZEFSAII (Michael W. Deem and Ramdas Pophale) SiO2 
 PCOD9217981
Probable space group: C 2/M
;
_chemical_formula_sum "Si O2"
_cell_formula_units_Z 28
_cell_length_a 9.160895
_cell_length_b 9.580440
_cell_length_c 16.332498
_cell_angle_alpha 90.000000
_cell_angle_beta 56.147524
_cell_angle_gamma 90.000000
_cell_volume 1190.425825
_symmetry_space_group_name_H-M "C 2/M"
_symmetry_group_IT_number 12
_symmetry_cell_setting 'monoclinic'
loop_
_space_group_symop_operation_xyz
x,y,z
-x,y,-z
-x,-y,-z
x,-y,z
1/2+x,1/2+y,z
1/2-x,1/2+y,-z
1/2-x,1/2-y,-z
1/2+x,1/2-y,z
loop_
_atom_site_type_symbol
_atom_site_label
_atom_site_fract_x
_atom_site_fract_y
_atom_site_fract_z
Si Si1 0.210945 0.158190 0.210706
Si Si2 0.817334 0.500000 0.494286
Si Si3 0.309709 0.285635 0.590720
Si Si4 0.114943 0.338740 0.095682
O O1 0.198090 0.186380 0.311005
O O2 0.111774 0.268749 0.186144
O O3 0.417110 0.166251 0.123851
O O4 0.148786 0.000000 0.213859
O O5 0.824188 0.377056 0.420909
O O6 0.800456 0.623458 0.570009
O O7 0.500000 0.338800 0.500000
O O8 0.169614 0.500000 0.082510
O O9 0.250000 0.250000 0.000000
#
# Coordination Sequence:
#
# PCOD9217981 Si02
#       4
#     8   4   8   8
#     4  11  26  43  69 100 135 172 219 271 328 388
#     4  10  24  40  62  90 136 172 222 260 318 370
#     4  11  24  40  64  94 134 175 215 264 317 384
#     4  11  26  47  70  98 131 169 219 278 333 391
#
# _framework density 23.520994999999999
#
# number of rings (size 3 to 8) (size 9 to 14) (size 15 to 20)
#    0.000    1.143    1.429    2.571   10.000    5.714 
#    0.000    0.000    0.000    0.000    0.000    0.000 
#    0.000    0.000    0.000    0.000    0.000    0.000 
#
# Total GULP energy -77953.758953 kJ/mol
# GULP energy per Si atom -5568.125640 kJ/mol
# Density = 2.346746 g / cm^3
# Si number density = 23.520995 Si / 1000 Ang^3
#
#
#
# Elastic Constant Matrix: (Units=GPa)
#
#
# Indices 1 2 3 4 5 6 
#
# 1 44.8706 28.8104 12.1383 0.0000 5.4183 0.0000
# 2 28.8104 223.6010 23.8532 0.0000 10.9633 0.0000
# 3 12.1383 23.8532 95.7327 0.0000 0.7691 0.0000
# 4 0.0000 0.0000 0.0000 36.7420 0.0000 5.3697
# 5 5.4183 10.9633 0.7691 0.0000 36.3300 0.0000
# 6 0.0000 0.0000 0.0000 5.3697 0.0000 0.1091
#
#
#
# Elastic Compliance Matrix: (Units=1/GPa)
#
#
# Indices 1 2 3 4 5 6 
#
# 1 0.025113 -0.002835 -0.002455 0.000000 -0.002838 0.000000
# 2 -0.002835 0.004983 -0.000874 0.000000 -0.001062 0.000000
# 3 -0.002455 -0.000874 0.010972 0.000000 0.000398 0.000000
# 4 0.000000 0.000000 0.000000 -0.004394 0.000000 0.216299
# 5 -0.002838 -0.001062 0.000398 0.000000 0.028261 0.000000
# 6 0.000000 0.000000 0.000000 0.216299 0.000000 -1.480012
#
#
# Mechanical properties :
#
#
# Convention : Reuss Voigt Hill
#
# Bulk Modulus (GPa) = 34.79376 54.86756 44.83066
# Shear Modulus (GPa) = -3.58894 34.59638 15.50372
#
# Velocity S-wave (km/s) = -1.23659 3.83936 2.57017
# Velocity P-wave (km/s) = 3.57573 6.55987 5.28289
#
# Compressibility (1/GPa) = 0.02874079
#
# Stress axis : x y z
#
# Youngs Moduli (GPa) = 39.81959 200.69120 91.14515
#
# Poissons Ratio (x) = 0.56891 0.22377
# Poissons Ratio (y) = 0.11288 0.07962
# Poissons Ratio (z) = 0.09776 0.17532
#
# Static dielectric constant tensor:
#      x y z
#    x 2.048970 0.000000 -0.043580 
#    y 0.000000 1.840170 0.000000 
#    z -0.043580 0.000000 1.887360 
# 
# From -- ./inp_files/201770.got.cif
#   From: 2010.05.17/outbox.cif.g08.bks.cpg/sg12_101_cif.got.tgz:201770.got - 2010.06.03 13:09:07.
