data_PCOD9217240
_publ_section_title
;
Structure prediction by ZEFSAII (Michael W. Deem and Ramdas Pophale) SiO2 
 PCOD9217240
Probable space group: C 2/M
;
_chemical_formula_sum "Si O2"
_cell_formula_units_Z 36
_cell_length_a 15.413776
_cell_length_b 20.101723
_cell_length_c 12.087444
_cell_angle_alpha 90.000000
_cell_angle_beta 151.933574
_cell_angle_gamma 90.000000
_cell_volume 1762.104733
_symmetry_space_group_name_H-M "C 2/M"
_symmetry_group_IT_number 12
_symmetry_cell_setting 'monoclinic'
loop_
_space_group_symop_operation_xyz
x,y,z
-x,y,-z
-x,-y,-z
x,-y,z
1/2+x,1/2+y,z
1/2-x,1/2+y,-z
1/2-x,1/2-y,-z
1/2+x,1/2-y,z
loop_
_atom_site_type_symbol
_atom_site_label
_atom_site_fract_x
_atom_site_fract_y
_atom_site_fract_z
Si Si1 0.369413 0.652446 0.243937
Si Si2 0.729421 0.322682 0.530961
Si Si3 0.690386 0.742423 0.174237
Si Si4 0.500000 0.864446 0.500000
Si Si5 0.528302 0.077323 0.769115
O O1 0.500000 0.640944 0.500000
O O2 0.515315 0.659009 0.307386
O O3 0.253514 0.721179 0.132450
O O4 0.214610 0.598448 0.042955
O O5 0.750000 0.250000 0.500000
O O6 0.801371 0.305632 0.734325
O O7 0.858653 0.377363 0.621420
O O8 0.840339 0.685761 0.358981
O O9 0.500000 0.710843 0.000000
O O10 0.444307 0.906457 0.330137
O O11 0.488478 0.000000 0.740369
#
# Coordination Sequence:
#
# PCOD9217240 Si02
#       5
#     8   8   8   4   8
#     4  10  23  42  64  99 131 167 221 280 335 382
#     4  11  21  40  68  99 130 171 230 282 326 387
#     4  11  20  37  67 104 128 162 224 286 334 374
#     4  12  25  42  66  98 137 176 222 276 325 398
#     4  12  27  44  65  96 141 185 217 264 335 413
#
# _framework density 20.430112000000001
#
# number of rings (size 3 to 8) (size 9 to 14) (size 15 to 20)
#    0.000    0.889    7.778    0.333    3.111    3.111 
#    0.000    7.778    0.000    4.000    0.000    0.000 
#    0.000    0.000    0.000    0.000    0.000    0.000 
#
# Total GULP energy -100315.723665 kJ/mol
# GULP energy per Si atom -5573.095759 kJ/mol
# Density = 2.038361 g / cm^3
# Si number density = 20.430112 Si / 1000 Ang^3
#
#
#
# Elastic Constant Matrix: (Units=GPa)
#
#
# Indices 1 2 3 4 5 6 
#
# 1 124.0950 56.4062 66.4033 0.0000 26.8020 0.0000
# 2 56.4062 144.0316 57.0339 0.0000 16.4205 0.0000
# 3 66.4033 57.0339 97.8455 0.0000 30.5643 0.0000
# 4 0.0000 0.0000 0.0000 29.3905 0.0000 -11.4932
# 5 26.8020 16.4205 30.5643 0.0000 45.7183 0.0000
# 6 0.0000 0.0000 0.0000 -11.4932 0.0000 62.5364
#
#
#
# Elastic Compliance Matrix: (Units=1/GPa)
#
#
# Indices 1 2 3 4 5 6 
#
# 1 0.013314 -0.002156 -0.007056 0.000000 -0.002314 0.000000
# 2 -0.002156 0.009380 -0.004230 0.000000 0.000723 0.000000
# 3 -0.007056 -0.004230 0.019854 0.000000 -0.007617 0.000000
# 4 0.000000 0.000000 0.000000 0.036659 0.000000 0.006737
# 5 -0.002314 0.000723 -0.007617 0.000000 0.028062 0.000000
# 6 0.000000 0.000000 0.000000 0.006737 0.000000 0.017229
#
#
# Mechanical properties :
#
#
# Convention : Reuss Voigt Hill
#
# Bulk Modulus (GPa) = 63.84424 80.62878 72.23651
# Shear Modulus (GPa) = 31.92785 39.93762 35.93274
#
# Velocity S-wave (km/s) = 3.95749 4.42616 4.19837
# Velocity P-wave (km/s) = 7.22498 8.10385 7.67700
#
# Compressibility (1/GPa) = 0.01566312
#
# Stress axis : x y z
#
# Youngs Moduli (GPa) = 75.11051 106.61043 50.36812
#
# Poissons Ratio (x) = 0.22987 0.35539
# Poissons Ratio (y) = 0.16195 0.21306
# Poissons Ratio (z) = 0.52997 0.45097
#
# Static dielectric constant tensor:
#      x y z
#    x 2.014550 0.000000 -0.117160 
#    y 0.000000 1.673990 0.000000 
#    z -0.117160 0.000000 1.943250 
# 
# From -- ./inp_files/147829.got.cif
#   From: 2010.05.17/outbox.cif.g08.bks.cpg/sg12_74_cif.got.tgz:147829.got - 2010.06.03 13:09:07.
