data_PCOD9217576
_publ_section_title
;
Structure prediction by ZEFSAII (Michael W. Deem and Ramdas Pophale) SiO2 
 PCOD9217576
Probable space group: C 2/M
;
_chemical_formula_sum "Si O2"
_cell_formula_units_Z 44
_cell_length_a 16.919129
_cell_length_b 13.900946
_cell_length_c 28.773562
_cell_angle_alpha 90.000000
_cell_angle_beta 19.545171
_cell_angle_gamma 90.000000
_cell_volume 2264.002560
_symmetry_space_group_name_H-M "C 2/M"
_symmetry_group_IT_number 12
_symmetry_cell_setting 'monoclinic'
loop_
_space_group_symop_operation_xyz
x,y,z
-x,y,-z
-x,-y,-z
x,-y,z
1/2+x,1/2+y,z
1/2-x,1/2+y,-z
1/2-x,1/2-y,-z
1/2+x,1/2-y,z
loop_
_atom_site_type_symbol
_atom_site_label
_atom_site_fract_x
_atom_site_fract_y
_atom_site_fract_z
Si Si1 0.994513 0.000000 0.420880
Si Si2 0.634933 0.353182 0.061009
Si Si3 0.002814 0.217054 0.378511
Si Si4 0.839922 0.826507 0.132576
Si Si5 0.644669 0.888487 0.371374
Si Si6 0.043740 0.500000 0.255312
Si Si7 0.990605 0.500000 0.832948
O O1 0.004697 0.104509 0.390129
O O2 0.228470 0.000000 0.322637
O O3 0.736889 0.000000 0.585977
O O4 0.495063 0.364805 0.089712
O O5 0.432363 0.376858 0.211406
O O6 0.750000 0.250000 0.000000
O O7 0.871241 0.414536 0.927134
O O8 0.196235 0.236920 0.231844
O O9 0.063671 0.296775 0.384978
O O10 0.750000 0.250000 0.500000
O O11 0.656892 0.907893 0.217494
O O12 0.000000 0.803191 0.000000
O O13 0.500000 0.881736 0.500000
O O14 0.601278 0.000000 0.378024
O O15 0.100087 0.500000 0.169595
#
# Coordination Sequence:
#
# PCOD9217576 Si02
#       7
#     4   8   8   8   8   4   4
#     4  12  27  45  63 101 140 180 226 281 355 394
#     4  11  23  39  66  98 138 174 220 279 332 398
#     4  11  25  43  69  94 137 180 221 279 336 408
#     4  11  22  41  68 101 130 174 227 273 334 409
#     4  10  23  43  70 100 133 177 230 275 334 412
#     4  12  23  40  71 101 135 173 226 279 346 407
#     4  12  22  40  63 101 136 171 216 285 342 403
#
# _framework density 19.434605999999999
#
# number of rings (size 3 to 8) (size 9 to 14) (size 15 to 20)
#    0.000    0.909    4.545    3.273    5.091    4.364 
#    0.000    0.455    0.000    0.000    0.000    0.000 
#    0.000    0.000    0.000    0.000    0.000    0.000 
#
# Total GULP energy -122579.410583 kJ/mol
# GULP energy per Si atom -5571.791390 kJ/mol
# Density = 1.939037 g / cm^3
# Si number density = 19.434606 Si / 1000 Ang^3
#
#
#
# Elastic Constant Matrix: (Units=GPa)
#
#
# Indices 1 2 3 4 5 6 
#
# 1 55.5980 35.1389 45.6943 0.0013 -3.0683 0.0023
# 2 35.1389 182.0986 50.5542 -0.0227 7.8095 0.0141
# 3 45.6943 50.5542 162.6100 0.0436 14.6013 -0.0297
# 4 0.0013 -0.0227 0.0436 40.1818 -0.0059 -7.2932
# 5 -3.0683 7.8095 14.6013 -0.0059 41.9842 -0.0059
# 6 0.0023 0.0141 -0.0297 -7.2932 -0.0059 15.9698
#
#
#
# Elastic Compliance Matrix: (Units=1/GPa)
#
#
# Indices 1 2 3 4 5 6 
#
# 1 0.025834 -0.003345 -0.006653 0.000003 0.004824 -0.000010
# 2 -0.003345 0.006453 -0.000967 0.000004 -0.001109 -0.000006
# 3 -0.006653 -0.000967 0.008616 -0.000008 -0.003303 0.000013
# 4 0.000003 0.000004 -0.000008 0.027136 0.000008 0.012393
# 5 0.004824 -0.001109 -0.003303 0.000008 0.025526 0.000007
# 6 -0.000010 -0.000006 0.000013 0.012393 0.000007 0.068278
#
#
# Mechanical properties :
#
#
# Convention : Reuss Voigt Hill
#
# Bulk Modulus (GPa) = 52.70226 73.67570 63.18898
# Shear Modulus (GPa) = 26.30228 37.55510 31.92869
#
# Velocity S-wave (km/s) = 3.68281 4.40066 4.05764
# Velocity P-wave (km/s) = 6.72761 7.98830 7.38490
#
# Compressibility (1/GPa) = 0.01897452
#
# Stress axis : x y z
#
# Youngs Moduli (GPa) = 38.70811 154.96853 116.05961
#
# Poissons Ratio (x) = 0.51838 0.77212
# Poissons Ratio (y) = 0.12948 0.11219
# Poissons Ratio (z) = 0.25752 0.14980
#
# Static dielectric constant tensor:
#      x y z
#    x 1.684280 0.000000 0.001090 
#    y 0.000000 1.648130 0.000020 
#    z 0.001090 0.000020 1.690960 
# 
# From -- ./inp_files/379313.got.cif
#   From: 2010.05.17/outbox.cif.g08.bks.cpg/sg12_190_cif.got.tgz:379313.got - 2010.06.03 13:09:07.
