data_PCOD9217936
_publ_section_title
;
Structure prediction by ZEFSAII (Michael W. Deem and Ramdas Pophale) SiO2 
 PCOD9217936
Probable space group: C 2/M
;
_chemical_formula_sum "Si O2"
_cell_formula_units_Z 48
_cell_length_a 9.190836
_cell_length_b 17.565555
_cell_length_c 13.575478
_cell_angle_alpha 90.000000
_cell_angle_beta 94.417091
_cell_angle_gamma 90.000000
_cell_volume 2185.144555
_symmetry_space_group_name_H-M "C 2/M"
_symmetry_group_IT_number 12
_symmetry_cell_setting 'monoclinic'
loop_
_space_group_symop_operation_xyz
x,y,z
-x,y,-z
-x,-y,-z
x,-y,z
1/2+x,1/2+y,z
1/2-x,1/2+y,-z
1/2-x,1/2-y,-z
1/2+x,1/2-y,z
loop_
_atom_site_type_symbol
_atom_site_label
_atom_site_fract_x
_atom_site_fract_y
_atom_site_fract_z
Si Si1 0.069618 0.655816 0.654002
Si Si2 0.073875 0.500000 0.399375
Si Si3 0.600593 0.908740 0.858423
Si Si4 0.416997 0.500000 0.390236
Si Si5 0.726632 0.089397 0.071199
Si Si6 0.415152 0.649025 0.252643
Si Si7 0.823964 0.237159 0.665333
O O1 0.119611 0.651266 0.771313
O O2 0.220528 0.674953 0.607098
O O3 0.990430 0.575663 0.649216
O O4 0.945871 0.714752 0.614439
O O5 0.245700 0.500000 0.405919
O O6 0.000000 0.500000 0.500000
O O7 0.431429 0.903660 0.883769
O O8 0.628437 0.000000 0.838400
O O9 0.700109 0.887171 0.957218
O O10 0.500000 0.500000 0.500000
O O11 0.441857 0.574811 0.323257
O O12 0.848193 0.128454 0.143885
O O13 0.761142 0.000000 0.072004
O O14 0.291794 0.702150 0.298111
O O15 0.567626 0.693481 0.254879
#
# Coordination Sequence:
#
# PCOD9217936 Si02
#       7
#     8   4   8   4   8   8   8
#     4  11  21  44  63  91 128 164 205 252 309 360
#     4  12  26  44  71  95 120 156 211 260 304 363
#     4   9  16  30  59  92 119 160 211 252 295 353
#     4  12  26  44  71  95 120 156 211 260 304 363
#     4   9  16  30  59  92 119 160 211 252 295 353
#     4  11  21  44  63  91 128 164 205 252 309 360
#     4  10  24  38  66  90 128 172 196 246 318 374
#
# _framework density 21.966511000000001
#
# number of rings (size 3 to 8) (size 9 to 14) (size 15 to 20)
#    0.000    1.667    5.000    1.000    2.333    0.000 
#    0.000   10.833    0.000    2.000    0.000    0.000 
#    0.000    0.000    0.000    0.000    0.000    0.000 
#
# Total GULP energy -133757.525084 kJ/mol
# GULP energy per Si atom -5573.230212 kJ/mol
# Density = 2.191651 g / cm^3
# Si number density = 21.966511 Si / 1000 Ang^3
#
#
#
# Elastic Constant Matrix: (Units=GPa)
#
#
# Indices 1 2 3 4 5 6 
#
# 1 140.6574 51.4165 21.8821 0.0000 33.8965 0.0000
# 2 51.4165 83.3882 22.0848 0.0000 21.6609 0.0000
# 3 21.8821 22.0848 76.1443 0.0000 25.4785 0.0000
# 4 0.0000 0.0000 0.0000 -82.8259 0.0000 -5.2833
# 5 33.8965 21.6609 25.4785 0.0000 33.5886 0.0000
# 6 0.0000 0.0000 0.0000 -5.2833 0.0000 28.9122
#
#
#
# Elastic Compliance Matrix: (Units=1/GPa)
#
#
# Indices 1 2 3 4 5 6 
#
# 1 0.010732 -0.004666 0.001188 0.000000 -0.008723 0.000000
# 2 -0.004666 0.016552 -0.001962 0.000000 -0.004477 0.000000
# 3 0.001188 -0.001962 0.017875 0.000000 -0.013493 0.000000
# 4 0.000000 0.000000 0.000000 -0.011934 0.000000 -0.002181
# 5 -0.008723 -0.004477 -0.013493 0.000000 0.051697 0.000000
# 6 0.000000 0.000000 0.000000 -0.002181 0.000000 0.034189
#
#
# Mechanical properties :
#
#
# Convention : Reuss Voigt Hill
#
# Bulk Modulus (GPa) = 29.17208 54.55074 41.86141
# Shear Modulus (GPa) = 35.35620 9.58874 22.47247
#
# Velocity S-wave (km/s) = 4.01627 2.09156 3.20196
# Velocity P-wave (km/s) = 5.90054 5.54259 5.72436
#
# Compressibility (1/GPa) = 0.03427935
#
# Stress axis : x y z
#
# Youngs Moduli (GPa) = 93.17517 60.41633 55.94270
#
# Poissons Ratio (x) = 0.28192 -0.06645
# Poissons Ratio (y) = 0.43479 0.10974
# Poissons Ratio (z) = -0.11067 0.11851
#
# Static dielectric constant tensor:
#      x y z
#    x 1.788380 0.000000 0.025530 
#    y 0.000000 1.841870 0.000000 
#    z 0.025530 0.000000 1.852980 
# 
# From -- ./inp_files/196007.got.cif
#   From: 2010.05.17/outbox.cif.g08.bks.cpg/sg12_99_cif.got.tgz:196007.got - 2010.06.03 13:09:07.
