data_PCOD9217219
_publ_section_title
;
Structure prediction by ZEFSAII (Michael W. Deem and Ramdas Pophale) SiO2 
 PCOD9217219
Probable space group: C 2/M
;
_chemical_formula_sum "Si O2"
_cell_formula_units_Z 56
_cell_length_a 24.083864
_cell_length_b 8.661080
_cell_length_c 31.487433
_cell_angle_alpha 90.000000
_cell_angle_beta 154.134876
_cell_angle_gamma 90.000000
_cell_volume 2865.332592
_symmetry_space_group_name_H-M "C 2/M"
_symmetry_group_IT_number 12
_symmetry_cell_setting 'monoclinic'
loop_
_space_group_symop_operation_xyz
x,y,z
-x,y,-z
-x,-y,-z
x,-y,z
1/2+x,1/2+y,z
1/2-x,1/2+y,-z
1/2-x,1/2-y,-z
1/2+x,1/2-y,z
loop_
_atom_site_type_symbol
_atom_site_label
_atom_site_fract_x
_atom_site_fract_y
_atom_site_fract_z
Si Si1 0.278443 0.684151 0.636785
Si Si2 0.642893 0.186549 0.084611
Si Si3 0.350360 0.316410 0.534969
Si Si4 0.677629 0.185873 0.011236
Si Si5 0.119521 0.316026 0.700093
Si Si6 0.636509 0.679150 0.617170
Si Si7 0.941556 0.185620 0.151155
O O1 0.266299 0.500000 0.621918
O O2 0.199639 0.770158 0.546241
O O3 0.229121 0.728500 0.649524
O O4 0.426319 0.730863 0.736556
O O5 0.657884 0.232116 0.045882
O O6 0.753299 0.262794 0.188312
O O7 0.656571 0.000000 0.097380
O O8 0.500000 0.226845 0.000000
O O9 0.356148 0.500000 0.543423
O O10 0.250000 0.250000 0.500000
O O11 0.492920 0.248817 0.636075
O O12 0.816790 0.237908 0.090865
O O13 0.673266 0.000000 0.006039
O O14 0.575164 0.251344 0.907836
O O15 0.111155 0.500000 0.692609
O O16 0.124654 0.249465 0.655774
O O17 0.500000 0.684131 0.500000
O O18 0.676434 0.500000 0.647755
O O19 0.940059 0.000000 0.148459
#
# Coordination Sequence:
#
# PCOD9217219 Si02
#       7
#     8   8   8   8   8   8   8
#     4  11  23  39  63  96 128 164 209 263 320 380
#     4  10  23  42  64  92 126 169 217 264 319 384
#     4  12  26  45  67  96 132 172 216 264 317 386
#     4   9  19  38  61  86 119 163 208 255 310 372
#     4  12  26  44  67  96 128 169 214 268 327 384
#     4  11  23  41  65  91 123 166 209 258 313 375
#     4   9  20  37  59  89 122 159 201 255 315 369
#
# _framework density 19.543979
#
# number of rings (size 3 to 8) (size 9 to 14) (size 15 to 20)
#    0.000    1.429    1.429    3.429    4.000    2.571 
#    0.000    0.000    0.000    0.000    0.000    0.000 
#    0.000    0.000    0.000    0.000    0.000    0.000 
#
# Total GULP energy -156522.664085 kJ/mol
# GULP energy per Si atom -5590.095146 kJ/mol
# Density = 1.949950 g / cm^3
# Si number density = 19.543979 Si / 1000 Ang^3
#
#
#
# Elastic Constant Matrix: (Units=GPa)
#
#
# Indices 1 2 3 4 5 6 
#
# 1 116.4744 28.1993 41.7696 0.0004 -4.5598 0.0000
# 2 28.1993 74.8977 41.3401 0.0004 -0.8821 0.0005
# 3 41.7696 41.3401 122.9147 0.0012 2.3859 -0.0001
# 4 0.0004 0.0004 0.0012 24.4102 0.0000 -12.7333
# 5 -4.5598 -0.8821 2.3859 0.0000 23.0205 0.0000
# 6 0.0000 0.0005 -0.0001 -12.7333 0.0000 23.1516
#
#
#
# Elastic Compliance Matrix: (Units=1/GPa)
#
#
# Indices 1 2 3 4 5 6 
#
# 1 0.010213 -0.002308 -0.002737 0.000000 0.002218 0.000000
# 2 -0.002308 0.016950 -0.004930 0.000000 0.000703 0.000000
# 3 -0.002737 -0.004930 0.010760 0.000000 -0.001846 0.000000
# 4 0.000000 0.000000 0.000000 0.057449 0.000000 0.031597
# 5 0.002218 0.000703 -0.001846 0.000000 0.044097 0.000000
# 6 0.000000 0.000000 0.000000 0.031597 0.000000 0.060572
#
#
# Mechanical properties :
#
#
# Convention : Reuss Voigt Hill
#
# Bulk Modulus (GPa) = 55.64333 59.65610 57.64972
# Shear Modulus (GPa) = 22.12565 27.64831 24.88698
#
# Velocity S-wave (km/s) = 3.36831 3.76529 3.57232
# Velocity P-wave (km/s) = 6.60757 7.03516 6.82472
#
# Compressibility (1/GPa) = 0.01797161
#
# Stress axis : x y z
#
# Youngs Moduli (GPa) = 97.91530 58.99684 92.93739
#
# Poissons Ratio (x) = 0.13618 0.25440
# Poissons Ratio (y) = 0.22601 0.45819
# Poissons Ratio (z) = 0.26803 0.29086
#
# Static dielectric constant tensor:
#      x y z
#    x 1.673340 0.000000 0.021080 
#    y 0.000000 1.660790 0.000000 
#    z 0.021080 0.000000 1.668220 
# 
# From -- ./inp_files/380710.got.cif
#   From: 2010.05.17/outbox.cif.g08.bks.cpg/sg12_191_cif.got.tgz:380710.got - 2010.06.03 13:09:07.
