data_PCOD9217784
_publ_section_title
;
Structure prediction by ZEFSAII (Michael W. Deem and Ramdas Pophale) SiO2 
 PCOD9217784
Probable space group: C 2/M
;
_chemical_formula_sum "Si O2"
_cell_formula_units_Z 48
_cell_length_a 14.579402
_cell_length_b 18.200742
_cell_length_c 10.099072
_cell_angle_alpha 90.000000
_cell_angle_beta 136.460884
_cell_angle_gamma 90.000000
_cell_volume 1846.012777
_symmetry_space_group_name_H-M "C 2/M"
_symmetry_group_IT_number 12
_symmetry_cell_setting 'monoclinic'
loop_
_space_group_symop_operation_xyz
x,y,z
-x,y,-z
-x,-y,-z
x,-y,z
1/2+x,1/2+y,z
1/2-x,1/2+y,-z
1/2-x,1/2-y,-z
1/2+x,1/2-y,z
loop_
_atom_site_type_symbol
_atom_site_label
_atom_site_fract_x
_atom_site_fract_y
_atom_site_fract_z
Si Si1 0.593685 0.737753 0.219270
Si Si2 0.932488 0.616924 0.664664
Si Si3 0.230849 0.916746 0.691675
Si Si4 0.226051 0.377399 0.978880
Si Si5 0.476556 0.419295 0.745159
Si Si6 0.350627 0.796451 0.355728
O O1 0.551181 0.796472 0.282650
O O2 0.573020 0.652755 0.231513
O O3 0.746474 0.747201 0.336887
O O4 0.500000 0.755314 0.000000
O O5 0.839430 0.589350 0.686078
O O6 0.868665 0.624655 0.452642
O O7 0.080349 0.585242 0.816756
O O8 0.090272 0.910334 0.469459
O O9 0.240101 0.000000 0.754801
O O10 0.255604 0.865179 0.844059
O O11 0.212163 0.313250 0.853611
O O12 0.364252 0.416430 0.088214
O O13 0.432579 0.500000 0.748470
O O14 0.500000 0.765723 0.500000
#
# Coordination Sequence:
#
# PCOD9217784 Si02
#       6
#     8   8   8   8   8   8
#     4  12  23  46  73 104 143 187 238 294 355 429
#     4  11  25  46  72 103 144 187 235 292 362 425
#     4  11  24  45  71 102 140 189 241 292 357 425
#     4  11  23  45  68 101 139 180 233 296 344 424
#     4  11  25  44  70 102 141 189 240 295 355 420
#     4  10  23  45  70 102 141 184 233 291 351 426
#
# _framework density 26.001987
#
# number of rings (size 3 to 8) (size 9 to 14) (size 15 to 20)
#    0.000    1.000    3.333    3.000    0.000    4.333 
#    6.000    1.667    0.000    8.000    0.000    0.000 
#    0.000    0.000    0.000    0.000    0.000    0.000 
#
# Total GULP energy -134182.119929 kJ/mol
# GULP energy per Si atom -5590.921664 kJ/mol
# Density = 2.594281 g / cm^3
# Si number density = 26.001987 Si / 1000 Ang^3
#
#
#
# Elastic Constant Matrix: (Units=GPa)
#
#
# Indices 1 2 3 4 5 6 
#
# 1 115.4905 33.7275 29.3318 0.0000 13.0699 0.0000
# 2 33.7275 111.7872 27.0481 0.0000 0.8000 0.0000
# 3 29.3318 27.0481 147.2375 0.0000 2.8113 0.0000
# 4 0.0000 0.0000 0.0000 12.0907 0.0000 -3.7297
# 5 13.0699 0.8000 2.8113 0.0000 57.5488 0.0000
# 6 0.0000 0.0000 0.0000 -3.7297 0.0000 26.7846
#
#
#
# Elastic Compliance Matrix: (Units=1/GPa)
#
#
# Indices 1 2 3 4 5 6 
#
# 1 0.010056 -0.002662 -0.001473 0.000000 -0.002175 0.000000
# 2 -0.002662 0.010067 -0.001329 0.000000 0.000530 0.000000
# 3 -0.001473 -0.001329 0.007329 0.000000 -0.000005 0.000000
# 4 0.000000 0.000000 0.000000 0.086420 0.000000 0.012034
# 5 -0.002175 0.000530 -0.000005 0.000000 0.017863 0.000000
# 6 0.000000 0.000000 0.000000 0.012034 0.000000 0.039011
#
#
# Mechanical properties :
#
#
# Convention : Reuss Voigt Hill
#
# Bulk Modulus (GPa) = 60.51697 61.63668 61.07683
# Shear Modulus (GPa) = 26.71191 38.24534 32.47862
#
# Velocity S-wave (km/s) = 3.20863 3.83934 3.53807
# Velocity P-wave (km/s) = 6.08700 6.58864 6.34278
#
# Compressibility (1/GPa) = 0.01652429
#
# Stress axis : x y z
#
# Youngs Moduli (GPa) = 99.43944 99.33874 136.43694
#
# Poissons Ratio (x) = 0.26446 0.20094
# Poissons Ratio (y) = 0.26473 0.18133
# Poissons Ratio (z) = 0.14645 0.13202
#
# Static dielectric constant tensor:
#      x y z
#    x 2.047250 0.000000 -0.026830 
#    y 0.000000 2.045030 0.000000 
#    z -0.026830 0.000000 2.055170 
# 
# From -- ./inp_files/148009.got.cif
#   From: 2010.05.17/outbox.cif.g08.bks.cpg/sg12_75_cif.got.tgz:148009.got - 2010.06.03 13:09:07.
