data_PCOD9217441
_publ_section_title
;
Structure prediction by ZEFSAII (Michael W. Deem and Ramdas Pophale) SiO2 
 PCOD9217441
Probable space group: C 2/M
;
_chemical_formula_sum "Si O2"
_cell_formula_units_Z 58
_cell_length_a 27.495621
_cell_length_b 23.871828
_cell_length_c 9.076290
_cell_angle_alpha 90.000000
_cell_angle_beta 152.874223
_cell_angle_gamma 90.000000
_cell_volume 2716.253980
_symmetry_space_group_name_H-M "C 2/M"
_symmetry_group_IT_number 12
_symmetry_cell_setting 'monoclinic'
loop_
_space_group_symop_operation_xyz
x,y,z
-x,y,-z
-x,-y,-z
x,-y,z
1/2+x,1/2+y,z
1/2-x,1/2+y,-z
1/2-x,1/2-y,-z
1/2+x,1/2-y,z
loop_
_atom_site_type_symbol
_atom_site_label
_atom_site_fract_x
_atom_site_fract_y
_atom_site_fract_z
Si Si1 0.404153 0.905765 0.832551
Si Si2 0.097614 0.215040 0.869058
Si Si3 0.785713 0.937273 0.482464
Si Si4 0.695561 0.162140 0.702178
Si Si5 0.511002 0.177620 0.699753
Si Si6 0.465039 0.594382 0.179829
Si Si7 0.000000 0.000000 0.500000
Si Si8 0.283997 0.432690 0.157364
O O1 0.305064 0.937156 0.638008
O O2 0.354591 0.861218 0.584283
O O3 0.500000 0.934721 0.000000
O O4 0.456970 0.874286 0.112501
O O5 0.097304 0.272633 0.959652
O O6 0.058188 0.157663 0.835824
O O7 0.000000 0.229786 0.500000
O O8 0.204886 0.200587 0.072744
O O9 0.744372 0.914940 0.213921
O O10 0.816527 0.000000 0.526110
O O11 0.891534 0.912309 0.838884
O O12 0.605421 0.194268 0.551546
O O13 0.733658 0.108156 0.900129
O O14 0.500000 0.160194 0.500000
O O15 0.437543 0.549633 0.234649
O O16 0.589079 0.579400 0.492542
O O17 0.269199 0.500000 0.086263
#
# Coordination Sequence:
#
# PCOD9217441 Si02
#       8
#     8   8   8   8   8   8   2   8
#     4  10  23  43  65  91 122 167 219 270 316 375
#     4  11  22  39  65  97 125 165 218 254 312 382
#     4  11  23  39  62  94 133 170 211 261 325 383
#     4  11  22  43  68  91 131 165 216 265 316 386
#     4  10  24  44  65  89 127 166 212 272 321 363
#     4  12  21  37  60  99 133 169 206 255 312 387
#     4  12  20  32  66  92 142 166 206 256 312 372
#     4  11  23  39  64  98 134 170 205 256 327 391
#
# _framework density 21.352938000000002
#
# number of rings (size 3 to 8) (size 9 to 14) (size 15 to 20)
#    0.000    1.103    4.828    1.241    0.000    4.690 
#    2.483    4.828    0.000    7.448    0.000    0.000 
#    0.000    0.000    0.000    0.000    0.000    0.000 
#
# Total GULP energy -161478.647052 kJ/mol
# GULP energy per Si atom -5568.229209 kJ/mol
# Density = 2.130434 g / cm^3
# Si number density = 21.352938 Si / 1000 Ang^3
#
#
#
# Elastic Constant Matrix: (Units=GPa)
#
#
# Indices 1 2 3 4 5 6 
#
# 1 120.5461 29.2262 36.3490 0.0000 4.8533 0.0000
# 2 29.2262 64.8355 6.9957 0.0000 -14.1575 0.0000
# 3 36.3490 6.9957 73.0572 0.0000 -1.1731 0.0000
# 4 0.0000 0.0000 0.0000 2.5986 0.0000 9.2787
# 5 4.8533 -14.1575 -1.1731 0.0000 38.4017 0.0000
# 6 0.0000 0.0000 0.0000 9.2787 0.0000 31.0658
#
#
#
# Elastic Compliance Matrix: (Units=1/GPa)
#
#
# Indices 1 2 3 4 5 6 
#
# 1 0.011279 -0.005300 -0.005161 0.000000 -0.003537 0.000000
# 2 -0.005300 0.019432 0.000902 0.000000 0.007861 0.000000
# 3 -0.005161 0.000902 0.016193 0.000000 0.001480 0.000000
# 4 0.000000 0.000000 0.000000 -5.787499 0.000000 1.728615
# 5 -0.003537 0.007861 0.001480 0.000000 0.029431 0.000000
# 6 0.000000 0.000000 0.000000 1.728615 0.000000 -0.484115
#
#
# Mechanical properties :
#
#
# Convention : Reuss Voigt Hill
#
# Bulk Modulus (GPa) = 35.98801 44.84230 40.41516
# Shear Modulus (GPa) = -0.81078 26.80439 12.99681
#
# Velocity S-wave (km/s) = -0.61687 3.54687 2.46979
# Velocity P-wave (km/s) = 4.04761 6.14978 5.20591
#
# Compressibility (1/GPa) = 0.02778703
#
# Stress axis : x y z
#
# Youngs Moduli (GPa) = 88.65872 51.46173 61.75444
#
# Poissons Ratio (x) = 0.27274 0.31873
# Poissons Ratio (y) = 0.46988 -0.05573
# Poissons Ratio (z) = 0.45758 -0.04644
#
# Static dielectric constant tensor:
#      x y z
#    x 2.027000 0.000000 -0.084080 
#    y 0.000000 1.785430 0.000000 
#    z -0.084080 0.000000 1.842270 
# 
# From -- ./inp_files/106922.got.cif
#   From: 2010.05.17/outbox.cif.g08.bks.cpg/sg12_54_cif.got.tgz:106922.got - 2010.06.03 13:09:07.
