data_PCOD9217033
_publ_section_title
;
Structure prediction by ZEFSAII (Michael W. Deem and Ramdas Pophale) SiO2 
 PCOD9217033
Probable space group: C 2/M
;
_chemical_formula_sum "Si O2"
_cell_formula_units_Z 60
_cell_length_a 19.450542
_cell_length_b 20.347076
_cell_length_c 8.924713
_cell_angle_alpha 90.000000
_cell_angle_beta 128.376806
_cell_angle_gamma 90.000000
_cell_volume 2768.939587
_symmetry_space_group_name_H-M "C 2/M"
_symmetry_group_IT_number 12
_symmetry_cell_setting 'monoclinic'
loop_
_space_group_symop_operation_xyz
x,y,z
-x,y,-z
-x,-y,-z
x,-y,z
1/2+x,1/2+y,z
1/2-x,1/2+y,-z
1/2-x,1/2-y,-z
1/2+x,1/2-y,z
loop_
_atom_site_type_symbol
_atom_site_label
_atom_site_fract_x
_atom_site_fract_y
_atom_site_fract_z
Si Si1 0.885570 0.500000 0.329728
Si Si2 0.153454 0.614885 0.495776
Si Si3 0.171449 0.146907 0.625626
Si Si4 0.165029 0.575057 0.168261
Si Si5 0.210576 0.228864 0.245411
Si Si6 0.103679 0.231214 0.805740
Si Si7 0.550223 0.128736 0.764873
Si Si8 0.052896 0.826221 0.211383
O O1 0.841772 0.557294 0.376429
O O2 0.932464 0.558994 0.291821
O O3 0.167536 0.587380 0.347916
O O4 0.224011 0.670126 0.628110
O O5 0.052974 0.639292 0.362446
O O6 0.237477 0.089601 0.763288
O O7 0.238360 0.203724 0.660896
O O8 0.120178 0.181751 0.691777
O O9 0.108057 0.129531 0.401974
O O10 0.139981 0.500000 0.106433
O O11 0.096899 0.621464 0.989311
O O12 0.123293 0.221524 0.226973
O O13 0.181045 0.225742 0.032347
O O14 0.092769 0.307318 0.744660
O O15 0.016536 0.211497 0.779096
O O16 0.000000 0.857771 0.000000
#
# Coordination Sequence:
#
# PCOD9217033 Si02
#       8
#     4   8   8   8   8   8   8   8
#     4  12  27  44  64  96 141 188 228 270 326 413
#     4  12  25  42  68  98 138 185 228 272 327 407
#     4  12  23  42  67  98 139 174 223 286 337 396
#     4  12  27  43  68  98 136 183 231 271 327 406
#     4  11  23  40  67 101 136 176 232 277 339 396
#     4  11  25  41  68 103 140 178 221 283 351 401
#     4  12  25  43  65  98 143 183 224 267 337 409
#     4  10  23  41  65 100 132 173 223 277 345 402
#
# _framework density 21.668945000000001
#
# number of rings (size 3 to 8) (size 9 to 14) (size 15 to 20)
#    0.000    0.533    4.000    4.400    3.733    2.667 
#    0.000    0.000    0.000    2.000    3.467    0.000 
#    0.000    0.000    0.000    0.000    0.000    0.000 
#
# Total GULP energy -167358.423336 kJ/mol
# GULP energy per Si atom -5578.614111 kJ/mol
# Density = 2.161963 g / cm^3
# Si number density = 21.668945 Si / 1000 Ang^3
#
#
#
# Elastic Constant Matrix: (Units=GPa)
#
#
# Indices 1 2 3 4 5 6 
#
# 1 128.5377 28.3356 29.4525 0.0000 -8.1278 0.0000
# 2 28.3356 46.7663 15.7664 0.0000 -1.7101 0.0000
# 3 29.4525 15.7664 122.5621 0.0000 9.3925 0.0000
# 4 0.0000 0.0000 0.0000 1.5127 0.0000 -17.2669
# 5 -8.1278 -1.7101 9.3925 0.0000 26.6905 0.0000
# 6 0.0000 0.0000 0.0000 -17.2669 0.0000 13.3430
#
#
#
# Elastic Compliance Matrix: (Units=1/GPa)
#
#
# Indices 1 2 3 4 5 6 
#
# 1 0.009524 -0.005014 -0.001892 0.000000 0.003245 0.000000
# 2 -0.005014 0.025157 -0.002094 0.000000 0.000822 0.000000
# 3 -0.001892 -0.002094 0.009185 0.000000 -0.003943 0.000000
# 4 0.000000 0.000000 0.000000 -0.048003 0.000000 -0.062120
# 5 0.003245 0.000822 -0.003943 0.000000 0.039895 0.000000
# 6 0.000000 0.000000 0.000000 -0.062120 0.000000 -0.005442
#
#
# Mechanical properties :
#
#
# Convention : Reuss Voigt Hill
#
# Bulk Modulus (GPa) = 38.66201 49.44168 44.05184
# Shear Modulus (GPa) = 87.81326 23.26333 55.53829
#
# Velocity S-wave (km/s) = 6.37283 3.28011 5.06814
# Velocity P-wave (km/s) = 8.48713 6.10015 7.39064
#
# Compressibility (1/GPa) = 0.02586518
#
# Stress axis : x y z
#
# Youngs Moduli (GPa) = 104.99906 39.75049 108.86795
#
# Poissons Ratio (x) = 0.19930 0.20602
# Poissons Ratio (y) = 0.52645 0.22800
# Poissons Ratio (z) = 0.19869 0.08325
#
# Static dielectric constant tensor:
#      x y z
#    x 1.808580 0.000000 -0.002840 
#    y 0.000000 1.750420 0.000000 
#    z -0.002840 0.000000 1.888480 
# 
# From -- ./inp_files/89850.got.cif
#   From: 2010.05.17/outbox.cif.g08.bks.cpg/sg12_45_cif.got.tgz:89850.got - 2010.06.03 13:09:07.
