data_PCOD9217887
_publ_section_title
;
Structure prediction by ZEFSAII (Michael W. Deem and Ramdas Pophale) SiO2 
 PCOD9217887
Probable space group: C 2/M
;
_chemical_formula_sum "Si O2"
_cell_formula_units_Z 48
_cell_length_a 9.425250
_cell_length_b 19.407285
_cell_length_c 15.135432
_cell_angle_alpha 90.000000
_cell_angle_beta 79.581182
_cell_angle_gamma 90.000000
_cell_volume 2722.903207
_symmetry_space_group_name_H-M "C 2/M"
_symmetry_group_IT_number 12
_symmetry_cell_setting 'monoclinic'
loop_
_space_group_symop_operation_xyz
x,y,z
-x,y,-z
-x,-y,-z
x,-y,z
1/2+x,1/2+y,z
1/2-x,1/2+y,-z
1/2-x,1/2-y,-z
1/2+x,1/2-y,z
loop_
_atom_site_type_symbol
_atom_site_label
_atom_site_fract_x
_atom_site_fract_y
_atom_site_fract_z
Si Si1 0.941632 0.113755 0.103561
Si Si2 0.724021 0.000000 0.185133
Si Si3 0.139538 0.732711 0.934137
Si Si4 0.178196 0.000000 0.625028
Si Si5 0.193925 0.128575 0.210674
Si Si6 0.894365 0.500000 0.239731
Si Si7 0.551858 0.383302 0.402646
Si Si8 0.721329 0.000000 0.567642
O O1 0.803562 0.067367 0.138577
O O2 0.907215 0.195141 0.104758
O O3 0.065271 0.101730 0.162219
O O4 0.000000 0.095907 0.000000
O O5 0.554939 0.000000 0.184839
O O6 0.756557 0.000000 0.285908
O O7 0.216532 0.684597 0.854360
O O8 0.250000 0.750000 0.000000
O O9 0.000000 0.701800 0.000000
O O10 0.074867 0.933471 0.620119
O O11 0.298652 0.000000 0.534563
O O12 0.301410 0.066252 0.221885
O O13 0.119438 0.154958 0.310294
O O14 0.902619 0.500000 0.345950
O O15 0.500000 0.347415 0.500000
O O16 0.677183 0.434840 0.421461
#
# Coordination Sequence:
#
# PCOD9217887 Si02
#       8
#     8   4   8   4   8   4   8   4
#     4  11  23  40  58  81 111 150 188 231 281 340
#     4  12  23  34  54  89 117 146 185 235 287 328
#     4  11  23  41  61  83 106 150 198 231 275 337
#     4   9  14  28  55  78 114 147 185 226 272 336
#     4  11  20  39  61  81 117 151 185 235 281 335
#     4  10  24  33  53  89 119 146 184 235 287 324
#     4   8  14  28  55  86 108 145 190 222 271 337
#     4   7  14  29  47  80 114 145 184 226 271 329
#
# _framework density 17.628242
#
# number of rings (size 3 to 8) (size 9 to 14) (size 15 to 20)
#    0.000    2.000    5.000    2.250    2.333    0.333 
#    0.000    1.250    0.000    1.000    4.333    0.000 
#    0.000    0.000    0.000    0.000    0.000    0.000 
#
# Total GULP energy -133730.187439 kJ/mol
# GULP energy per Si atom -5572.091143 kJ/mol
# Density = 1.758812 g / cm^3
# Si number density = 17.628242 Si / 1000 Ang^3
#
#
#
# Elastic Constant Matrix: (Units=GPa)
#
#
# Indices 1 2 3 4 5 6 
#
# 1 101.1982 24.4377 49.2759 0.0000 -18.4738 0.0000
# 2 24.4377 49.0352 40.6192 0.0000 -17.6678 0.0000
# 3 49.2759 40.6192 158.0244 0.0000 -26.0650 0.0000
# 4 0.0000 0.0000 0.0000 -131.6314 0.0000 117.2756
# 5 -18.4738 -17.6678 -26.0650 0.0000 33.6964 0.0000
# 6 0.0000 0.0000 0.0000 117.2756 0.0000 -75.0642
#
#
#
# Elastic Compliance Matrix: (Units=1/GPa)
#
#
# Indices 1 2 3 4 5 6 
#
# 1 0.012441 -0.002853 -0.002600 0.000000 0.003314 0.000000
# 2 -0.002853 0.029638 -0.005070 0.000000 0.010054 0.000000
# 3 -0.002600 -0.005070 0.008905 0.000000 0.002804 0.000000
# 4 0.000000 0.000000 0.000000 0.019383 0.000000 0.030282
# 5 0.003314 0.010054 0.002804 0.000000 0.038934 0.000000
# 6 0.000000 0.000000 0.000000 0.030282 0.000000 0.033989
#
#
# Mechanical properties :
#
#
# Convention : Reuss Voigt Hill
#
# Bulk Modulus (GPa) = 33.40207 59.65814 46.53011
# Shear Modulus (GPa) = 28.68376 -21.67150 3.50613
#
# Velocity S-wave (km/s) = 4.03817 -3.51003 1.41182
# Velocity P-wave (km/s) = 6.38213 4.18196 5.39538
#
# Compressibility (1/GPa) = 0.02993826
#
# Stress axis : x y z
#
# Youngs Moduli (GPa) = 80.37741 33.74062 112.30190
#
# Poissons Ratio (x) = 0.09626 0.29193
# Poissons Ratio (y) = 0.22931 0.56941
# Poissons Ratio (z) = 0.20894 0.17108
#
# Static dielectric constant tensor:
#      x y z
#    x 1.605180 0.000000 -0.024830 
#    y 0.000000 1.588020 0.000000 
#    z -0.024830 0.000000 1.643460 
# 
# From -- ./inp_files/196060.got.cif
#   From: 2010.05.17/outbox.cif.g08.bks.cpg/sg12_99_cif.got.tgz:196060.got - 2010.06.03 13:09:07.
