data_PCOD9217053
_publ_section_title
;
Structure prediction by ZEFSAII (Michael W. Deem and Ramdas Pophale) SiO2 
 PCOD9217053
Probable space group: C 2/M
;
_chemical_formula_sum "Si O2"
_cell_formula_units_Z 40
_cell_length_a 11.107414
_cell_length_b 14.395188
_cell_length_c 11.350183
_cell_angle_alpha 90.000000
_cell_angle_beta 111.346494
_cell_angle_gamma 90.000000
_cell_volume 1690.314837
_symmetry_space_group_name_H-M "C 2/M"
_symmetry_group_IT_number 12
_symmetry_cell_setting 'monoclinic'
loop_
_space_group_symop_operation_xyz
x,y,z
-x,y,-z
-x,-y,-z
x,-y,z
1/2+x,1/2+y,z
1/2-x,1/2+y,-z
1/2-x,1/2-y,-z
1/2+x,1/2-y,z
loop_
_atom_site_type_symbol
_atom_site_label
_atom_site_fract_x
_atom_site_fract_y
_atom_site_fract_z
Si Si1 0.760228 0.607315 0.737213
Si Si2 0.497533 0.719059 0.358605
Si Si3 0.347443 0.726192 0.926077
Si Si4 0.639443 0.102774 0.742661
Si Si5 0.237472 0.898805 0.455097
O O1 0.779176 0.500000 0.778628
O O2 0.611226 0.640446 0.700049
O O3 0.837117 0.682583 0.839938
O O4 0.784103 0.614114 0.604814
O O5 0.500000 0.735390 0.500000
O O6 0.453600 0.809865 0.273011
O O7 0.637590 0.679617 0.382381
O O8 0.277113 0.636606 0.842861
O O9 0.500000 0.708767 0.000000
O O10 0.250000 0.750000 0.000000
O O11 0.655796 0.098069 0.607152
O O12 0.601644 0.000000 0.771854
O O13 0.170726 0.000000 0.430968
#
# Coordination Sequence:
#
# PCOD9217053 Si02
#       5
#     8   8   8   8   8
#     4   9  19  38  65  97 131 168 216 277 342 402
#     4   9  18  32  58  93 132 165 204 257 329 402
#     4  11  27  47  68  95 131 181 239 283 330 394
#     4  10  23  41  65  96 132 171 222 279 339 403
#     4   9  18  37  66 101 130 166 215 269 342 420
#
# _framework density 23.664228999999999
#
# number of rings (size 3 to 8) (size 9 to 14) (size 15 to 20)
#    0.000    2.400    0.000    0.600    5.600   11.600 
#    3.600    0.000    0.000    1.200    0.000    0.000 
#    0.000    0.000    0.000    0.000    0.000    0.000 
#
# Total GULP energy -111798.865569 kJ/mol
# GULP energy per Si atom -5589.943278 kJ/mol
# Density = 2.361037 g / cm^3
# Si number density = 23.664229 Si / 1000 Ang^3
#
#
#
# Elastic Constant Matrix: (Units=GPa)
#
#
# Indices 1 2 3 4 5 6 
#
# 1 87.0071 27.0432 35.2113 0.0000 8.0018 0.0000
# 2 27.0432 180.7512 40.6627 0.0000 20.9052 0.0000
# 3 35.2113 40.6627 61.0622 0.0000 -4.5221 0.0000
# 4 0.0000 0.0000 0.0000 26.8257 0.0000 1.3236
# 5 8.0018 20.9052 -4.5221 0.0000 49.0485 0.0000
# 6 0.0000 0.0000 0.0000 1.3236 0.0000 4.9022
#
#
#
# Elastic Compliance Matrix: (Units=1/GPa)
#
#
# Indices 1 2 3 4 5 6 
#
# 1 0.015534 0.000177 -0.009332 0.000000 -0.003470 0.000000
# 2 0.000177 0.007048 -0.005054 0.000000 -0.003499 0.000000
# 3 -0.009332 -0.005054 0.025571 0.000000 0.006034 0.000000
# 4 0.000000 0.000000 0.000000 0.037781 0.000000 -0.010201
# 5 -0.003470 -0.003499 0.006034 0.000000 0.023002 0.000000
# 6 0.000000 0.000000 0.000000 -0.010201 0.000000 0.206746
#
#
# Mechanical properties :
#
#
# Convention : Reuss Voigt Hill
#
# Bulk Modulus (GPa) = 50.67673 59.40609 55.04141
# Shear Modulus (GPa) = 14.25807 31.21549 22.73678
#
# Velocity S-wave (km/s) = 2.45728 3.63588 3.10305
# Velocity P-wave (km/s) = 5.43253 6.54098 6.01235
#
# Compressibility (1/GPa) = 0.01973292
#
# Stress axis : x y z
#
# Youngs Moduli (GPa) = 64.37359 141.89034 39.10708
#
# Poissons Ratio (x) = -0.02506 0.36496
# Poissons Ratio (y) = -0.01137 0.19765
# Poissons Ratio (z) = 0.60076 0.71714
#
# Static dielectric constant tensor:
#      x y z
#    x 1.940760 0.000000 -0.013410 
#    y 0.000000 1.911440 0.000000 
#    z -0.013410 0.000000 1.928570 
# 
# From -- ./inp_files/129802.got.cif
#   From: 2010.05.17/outbox.cif.g08.bks.cpg/sg12_65_cif.got.tgz:129802.got - 2010.06.03 13:09:07.
