data_PCOD9217901
_publ_section_title
;
Structure prediction by ZEFSAII (Michael W. Deem and Ramdas Pophale) SiO2 
 PCOD9217901
Probable space group: C 2/M
;
_chemical_formula_sum "Si O2"
_cell_formula_units_Z 52
_cell_length_a 20.976431
_cell_length_b 20.108950
_cell_length_c 11.852761
_cell_angle_alpha 90.000000
_cell_angle_beta 148.066668
_cell_angle_gamma 90.000000
_cell_volume 2644.481142
_symmetry_space_group_name_H-M "C 2/M"
_symmetry_group_IT_number 12
_symmetry_cell_setting 'monoclinic'
loop_
_space_group_symop_operation_xyz
x,y,z
-x,y,-z
-x,-y,-z
x,-y,z
1/2+x,1/2+y,z
1/2-x,1/2+y,-z
1/2-x,1/2-y,-z
1/2+x,1/2-y,z
loop_
_atom_site_type_symbol
_atom_site_label
_atom_site_fract_x
_atom_site_fract_y
_atom_site_fract_z
Si Si1 0.057354 0.320652 0.318596
Si Si2 0.864833 0.920952 0.666109
Si Si3 0.355394 0.388668 0.919558
Si Si4 0.500000 0.827007 0.000000
Si Si5 0.303219 0.245867 0.955006
Si Si6 0.892696 0.570378 0.428500
Si Si7 0.267433 0.298132 0.376025
O O1 0.030497 0.361248 0.163306
O O2 0.100346 0.368179 0.479364
O O3 0.152010 0.260232 0.449541
O O4 0.929537 0.290904 0.158813
O O5 0.842420 0.897716 0.762998
O O6 0.799241 0.868110 0.483984
O O7 0.833730 0.000000 0.609619
O O8 0.007901 0.912689 0.856146
O O9 0.335617 0.315585 0.942396
O O10 0.246968 0.428356 0.817764
O O11 0.623034 0.786167 0.167634
O O12 0.216869 0.206963 0.736213
O O13 0.250000 0.250000 0.000000
O O14 0.913376 0.500000 0.519117
O O15 0.000000 0.576702 0.500000
#
# Coordination Sequence:
#
# PCOD9217901 Si02
#       7
#     8   8   8   4   8   8   8
#     4  11  22  38  60  91 123 160 209 257 319 380
#     4  11  24  41  67 101 134 169 216 272 334 396
#     4  11  21  39  66  97 133 166 219 271 321 384
#     4  10  24  36  57  94 125 158 204 252 326 374
#     4  11  24  39  61  95 126 163 218 271 318 380
#     4  11  23  40  63  91 127 172 217 264 318 382
#     4  11  23  39  65  91 128 168 210 265 326 382
#
# _framework density 19.663592999999999
#
# number of rings (size 3 to 8) (size 9 to 14) (size 15 to 20)
#    0.000    1.077    3.077    4.154    4.308    0.000 
#    0.000    3.846    0.000    3.692    0.000    0.000 
#    0.000    0.000    0.000    0.000    0.000    0.000 
#
# Total GULP energy -144792.202002 kJ/mol
# GULP energy per Si atom -5568.930846 kJ/mol
# Density = 1.961884 g / cm^3
# Si number density = 19.663593 Si / 1000 Ang^3
#
#
#
# Elastic Constant Matrix: (Units=GPa)
#
#
# Indices 1 2 3 4 5 6 
#
# 1 109.1224 38.8219 48.0888 0.0000 10.8834 0.0000
# 2 38.8219 134.4195 33.9714 0.0000 -6.2638 0.0000
# 3 48.0888 33.9714 104.1825 0.0000 7.5994 0.0000
# 4 0.0000 0.0000 0.0000 191.4303 0.0000 171.8428
# 5 10.8834 -6.2638 7.5994 0.0000 39.0374 0.0000
# 6 0.0000 0.0000 0.0000 171.8428 0.0000 184.2895
#
#
#
# Elastic Compliance Matrix: (Units=1/GPa)
#
#
# Indices 1 2 3 4 5 6 
#
# 1 0.012432 -0.002542 -0.004694 0.000000 -0.002960 0.000000
# 2 -0.002542 0.008760 -0.001864 0.000000 0.002477 0.000000
# 3 -0.004694 -0.001864 0.012476 0.000000 -0.001419 0.000000
# 4 0.000000 0.000000 0.000000 0.032058 0.000000 -0.029893
# 5 -0.002960 0.002477 -0.001419 0.000000 0.027116 0.000000
# 6 0.000000 0.000000 0.000000 -0.029893 0.000000 0.033300
#
#
# Mechanical properties :
#
#
# Convention : Reuss Voigt Hill
#
# Bulk Modulus (GPa) = 64.64371 65.49873 65.07122
# Shear Modulus (GPa) = 33.44541 98.07425 65.75983
#
# Velocity S-wave (km/s) = 4.12865 7.06996 5.78922
# Velocity P-wave (km/s) = 7.46149 10.00139 8.82331
#
# Compressibility (1/GPa) = 0.01546941
#
# Stress axis : x y z
#
# Youngs Moduli (GPa) = 80.43701 114.15435 80.15259
#
# Poissons Ratio (x) = 0.29021 0.37620
# Poissons Ratio (y) = 0.20449 0.14938
# Poissons Ratio (z) = 0.37753 0.21275
#
# Static dielectric constant tensor:
#      x y z
#    x 1.752690 0.000000 0.005340 
#    y 0.000000 1.705040 0.000000 
#    z 0.005340 0.000000 1.766440 
# 
# From -- ./inp_files/169893.got.cif
#   From: 2010.05.17/outbox.cif.g08.bks.cpg/sg12_85_cif.got.tgz:169893.got - 2010.06.03 13:09:07.
