data_PCOD9217145
_publ_section_title
;
Structure prediction by ZEFSAII (Michael W. Deem and Ramdas Pophale) SiO2 
 PCOD9217145
Probable space group: C 2/M
;
_chemical_formula_sum "Si O2"
_cell_formula_units_Z 64
_cell_length_a 17.943959
_cell_length_b 17.648208
_cell_length_c 15.928844
_cell_angle_alpha 90.000000
_cell_angle_beta 141.096641
_cell_angle_gamma 90.000000
_cell_volume 3167.880484
_symmetry_space_group_name_H-M "C 2/M"
_symmetry_group_IT_number 12
_symmetry_cell_setting 'monoclinic'
loop_
_space_group_symop_operation_xyz
x,y,z
-x,y,-z
-x,-y,-z
x,-y,z
1/2+x,1/2+y,z
1/2-x,1/2+y,-z
1/2-x,1/2-y,-z
1/2+x,1/2-y,z
loop_
_atom_site_type_symbol
_atom_site_label
_atom_site_fract_x
_atom_site_fract_y
_atom_site_fract_z
Si Si1 0.425112 0.860757 0.640990
Si Si2 0.625636 0.413832 0.082562
Si Si3 0.230899 0.089370 0.597393
Si Si4 0.316561 0.312999 0.115556
Si Si5 0.728618 0.142740 0.642676
Si Si6 0.912431 0.815362 0.662153
Si Si7 0.137977 0.796072 0.646886
Si Si8 0.191415 0.589625 0.896148
O O1 0.356007 0.895895 0.659718
O O2 0.368073 0.891995 0.505255
O O3 0.397938 0.770754 0.617280
O O4 0.564458 0.873574 0.767100
O O5 0.596776 0.500000 0.031155
O O6 0.711230 0.411940 0.237914
O O7 0.707111 0.382008 0.079582
O O8 0.500000 0.377338 0.000000
O O9 0.135558 0.125548 0.448700
O O10 0.213831 0.139279 0.665776
O O11 0.213053 0.000000 0.594365
O O12 0.449743 0.325760 0.199606
O O13 0.335502 0.296810 0.230597
O O14 0.250000 0.250000 0.000000
O O15 0.237970 0.386988 0.028392
O O16 0.833397 0.172926 0.674602
O O17 0.673129 0.213973 0.642244
O O18 0.000000 0.808825 0.500000
O O19 0.178946 0.500000 0.875320
#
# Coordination Sequence:
#
# PCOD9217145 Si02
#       8
#     8   8   8   8   8   8   8   8
#     4  11  21  43  66  94 132 170 219 265 325 396
#     4  10  23  42  61  92 132 166 212 269 329 390
#     4  11  23  41  66  98 133 174 218 273 328 389
#     4  12  24  41  68  96 129 172 223 266 326 390
#     4  11  22  37  70  93 125 168 218 270 327 383
#     4  11  21  43  66  93 128 171 220 267 323 388
#     4  12  24  42  65  99 131 166 219 277 324 379
#     4  11  25  43  64  93 133 175 212 267 331 396
#
# _framework density 20.202781999999999
#
# number of rings (size 3 to 8) (size 9 to 14) (size 15 to 20)
#    0.000    0.875    5.000    2.625    1.750    3.750 
#    0.000    3.125    0.000    1.500    0.000    0.000 
#    0.000    0.000    0.000    0.000    0.000    0.000 
#
# Total GULP energy -178733.261571 kJ/mol
# GULP energy per Si atom -5585.414424 kJ/mol
# Density = 2.015680 g / cm^3
# Si number density = 20.202782 Si / 1000 Ang^3
#
#
#
# Elastic Constant Matrix: (Units=GPa)
#
#
# Indices 1 2 3 4 5 6 
#
# 1 124.9905 25.7008 76.2657 0.0000 7.5540 0.0000
# 2 25.7008 69.3066 8.1672 0.0000 2.2225 0.0000
# 3 76.2657 8.1672 124.5065 0.0000 -2.9554 0.0000
# 4 0.0000 0.0000 0.0000 23.6570 0.0000 -4.4141
# 5 7.5540 2.2225 -2.9554 0.0000 35.5839 0.0000
# 6 0.0000 0.0000 0.0000 -4.4141 0.0000 15.7683
#
#
#
# Elastic Compliance Matrix: (Units=1/GPa)
#
#
# Indices 1 2 3 4 5 6 
#
# 1 0.014298 -0.004181 -0.008567 0.000000 -0.003486 0.000000
# 2 -0.004181 0.015798 0.001525 0.000000 0.000027 0.000000
# 3 -0.008567 0.001525 0.013246 0.000000 0.002824 0.000000
# 4 0.000000 0.000000 0.000000 0.044600 0.000000 0.012485
# 5 -0.003486 0.000027 0.002824 0.000000 0.029075 0.000000
# 6 0.000000 0.000000 0.000000 0.012485 0.000000 0.066914
#
#
# Mechanical properties :
#
#
# Convention : Reuss Voigt Hill
#
# Bulk Modulus (GPa) = 47.85116 59.89675 53.87396
# Shear Modulus (GPa) = 23.43649 28.91316 26.17482
#
# Velocity S-wave (km/s) = 3.40966 3.78715 3.60336
# Velocity P-wave (km/s) = 6.26402 6.98824 6.63602
#
# Compressibility (1/GPa) = 0.02089813
#
# Stress axis : x y z
#
# Youngs Moduli (GPa) = 69.93927 63.29756 75.49349
#
# Poissons Ratio (x) = 0.26464 0.64673
# Poissons Ratio (y) = 0.29241 -0.11515
# Poissons Ratio (z) = 0.59915 -0.09655
#
# Static dielectric constant tensor:
#      x y z
#    x 1.745150 0.000000 -0.008930 
#    y 0.000000 1.743950 0.000000 
#    z -0.008930 0.000000 1.729880 
# 
# From -- ./inp_files/226908.got.cif
#   From: 2010.05.17/outbox.cif.g08.bks.cpg/sg12_114_cif.got.tgz:226908.got - 2010.06.03 13:09:07.
