data_PCOD9217541
_publ_section_title
;
Structure prediction by ZEFSAII (Michael W. Deem and Ramdas Pophale) SiO2 
 PCOD9217541
Probable space group: C 2/M
;
_chemical_formula_sum "Si O2"
_cell_formula_units_Z 40
_cell_length_a 14.016677
_cell_length_b 22.966427
_cell_length_c 16.283107
_cell_angle_alpha 90.000000
_cell_angle_beta 160.805449
_cell_angle_gamma 90.000000
_cell_volume 1723.363871
_symmetry_space_group_name_H-M "C 2/M"
_symmetry_group_IT_number 12
_symmetry_cell_setting 'monoclinic'
loop_
_space_group_symop_operation_xyz
x,y,z
-x,y,-z
-x,-y,-z
x,-y,z
1/2+x,1/2+y,z
1/2-x,1/2+y,-z
1/2-x,1/2-y,-z
1/2+x,1/2-y,z
loop_
_atom_site_type_symbol
_atom_site_label
_atom_site_fract_x
_atom_site_fract_y
_atom_site_fract_z
Si Si1 0.733240 0.741159 0.346044
Si Si2 0.704093 0.063322 0.916618
Si Si3 0.261090 0.566643 0.149373
Si Si4 0.274249 0.841276 0.541033
Si Si5 0.847736 0.869540 0.791829
O O1 0.640269 0.801815 0.310460
O O2 0.770600 0.700776 0.458484
O O3 0.540359 0.696555 0.136067
O O4 0.000000 0.753223 0.500000
O O5 0.513246 0.110856 0.717917
O O6 0.666003 0.000000 0.849881
O O7 0.627451 0.063616 0.949755
O O8 0.032783 0.085007 0.177014
O O9 0.383531 0.500000 0.264406
O O10 0.488652 0.620345 0.331590
O O11 0.000000 0.576762 0.000000
O O12 0.500000 0.867818 0.500000
O O13 0.000000 0.887586 0.000000
#
# Coordination Sequence:
#
# PCOD9217541 Si02
#       5
#     8   8   8   8   8
#     4  10  23  44  68 102 138 184 231 294 354 424
#     4  11  24  42  69 100 134 182 236 291 352 422
#     4  10  23  43  67  99 138 183 237 296 354 416
#     4  11  23  45  68 100 140 184 241 287 359 423
#     4  11  24  47  72 107 147 184 232 288 357 427
#
# _framework density 23.210419000000002
#
# number of rings (size 3 to 8) (size 9 to 14) (size 15 to 20)
#    0.000    1.400    2.000    3.000    2.800    1.600 
#    7.200    3.000    0.000    1.200    0.000    0.000 
#    0.000    0.000    0.000    0.000    0.000    0.000 
#
# Total GULP energy -111501.495229 kJ/mol
# GULP energy per Si atom -5575.074761 kJ/mol
# Density = 2.315759 g / cm^3
# Si number density = 23.210419 Si / 1000 Ang^3
#
#
#
# Elastic Constant Matrix: (Units=GPa)
#
#
# Indices 1 2 3 4 5 6 
#
# 1 124.1111 28.3134 26.0096 0.0161 16.9027 -0.0038
# 2 28.3134 147.5688 35.8915 0.0127 16.0825 -0.0013
# 3 26.0096 35.8915 64.8214 0.0565 8.0091 -0.0024
# 4 0.0161 0.0127 0.0565 15.8298 0.0375 -0.1643
# 5 16.9027 16.0825 8.0091 0.0375 24.0832 -0.0115
# 6 -0.0038 -0.0013 -0.0024 -0.1643 -0.0115 19.8206
#
#
#
# Elastic Compliance Matrix: (Units=1/GPa)
#
#
# Indices 1 2 3 4 5 6 
#
# 1 0.009510 -0.000547 -0.002850 0.000014 -0.005361 -0.000002
# 2 -0.000547 0.008240 -0.003870 0.000017 -0.003832 -0.000002
# 3 -0.002850 -0.003870 0.018925 -0.000058 -0.001709 0.000000
# 4 0.000014 0.000017 -0.000058 0.063178 -0.000100 0.000524
# 5 -0.005361 -0.003832 -0.001709 -0.000100 0.048413 0.000026
# 6 -0.000002 -0.000002 0.000000 0.000524 0.000026 0.050457
#
#
# Mechanical properties :
#
#
# Convention : Reuss Voigt Hill
#
# Bulk Modulus (GPa) = 45.16695 57.43670 51.30183
# Shear Modulus (GPa) = 22.66172 28.36583 25.51378
#
# Velocity S-wave (km/s) = 3.12807 3.49967 3.31907
# Velocity P-wave (km/s) = 5.70512 6.41327 6.06953
#
# Compressibility (1/GPa) = 0.02214008
#
# Stress axis : x y z
#
# Youngs Moduli (GPa) = 105.15721 121.35551 52.84142
#
# Poissons Ratio (x) = 0.06638 0.15062
# Poissons Ratio (y) = 0.05752 0.20448
# Poissons Ratio (z) = 0.29975 0.46961
#
# Static dielectric constant tensor:
#      x y z
#    x 1.912170 0.000000 0.028910 
#    y 0.000000 1.900560 -0.000010 
#    z 0.028910 -0.000010 1.925690 
# 
# From -- ./inp_files/272462.got.cif
#   From: 2010.05.17/outbox.cif.g08.bks.cpg/sg12_137_cif.got.tgz:272462.got - 2010.06.03 13:09:07.
