data_PCOD9217467
_publ_section_title
;
Structure prediction by ZEFSAII (Michael W. Deem and Ramdas Pophale) SiO2 
 PCOD9217467
Probable space group: C 2/M
;
_chemical_formula_sum "Si O2"
_cell_formula_units_Z 56
_cell_length_a 9.889661
_cell_length_b 14.470484
_cell_length_c 27.442646
_cell_angle_alpha 90.000000
_cell_angle_beta 131.556174
_cell_angle_gamma 90.000000
_cell_volume 2938.796455
_symmetry_space_group_name_H-M "C 2/M"
_symmetry_group_IT_number 12
_symmetry_cell_setting 'monoclinic'
loop_
_space_group_symop_operation_xyz
x,y,z
-x,y,-z
-x,-y,-z
x,-y,z
1/2+x,1/2+y,z
1/2-x,1/2+y,-z
1/2-x,1/2-y,-z
1/2+x,1/2-y,z
loop_
_atom_site_type_symbol
_atom_site_label
_atom_site_fract_x
_atom_site_fract_y
_atom_site_fract_z
Si Si1 0.176087 0.743552 0.829752
Si Si2 0.049923 0.109850 0.376126
Si Si3 0.187067 0.391053 0.655117
Si Si4 0.482718 0.390637 0.939549
Si Si5 0.371730 0.112534 0.514187
Si Si6 0.707217 0.109149 0.062427
Si Si7 0.265121 0.773898 0.740689
O O1 0.326235 0.666859 0.876583
O O2 0.216740 0.827578 0.876305
O O3 0.195357 0.776664 0.779013
O O4 0.976418 0.703458 0.790114
O O5 0.177988 0.122720 0.358813
O O6 0.169958 0.141984 0.451401
O O7 0.863666 0.162180 0.322909
O O8 0.018741 0.000000 0.373170
O O9 0.188784 0.500000 0.666553
O O10 0.246983 0.328679 0.714064
O O11 0.984160 0.363423 0.589159
O O12 0.442933 0.500000 0.928392
O O13 0.668507 0.374994 0.955110
O O14 0.500000 0.363130 0.000000
O O15 0.500000 0.141460 0.500000
O O16 0.368481 0.000000 0.512492
O O17 0.717634 0.000000 0.077557
O O18 0.500000 0.130717 0.000000
#
# Coordination Sequence:
#
# PCOD9217467 Si02
#       7
#     8   8   8   8   8   8   8
#     4  12  25  40  59  86 122 159 192 231 283 344
#     4   9  18  35  57  82 114 150 196 247 288 339
#     4   9  18  35  58  81 112 154 197 241 290 346
#     4  10  23  43  66  91 118 149 189 238 288 335
#     4   7  12  27  54  82 105 142 195 245 290 334
#     4  10  23  43  67  91 115 150 194 236 281 337
#     4  12  24  37  56  87 118 157 199 231 281 349
#
# _framework density 19.055419000000001
#
# number of rings (size 3 to 8) (size 9 to 14) (size 15 to 20)
#    0.000    2.143    2.857    2.143    2.000    4.000 
#    0.000    0.000    0.000    0.000    0.000    3.000 
#    0.000    0.000    0.000    0.000    0.000    0.000 
#
# Total GULP energy -156240.158704 kJ/mol
# GULP energy per Si atom -5580.005668 kJ/mol
# Density = 1.901205 g / cm^3
# Si number density = 19.055419 Si / 1000 Ang^3
#
#
#
# Elastic Constant Matrix: (Units=GPa)
#
#
# Indices 1 2 3 4 5 6 
#
# 1 61.4596 24.8482 28.5851 0.0000 15.5003 0.0000
# 2 24.8482 50.1096 34.3484 0.0000 16.1250 0.0000
# 3 28.5851 34.3484 101.3039 0.0000 29.1985 0.0000
# 4 0.0000 0.0000 0.0000 -8.1214 0.0000 -4.6635
# 5 15.5003 16.1250 29.1985 0.0000 35.5697 0.0000
# 6 0.0000 0.0000 0.0000 -4.6635 0.0000 12.9725
#
#
#
# Elastic Compliance Matrix: (Units=1/GPa)
#
#
# Indices 1 2 3 4 5 6 
#
# 1 0.021488 -0.007828 -0.002270 0.000000 -0.003952 0.000000
# 2 -0.007828 0.029852 -0.006544 0.000000 -0.004750 0.000000
# 3 -0.002270 -0.006544 0.015183 0.000000 -0.008507 0.000000
# 4 0.000000 0.000000 0.000000 -0.102063 0.000000 -0.036691
# 5 -0.003952 -0.004750 -0.008507 0.000000 0.038973 0.000000
# 6 0.000000 0.000000 0.000000 -0.036691 0.000000 0.063896
#
#
# Mechanical properties :
#
#
# Convention : Reuss Voigt Hill
#
# Bulk Modulus (GPa) = 30.08485 43.15961 36.62223
# Shear Modulus (GPa) = 44.76620 16.42361 30.59490
#
# Velocity S-wave (km/s) = 4.85218 2.93898 4.01131
# Velocity P-wave (km/s) = 6.87123 5.84940 6.38080
#
# Compressibility (1/GPa) = 0.03323932
#
# Stress axis : x y z
#
# Youngs Moduli (GPa) = 46.53732 33.49866 65.86446
#
# Poissons Ratio (x) = 0.26222 0.14953
# Poissons Ratio (y) = 0.36428 0.43101
# Poissons Ratio (z) = 0.10565 0.21921
#
# Static dielectric constant tensor:
#      x y z
#    x 1.650030 0.000000 0.013230 
#    y 0.000000 1.659430 0.000000 
#    z 0.013230 0.000000 1.673770 
# 
# From -- ./inp_files/332582.got.cif
#   From: 2010.05.17/outbox.cif.g08.bks.cpg/sg12_167_cif.got.tgz:332582.got - 2010.06.03 13:09:07.
