data_PCOD9217161
_publ_section_title
;
Structure prediction by ZEFSAII (Michael W. Deem and Ramdas Pophale) SiO2 
 PCOD9217161
Probable space group: C 2/M
;
_chemical_formula_sum "Si O2"
_cell_formula_units_Z 40
_cell_length_a 11.830078
_cell_length_b 28.568752
_cell_length_c 6.533628
_cell_angle_alpha 90.000000
_cell_angle_beta 121.267354
_cell_angle_gamma 90.000000
_cell_volume 1887.447064
_symmetry_space_group_name_H-M "C 2/M"
_symmetry_group_IT_number 12
_symmetry_cell_setting 'monoclinic'
loop_
_space_group_symop_operation_xyz
x,y,z
-x,y,-z
-x,-y,-z
x,-y,z
1/2+x,1/2+y,z
1/2-x,1/2+y,-z
1/2-x,1/2-y,-z
1/2+x,1/2-y,z
loop_
_atom_site_type_symbol
_atom_site_label
_atom_site_fract_x
_atom_site_fract_y
_atom_site_fract_z
Si Si1 0.400452 0.500000 0.597241
Si Si2 0.410944 0.750162 0.123091
Si Si3 0.500000 0.578352 0.000000
Si Si4 0.500000 0.076366 0.500000
Si Si5 0.399737 0.145639 0.087956
Si Si6 0.601148 0.000000 0.285144
Si Si7 0.099980 0.145817 0.761248
O O1 0.500000 0.500000 0.500000
O O2 0.424970 0.455552 0.769736
O O3 0.253593 0.500000 0.366792
O O4 0.438449 0.803508 0.216920
O O5 0.445795 0.699398 0.245649
O O6 0.500000 0.749480 0.000000
O O7 0.250000 0.750000 0.000000
O O8 0.411037 0.613541 0.049443
O O9 0.406077 0.108664 0.275288
O O10 0.574811 0.044040 0.407662
O O11 0.500000 0.133647 0.000000
O O12 0.254219 0.147590 0.851748
O O13 0.500000 0.000000 0.000000
O O14 0.000000 0.125647 0.500000
#
# Coordination Sequence:
#
# PCOD9217161 Si02
#       7
#     4   8   4   4   8   4   8
#     4  11  26  46  69  99 131 173 217 279 342 402
#     4   9  19  40  62  92 135 180 228 277 326 394
#     4  11  24  42  68  98 136 170 222 273 336 404
#     4  11  24  42  72  94 130 178 216 271 338 392
#     4  10  23  42  62  96 133 172 224 271 323 391
#     4  11  26  46  69  99 129 167 221 277 334 404
#     4  11  23  40  66  97 133 176 222 275 330 391
#
# _framework density 21.192647999999998
#
# number of rings (size 3 to 8) (size 9 to 14) (size 15 to 20)
#    0.000    1.600    1.000    2.400    1.400   11.200 
#    0.000    3.000    0.000    0.000    0.000    0.000 
#    0.000    0.000    0.000    0.000    0.000    0.000 
#
# Total GULP energy -111414.576029 kJ/mol
# GULP energy per Si atom -5570.728801 kJ/mol
# Density = 2.114441 g / cm^3
# Si number density = 21.192648 Si / 1000 Ang^3
#
#
#
# Elastic Constant Matrix: (Units=GPa)
#
#
# Indices 1 2 3 4 5 6 
#
# 1 159.7370 37.5477 72.6443 0.0000 -3.1861 0.0000
# 2 37.5477 134.5504 54.7691 0.0000 -9.5765 0.0000
# 3 72.6443 54.7691 124.4184 0.0000 1.9006 0.0000
# 4 0.0000 0.0000 0.0000 41.6713 0.0000 -24.0349
# 5 -3.1861 -9.5765 1.9006 0.0000 25.3369 0.0000
# 6 0.0000 0.0000 0.0000 -24.0349 0.0000 52.0113
#
#
#
# Elastic Compliance Matrix: (Units=1/GPa)
#
#
# Indices 1 2 3 4 5 6 
#
# 1 0.008587 -0.000308 -0.004899 0.000000 0.001331 0.000000
# 2 -0.000308 0.009431 -0.004030 0.000000 0.003828 0.000000
# 3 -0.004899 -0.004030 0.012719 0.000000 -0.003093 0.000000
# 4 0.000000 0.000000 0.000000 0.032718 0.000000 0.015119
# 5 0.001331 0.003828 -0.003093 0.000000 0.041314 0.000000
# 6 0.000000 0.000000 0.000000 0.015119 0.000000 0.026213
#
#
# Mechanical properties :
#
#
# Convention : Reuss Voigt Hill
#
# Bulk Modulus (GPa) = 81.54112 83.18090 82.36101
# Shear Modulus (GPa) = 32.56405 40.72022 36.64213
#
# Velocity S-wave (km/s) = 3.92417 4.38817 4.16264
# Velocity P-wave (km/s) = 7.68712 8.06287 7.87723
#
# Compressibility (1/GPa) = 0.01226375
#
# Stress axis : x y z
#
# Youngs Moduli (GPa) = 116.45672 106.03251 78.62243
#
# Poissons Ratio (x) = 0.03261 0.38514
# Poissons Ratio (y) = 0.03582 0.31689
# Poissons Ratio (z) = 0.57047 0.42736
#
# Static dielectric constant tensor:
#      x y z
#    x 1.544190 0.000000 0.127550 
#    y 0.000000 1.800170 0.000000 
#    z 0.127550 0.000000 1.668680 
# 
# From -- ./inp_files/8582.got.cif
#   From: 2010.05.17/outbox.cif.g08.bks.cpg/sg12_5_cif.got.tgz:8582.got - 2010.06.03 13:09:07.
