data_PCOD9217891
_publ_section_title
;
Structure prediction by ZEFSAII (Michael W. Deem and Ramdas Pophale) SiO2 
 PCOD9217891
Probable space group: C 2/M
;
_chemical_formula_sum "Si O2"
_cell_formula_units_Z 60
_cell_length_a 8.575172
_cell_length_b 14.065186
_cell_length_c 28.160859
_cell_angle_alpha 90.000000
_cell_angle_beta 55.813718
_cell_angle_gamma 90.000000
_cell_volume 2809.652991
_symmetry_space_group_name_H-M "C 2/M"
_symmetry_group_IT_number 12
_symmetry_cell_setting 'monoclinic'
loop_
_space_group_symop_operation_xyz
x,y,z
-x,y,-z
-x,-y,-z
x,-y,z
1/2+x,1/2+y,z
1/2-x,1/2+y,-z
1/2-x,1/2-y,-z
1/2+x,1/2-y,z
loop_
_atom_site_type_symbol
_atom_site_label
_atom_site_fract_x
_atom_site_fract_y
_atom_site_fract_z
Si Si1 0.725681 0.887758 0.810137
Si Si2 0.000000 0.259611 0.000000
Si Si3 0.054940 0.886897 0.687772
Si Si4 0.989799 0.887776 0.149533
Si Si5 0.656440 0.794221 0.621401
Si Si6 0.096150 0.706458 0.082743
Si Si7 0.341012 0.887021 0.727537
Si Si8 0.543354 0.208077 0.542697
O O1 0.849498 0.858646 0.743527
O O2 0.525687 0.841550 0.855483
O O3 0.861439 0.872695 0.832702
O O4 0.698516 0.000000 0.810205
O O5 0.969095 0.322031 0.958456
O O6 0.181531 0.197146 0.956591
O O7 0.106570 0.818030 0.635807
O O8 0.204486 0.869458 0.705140
O O9 0.057323 0.000000 0.677251
O O10 0.783973 0.859120 0.205435
O O11 0.052615 0.818617 0.097145
O O12 0.987934 0.000000 0.139018
O O13 0.544651 0.840604 0.684218
O O14 0.565640 0.841186 0.589896
O O15 0.881463 0.788484 0.578045
O O16 0.365640 0.000000 0.726259
O O17 0.500000 0.157300 0.500000
O O18 0.750000 0.250000 0.500000
#
# Coordination Sequence:
#
# PCOD9217891 Si02
#       8
#     8   4   8   8   8   8   8   8
#     4   9  18  34  57  81 109 143 175 211 266 336
#     4  10  24  34  56  76 108 136 188 236 264 296
#     4   9  18  32  54  87 113 136 176 216 261 335
#     4   9  18  34  57  81 109 144 175 209 267 339
#     4  11  17  34  59  80 106 148 174 217 281 306
#     4  11  19  40  54  80 105 144 179 229 267 315
#     4   9  18  32  54  87 114 136 174 217 265 332
#     4   9  20  34  54  78 106 145 192 222 255 311
#
# _framework density 21.354951
#
# number of rings (size 3 to 8) (size 9 to 14) (size 15 to 20)
#    0.000    2.400    2.667    2.400    0.000    0.000 
#    0.000    5.333    0.000   19.200    0.000    0.000 
#    0.000    0.000    0.000    0.000    0.000    0.000 
#
# Total GULP energy -167121.905340 kJ/mol
# GULP energy per Si atom -5570.730178 kJ/mol
# Density = 2.130635 g / cm^3
# Si number density = 21.354951 Si / 1000 Ang^3
#
#
#
# Elastic Constant Matrix: (Units=GPa)
#
#
# Indices 1 2 3 4 5 6 
#
# 1 56.7198 5.4103 41.6601 0.0000 -16.2151 0.0000
# 2 5.4103 37.3789 32.5153 0.0000 -4.5875 0.0000
# 3 41.6601 32.5153 131.4049 -0.0002 -42.8393 0.0001
# 4 0.0000 0.0000 -0.0002 8.4486 0.0001 0.4121
# 5 -16.2151 -4.5875 -42.8393 0.0001 47.8197 0.0000
# 6 0.0000 0.0000 0.0001 0.4121 0.0000 10.0160
#
#
#
# Elastic Compliance Matrix: (Units=1/GPa)
#
#
# Indices 1 2 3 4 5 6 
#
# 1 0.023467 0.003678 -0.007968 0.000000 0.001172 0.000000
# 2 0.003678 0.035956 -0.012052 0.000000 -0.006100 0.000000
# 3 -0.007968 -0.012052 0.016754 0.000000 0.011151 0.000000
# 4 0.000000 0.000000 0.000000 0.118601 0.000000 -0.004880
# 5 0.001172 -0.006100 0.011151 0.000000 0.030714 0.000000
# 6 0.000000 0.000000 0.000000 -0.004880 0.000000 0.100041
#
#
# Mechanical properties :
#
#
# Convention : Reuss Voigt Hill
#
# Bulk Modulus (GPa) = 22.99192 42.74170 32.86681
# Shear Modulus (GPa) = 13.41514 22.98471 18.19993
#
# Velocity S-wave (km/s) = 2.50911 3.28429 2.92251
# Velocity P-wave (km/s) = 4.37996 5.86859 5.17805
#
# Compressibility (1/GPa) = 0.04349354
#
# Stress axis : x y z
#
# Youngs Moduli (GPa) = 42.61266 27.81202 59.68866
#
# Poissons Ratio (x) = -0.10230 0.47560
# Poissons Ratio (y) = -0.15675 0.71936
# Poissons Ratio (z) = 0.33954 0.33519
#
# Static dielectric constant tensor:
#      x y z
#    x 1.844560 0.000000 0.006780 
#    y 0.000000 1.745670 0.000000 
#    z 0.006780 0.000000 1.799770 
# 
# From -- ./inp_files/372564.got.cif
#   From: 2010.05.17/outbox.cif.g08.bks.cpg/sg12_187_cif.got.tgz:372564.got - 2010.06.03 13:09:07.
