data_PCOD9217832
_publ_section_title
;
Structure prediction by ZEFSAII (Michael W. Deem and Ramdas Pophale) SiO2 
 PCOD9217832
Probable space group: C 2/M
;
_chemical_formula_sum "Si O2"
_cell_formula_units_Z 28
_cell_length_a 20.662936
_cell_length_b 7.520597
_cell_length_c 8.153867
_cell_angle_alpha 90.000000
_cell_angle_beta 57.985287
_cell_angle_gamma 90.000000
_cell_volume 1074.382059
_symmetry_space_group_name_H-M "C 2/M"
_symmetry_group_IT_number 12
_symmetry_cell_setting 'monoclinic'
loop_
_space_group_symop_operation_xyz
x,y,z
-x,y,-z
-x,-y,-z
x,-y,z
1/2+x,1/2+y,z
1/2-x,1/2+y,-z
1/2-x,1/2-y,-z
1/2+x,1/2-y,z
loop_
_atom_site_type_symbol
_atom_site_label
_atom_site_fract_x
_atom_site_fract_y
_atom_site_fract_z
Si Si1 0.309713 0.301351 0.086411
Si Si2 0.463333 0.211478 0.722039
Si Si3 0.379144 0.791065 0.348926
Si Si4 0.301288 0.500000 0.695138
O O1 0.280820 0.500000 0.150033
O O2 0.345163 0.238634 0.215302
O O3 0.247090 0.153317 0.140071
O O4 0.384176 0.302430 0.869420
O O5 0.500000 0.268602 0.500000
O O6 0.530093 0.242641 0.763481
O O7 0.448643 0.000000 0.733303
O O8 0.339507 0.657106 0.527644
O O9 0.368207 0.000000 0.407327
#
# Coordination Sequence:
#
# PCOD9217832 Si02
#       4
#     8   8   8   4
#     4  12  24  39  69  99 132 169 217 264 327 384
#     4  10  23  46  70  94 129 174 222 270 317 382
#     4  11  23  40  70  98 131 168 217 266 327 381
#     4  12  24  42  64 102 136 170 202 284 314 398
#
# _framework density 26.061491
#
# number of rings (size 3 to 8) (size 9 to 14) (size 15 to 20)
#    0.000    0.857    4.286    2.571    2.000    4.000 
#    0.000    1.429    0.000    0.000    0.000    0.000 
#    0.000    0.000    0.000    0.000    0.000    0.000 
#
# Total GULP energy -78093.541470 kJ/mol
# GULP energy per Si atom -5578.110105 kJ/mol
# Density = 2.600217 g / cm^3
# Si number density = 26.061491 Si / 1000 Ang^3
#
#
#
# Elastic Constant Matrix: (Units=GPa)
#
#
# Indices 1 2 3 4 5 6 
#
# 1 91.5273 48.6255 23.7968 0.0000 -10.3268 0.0000
# 2 48.6255 237.7273 62.7365 0.0000 -30.7722 0.0000
# 3 23.7968 62.7365 148.6797 0.0000 -34.8441 0.0000
# 4 0.0000 0.0000 0.0000 58.4110 0.0000 -8.6577
# 5 -10.3268 -30.7722 -34.8441 0.0000 28.5455 0.0000
# 6 0.0000 0.0000 0.0000 -8.6577 0.0000 1.0175
#
#
#
# Elastic Compliance Matrix: (Units=1/GPa)
#
#
# Indices 1 2 3 4 5 6 
#
# 1 0.012422 -0.002179 -0.000793 0.000000 0.001177 0.000000
# 2 -0.002179 0.005418 -0.001055 0.000000 0.003764 0.000000
# 3 -0.000793 -0.001055 0.009755 0.000000 0.010483 0.000000
# 4 0.000000 0.000000 0.000000 -0.065547 0.000000 -0.557728
# 5 0.001177 0.003764 0.010483 0.000000 0.052311 0.000000
# 6 0.000000 0.000000 0.000000 -0.557728 0.000000 -3.762825
#
#
# Mechanical properties :
#
#
# Convention : Reuss Voigt Hill
#
# Bulk Modulus (GPa) = 51.17609 83.13910 67.15759
# Shear Modulus (GPa) = -1.33908 40.44650 19.55371
#
# Velocity S-wave (km/s) = -0.71759 3.94377 2.74212
# Velocity P-wave (km/s) = 4.35806 7.26004 5.98752
#
# Compressibility (1/GPa) = 0.01954038
#
# Stress axis : x y z
#
# Youngs Moduli (GPa) = 80.49942 184.57050 102.51451
#
# Poissons Ratio (x) = 0.40224 0.08128
# Poissons Ratio (y) = 0.17544 0.10817
# Poissons Ratio (z) = 0.06382 0.19476
#
# Static dielectric constant tensor:
#      x y z
#    x 2.178550 0.000000 0.092480 
#    y 0.000000 2.041860 0.000000 
#    z 0.092480 0.000000 2.009070 
# 
# From -- ./inp_files/101448.got.cif
#   From: 2010.05.17/outbox.cif.g08.bks.cpg/sg12_51_cif.got.tgz:101448.got - 2010.06.03 13:09:07.
