data_PCOD9217509
_publ_section_title
;
Structure prediction by ZEFSAII (Michael W. Deem and Ramdas Pophale) SiO2 
 PCOD9217509
Probable space group: C 2/M
;
_chemical_formula_sum "Si O2"
_cell_formula_units_Z 48
_cell_length_a 10.787720
_cell_length_b 18.007535
_cell_length_c 17.239758
_cell_angle_alpha 90.000000
_cell_angle_beta 40.340105
_cell_angle_gamma 90.000000
_cell_volume 2167.886028
_symmetry_space_group_name_H-M "C 2/M"
_symmetry_group_IT_number 12
_symmetry_cell_setting 'monoclinic'
loop_
_space_group_symop_operation_xyz
x,y,z
-x,y,-z
-x,-y,-z
x,-y,z
1/2+x,1/2+y,z
1/2-x,1/2+y,-z
1/2-x,1/2-y,-z
1/2+x,1/2-y,z
loop_
_atom_site_type_symbol
_atom_site_label
_atom_site_fract_x
_atom_site_fract_y
_atom_site_fract_z
Si Si1 0.487423 0.411033 0.733176
Si Si2 0.402806 0.285338 0.867636
Si Si3 0.843899 0.312512 0.511550
Si Si4 0.817198 0.197917 0.142740
Si Si5 0.977286 0.587526 0.705734
Si Si6 0.830772 0.089395 0.638511
O O1 0.515168 0.500000 0.726988
O O2 0.383461 0.372545 0.856254
O O3 0.681728 0.363544 0.629760
O O4 0.372633 0.395092 0.708098
O O5 0.356260 0.245389 0.809256
O O6 0.607726 0.275662 0.810129
O O7 0.250000 0.250000 0.000000
O O8 0.750000 0.250000 0.500000
O O9 0.952272 0.369503 0.403332
O O10 0.000000 0.285014 0.500000
O O11 0.737580 0.114967 0.178712
O O12 0.000000 0.204812 0.000000
O O13 0.990566 0.500000 0.689000
O O14 0.123460 0.610713 0.704738
O O15 0.000000 0.115866 0.500000
O O16 0.836506 0.000000 0.630448
#
# Coordination Sequence:
#
# PCOD9217509 Si02
#       6
#     8   8   8   8   8   8
#     4  11  23  41  70 102 139 183 234 289 349 417
#     4  10  23  44  68  95 131 175 228 291 350 408
#     4  12  27  41  63  98 140 187 230 278 346 421
#     4  10  23  43  67  94 127 180 230 286 355 410
#     4  11  23  40  66  99 139 178 228 285 347 414
#     4   9  18  36  63  99 139 183 218 272 348 412
#
# _framework density 22.141383999999999
#
# number of rings (size 3 to 8) (size 9 to 14) (size 15 to 20)
#    0.000    1.500    1.667    2.500    4.667    3.667 
#    0.000    2.500    0.000    4.500    0.000    0.000 
#    0.000    0.000    0.000    0.000    0.000    0.000 
#
# Total GULP energy -133979.202171 kJ/mol
# GULP energy per Si atom -5582.466757 kJ/mol
# Density = 2.209099 g / cm^3
# Si number density = 22.141384 Si / 1000 Ang^3
#
#
#
# Elastic Constant Matrix: (Units=GPa)
#
#
# Indices 1 2 3 4 5 6 
#
# 1 210.9214 76.5721 37.9399 -0.0004 -14.6782 -0.0011
# 2 76.5721 146.0003 35.9678 -0.0033 1.6734 0.0011
# 3 37.9399 35.9678 42.3493 -0.0139 -0.7642 0.0035
# 4 -0.0004 -0.0033 -0.0139 32.1420 0.0045 1.2603
# 5 -14.6782 1.6734 -0.7642 0.0045 25.7943 0.0002
# 6 -0.0011 0.0011 0.0035 1.2603 0.0002 40.1583
#
#
#
# Elastic Compliance Matrix: (Units=1/GPa)
#
#
# Indices 1 2 3 4 5 6 
#
# 1 0.006610 -0.002616 -0.003631 -0.000002 0.003824 0.000001
# 2 -0.002616 0.009713 -0.005947 -0.000001 -0.002295 0.000000
# 3 -0.003631 -0.005947 0.031904 0.000013 -0.000735 -0.000003
# 4 -0.000002 -0.000001 0.000013 0.031150 -0.000006 -0.000978
# 5 0.003824 -0.002295 -0.000735 -0.000006 0.041071 0.000000
# 6 0.000001 0.000000 -0.000003 -0.000978 0.000000 0.024932
#
#
# Mechanical properties :
#
#
# Convention : Reuss Voigt Hill
#
# Bulk Modulus (GPa) = 41.94890 77.80341 59.87615
# Shear Modulus (GPa) = 28.13514 36.20499 32.17007
#
# Velocity S-wave (km/s) = 3.56856 4.04811 3.81588
# Velocity P-wave (km/s) = 5.99721 7.55416 6.82026
#
# Compressibility (1/GPa) = 0.02383853
#
# Stress axis : x y z
#
# Youngs Moduli (GPa) = 151.28502 102.95841 31.34450
#
# Poissons Ratio (x) = 0.26935 0.11381
# Poissons Ratio (y) = 0.39577 0.18640
# Poissons Ratio (z) = 0.54931 0.61228
#
# Static dielectric constant tensor:
#      x y z
#    x 1.883830 0.000010 0.053030 
#    y 0.000010 1.822170 0.000010 
#    z 0.053030 0.000010 1.933520 
# 
# From -- ./inp_files/305638.got.cif
#   From: 2010.05.17/outbox.cif.g08.bks.cpg/sg12_153_cif.got.tgz:305638.got - 2010.06.03 13:09:07.
