data_PCOD9217372
_publ_section_title
;
Structure prediction by ZEFSAII (Michael W. Deem and Ramdas Pophale) SiO2 
 PCOD9217372
Probable space group: C 2/M
;
_chemical_formula_sum "Si O2"
_cell_formula_units_Z 40
_cell_length_a 12.613541
_cell_length_b 16.826355
_cell_length_c 9.889988
_cell_angle_alpha 90.000000
_cell_angle_beta 57.499387
_cell_angle_gamma 90.000000
_cell_volume 1770.308958
_symmetry_space_group_name_H-M "C 2/M"
_symmetry_group_IT_number 12
_symmetry_cell_setting 'monoclinic'
loop_
_space_group_symop_operation_xyz
x,y,z
-x,y,-z
-x,-y,-z
x,-y,z
1/2+x,1/2+y,z
1/2-x,1/2+y,-z
1/2-x,1/2-y,-z
1/2+x,1/2-y,z
loop_
_atom_site_type_symbol
_atom_site_label
_atom_site_fract_x
_atom_site_fract_y
_atom_site_fract_z
Si Si1 0.623516 0.201326 0.061825
Si Si2 0.506126 0.911962 0.656284
Si Si3 0.501228 0.634605 0.845924
Si Si4 0.283904 0.593264 0.783958
Si Si5 0.221024 0.842910 0.494652
O O1 0.589856 0.148979 0.213456
O O2 0.519646 0.270002 0.125252
O O3 0.750000 0.250000 0.000000
O O4 0.658557 0.140813 0.917347
O O5 0.500000 0.909916 0.500000
O O6 0.647011 0.888300 0.597296
O O7 0.476296 0.000000 0.726441
O O8 0.387219 0.601583 0.832693
O O9 0.629477 0.624759 0.674445
O O10 0.500000 0.602630 0.000000
O O11 0.262184 0.500000 0.773313
O O12 0.334365 0.638121 0.615663
O O13 0.250000 0.750000 0.500000
#
# Coordination Sequence:
#
# PCOD9217372 Si02
#       5
#     8   8   8   8   8
#     4  10  23  42  71 100 139 181 234 286 354 420
#     4  11  26  44  69 103 142 182 234 298 356 416
#     4  11  25  44  72 107 136 185 241 291 349 423
#     4  11  26  46  71 104 145 184 230 296 361 422
#     4  12  25  43  73 101 140 189 235 288 350 425
#
# _framework density 22.594926000000001
#
# number of rings (size 3 to 8) (size 9 to 14) (size 15 to 20)
#    0.000    1.000    2.000    3.000   11.200    2.800 
#    0.000    2.000    0.000    0.000    0.000    0.000 
#    0.000    0.000    0.000    0.000    0.000    0.000 
#
# Total GULP energy -111872.990848 kJ/mol
# GULP energy per Si atom -5593.649542 kJ/mol
# Density = 2.254350 g / cm^3
# Si number density = 22.594926 Si / 1000 Ang^3
#
#
#
# Elastic Constant Matrix: (Units=GPa)
#
#
# Indices 1 2 3 4 5 6 
#
# 1 69.3194 14.0325 34.8789 0.0000 9.8688 0.0000
# 2 14.0325 136.1603 41.7394 0.0000 2.4036 0.0000
# 3 34.8789 41.7394 154.1519 0.0000 0.8380 0.0000
# 4 0.0000 0.0000 0.0000 24.6787 0.0000 10.8847
# 5 9.8688 2.4036 0.8380 0.0000 47.7649 0.0000
# 6 0.0000 0.0000 0.0000 10.8847 0.0000 8.5423
#
#
#
# Elastic Compliance Matrix: (Units=1/GPa)
#
#
# Indices 1 2 3 4 5 6 
#
# 1 0.016855 -0.000560 -0.003644 0.000000 -0.003390 0.000000
# 2 -0.000560 0.008034 -0.002047 0.000000 -0.000253 0.000000
# 3 -0.003644 -0.002047 0.007862 0.000000 0.000718 0.000000
# 4 0.000000 0.000000 0.000000 0.092513 0.000000 -0.117881
# 5 -0.003390 -0.000253 0.000718 0.000000 0.021637 0.000000
# 6 0.000000 0.000000 0.000000 -0.117881 0.000000 0.267269
#
#
# Mechanical properties :
#
#
# Convention : Reuss Voigt Hill
#
# Bulk Modulus (GPa) = 49.38484 60.10369 54.74427
# Shear Modulus (GPa) = 11.53609 34.12921 22.83265
#
# Velocity S-wave (km/s) = 2.26201 3.89071 3.18232
# Velocity P-wave (km/s) = 5.35969 6.84410 6.14687
#
# Compressibility (1/GPa) = 0.02024913
#
# Stress axis : x y z
#
# Youngs Moduli (GPa) = 59.32810 124.47011 127.19501
#
# Poissons Ratio (x) = 0.06974 0.46345
# Poissons Ratio (y) = 0.03324 0.26040
# Poissons Ratio (z) = 0.21617 0.25482
#
# Static dielectric constant tensor:
#      x y z
#    x 1.924050 0.000000 0.070300 
#    y 0.000000 1.815460 0.000000 
#    z 0.070300 0.000000 1.846480 
# 
# From -- ./inp_files/60856.got.cif
#   From: 2010.05.17/outbox.cif.g08.bks.cpg/sg12_31_cif.got.tgz:60856.got - 2010.06.03 13:09:07.
