data_PCOD9217854
_publ_section_title
;
Structure prediction by ZEFSAII (Michael W. Deem and Ramdas Pophale) SiO2 
 PCOD9217854
Probable space group: C 2/M
;
_chemical_formula_sum "Si O2"
_cell_formula_units_Z 40
_cell_length_a 16.682416
_cell_length_b 16.197774
_cell_length_c 7.105022
_cell_angle_alpha 90.000000
_cell_angle_beta 129.876367
_cell_angle_gamma 90.000000
_cell_volume 1473.391952
_symmetry_space_group_name_H-M "C 2/M"
_symmetry_group_IT_number 12
_symmetry_cell_setting 'monoclinic'
loop_
_space_group_symop_operation_xyz
x,y,z
-x,y,-z
-x,-y,-z
x,-y,z
1/2+x,1/2+y,z
1/2-x,1/2+y,-z
1/2-x,1/2-y,-z
1/2+x,1/2-y,z
loop_
_atom_site_type_symbol
_atom_site_label
_atom_site_fract_x
_atom_site_fract_y
_atom_site_fract_z
Si Si1 0.022844 0.774993 0.235987
Si Si2 0.154706 0.905839 0.915257
Si Si3 0.317744 0.592068 0.497389
Si Si4 0.111657 0.643251 0.666841
Si Si5 0.893480 0.592957 0.945632
O O1 0.929689 0.834753 0.168791
O O2 0.886467 0.658870 0.103676
O O3 0.110720 0.840842 0.305897
O O4 0.000000 0.733835 0.000000
O O5 0.166639 0.903850 0.705784
O O6 0.080948 0.717652 0.480447
O O7 0.120669 0.000000 0.910123
O O8 0.342393 0.500000 0.597200
O O9 0.196027 0.609691 0.339468
O O10 0.000000 0.592648 0.500000
O O11 0.229610 0.610071 0.819861
O O12 0.867258 0.500000 0.986985
O O13 0.000000 0.581327 0.000000
#
# Coordination Sequence:
#
# PCOD9217854 Si02
#       5
#     8   8   8   8   8
#     4  12  27  43  66 102 147 197 246 294 356 433
#     4  10  23  46  75 104 136 184 247 310 371 434
#     4   9  19  40  70 102 137 181 238 302 366 434
#     4  11  25  44  70 102 144 189 234 293 370 438
#     4   9  20  41  72 109 141 176 234 305 371 437
#
# _framework density 27.148243000000001
#
# number of rings (size 3 to 8) (size 9 to 14) (size 15 to 20)
#    0.000    1.800    0.000    4.200    0.000   15.200 
#    0.000    2.000    0.000    4.800    0.000    0.000 
#    0.000    0.000    0.000    0.000    0.000    0.000 
#
# Total GULP energy -111756.559641 kJ/mol
# GULP energy per Si atom -5587.827982 kJ/mol
# Density = 2.708645 g / cm^3
# Si number density = 27.148243 Si / 1000 Ang^3
#
#
#
# Elastic Constant Matrix: (Units=GPa)
#
#
# Indices 1 2 3 4 5 6 
#
# 1 104.4235 42.6467 31.5901 0.0000 1.6419 0.0000
# 2 42.6467 175.1346 59.0724 0.0000 1.5503 0.0000
# 3 31.5901 59.0724 114.5635 0.0000 -11.0385 0.0000
# 4 0.0000 0.0000 0.0000 25.9910 0.0000 7.3361
# 5 1.6419 1.5503 -11.0385 0.0000 66.7373 0.0000
# 6 0.0000 0.0000 0.0000 7.3361 0.0000 4.7946
#
#
#
# Elastic Compliance Matrix: (Units=1/GPa)
#
#
# Indices 1 2 3 4 5 6 
#
# 1 0.011021 -0.001979 -0.002073 0.000000 -0.000568 0.000000
# 2 -0.001979 0.007306 -0.003285 0.000000 -0.000664 0.000000
# 3 -0.002073 -0.003285 0.011185 0.000000 0.001977 0.000000
# 4 0.000000 0.000000 0.000000 0.067722 0.000000 -0.103618
# 5 -0.000568 -0.000664 0.001977 0.000000 0.015341 0.000000
# 6 0.000000 0.000000 0.000000 -0.103618 0.000000 0.367110
#
#
# Mechanical properties :
#
#
# Convention : Reuss Voigt Hill
#
# Bulk Modulus (GPa) = 67.40296 73.41556 70.40926
# Shear Modulus (GPa) = 10.01393 36.89207 23.45300
#
# Velocity S-wave (km/s) = 1.92266 3.69034 2.94238
# Velocity P-wave (km/s) = 5.45990 6.72751 6.12657
#
# Compressibility (1/GPa) = 0.01483614
#
# Stress axis : x y z
#
# Youngs Moduli (GPa) = 90.73723 136.87529 89.40583
#
# Poissons Ratio (x) = 0.27093 0.18534
# Poissons Ratio (y) = 0.17961 0.29373
# Poissons Ratio (z) = 0.18810 0.44968
#
# Static dielectric constant tensor:
#      x y z
#    x 2.238510 0.000000 0.025770 
#    y 0.000000 2.155330 0.000000 
#    z 0.025770 0.000000 2.180580 
# 
# From -- ./inp_files/59091.got.cif
#   From: 2010.05.17/outbox.cif.g08.bks.cpg/sg12_30_cif.got.tgz:59091.got - 2010.06.03 13:09:07.
