data_PCOD9217594
_publ_section_title
;
Structure prediction by ZEFSAII (Michael W. Deem and Ramdas Pophale) SiO2 
 PCOD9217594
Probable space group: C 2/M
;
_chemical_formula_sum "Si O2"
_cell_formula_units_Z 48
_cell_length_a 18.588479
_cell_length_b 28.970317
_cell_length_c 9.803721
_cell_angle_alpha 90.000000
_cell_angle_beta 151.598561
_cell_angle_gamma 90.000000
_cell_volume 2511.147193
_symmetry_space_group_name_H-M "C 2/M"
_symmetry_group_IT_number 12
_symmetry_cell_setting 'monoclinic'
loop_
_space_group_symop_operation_xyz
x,y,z
-x,y,-z
-x,-y,-z
x,-y,z
1/2+x,1/2+y,z
1/2-x,1/2+y,-z
1/2-x,1/2-y,-z
1/2+x,1/2-y,z
loop_
_atom_site_type_symbol
_atom_site_label
_atom_site_fract_x
_atom_site_fract_y
_atom_site_fract_z
Si Si1 0.826044 0.612800 0.704799
Si Si2 0.500000 0.614756 0.500000
Si Si3 0.790633 0.445531 0.917727
Si Si4 0.711152 0.140237 0.636516
Si Si5 0.092899 0.730767 0.293064
Si Si6 0.000000 0.405749 0.500000
Si Si7 0.473235 0.670733 0.728287
O O1 0.816420 0.574793 0.808071
O O2 0.800111 0.601719 0.501885
O O3 0.693185 0.650382 0.511573
O O4 0.000000 0.628444 0.000000
O O5 0.355604 0.581896 0.272887
O O6 0.507963 0.648147 0.641860
O O7 0.766920 0.500000 0.871657
O O8 0.921215 0.433972 0.245739
O O9 0.622538 0.185350 0.431816
O O10 0.628947 0.123954 0.637100
O O11 0.886817 0.153403 0.946427
O O12 0.250000 0.750000 0.500000
O O13 0.025237 0.773926 0.264111
O O14 0.000000 0.723646 0.000000
#
# Coordination Sequence:
#
# PCOD9217594 Si02
#       7
#     8   4   8   8   8   4   8
#     4  11  22  39  68  95 125 171 218 265 317 387
#     4  10  23  43  72  92 132 170 214 265 335 390
#     4  11  24  44  68  97 128 168 215 271 332 394
#     4  12  24  43  63  95 134 174 220 262 328 382
#     4  12  23  37  63  96 128 173 221 270 310 375
#     4  12  25  43  66  96 130 176 208 271 333 398
#     4  11  23  42  66  94 132 177 215 266 322 380
#
# _framework density 19.114768999999999
#
# number of rings (size 3 to 8) (size 9 to 14) (size 15 to 20)
#    0.000    0.667    6.667    1.500    0.000    1.000 
#    0.000    1.667    0.000    2.000    0.000    0.000 
#    0.000    0.000    0.000    0.000    0.000    0.000 
#
# Total GULP energy -133834.863968 kJ/mol
# GULP energy per Si atom -5576.452665 kJ/mol
# Density = 1.907126 g / cm^3
# Si number density = 19.114769 Si / 1000 Ang^3
#
#
#
# Elastic Constant Matrix: (Units=GPa)
#
#
# Indices 1 2 3 4 5 6 
#
# 1 118.4212 60.2800 41.4675 0.0000 -5.1249 0.0000
# 2 60.2800 119.0524 40.3143 0.0000 -18.9278 0.0000
# 3 41.4675 40.3143 133.0852 0.0000 -5.5239 0.0000
# 4 0.0000 0.0000 0.0000 25.0915 0.0000 -2.5407
# 5 -5.1249 -18.9278 -5.5239 0.0000 33.0208 0.0000
# 6 0.0000 0.0000 0.0000 -2.5407 0.0000 6.6053
#
#
#
# Elastic Compliance Matrix: (Units=1/GPa)
#
#
# Indices 1 2 3 4 5 6 
#
# 1 0.011966 -0.005622 -0.002097 0.000000 -0.001716 0.000000
# 2 -0.005622 0.012870 -0.001890 0.000000 0.006189 0.000000
# 3 -0.002097 -0.001890 0.008742 0.000000 0.000054 0.000000
# 4 0.000000 0.000000 0.000000 0.041469 0.000000 0.015951
# 5 -0.001716 0.006189 0.000054 0.000000 0.033574 0.000000
# 6 0.000000 0.000000 0.000000 0.015951 0.000000 0.157528
#
#
# Mechanical properties :
#
#
# Convention : Reuss Voigt Hill
#
# Bulk Modulus (GPa) = 69.63231 72.74250 71.18740
# Shear Modulus (GPa) = 17.23226 28.17665 22.70445
#
# Velocity S-wave (km/s) = 3.00578 3.84354 3.45018
# Velocity P-wave (km/s) = 6.96806 7.60495 7.29346
#
# Compressibility (1/GPa) = 0.01436115
#
# Stress axis : x y z
#
# Youngs Moduli (GPa) = 83.57069 77.70032 114.38909
#
# Poissons Ratio (x) = 0.43679 0.23985
# Poissons Ratio (y) = 0.46979 0.21621
# Poissons Ratio (z) = 0.17523 0.14686
#
# Static dielectric constant tensor:
#      x y z
#    x 1.684790 0.000000 0.002730 
#    y 0.000000 1.650900 0.000000 
#    z 0.002730 0.000000 1.691570 
# 
# From -- ./inp_files/80891.got.cif
#   From: 2010.05.17/outbox.cif.g08.bks.cpg/sg12_41_cif.got.tgz:80891.got - 2010.06.03 13:09:07.
