data_PCOD9217754
_publ_section_title
;
Structure prediction by ZEFSAII (Michael W. Deem and Ramdas Pophale) SiO2 
 PCOD9217754
Probable space group: C 2/M
;
_chemical_formula_sum "Si O2"
_cell_formula_units_Z 40
_cell_length_a 13.824443
_cell_length_b 29.637887
_cell_length_c 9.924575
_cell_angle_alpha 90.000000
_cell_angle_beta 147.933967
_cell_angle_gamma 90.000000
_cell_volume 2158.820243
_symmetry_space_group_name_H-M "C 2/M"
_symmetry_group_IT_number 12
_symmetry_cell_setting 'monoclinic'
loop_
_space_group_symop_operation_xyz
x,y,z
-x,y,-z
-x,-y,-z
x,-y,z
1/2+x,1/2+y,z
1/2-x,1/2+y,-z
1/2-x,1/2-y,-z
1/2+x,1/2-y,z
loop_
_atom_site_type_symbol
_atom_site_label
_atom_site_fract_x
_atom_site_fract_y
_atom_site_fract_z
Si Si1 0.596557 0.947561 0.396043
Si Si2 0.000000 0.838753 0.500000
Si Si3 0.103969 0.882978 0.342787
Si Si4 0.226767 0.051565 0.097285
Si Si5 0.802415 0.751242 0.218232
Si Si6 0.000000 0.809796 0.000000
O O1 0.707124 0.910717 0.441605
O O2 0.688168 0.946605 0.652907
O O3 0.385460 0.936438 0.177721
O O4 0.609272 0.000000 0.363335
O O5 0.953331 0.866678 0.577077
O O6 0.829693 0.804244 0.281850
O O7 0.945958 0.917083 0.111619
O O8 0.090302 0.841413 0.221683
O O9 0.172837 0.000000 0.007745
O O10 0.651742 0.722695 0.116652
O O11 0.000000 0.732392 0.500000
O O12 0.750000 0.750000 0.000000
#
# Coordination Sequence:
#
# PCOD9217754 Si02
#       6
#     8   4   8   8   8   4
#     4   9  18  34  59  91 123 156 198 249 303 359
#     4  10  26  44  57  86 130 156 205 258 320 364
#     4  12  21  37  59  93 117 156 206 253 294 373
#     4   9  18  34  58  90 124 155 195 251 303 354
#     4  10  23  45  64  89 124 161 204 266 318 373
#     4  12  22  38  71  88 114 166 213 246 316 376
#
# _framework density 18.528638000000001
#
# number of rings (size 3 to 8) (size 9 to 14) (size 15 to 20)
#    0.600    1.200    4.000    1.800    0.000    6.400 
#    3.600    2.000    0.000    2.400    0.000    0.000 
#    0.000    0.000    0.000    0.000    0.000    0.000 
#
# Total GULP energy -111460.073218 kJ/mol
# GULP energy per Si atom -5573.003661 kJ/mol
# Density = 1.848647 g / cm^3
# Si number density = 18.528638 Si / 1000 Ang^3
#
#
#
# Elastic Constant Matrix: (Units=GPa)
#
#
# Indices 1 2 3 4 5 6 
#
# 1 132.1625 69.3939 28.7986 0.0000 6.8062 0.0000
# 2 69.3939 74.0631 14.0916 0.0000 15.3373 0.0000
# 3 28.7986 14.0916 49.3846 0.0000 5.6291 0.0000
# 4 0.0000 0.0000 0.0000 -17.0216 0.0000 23.2059
# 5 6.8062 15.3373 5.6291 0.0000 30.2740 0.0000
# 6 0.0000 0.0000 0.0000 23.2059 0.0000 38.4022
#
#
#
# Elastic Compliance Matrix: (Units=1/GPa)
#
#
# Indices 1 2 3 4 5 6 
#
# 1 0.016871 -0.015775 -0.005941 0.000000 0.005304 0.000000
# 2 -0.015775 0.030454 0.001904 0.000000 -0.012236 0.000000
# 3 -0.005941 0.001904 0.023629 0.000000 -0.004022 0.000000
# 4 0.000000 0.000000 0.000000 -0.032212 0.000000 0.019465
# 5 0.005304 -0.012236 -0.004022 0.000000 0.038786 0.000000
# 6 0.000000 0.000000 0.000000 0.019465 0.000000 0.014278
#
#
# Mechanical properties :
#
#
# Convention : Reuss Voigt Hill
#
# Bulk Modulus (GPa) = 31.91909 53.35317 42.63613
# Shear Modulus (GPa) = 35.24224 19.88599 27.56411
#
# Velocity S-wave (km/s) = 4.36597 3.27961 3.86119
# Velocity P-wave (km/s) = 6.53299 6.57257 6.55281
#
# Compressibility (1/GPa) = 0.03132921
#
# Stress axis : x y z
#
# Youngs Moduli (GPa) = 59.27321 32.83598 42.32054
#
# Poissons Ratio (x) = 0.51800 0.25145
# Poissons Ratio (y) = 0.93505 -0.08058
# Poissons Ratio (z) = 0.35217 -0.06252
#
# Static dielectric constant tensor:
#      x y z
#    x 1.635140 0.000000 0.016110 
#    y 0.000000 1.650010 0.000000 
#    z 0.016110 0.000000 1.561810 
# 
# From -- ./inp_files/54481.got.cif
#   From: 2010.05.17/outbox.cif.g08.bks.cpg/sg12_28_cif.got.tgz:54481.got - 2010.06.03 13:09:07.
