data_PCOD9217040
_publ_section_title
;
Structure prediction by ZEFSAII (Michael W. Deem and Ramdas Pophale) SiO2 
 PCOD9217040
Probable space group: C 2/M
;
_chemical_formula_sum "Si O2"
_cell_formula_units_Z 56
_cell_length_a 22.104902
_cell_length_b 22.744742
_cell_length_c 13.106881
_cell_angle_alpha 90.000000
_cell_angle_beta 156.384020
_cell_angle_gamma 90.000000
_cell_volume 2639.884283
_symmetry_space_group_name_H-M "C 2/M"
_symmetry_group_IT_number 12
_symmetry_cell_setting 'monoclinic'
loop_
_space_group_symop_operation_xyz
x,y,z
-x,y,-z
-x,-y,-z
x,-y,z
1/2+x,1/2+y,z
1/2-x,1/2+y,-z
1/2-x,1/2-y,-z
1/2+x,1/2-y,z
loop_
_atom_site_type_symbol
_atom_site_label
_atom_site_fract_x
_atom_site_fract_y
_atom_site_fract_z
Si Si1 0.621613 0.868239 0.600636
Si Si2 0.582684 0.568580 0.949205
Si Si3 0.121727 0.822075 0.328869
Si Si4 0.308065 0.846189 0.819053
Si Si5 0.435292 0.568816 0.503687
Si Si6 0.588527 0.807883 0.338859
Si Si7 0.682775 0.750445 0.783475
O O1 0.500000 0.884884 0.500000
O O2 0.553383 0.836167 0.394950
O O3 0.718685 0.815314 0.798153
O O4 0.740646 0.918943 0.758669
O O5 0.544911 0.500000 0.915629
O O6 0.483081 0.620747 0.845858
O O7 0.543349 0.577801 0.768043
O O8 0.236881 0.832427 0.600319
O O9 0.231782 0.812357 0.402479
O O10 0.048198 0.760002 0.249574
O O11 0.228891 0.906037 0.728783
O O12 0.248655 0.797906 0.808945
O O13 0.486605 0.845292 0.104239
O O14 0.500000 0.596235 0.500000
O O15 0.421968 0.500000 0.468910
O O16 0.500000 0.745271 0.500000
O O17 0.750000 0.750000 0.000000
#
# Coordination Sequence:
#
# PCOD9217040 Si02
#       7
#     8   8   8   8   8   8   8
#     4  11  24  39  60  93 128 161 203 259 321 381
#     4  10  23  43  65  88 125 171 212 255 302 374
#     4  10  23  41  65  89 126 163 213 257 308 373
#     4  11  20  36  61  87 120 158 205 259 314 371
#     4   9  20  36  58  88 118 161 209 251 302 365
#     4  11  23  41  61  96 124 163 202 263 323 371
#     4  11  23  34  56  90 129 167 204 257 327 392
#
# _framework density 21.213052000000001
#
# number of rings (size 3 to 8) (size 9 to 14) (size 15 to 20)
#    0.000    1.571    1.429    3.429    8.000    0.857 
#    0.000    2.857    0.000    3.429    0.000    0.000 
#    0.000    0.000    0.000    0.000    0.000    0.000 
#
# Total GULP energy -156244.218914 kJ/mol
# GULP energy per Si atom -5580.150675 kJ/mol
# Density = 2.116477 g / cm^3
# Si number density = 21.213052 Si / 1000 Ang^3
#
#
#
# Elastic Constant Matrix: (Units=GPa)
#
#
# Indices 1 2 3 4 5 6 
#
# 1 69.1237 17.6169 23.2627 0.0000 4.1492 0.0000
# 2 17.6169 67.3602 27.7696 0.0000 3.5001 0.0000
# 3 23.2627 27.7696 86.7824 0.0000 5.5908 0.0000
# 4 0.0000 0.0000 0.0000 18.1915 0.0000 -0.6896
# 5 4.1492 3.5001 5.5908 0.0000 31.3158 0.0000
# 6 0.0000 0.0000 0.0000 -0.6896 0.0000 16.8139
#
#
#
# Elastic Compliance Matrix: (Units=1/GPa)
#
#
# Indices 1 2 3 4 5 6 
#
# 1 0.016410 -0.002818 -0.003416 0.000000 -0.001249 0.000000
# 2 -0.002818 0.017613 -0.004833 0.000000 -0.000732 0.000000
# 3 -0.003416 -0.004833 0.014084 0.000000 -0.001521 0.000000
# 4 0.000000 0.000000 0.000000 0.055056 0.000000 0.002258
# 5 -0.001249 -0.000732 -0.001521 0.000000 0.032452 0.000000
# 6 0.000000 0.000000 0.000000 0.002258 0.000000 0.059567
#
#
# Mechanical properties :
#
#
# Convention : Reuss Voigt Hill
#
# Bulk Modulus (GPa) = 38.50566 40.06276 39.28421
# Shear Modulus (GPa) = 22.12631 23.57203 22.84917
#
# Velocity S-wave (km/s) = 3.23313 3.33709 3.28552
# Velocity P-wave (km/s) = 5.66823 5.81164 5.74038
#
# Compressibility (1/GPa) = 0.02597021
#
# Stress axis : x y z
#
# Youngs Moduli (GPa) = 60.93892 56.77524 71.00470
#
# Poissons Ratio (x) = 0.16001 0.24259
# Poissons Ratio (y) = 0.17175 0.34320
# Poissons Ratio (z) = 0.20820 0.27442
#
# Static dielectric constant tensor:
#      x y z
#    x 1.884570 0.000000 0.042510 
#    y 0.000000 1.754300 0.000000 
#    z 0.042510 0.000000 1.806000 
# 
# From -- ./inp_files/242186.got.cif
#   From: 2010.05.17/outbox.cif.g08.bks.cpg/sg12_122_cif.got.tgz:242186.got - 2010.06.03 13:09:07.
