data_PCOD9217428
_publ_section_title
;
Structure prediction by ZEFSAII (Michael W. Deem and Ramdas Pophale) SiO2 
 PCOD9217428
Probable space group: C 2/M
;
_chemical_formula_sum "Si O2"
_cell_formula_units_Z 58
_cell_length_a 30.065511
_cell_length_b 14.822598
_cell_length_c 21.911513
_cell_angle_alpha 90.000000
_cell_angle_beta 19.396518
_cell_angle_gamma 90.000000
_cell_volume 3242.941721
_symmetry_space_group_name_H-M "C 2/M"
_symmetry_group_IT_number 12
_symmetry_cell_setting 'monoclinic'
loop_
_space_group_symop_operation_xyz
x,y,z
-x,y,-z
-x,-y,-z
x,-y,z
1/2+x,1/2+y,z
1/2-x,1/2+y,-z
1/2-x,1/2-y,-z
1/2+x,1/2-y,z
loop_
_atom_site_type_symbol
_atom_site_label
_atom_site_fract_x
_atom_site_fract_y
_atom_site_fract_z
Si Si1 0.388843 0.245243 0.946929
Si Si2 0.783595 0.395149 0.297893
Si Si3 0.553379 0.104851 0.028128
Si Si4 0.283673 0.392568 0.302493
Si Si5 0.560354 0.254754 0.603867
Si Si6 0.500000 0.500000 0.500000
Si Si7 0.956038 0.892568 0.957788
Si Si8 0.919606 0.810578 0.660771
O O1 0.452167 0.165868 0.905993
O O2 0.458966 0.249999 0.791032
O O3 0.414713 0.335282 0.952885
O O4 0.233274 0.220491 0.142974
O O5 0.744469 0.500000 0.344406
O O6 0.668459 0.334133 0.473355
O O7 0.916437 0.389626 0.167110
O O8 0.828231 0.365882 0.171757
O O9 0.577724 0.000000 0.011175
O O10 0.261048 0.500000 0.336011
O O11 0.149886 0.335283 0.482501
O O12 0.396107 0.367942 0.207771
O O13 0.354765 0.374459 0.145230
O O14 0.485701 0.279497 0.638065
O O15 0.437633 0.418082 0.624728
O O16 0.955201 0.000000 0.947731
O O17 0.000000 0.767235 0.500000
#
# Coordination Sequence:
#
# PCOD9217428 Si02
#       8
#     8   8   8   8   8   2   8   8
#     4  12  24  36  56  86 124 152 184 235 302 357
#     4   9  19  35  58  87 117 154 201 249 293 341
#     4   9  19  35  58  87 117 154 201 249 293 341
#     4   9  19  38  61  83 111 155 207 241 266 321
#     4  12  24  36  56  86 124 152 184 235 302 357
#     4   8  24  44  72  92  92 148 202 248 288 338
#     4   9  19  38  61  83 111 155 207 241 266 321
#     4  10  23  43  65  86 107 142 198 240 284 351
#
# _framework density 17.884996999999998
#
# number of rings (size 3 to 8) (size 9 to 14) (size 15 to 20)
#    0.414    1.655    0.000    5.379    1.931    5.517 
#    0.000    3.448    0.000    2.483    0.000    0.000 
#    0.000    0.000    0.000    0.000    0.000    0.000 
#
# Total GULP energy -161601.697168 kJ/mol
# GULP energy per Si atom -5572.472316 kJ/mol
# Density = 1.784429 g / cm^3
# Si number density = 17.884997 Si / 1000 Ang^3
#
#
#
# Elastic Constant Matrix: (Units=GPa)
#
#
# Indices 1 2 3 4 5 6 
#
# 1 56.4986 62.3336 117.1118 -0.0014 -4.0209 -0.0002
# 2 62.3336 89.3095 65.0801 0.0002 3.7901 0.0000
# 3 117.1118 65.0801 79.7517 0.0020 34.4528 0.0004
# 4 -0.0014 0.0002 0.0020 -4.7861 -0.0009 -20.7184
# 5 -4.0209 3.7901 34.4528 -0.0009 16.7922 -0.0002
# 6 -0.0002 0.0000 0.0004 -20.7184 -0.0002 11.5568
#
#
#
# Elastic Compliance Matrix: (Units=1/GPa)
#
#
# Indices 1 2 3 4 5 6 
#
# 1 0.003786 -0.010083 0.011387 0.000001 -0.020179 0.000001
# 2 -0.010083 0.023204 -0.007239 0.000000 0.007200 0.000000
# 3 0.011387 -0.007239 -0.001393 -0.000001 0.007217 -0.000001
# 4 0.000001 0.000000 -0.000001 -0.023850 0.000000 -0.042757
# 5 -0.020179 0.007200 0.007217 0.000000 0.038286 0.000000
# 6 0.000001 0.000000 -0.000001 -0.042757 0.000000 0.009877
#
#
# Mechanical properties :
#
#
# Convention : Reuss Voigt Hill
#
# Bulk Modulus (GPa) = 72.85359 79.40120 76.12740
# Shear Modulus (GPa) = 75.34943 3.44821 39.39882
#
# Velocity S-wave (km/s) = 6.49780 1.39003 4.69860
# Velocity P-wave (km/s) = 9.85485 6.86061 8.49076
#
# Compressibility (1/GPa) = 0.01372616
#
# Stress axis : x y z
#
# Youngs Moduli (GPa) = 264.14032 43.09594 -718.10246
#
# Poissons Ratio (x) = 0.43455 8.17670
# Poissons Ratio (y) = 2.66343 -5.19817
# Poissons Ratio (z) = -3.00764 0.31196
#
# Static dielectric constant tensor:
#      x y z
#    x 1.635220 0.000000 -0.038060 
#    y 0.000000 1.613280 0.000000 
#    z -0.038060 0.000000 1.605160 
# 
# From -- ./inp_files/330276.got.cif
#   From: 2010.05.17/outbox.cif.g08.bks.cpg/sg12_166_cif.got.tgz:330276.got - 2010.06.03 13:09:07.
