data_PCOD9217805
_publ_section_title
;
Structure prediction by ZEFSAII (Michael W. Deem and Ramdas Pophale) SiO2 
 PCOD9217805
Probable space group: C 2/M
;
_chemical_formula_sum "Si O2"
_cell_formula_units_Z 64
_cell_length_a 29.246463
_cell_length_b 20.578833
_cell_length_c 9.421641
_cell_angle_alpha 90.000000
_cell_angle_beta 30.636835
_cell_angle_gamma 90.000000
_cell_volume 2889.651886
_symmetry_space_group_name_H-M "C 2/M"
_symmetry_group_IT_number 12
_symmetry_cell_setting 'monoclinic'
loop_
_space_group_symop_operation_xyz
x,y,z
-x,y,-z
-x,-y,-z
x,-y,z
1/2+x,1/2+y,z
1/2-x,1/2+y,-z
1/2-x,1/2-y,-z
1/2+x,1/2-y,z
loop_
_atom_site_type_symbol
_atom_site_label
_atom_site_fract_x
_atom_site_fract_y
_atom_site_fract_z
Si Si1 0.744872 0.925587 0.606006
Si Si2 0.447622 0.785690 0.274398
Si Si3 0.575718 0.244599 0.193650
Si Si4 0.690620 0.365940 0.831662
Si Si5 0.101658 0.596677 0.206609
Si Si6 0.210148 0.631686 0.158591
Si Si7 0.001682 0.925510 0.324537
Si Si8 0.147196 0.845293 0.446529
O O1 0.741622 0.879939 0.476541
O O2 0.809783 0.890852 0.547732
O O3 0.771561 0.000000 0.502238
O O4 0.648923 0.927500 0.939539
O O5 0.522873 0.769437 0.190371
O O6 0.370696 0.829399 0.551097
O O7 0.397015 0.718781 0.369757
O O8 0.500000 0.813895 0.000000
O O9 0.500000 0.275103 0.500000
O O10 0.601478 0.175645 0.192854
O O11 0.659257 0.292212 0.946703
O O12 0.729019 0.394046 0.875630
O O13 0.600402 0.401201 0.021672
O O14 0.162701 0.581110 0.179544
O O15 0.000000 0.576494 0.500000
O O16 0.276837 0.670759 0.874649
O O17 0.928722 0.882748 0.439254
O O18 0.000000 0.921117 0.500000
O O19 0.987618 0.000000 0.322138
#
# Coordination Sequence:
#
# PCOD9217805 Si02
#       8
#     8   8   8   8   8   8   8   8
#     4  11  27  46  65  95 135 175 229 283 321 382
#     4  12  24  38  62  99 136 169 210 265 336 402
#     4  11  21  40  66  95 134 171 213 262 323 407
#     4  12  24  39  63  98 137 173 210 271 338 386
#     4  10  23  45  71  98 127 172 224 270 335 402
#     4  11  24  39  66  98 134 169 214 274 329 397
#     4  11  22  39  64  93 129 175 223 266 315 387
#     4  11  23  43  65  95 129 179 226 260 321 399
#
# _framework density 22.147995999999999
#
# number of rings (size 3 to 8) (size 9 to 14) (size 15 to 20)
#    0.000    0.875    5.000    3.000    5.250    0.750 
#    0.000    1.875    0.000    0.750    0.000    0.000 
#    0.000    0.000    0.000    0.000    0.000    0.000 
#
# Total GULP energy -178940.128223 kJ/mol
# GULP energy per Si atom -5591.879007 kJ/mol
# Density = 2.209759 g / cm^3
# Si number density = 22.147996 Si / 1000 Ang^3
#
#
#
# Elastic Constant Matrix: (Units=GPa)
#
#
# Indices 1 2 3 4 5 6 
#
# 1 90.4588 -8.5245 35.4263 0.0000 6.0605 0.0000
# 2 -8.5245 78.9459 19.2709 0.0000 6.0875 0.0000
# 3 35.4263 19.2709 106.2597 0.0000 5.5302 0.0000
# 4 0.0000 0.0000 0.0000 14.5152 0.0000 6.6237
# 5 6.0605 6.0875 5.5302 0.0000 33.7989 0.0000
# 6 0.0000 0.0000 0.0000 6.6237 0.0000 7.8489
#
#
#
# Elastic Compliance Matrix: (Units=1/GPa)
#
#
# Indices 1 2 3 4 5 6 
#
# 1 0.013358 0.002788 -0.004850 0.000000 -0.002104 0.000000
# 2 0.002788 0.013973 -0.003335 0.000000 -0.002471 0.000000
# 3 -0.004850 -0.003335 0.011655 0.000000 -0.000437 0.000000
# 4 0.000000 0.000000 0.000000 0.112040 0.000000 -0.094552
# 5 -0.002104 -0.002471 -0.000437 0.000000 0.030481 0.000000
# 6 0.000000 0.000000 0.000000 -0.094552 0.000000 0.207200
#
#
# Mechanical properties :
#
#
# Convention : Reuss Voigt Hill
#
# Bulk Modulus (GPa) = 35.46968 40.88999 38.17984
# Shear Modulus (GPa) = 12.22802 26.53203 19.38002
#
# Velocity S-wave (km/s) = 2.35224 3.46489 2.96129
# Velocity P-wave (km/s) = 4.84014 5.87448 5.38222
#
# Compressibility (1/GPa) = 0.02819309
#
# Stress axis : x y z
#
# Youngs Moduli (GPa) = 74.86316 71.56860 85.79793
#
# Poissons Ratio (x) = -0.19956 0.41608
# Poissons Ratio (y) = -0.20875 0.28614
# Poissons Ratio (z) = 0.36305 0.23869
#
# Static dielectric constant tensor:
#      x y z
#    x 1.797530 0.000000 0.000280 
#    y 0.000000 1.826510 0.000000 
#    z 0.000280 0.000000 1.870540 
# 
# From -- ./inp_files/113599.got.cif
#   From: 2010.05.17/outbox.cif.g08.bks.cpg/sg12_57_cif.got.tgz:113599.got - 2010.06.03 13:09:07.
