data_PCOD9217538
_publ_section_title
;
Structure prediction by ZEFSAII (Michael W. Deem and Ramdas Pophale) SiO2 
 PCOD9217538
Probable space group: C 2/M
;
_chemical_formula_sum "Si O2"
_cell_formula_units_Z 56
_cell_length_a 12.102838
_cell_length_b 26.058970
_cell_length_c 9.192388
_cell_angle_alpha 90.000000
_cell_angle_beta 109.567225
_cell_angle_gamma 90.000000
_cell_volume 2731.735112
_symmetry_space_group_name_H-M "C 2/M"
_symmetry_group_IT_number 12
_symmetry_cell_setting 'monoclinic'
loop_
_space_group_symop_operation_xyz
x,y,z
-x,y,-z
-x,-y,-z
x,-y,z
1/2+x,1/2+y,z
1/2-x,1/2+y,-z
1/2-x,1/2-y,-z
1/2+x,1/2-y,z
loop_
_atom_site_type_symbol
_atom_site_label
_atom_site_fract_x
_atom_site_fract_y
_atom_site_fract_z
Si Si1 0.146923 0.734159 0.572851
Si Si2 0.686563 0.705546 0.880916
Si Si3 0.264703 0.560316 0.227130
Si Si4 0.881429 0.383162 0.357302
Si Si5 0.679227 0.438721 0.417248
Si Si6 0.026356 0.115255 0.844948
Si Si7 0.387886 0.124457 0.017410
O O1 0.250000 0.750000 0.500000
O O2 0.174546 0.771983 0.716519
O O3 0.165748 0.674121 0.623305
O O4 0.000000 0.737622 0.500000
O O5 0.564604 0.675487 0.860974
O O6 0.750000 0.750000 0.000000
O O7 0.779505 0.660919 0.942095
O O8 0.271614 0.500000 0.234257
O O9 0.288335 0.577649 0.403425
O O10 0.366649 0.581803 0.169401
O O11 0.142135 0.577004 0.101179
O O12 0.791185 0.426473 0.367691
O O13 0.900600 0.385981 0.192920
O O14 0.000000 0.389693 0.500000
O O15 0.648915 0.500000 0.401609
O O16 0.578971 0.402279 0.306165
O O17 0.000000 0.101678 0.000000
O O18 0.500000 0.151716 0.000000
#
# Coordination Sequence:
#
# PCOD9217538 Si02
#       7
#     8   8   8   8   8   8   8
#     4  11  28  45  71 105 140 191 242 303 364 434
#     4  11  25  44  65  97 136 181 235 286 357 427
#     4  10  23  43  67  99 134 177 230 286 361 431
#     4  11  25  45  66 100 139 181 241 293 357 437
#     4  11  24  44  71 100 139 183 232 299 367 433
#     4  11  25  40  68 102 138 181 228 293 354 433
#     4  11  24  42  67  95 132 181 228 296 350 423
#
# _framework density 20.499790999999998
#
# number of rings (size 3 to 8) (size 9 to 14) (size 15 to 20)
#    0.000    1.143    1.429    3.429   10.000    5.143 
#    0.000    0.000    0.000    0.000    0.000    0.000 
#    0.000    0.000    0.000    0.000    0.000    0.000 
#
# Total GULP energy -155974.593072 kJ/mol
# GULP energy per Si atom -5570.521181 kJ/mol
# Density = 2.045313 g / cm^3
# Si number density = 20.499791 Si / 1000 Ang^3
#
#
#
# Elastic Constant Matrix: (Units=GPa)
#
#
# Indices 1 2 3 4 5 6 
#
# 1 74.3542 19.6892 51.2139 0.0000 3.7209 0.0000
# 2 19.6892 63.8881 50.8881 0.0000 7.3930 0.0000
# 3 51.2139 50.8881 163.1184 0.0000 0.4266 0.0000
# 4 0.0000 0.0000 0.0000 29.2555 0.0000 2.2729
# 5 3.7209 7.3930 0.4266 0.0000 35.1838 0.0000
# 6 0.0000 0.0000 0.0000 2.2729 0.0000 35.6863
#
#
#
# Elastic Compliance Matrix: (Units=1/GPa)
#
#
# Indices 1 2 3 4 5 6 
#
# 1 0.017325 -0.001107 -0.005090 0.000000 -0.001538 0.000000
# 2 -0.001107 0.021569 -0.006370 0.000000 -0.004338 0.000000
# 3 -0.005090 -0.006370 0.009711 0.000000 0.001759 0.000000
# 4 0.000000 0.000000 0.000000 0.034352 0.000000 -0.002188
# 5 -0.001538 -0.004338 0.001759 0.000000 0.029475 0.000000
# 6 0.000000 0.000000 0.000000 -0.002188 0.000000 0.028161
#
#
# Mechanical properties :
#
#
# Convention : Reuss Voigt Hill
#
# Bulk Modulus (GPa) = 42.60485 60.54924 51.57704
# Shear Modulus (GPa) = 28.80974 31.99641 30.40307
#
# Velocity S-wave (km/s) = 3.75289 3.95500 3.85527
# Velocity P-wave (km/s) = 6.29342 7.10329 6.71058
#
# Compressibility (1/GPa) = 0.02347151
#
# Stress axis : x y z
#
# Youngs Moduli (GPa) = 57.71913 46.36194 102.97198
#
# Poissons Ratio (x) = 0.05132 0.52415
# Poissons Ratio (y) = 0.06389 0.65595
# Poissons Ratio (z) = 0.29380 0.29533
#
# Static dielectric constant tensor:
#      x y z
#    x 1.754640 0.000000 0.116250 
#    y 0.000000 1.851120 0.000000 
#    z 0.116250 0.000000 1.844120 
# 
# From -- ./inp_files/53301.got.cif
#   From: 2010.05.17/outbox.cif.g08.bks.cpg/sg12_27_cif.got.tgz:53301.got - 2010.06.03 13:09:07.
