data_PCOD9217401
_publ_section_title
;
Structure prediction by ZEFSAII (Michael W. Deem and Ramdas Pophale) SiO2 
 PCOD9217401
Probable space group: C 2/M
;
_chemical_formula_sum "Si O2"
_cell_formula_units_Z 42
_cell_length_a 12.727262
_cell_length_b 12.542721
_cell_length_c 13.117338
_cell_angle_alpha 90.000000
_cell_angle_beta 60.336930
_cell_angle_gamma 90.000000
_cell_volume 1819.565041
_symmetry_space_group_name_H-M "C 2/M"
_symmetry_group_IT_number 12
_symmetry_cell_setting 'monoclinic'
loop_
_space_group_symop_operation_xyz
x,y,z
-x,y,-z
-x,-y,-z
x,-y,z
1/2+x,1/2+y,z
1/2-x,1/2+y,-z
1/2-x,1/2-y,-z
1/2+x,1/2-y,z
loop_
_atom_site_type_symbol
_atom_site_label
_atom_site_fract_x
_atom_site_fract_y
_atom_site_fract_z
Si Si1 0.374855 0.117226 0.381656
Si Si2 0.767230 0.380067 0.752351
Si Si3 0.488735 0.617615 0.883436
Si Si4 0.903141 0.656800 0.877945
Si Si5 0.370721 0.293300 0.560100
Si Si6 0.500000 0.000000 0.000000
O O1 0.479545 0.126566 0.247470
O O2 0.379189 0.212254 0.460407
O O3 0.243333 0.130316 0.394256
O O4 0.385104 0.000000 0.424475
O O5 0.803356 0.500000 0.704275
O O6 0.629031 0.364690 0.783578
O O7 0.788805 0.374261 0.863471
O O8 0.845736 0.286758 0.665661
O O9 0.449871 0.500000 0.866688
O O10 0.408934 0.716513 0.888657
O O11 0.500000 0.615854 0.000000
O O12 0.924323 0.593202 0.971842
O O13 0.500000 0.349155 0.500000
#
# Coordination Sequence:
#
# PCOD9217401 Si02
#       6
#     8   8   8   8   8   2
#     4  11  23  40  63  92 130 165 206 264 323 374
#     4  11  22  39  66  93 125 164 212 261 312 381
#     4  10  23  43  63  88 127 167 210 264 314 380
#     4  12  22  41  65  95 127 165 214 264 322 370
#     4  11  23  39  63  94 126 167 209 258 316 387
#     4  12  24  40  66  98 128 164 208 286 312 368
#
# _framework density 23.082439999999998
#
# number of rings (size 3 to 8) (size 9 to 14) (size 15 to 20)
#    0.000    0.952    6.667    0.571    0.000    1.905 
#    0.000    0.952    0.000    0.000    0.000    0.000 
#    0.000    0.000    0.000    0.000    0.000    0.000 
#
# Total GULP energy -117158.128385 kJ/mol
# GULP energy per Si atom -5578.958495 kJ/mol
# Density = 2.302990 g / cm^3
# Si number density = 23.082440 Si / 1000 Ang^3
#
#
#
# Elastic Constant Matrix: (Units=GPa)
#
#
# Indices 1 2 3 4 5 6 
#
# 1 49.3627 7.9917 -1.7338 0.0000 -2.6393 0.0000
# 2 7.9917 122.2726 -2.2890 0.0000 -2.3626 0.0000
# 3 -1.7338 -2.2890 32.7353 0.0000 -8.5242 0.0000
# 4 0.0000 0.0000 0.0000 19.3704 0.0000 14.6275
# 5 -2.6393 -2.3626 -8.5242 0.0000 32.4785 0.0000
# 6 0.0000 0.0000 0.0000 14.6275 0.0000 12.5422
#
#
#
# Elastic Compliance Matrix: (Units=1/GPa)
#
#
# Indices 1 2 3 4 5 6 
#
# 1 0.020625 -0.001281 0.001519 0.000000 0.001981 0.000000
# 2 -0.001281 0.008288 0.000689 0.000000 0.000680 0.000000
# 3 0.001519 0.000689 0.032976 0.000000 0.008828 0.000000
# 4 0.000000 0.000000 0.000000 0.432727 0.000000 -0.504672
# 5 0.001981 0.000680 0.008828 0.000000 0.033317 0.000000
# 6 0.000000 0.000000 0.000000 -0.504672 0.000000 0.668309
#
#
# Mechanical properties :
#
#
# Convention : Reuss Voigt Hill
#
# Bulk Modulus (GPa) = 15.68855 23.58984 19.63920
# Shear Modulus (GPa) = 4.11307 26.23833 15.17570
#
# Velocity S-wave (km/s) = 1.33633 3.37519 2.56687
# Velocity P-wave (km/s) = 3.03192 5.04294 4.16075
#
# Compressibility (1/GPa) = 0.06374074
#
# Stress axis : x y z
#
# Youngs Moduli (GPa) = 48.48500 120.65325 30.32554
#
# Poissons Ratio (x) = 0.15460 -0.04606
# Poissons Ratio (y) = 0.06212 -0.02088
# Poissons Ratio (z) = -0.07364 -0.08309
#
# Static dielectric constant tensor:
#      x y z
#    x 1.899870 0.000000 -0.018710 
#    y 0.000000 1.838430 0.000000 
#    z -0.018710 0.000000 1.901080 
# 
# From -- ./inp_files/212434.got.cif
#   From: 2010.05.17/outbox.cif.g08.bks.cpg/sg12_107_cif.got.tgz:212434.got - 2010.06.03 13:09:07.
