data_PCOD9217814
_publ_section_title
;
Structure prediction by ZEFSAII (Michael W. Deem and Ramdas Pophale) SiO2 
 PCOD9217814
Probable space group: C 2/M
;
_chemical_formula_sum "Si O2"
_cell_formula_units_Z 46
_cell_length_a 23.214448
_cell_length_b 20.179093
_cell_length_c 6.099088
_cell_angle_alpha 90.000000
_cell_angle_beta 49.403020
_cell_angle_gamma 90.000000
_cell_volume 2169.409363
_symmetry_space_group_name_H-M "C 2/M"
_symmetry_group_IT_number 12
_symmetry_cell_setting 'monoclinic'
loop_
_space_group_symop_operation_xyz
x,y,z
-x,y,-z
-x,-y,-z
x,-y,z
1/2+x,1/2+y,z
1/2-x,1/2+y,-z
1/2-x,1/2-y,-z
1/2+x,1/2-y,z
loop_
_atom_site_type_symbol
_atom_site_label
_atom_site_fract_x
_atom_site_fract_y
_atom_site_fract_z
Si Si1 0.609069 0.320078 0.580940
Si Si2 0.647745 0.071500 0.957135
Si Si3 0.368304 0.574667 0.103887
Si Si4 0.000000 0.131119 0.500000
Si Si5 0.000000 0.500000 0.500000
Si Si6 0.677640 0.795499 0.600181
Si Si7 0.752680 0.132082 0.048596
O O1 0.613525 0.382643 0.729291
O O2 0.539719 0.325237 0.587731
O O3 0.610859 0.257145 0.735388
O O4 0.685274 0.327962 0.245476
O O5 0.657914 0.139423 0.792640
O O6 0.665392 0.000000 0.797099
O O7 0.563436 0.057077 0.262335
O O8 0.707671 0.081802 0.005540
O O9 0.358739 0.500000 0.194373
O O10 0.295982 0.599289 0.146491
O O11 0.437002 0.585537 0.766507
O O12 0.750000 0.750000 0.500000
O O13 0.694186 0.820078 0.313351
#
# Coordination Sequence:
#
# PCOD9217814 Si02
#       7
#     8   8   8   4   2   8   8
#     4  11  24  42  65 100 145 182 237 293 362 429
#     4  10  23  45  73 101 146 188 241 298 360 433
#     4  11  23  41  66 100 139 188 235 290 344 423
#     4  10  25  42  63  93 147 188 232 278 355 436
#     4   8  24  52  68  98 156 192 238 296 364 434
#     4  12  23  43  74 106 140 177 239 309 354 419
#     4  11  22  40  71 102 139 183 238 294 353 424
#
# _framework density 21.203928999999999
#
# number of rings (size 3 to 8) (size 9 to 14) (size 15 to 20)
#    0.522    0.696    3.478    1.826    0.000    7.652 
#    0.000    6.957    0.000    0.000    0.000    0.000 
#    0.000    0.000    0.000    0.000    0.000    0.000 
#
# Total GULP energy -128065.391305 kJ/mol
# GULP energy per Si atom -5568.060492 kJ/mol
# Density = 2.115567 g / cm^3
# Si number density = 21.203929 Si / 1000 Ang^3
#
#
#
# Elastic Constant Matrix: (Units=GPa)
#
#
# Indices 1 2 3 4 5 6 
#
# 1 106.9957 64.2789 17.6479 0.0000 13.4186 0.0000
# 2 64.2789 156.0364 20.3412 0.0000 6.9142 0.0000
# 3 17.6479 20.3412 57.9349 0.0000 -11.0460 0.0000
# 4 0.0000 0.0000 0.0000 38.7924 0.0000 16.5503
# 5 13.4186 6.9142 -11.0460 0.0000 33.4941 0.0000
# 6 0.0000 0.0000 0.0000 16.5503 0.0000 82.7944
#
#
#
# Elastic Compliance Matrix: (Units=1/GPa)
#
#
# Indices 1 2 3 4 5 6 
#
# 1 0.013551 -0.004883 -0.003475 0.000000 -0.005567 0.000000
# 2 -0.004883 0.008647 -0.001618 0.000000 -0.000363 0.000000
# 3 -0.003475 -0.001618 0.020506 0.000000 0.008489 0.000000
# 4 0.000000 0.000000 0.000000 0.028182 0.000000 -0.005633
# 5 -0.005567 -0.000363 0.008489 0.000000 0.034961 0.000000
# 6 0.000000 0.000000 0.000000 -0.005633 0.000000 0.013204
#
#
# Mechanical properties :
#
#
# Convention : Reuss Voigt Hill
#
# Bulk Modulus (GPa) = 43.95018 58.38924 51.16971
# Shear Modulus (GPa) = 34.10996 45.59611 39.85303
#
# Velocity S-wave (km/s) = 4.01516 4.64223 4.34004
# Velocity P-wave (km/s) = 6.50137 7.50536 7.02133
#
# Compressibility (1/GPa) = 0.02275304
#
# Stress axis : x y z
#
# Youngs Moduli (GPa) = 73.79697 115.64615 48.76679
#
# Poissons Ratio (x) = 0.56464 0.16946
# Poissons Ratio (y) = 0.36031 0.07890
# Poissons Ratio (z) = 0.25644 0.18710
#
# Static dielectric constant tensor:
#      x y z
#    x 1.803430 0.000000 -0.030610 
#    y 0.000000 1.786620 0.000000 
#    z -0.030610 0.000000 1.793640 
# 
# From -- ./inp_files/25552.got.cif
#   From: 2010.05.17/outbox.cif.g08.bks.cpg/sg12_13_cif.got.tgz:25552.got - 2010.06.03 13:09:07.
