data_PCOD9217430
_publ_section_title
;
Structure prediction by ZEFSAII (Michael W. Deem and Ramdas Pophale) SiO2 
 PCOD9217430
Probable space group: C 2/M
;
_chemical_formula_sum "Si O2"
_cell_formula_units_Z 56
_cell_length_a 14.767473
_cell_length_b 30.142214
_cell_length_c 11.711712
_cell_angle_alpha 90.000000
_cell_angle_beta 30.678113
_cell_angle_gamma 90.000000
_cell_volume 2659.833458
_symmetry_space_group_name_H-M "C 2/M"
_symmetry_group_IT_number 12
_symmetry_cell_setting 'monoclinic'
loop_
_space_group_symop_operation_xyz
x,y,z
-x,y,-z
-x,-y,-z
x,-y,z
1/2+x,1/2+y,z
1/2-x,1/2+y,-z
1/2-x,1/2-y,-z
1/2+x,1/2-y,z
loop_
_atom_site_type_symbol
_atom_site_label
_atom_site_fract_x
_atom_site_fract_y
_atom_site_fract_z
Si Si1 0.838005 0.813414 0.879750
Si Si2 0.007615 0.728140 0.366410
Si Si3 0.702268 0.600145 0.779128
Si Si4 0.374206 0.301507 0.232695
Si Si5 0.122977 0.446611 0.624466
Si Si6 0.574996 0.551540 0.538184
Si Si7 0.755300 0.089159 0.000771
O O1 0.907391 0.777172 0.715441
O O2 0.811603 0.864566 0.881398
O O3 0.991791 0.810215 0.809138
O O4 0.648322 0.797082 0.134501
O O5 0.000000 0.707450 0.500000
O O6 0.805031 0.724838 0.545168
O O7 0.687639 0.650857 0.750631
O O8 0.810649 0.572720 0.568517
O O9 0.500000 0.583048 0.000000
O O10 0.768243 0.597842 0.838014
O O11 0.500000 0.279372 0.000000
O O12 0.129304 0.500000 0.614249
O O13 0.252003 0.429607 0.585891
O O14 0.923629 0.430129 0.856640
O O15 0.500000 0.570177 0.500000
O O16 0.616024 0.500000 0.471025
O O17 0.417125 0.556278 0.800816
#
# Coordination Sequence:
#
# PCOD9217430 Si02
#       7
#     8   8   8   8   8   8   8
#     4  11  23  37  59  88 117 160 202 246 305 360
#     4  11  22  37  58  86 120 154 201 253 302 360
#     4  11  20  37  62  91 124 163 200 246 311 376
#     4  11  19  38  62  85 116 163 201 244 299 368
#     4  11  24  39  62  95 125 159 202 251 311 368
#     4  10  23  43  65  87 118 163 210 253 299 357
#     4  12  22  39  62  90 124 160 204 254 306 365
#
# _framework density 21.05395
#
# number of rings (size 3 to 8) (size 9 to 14) (size 15 to 20)
#    0.000    1.000    5.714    2.143    0.000    3.143 
#    0.000    2.143    0.000    1.714    0.000    0.000 
#    0.000    0.000    0.000    0.000    0.000    0.000 
#
# Total GULP energy -156310.628547 kJ/mol
# GULP energy per Si atom -5582.522448 kJ/mol
# Density = 2.100603 g / cm^3
# Si number density = 21.053950 Si / 1000 Ang^3
#
#
#
# Elastic Constant Matrix: (Units=GPa)
#
#
# Indices 1 2 3 4 5 6 
#
# 1 74.7074 5.0206 42.3261 0.0000 -23.6897 0.0000
# 2 5.0206 41.9748 21.0728 0.0000 -4.4917 0.0000
# 3 42.3261 21.0728 102.5592 0.0000 -33.0306 0.0000
# 4 0.0000 0.0000 0.0000 21.9839 0.0000 -9.7865
# 5 -23.6897 -4.4917 -33.0306 0.0000 40.3860 0.0000
# 6 0.0000 0.0000 0.0000 -9.7865 0.0000 18.7103
#
#
#
# Elastic Compliance Matrix: (Units=1/GPa)
#
#
# Indices 1 2 3 4 5 6 
#
# 1 0.018652 0.001444 -0.005999 0.000000 0.006195 0.000000
# 2 0.001444 0.026801 -0.006611 0.000000 -0.001580 0.000000
# 3 -0.005999 -0.006611 0.016583 0.000000 0.009308 0.000000
# 4 0.000000 0.000000 0.000000 0.059294 0.000000 0.031014
# 5 0.006195 -0.001580 0.009308 0.000000 0.035832 0.000000
# 6 0.000000 0.000000 0.000000 0.031014 0.000000 0.069669
#
#
# Mechanical properties :
#
#
# Convention : Reuss Voigt Hill
#
# Bulk Modulus (GPa) = 25.18763 39.56449 32.37606
# Shear Modulus (GPa) = 19.05503 26.27084 22.66294
#
# Velocity S-wave (km/s) = 3.01168 3.53623 3.28445
# Velocity P-wave (km/s) = 4.90744 5.95869 5.45843
#
# Compressibility (1/GPa) = 0.03970203
#
# Stress axis : x y z
#
# Youngs Moduli (GPa) = 53.61432 37.31173 60.30447
#
# Poissons Ratio (x) = -0.05387 0.36177
# Poissons Ratio (y) = -0.07740 0.39870
# Poissons Ratio (z) = 0.32164 0.24668
#
# Static dielectric constant tensor:
#      x y z
#    x 1.806920 0.000000 0.007930 
#    y 0.000000 1.764660 0.000000 
#    z 0.007930 0.000000 1.752210 
# 
# From -- ./inp_files/150443.got.cif
#   From: 2010.05.17/outbox.cif.g08.bks.cpg/sg12_76_cif.got.tgz:150443.got - 2010.06.03 13:09:07.
