data_PCOD9217972
_publ_section_title
;
Structure prediction by ZEFSAII (Michael W. Deem and Ramdas Pophale) SiO2 
 PCOD9217972
Probable space group: C 2/M
;
_chemical_formula_sum "Si O2"
_cell_formula_units_Z 46
_cell_length_a 24.085223
_cell_length_b 10.210368
_cell_length_c 16.865615
_cell_angle_alpha 90.000000
_cell_angle_beta 152.046705
_cell_angle_gamma 90.000000
_cell_volume 1944.182699
_symmetry_space_group_name_H-M "C 2/M"
_symmetry_group_IT_number 12
_symmetry_cell_setting 'monoclinic'
loop_
_space_group_symop_operation_xyz
x,y,z
-x,y,-z
-x,-y,-z
x,-y,z
1/2+x,1/2+y,z
1/2-x,1/2+y,-z
1/2-x,1/2-y,-z
1/2+x,1/2-y,z
loop_
_atom_site_type_symbol
_atom_site_label
_atom_site_fract_x
_atom_site_fract_y
_atom_site_fract_z
Si Si1 0.653652 0.231770 0.552906
Si Si2 0.398620 0.848853 0.267385
Si Si3 0.174437 0.284518 0.002895
Si Si4 0.388007 0.848849 0.909359
Si Si5 0.747232 0.500000 0.419479
Si Si6 0.642674 0.500000 0.447852
Si Si7 0.000000 0.000000 0.000000
Si Si8 0.405355 0.500000 0.055279
O O1 0.537460 0.183888 0.451871
O O2 0.775189 0.257949 0.752693
O O3 0.632199 0.371589 0.486506
O O4 0.683304 0.126979 0.523018
O O5 0.316999 0.726540 0.194504
O O6 0.379934 0.000000 0.271985
O O7 0.365366 0.843084 0.130952
O O8 0.101003 0.347024 0.982248
O O9 0.149332 0.130278 0.977174
O O10 0.368879 0.000000 0.859201
O O11 0.500000 0.796019 0.000000
O O12 0.747767 0.500000 0.516111
O O13 0.621351 0.500000 0.212502
O O14 0.535097 0.500000 0.253027
O O15 0.914416 0.000000 0.971971
#
# Coordination Sequence:
#
# PCOD9217972 Si02
#       8
#     8   8   8   8   4   4   2   4
#     4  12  24  45  66  99 139 181 229 284 342 411
#     4  11  24  46  68 101 139 177 236 283 337 409
#     4  11  24  43  72  97 133 182 226 281 339 403
#     4  11  27  48  69  99 139 179 228 285 351 414
#     4  11  25  39  66  96 138 183 225 285 346 411
#     4  11  24  41  63 100 137 182 231 280 339 408
#     4  10  24  40  60 100 136 168 224 280 346 414
#     4  11  21  39  66  99 130 174 220 278 337 405
#
# _framework density 23.660328
#
# number of rings (size 3 to 8) (size 9 to 14) (size 15 to 20)
#    0.000    0.870    4.348    2.087    7.304    2.087 
#    1.565    1.739    0.000    0.000    0.000    0.000 
#    0.000    0.000    0.000    0.000    0.000    0.000 
#
# Total GULP energy -128236.884215 kJ/mol
# GULP energy per Si atom -5575.516705 kJ/mol
# Density = 2.360648 g / cm^3
# Si number density = 23.660328 Si / 1000 Ang^3
#
#
#
# Elastic Constant Matrix: (Units=GPa)
#
#
# Indices 1 2 3 4 5 6 
#
# 1 92.1219 -4.5284 9.7276 0.0000 8.4628 0.0000
# 2 -4.5284 109.5282 3.1728 0.0000 1.5593 0.0000
# 3 9.7276 3.1728 74.8643 0.0000 19.7463 0.0000
# 4 0.0000 0.0000 0.0000 63.9308 0.0000 -23.7800
# 5 8.4628 1.5593 19.7463 0.0000 34.8321 0.0000
# 6 0.0000 0.0000 0.0000 -23.7800 0.0000 33.1771
#
#
#
# Elastic Compliance Matrix: (Units=1/GPa)
#
#
# Indices 1 2 3 4 5 6 
#
# 1 0.011180 0.000520 -0.000884 0.000000 -0.002238 0.000000
# 2 0.000520 0.009167 -0.000370 0.000000 -0.000327 0.000000
# 3 -0.000884 -0.000370 0.015788 0.000000 -0.008719 0.000000
# 4 0.000000 0.000000 0.000000 0.021328 0.000000 0.015287
# 5 -0.002238 -0.000327 -0.008719 0.000000 0.034210 0.000000
# 6 0.000000 0.000000 0.000000 0.015287 0.000000 0.041099
#
#
# Mechanical properties :
#
#
# Convention : Reuss Voigt Hill
#
# Bulk Modulus (GPa) = 28.84709 32.58426 30.71567
# Shear Modulus (GPa) = 34.29465 44.26415 39.27940
#
# Velocity S-wave (km/s) = 3.81130 4.32999 4.07890
# Velocity P-wave (km/s) = 5.62020 6.22896 5.93240
#
# Compressibility (1/GPa) = 0.03466554
#
# Stress axis : x y z
#
# Youngs Moduli (GPa) = 89.44768 109.08784 63.34031
#
# Poissons Ratio (x) = -0.05669 0.05601
# Poissons Ratio (y) = -0.04649 0.02342
# Poissons Ratio (z) = 0.07910 0.04034
#
# Static dielectric constant tensor:
#      x y z
#    x 2.051240 0.000000 0.085960 
#    y 0.000000 1.987660 0.000000 
#    z 0.085960 0.000000 2.015070 
# 
# From -- ./inp_files/289495.got.cif
#   From: 2010.05.17/outbox.cif.g08.bks.cpg/sg12_145_cif.got.tgz:289495.got - 2010.06.03 13:09:07.
