data_PCOD9217273
_publ_section_title
;
Structure prediction by ZEFSAII (Michael W. Deem and Ramdas Pophale) SiO2 
 PCOD9217273
Probable space group: C 2/M
;
_chemical_formula_sum "Si O2"
_cell_formula_units_Z 48
_cell_length_a 9.928464
_cell_length_b 14.835779
_cell_length_c 14.644843
_cell_angle_alpha 90.000000
_cell_angle_beta 113.363565
_cell_angle_gamma 90.000000
_cell_volume 1980.264169
_symmetry_space_group_name_H-M "C 2/M"
_symmetry_group_IT_number 12
_symmetry_cell_setting 'monoclinic'
loop_
_space_group_symop_operation_xyz
x,y,z
-x,y,-z
-x,-y,-z
x,-y,z
1/2+x,1/2+y,z
1/2-x,1/2+y,-z
1/2-x,1/2-y,-z
1/2+x,1/2-y,z
loop_
_atom_site_type_symbol
_atom_site_label
_atom_site_fract_x
_atom_site_fract_y
_atom_site_fract_z
Si Si1 0.114531 0.903403 0.727487
Si Si2 0.777940 0.607715 0.943853
Si Si3 0.349365 0.102705 0.272795
Si Si4 0.323646 0.164295 0.637956
Si Si5 0.207268 0.869786 0.419212
Si Si6 0.652174 0.699633 0.083358
O O1 0.131823 0.889103 0.840613
O O2 0.206471 0.838178 0.687888
O O3 0.948770 0.909068 0.651535
O O4 0.190095 0.000000 0.731181
O O5 0.821001 0.500000 0.959864
O O6 0.861391 0.690970 0.915276
O O7 0.762134 0.654011 0.038203
O O8 0.512320 0.135615 0.291392
O O9 0.328407 0.106906 0.376305
O O10 0.218518 0.161170 0.193851
O O11 0.330820 0.000000 0.237035
O O12 0.260189 0.108145 0.535013
O O13 0.328932 0.264468 0.600751
O O14 0.500000 0.666507 0.000000
#
# Coordination Sequence:
#
# PCOD9217273 Si02
#       6
#     8   8   8   8   8   8
#     4  11  23  40  65  95 128 167 213 264 317 382
#     4  10  23  42  65  95 128 165 212 267 328 390
#     4  12  26  43  66  97 135 177 222 275 334 395
#     4  11  24  42  64  94 132 174 219 271 328 385
#     4  11  23  41  66  94 130 175 222 269 321 387
#     4  11  24  43  67  94 128 169 217 272 327 391
#
# _framework density 24.239190000000001
#
# number of rings (size 3 to 8) (size 9 to 14) (size 15 to 20)
#    0.000    1.000    0.000    6.500    0.000   13.667 
#    0.000    1.667    0.000    0.000    0.000    0.000 
#    0.000    0.000    0.000    0.000    0.000    0.000 
#
# Total GULP energy -133879.481654 kJ/mol
# GULP energy per Si atom -5578.311736 kJ/mol
# Density = 2.418402 g / cm^3
# Si number density = 24.239190 Si / 1000 Ang^3
#
#
#
# Elastic Constant Matrix: (Units=GPa)
#
#
# Indices 1 2 3 4 5 6 
#
# 1 70.3255 1.5130 4.3625 0.0000 11.2068 0.0000
# 2 1.5130 155.4218 21.5307 0.0000 10.5293 0.0000
# 3 4.3625 21.5307 105.0061 0.0000 -0.4506 0.0000
# 4 0.0000 0.0000 0.0000 31.0937 0.0000 -6.3427
# 5 11.2068 10.5293 -0.4506 0.0000 39.1494 0.0000
# 6 0.0000 0.0000 0.0000 -6.3427 0.0000 18.1879
#
#
#
# Elastic Compliance Matrix: (Units=1/GPa)
#
#
# Indices 1 2 3 4 5 6 
#
# 1 0.014951 0.000245 -0.000690 0.000000 -0.004354 0.000000
# 2 0.000245 0.006755 -0.001403 0.000000 -0.001903 0.000000
# 3 -0.000690 -0.001403 0.009843 0.000000 0.000688 0.000000
# 4 0.000000 0.000000 0.000000 0.034624 0.000000 0.012075
# 5 -0.004354 -0.001903 0.000688 0.000000 0.027309 0.000000
# 6 0.000000 0.000000 0.000000 0.012075 0.000000 0.059193
#
#
# Mechanical properties :
#
#
# Convention : Reuss Voigt Hill
#
# Bulk Modulus (GPa) = 35.90454 42.84065 39.37260
# Shear Modulus (GPa) = 30.18319 37.90933 34.04626
#
# Velocity S-wave (km/s) = 3.53260 3.95899 3.75186
# Velocity P-wave (km/s) = 5.61104 6.21375 5.92007
#
# Compressibility (1/GPa) = 0.02785163
#
# Stress axis : x y z
#
# Youngs Moduli (GPa) = 66.88563 148.03712 101.59879
#
# Poissons Ratio (x) = -0.03627 0.07011
# Poissons Ratio (y) = -0.01639 0.14259
# Poissons Ratio (z) = 0.04615 0.20776
#
# Static dielectric constant tensor:
#      x y z
#    x 1.898680 0.000000 -0.013520 
#    y 0.000000 2.012620 0.000000 
#    z -0.013520 0.000000 1.940800 
# 
# From -- ./inp_files/205132.got.cif
#   From: 2010.05.17/outbox.cif.g08.bks.cpg/sg12_103_cif.got.tgz:205132.got - 2010.06.03 13:09:07.
