data_PCOD9217256
_publ_section_title
;
Structure prediction by ZEFSAII (Michael W. Deem and Ramdas Pophale) SiO2 
 PCOD9217256
Probable space group: C 2/M
;
_chemical_formula_sum "Si O2"
_cell_formula_units_Z 64
_cell_length_a 19.414200
_cell_length_b 8.673186
_cell_length_c 31.045897
_cell_angle_alpha 90.000000
_cell_angle_beta 38.693439
_cell_angle_gamma 90.000000
_cell_volume 3268.051478
_symmetry_space_group_name_H-M "C 2/M"
_symmetry_group_IT_number 12
_symmetry_cell_setting 'monoclinic'
loop_
_space_group_symop_operation_xyz
x,y,z
-x,y,-z
-x,-y,-z
x,-y,z
1/2+x,1/2+y,z
1/2-x,1/2+y,-z
1/2-x,1/2-y,-z
1/2+x,1/2-y,z
loop_
_atom_site_type_symbol
_atom_site_label
_atom_site_fract_x
_atom_site_fract_y
_atom_site_fract_z
Si Si1 0.513255 0.681233 0.706498
Si Si2 0.750916 0.180613 0.285916
Si Si3 0.273432 0.679877 0.790906
Si Si4 0.626580 0.185970 0.565281
Si Si5 0.127349 0.816083 0.062240
Si Si6 0.471888 0.180367 0.208084
Si Si7 0.970667 0.312417 0.561954
Si Si8 0.457995 0.684871 0.068912
O O1 0.540409 0.500000 0.694303
O O2 0.380906 0.697563 0.767797
O O3 0.570703 0.753571 0.636479
O O4 0.546538 0.759298 0.734766
O O5 0.707064 0.211411 0.259615
O O6 0.654165 0.228959 0.365194
O O7 0.860128 0.279305 0.237621
O O8 0.776825 0.000000 0.279307
O O9 0.268635 0.500000 0.780156
O O10 0.157752 0.730213 0.867554
O O11 0.750000 0.250000 0.500000
O O12 0.553122 0.236571 0.559826
O O13 0.628841 0.000000 0.564955
O O14 0.068898 0.764690 0.134905
O O15 0.048120 0.766838 0.060931
O O16 0.133301 0.000000 0.057699
O O17 0.250000 0.750000 0.000000
O O18 0.494203 0.000000 0.197358
O O19 0.974746 0.500000 0.559688
O O20 0.000000 0.256969 0.500000
O O21 0.440526 0.500000 0.082799
O O22 0.500000 0.711869 0.000000
#
# Coordination Sequence:
#
# PCOD9217256 Si02
#       8
#     8   8   8   8   8   8   8   8
#     4  11  25  44  65  93 128 169 216 268 322 380
#     4  11  21  39  67  93 125 167 211 261 317 379
#     4  11  23  40  65  94 125 162 211 266 317 370
#     4  11  23  41  64  93 129 171 214 262 319 380
#     4  11  24  43  65  93 130 171 211 260 317 377
#     4  12  26  43  65  95 129 167 214 267 321 381
#     4   9  20  38  62  92 124 165 211 254 310 378
#     4  10  23  42  65  93 125 166 211 254 313 381
#
# _framework density 19.583535000000001
#
# number of rings (size 3 to 8) (size 9 to 14) (size 15 to 20)
#    0.000    1.250    2.500    3.000    3.500    2.250 
#    0.000    0.000    0.000    3.000    0.000    0.000 
#    0.000    0.000    0.000    0.000    0.000    0.000 
#
# Total GULP energy -178847.431678 kJ/mol
# GULP energy per Si atom -5588.982240 kJ/mol
# Density = 1.953896 g / cm^3
# Si number density = 19.583535 Si / 1000 Ang^3
#
#
#
# Elastic Constant Matrix: (Units=GPa)
#
#
# Indices 1 2 3 4 5 6 
#
# 1 46.2075 12.3427 6.8642 0.0001 4.1199 0.0000
# 2 12.3427 51.1212 15.9756 0.0006 -4.8559 -0.0014
# 3 6.8642 15.9756 95.7193 -0.0001 -3.6680 -0.0002
# 4 0.0001 0.0006 -0.0001 32.8322 0.0001 -2.3276
# 5 4.1199 -4.8559 -3.6680 0.0001 35.7981 -0.0001
# 6 0.0000 -0.0014 -0.0002 -2.3276 -0.0001 26.4876
#
#
#
# Elastic Compliance Matrix: (Units=1/GPa)
#
#
# Indices 1 2 3 4 5 6 
#
# 1 0.023634 -0.005776 -0.000868 0.000000 -0.003592 0.000000
# 2 -0.005776 0.022267 -0.003173 0.000000 0.003360 0.000001
# 3 -0.000868 -0.003173 0.011070 0.000000 0.000804 0.000000
# 4 0.000000 0.000000 0.000000 0.030649 0.000000 0.002693
# 5 -0.003592 0.003360 0.000804 0.000000 0.028886 0.000000
# 6 0.000000 0.000001 0.000000 0.002693 0.000000 0.037990
#
#
# Mechanical properties :
#
#
# Convention : Reuss Voigt Hill
#
# Bulk Modulus (GPa) = 26.78467 29.26809 28.02638
# Shear Modulus (GPa) = 26.79871 29.54792 28.17331
#
# Velocity S-wave (km/s) = 3.70324 3.88856 3.79703
# Velocity P-wave (km/s) = 5.65616 5.92781 5.79358
#
# Compressibility (1/GPa) = 0.03733479
#
# Stress axis : x y z
#
# Youngs Moduli (GPa) = 42.31247 44.90994 90.33482
#
# Poissons Ratio (x) = 0.25940 0.07845
# Poissons Ratio (y) = 0.24440 0.28667
# Poissons Ratio (z) = 0.03675 0.14252
#
# Static dielectric constant tensor:
#      x y z
#    x 1.679530 0.000000 0.000660 
#    y 0.000000 1.666490 0.000000 
#    z 0.000660 0.000000 1.665850 
# 
# From -- ./inp_files/377957.got.cif
#   From: 2010.05.17/outbox.cif.g08.bks.cpg/sg12_189_cif.got.tgz:377957.got - 2010.06.03 13:09:07.
