data_PCOD9217109
_publ_section_title
;
Structure prediction by ZEFSAII (Michael W. Deem and Ramdas Pophale) SiO2 
 PCOD9217109
Probable space group: C 2/M
;
_chemical_formula_sum "Si O2"
_cell_formula_units_Z 60
_cell_length_a 32.410154
_cell_length_b 16.947308
_cell_length_c 19.450204
_cell_angle_alpha 90.000000
_cell_angle_beta 163.146666
_cell_angle_gamma 90.000000
_cell_volume 3097.336157
_symmetry_space_group_name_H-M "C 2/M"
_symmetry_group_IT_number 12
_symmetry_cell_setting 'monoclinic'
loop_
_space_group_symop_operation_xyz
x,y,z
-x,y,-z
-x,-y,-z
x,-y,z
1/2+x,1/2+y,z
1/2-x,1/2+y,-z
1/2-x,1/2-y,-z
1/2+x,1/2-y,z
loop_
_atom_site_type_symbol
_atom_site_label
_atom_site_fract_x
_atom_site_fract_y
_atom_site_fract_z
Si Si1 0.292242 0.910455 0.428985
Si Si2 0.730237 0.156098 0.955430
Si Si3 0.877294 0.851179 0.962716
Si Si4 0.987161 0.908187 0.284377
Si Si5 0.387488 0.906109 0.090598
Si Si6 0.500000 0.788024 0.500000
Si Si7 0.381602 0.709275 0.753655
Si Si8 0.820981 0.799740 0.328560
O O1 0.217106 0.908104 0.235032
O O2 0.453621 0.880605 0.677040
O O3 0.200150 0.855483 0.331247
O O4 0.296424 0.000000 0.461673
O O5 0.650969 0.120169 0.893961
O O6 0.626863 0.156549 0.725878
O O7 0.750000 0.250000 0.000000
O O8 0.870846 0.109615 0.158392
O O9 0.781978 0.772598 0.818556
O O10 0.919389 0.887251 0.102879
O O11 0.017286 0.828048 0.143096
O O12 0.108946 0.844014 0.495328
O O13 0.030973 0.000000 0.356658
O O14 0.380410 0.000000 0.073868
O O15 0.271778 0.864290 0.858937
O O16 0.559835 0.734305 0.533640
O O17 0.250000 0.750000 0.500000
O O18 0.500000 0.745631 0.000000
#
# Coordination Sequence:
#
# PCOD9217109 Si02
#       8
#     8   8   8   8   8   4   8   8
#     4  10  23  43  67  95 127 165 211 267 326 381
#     4  12  22  39  59  88 120 167 214 264 314 375
#     4  11  24  40  68  93 128 165 213 263 315 387
#     4  12  26  41  61  96 135 167 211 268 326 380
#     4  11  23  40  62  88 125 167 212 262 320 383
#     4  12  22  36  60  86 116 164 216 262 310 370
#     4  10  23  41  69  98 125 164 216 268 323 390
#     4  12  23  39  65  90 127 170 216 258 316 385
#
# _framework density 19.371486000000001
#
# number of rings (size 3 to 8) (size 9 to 14) (size 15 to 20)
#    0.000    0.800    4.000    2.800    5.600    2.933 
#    0.000    2.667    0.000    0.400    0.000    0.000 
#    0.000    0.000    0.000    0.000    0.000    0.000 
#
# Total GULP energy -167399.096651 kJ/mol
# GULP energy per Si atom -5579.969888 kJ/mol
# Density = 1.932740 g / cm^3
# Si number density = 19.371486 Si / 1000 Ang^3
#
#
#
# Elastic Constant Matrix: (Units=GPa)
#
#
# Indices 1 2 3 4 5 6 
#
# 1 91.5046 29.0493 22.0228 0.0000 10.6907 0.0000
# 2 29.0493 73.6704 13.2022 0.0000 1.7115 0.0000
# 3 22.0228 13.2022 81.7099 0.0000 -3.8355 0.0000
# 4 0.0000 0.0000 0.0000 23.7613 0.0000 -6.9885
# 5 10.6907 1.7115 -3.8355 0.0000 38.7788 0.0000
# 6 0.0000 0.0000 0.0000 -6.9885 0.0000 19.2531
#
#
#
# Elastic Compliance Matrix: (Units=1/GPa)
#
#
# Indices 1 2 3 4 5 6 
#
# 1 0.013623 -0.004729 -0.003089 0.000000 -0.003852 0.000000
# 2 -0.004729 0.015648 -0.001231 0.000000 0.000491 0.000000
# 3 -0.003089 -0.001231 0.013374 0.000000 0.002229 0.000000
# 4 0.000000 0.000000 0.000000 0.047115 0.000000 0.017102
# 5 -0.003852 0.000491 0.002229 0.000000 0.027048 0.000000
# 6 0.000000 0.000000 0.000000 0.017102 0.000000 0.058147
#
#
# Mechanical properties :
#
#
# Convention : Reuss Voigt Hill
#
# Bulk Modulus (GPa) = 40.73467 41.71482 41.22475
# Shear Modulus (GPa) = 24.84659 28.53268 26.68963
#
# Velocity S-wave (km/s) = 3.58528 3.84203 3.71587
# Velocity P-wave (km/s) = 6.18165 6.42359 6.30378
#
# Compressibility (1/GPa) = 0.02454911
#
# Stress axis : x y z
#
# Youngs Moduli (GPa) = 73.40509 63.90702 74.77021
#
# Poissons Ratio (x) = 0.30220 0.23093
# Poissons Ratio (y) = 0.34712 0.09202
# Poissons Ratio (z) = 0.22671 0.07865
#
# Static dielectric constant tensor:
#      x y z
#    x 1.659700 0.000000 -0.028040 
#    y 0.000000 1.632200 0.000000 
#    z -0.028040 0.000000 1.742040 
# 
# From -- ./inp_files/297004.got.cif
#   From: 2010.05.17/outbox.cif.g08.bks.cpg/sg12_149_cif.got.tgz:297004.got - 2010.06.03 13:09:07.
