data_PCOD9217851
_publ_section_title
;
Structure prediction by ZEFSAII (Michael W. Deem and Ramdas Pophale) SiO2 
 PCOD9217851
Probable space group: C 2/M
;
_chemical_formula_sum "Si O2"
_cell_formula_units_Z 42
_cell_length_a 27.310462
_cell_length_b 10.960522
_cell_length_c 6.250500
_cell_angle_alpha 90.000000
_cell_angle_beta 79.768075
_cell_angle_gamma 90.000000
_cell_volume 1841.250413
_symmetry_space_group_name_H-M "C 2/M"
_symmetry_group_IT_number 12
_symmetry_cell_setting 'monoclinic'
loop_
_space_group_symop_operation_xyz
x,y,z
-x,y,-z
-x,-y,-z
x,-y,z
1/2+x,1/2+y,z
1/2-x,1/2+y,-z
1/2-x,1/2-y,-z
1/2+x,1/2-y,z
loop_
_atom_site_type_symbol
_atom_site_label
_atom_site_fract_x
_atom_site_fract_y
_atom_site_fract_z
Si Si1 0.811606 0.640242 0.791548
Si Si2 0.500000 0.500000 0.000000
Si Si3 0.194029 0.133980 0.886266
Si Si4 0.123733 0.215470 0.580726
Si Si5 0.559680 0.863653 0.966014
Si Si6 0.452525 0.684305 0.687945
O O1 0.823016 0.500000 0.846152
O O2 0.752449 0.642965 0.787419
O O3 0.842864 0.684008 0.564093
O O4 0.818776 0.746767 0.963183
O O5 0.528283 0.603818 0.128730
O O6 0.159871 0.139323 0.703945
O O7 0.186313 0.000000 0.998115
O O8 0.084078 0.281013 0.766002
O O9 0.091617 0.140334 0.432444
O O10 0.578726 0.000000 0.928753
O O11 0.500000 0.866177 0.000000
O O12 0.568659 0.807538 0.192180
O O13 0.500000 0.702565 0.500000
#
# Coordination Sequence:
#
# PCOD9217851 Si02
#       6
#     8   2   8   8   8   8
#     4  10  23  46  74 105 145 191 234 293 368 433
#     4  12  26  48  66  90 136 184 242 298 360 410
#     4  10  24  46  72 107 147 182 237 301 360 435
#     4  12  24  42  71 108 138 187 240 292 358 426
#     4  11  24  45  68  98 139 179 233 294 348 420
#     4  12  25  46  68  97 134 188 234 293 355 418
#
# _framework density 22.810585
#
# number of rings (size 3 to 8) (size 9 to 14) (size 15 to 20)
#    0.000    0.952    2.857    2.571    1.333    5.714 
#    8.571    3.810    0.000    0.000    0.000    0.000 
#    0.000    0.000    0.000    0.000    0.000    0.000 
#
# Total GULP energy -117126.273804 kJ/mol
# GULP energy per Si atom -5577.441610 kJ/mol
# Density = 2.275867 g / cm^3
# Si number density = 22.810585 Si / 1000 Ang^3
#
#
#
# Elastic Constant Matrix: (Units=GPa)
#
#
# Indices 1 2 3 4 5 6 
#
# 1 131.6221 44.6902 63.0888 0.0000 18.6229 0.0000
# 2 44.6902 164.9272 61.8718 0.0000 5.3335 0.0000
# 3 63.0888 61.8718 100.5476 0.0000 3.1825 0.0000
# 4 0.0000 0.0000 0.0000 10.4155 0.0000 21.6001
# 5 18.6229 5.3335 3.1825 0.0000 55.8404 0.0000
# 6 0.0000 0.0000 0.0000 21.6001 0.0000 0.5923
#
#
#
# Elastic Compliance Matrix: (Units=1/GPa)
#
#
# Indices 1 2 3 4 5 6 
#
# 1 0.011509 -0.000442 -0.006841 0.000000 -0.003406 0.000000
# 2 -0.000442 0.007913 -0.004581 0.000000 -0.000347 0.000000
# 3 -0.006841 -0.004581 0.017002 0.000000 0.001750 0.000000
# 4 0.000000 0.000000 0.000000 -0.001287 0.000000 0.046916
# 5 -0.003406 -0.000347 0.001750 0.000000 0.018978 0.000000
# 6 0.000000 0.000000 0.000000 0.046916 0.000000 -0.022623
#
#
# Mechanical properties :
#
#
# Convention : Reuss Voigt Hill
#
# Bulk Modulus (GPa) = 78.77260 81.82204 80.29732
# Shear Modulus (GPa) = 84.10303 28.53272 56.31787
#
# Velocity S-wave (km/s) = 6.07867 3.54058 4.97423
# Velocity P-wave (km/s) = 9.15834 7.25688 8.26249
#
# Compressibility (1/GPa) = 0.01269477
#
# Stress axis : x y z
#
# Youngs Moduli (GPa) = 86.89109 126.37860 58.81772
#
# Poissons Ratio (x) = 0.05583 0.40240
# Poissons Ratio (y) = 0.03839 0.26944
# Poissons Ratio (z) = 0.59446 0.57893
#
# Static dielectric constant tensor:
#      x y z
#    x 1.874010 0.000000 0.030690 
#    y 0.000000 1.843480 0.000000 
#    z 0.030690 0.000000 1.835110 
# 
# From -- ./inp_files/30823.got.cif
#   From: 2010.05.17/outbox.cif.g08.bks.cpg/sg12_16_cif.got.tgz:30823.got - 2010.06.03 13:09:07.
