data_PCOD9217651
_publ_section_title
;
Structure prediction by ZEFSAII (Michael W. Deem and Ramdas Pophale) SiO2 
 PCOD9217651
Probable space group: C 2/M
;
_chemical_formula_sum "Si O2"
_cell_formula_units_Z 50
_cell_length_a 14.858031
_cell_length_b 26.707114
_cell_length_c 7.078174
_cell_angle_alpha 90.000000
_cell_angle_beta 116.969209
_cell_angle_gamma 90.000000
_cell_volume 2503.278556
_symmetry_space_group_name_H-M "C 2/M"
_symmetry_group_IT_number 12
_symmetry_cell_setting 'monoclinic'
loop_
_space_group_symop_operation_xyz
x,y,z
-x,y,-z
-x,-y,-z
x,-y,z
1/2+x,1/2+y,z
1/2-x,1/2+y,-z
1/2-x,1/2-y,-z
1/2+x,1/2-y,z
loop_
_atom_site_type_symbol
_atom_site_label
_atom_site_fract_x
_atom_site_fract_y
_atom_site_fract_z
Si Si1 0.000000 0.156065 0.000000
Si Si2 0.944566 0.322014 0.764156
Si Si3 0.500000 0.105043 0.500000
Si Si4 0.220329 0.443564 0.650907
Si Si5 0.260374 0.632090 0.359976
Si Si6 0.500000 0.500000 0.500000
Si Si7 0.371743 0.421199 0.126163
Si Si8 0.087698 0.217235 0.426859
O O1 0.057609 0.191042 0.202345
O O2 0.930814 0.120408 0.062285
O O3 0.857024 0.356586 0.763776
O O4 0.900962 0.276232 0.599458
O O5 0.008358 0.357899 0.687963
O O6 0.000000 0.300905 0.000000
O O7 0.395567 0.073752 0.418905
O O8 0.219747 0.500000 0.568443
O O9 0.269319 0.403535 0.552649
O O10 0.291180 0.444433 0.902930
O O11 0.306494 0.603492 0.228899
O O12 0.315347 0.685699 0.420389
O O13 0.451133 0.456904 0.309484
O O14 0.000000 0.210433 0.500000
#
# Coordination Sequence:
#
# PCOD9217651 Si02
#       8
#     4   8   4   8   8   2   8   8
#     4  12  24  41  66  92 132 178 207 260 330 396
#     4  11  23  42  66  95 130 172 218 272 330 387
#     4  10  23  44  67  96 126 171 225 282 322 386
#     4  11  24  43  68  93 130 173 223 271 334 384
#     4  11  25  42  64  97 132 168 220 272 322 388
#     4  12  28  42  70  98 136 168 214 268 324 396
#     4  12  25  43  64  95 135 169 214 267 324 392
#     4  12  22  42  65  95 134 171 217 269 324 391
#
# _framework density 19.973806
#
# number of rings (size 3 to 8) (size 9 to 14) (size 15 to 20)
#    0.000    0.640    5.600    2.640    1.120    0.320 
#    0.000    1.600    0.000    5.280    0.000    0.000 
#    0.000    0.000    0.000    0.000    0.000    0.000 
#
# Total GULP energy -139289.327546 kJ/mol
# GULP energy per Si atom -5571.573102 kJ/mol
# Density = 1.992834 g / cm^3
# Si number density = 19.973806 Si / 1000 Ang^3
#
#
#
# Elastic Constant Matrix: (Units=GPa)
#
#
# Indices 1 2 3 4 5 6 
#
# 1 74.9479 17.2171 25.2278 0.0000 -24.7552 0.0000
# 2 17.2171 92.6802 22.6450 0.0000 -3.1283 0.0000
# 3 25.2278 22.6450 88.0686 0.0000 -11.2379 0.0000
# 4 0.0000 0.0000 0.0000 22.4770 0.0000 13.0384
# 5 -24.7552 -3.1283 -11.2379 0.0000 22.4458 0.0000
# 6 0.0000 0.0000 0.0000 13.0384 0.0000 24.6623
#
#
#
# Elastic Compliance Matrix: (Units=1/GPa)
#
#
# Indices 1 2 3 4 5 6 
#
# 1 0.022532 -0.002720 -0.002812 0.000000 0.023063 0.000000
# 2 -0.002720 0.011842 -0.002604 0.000000 -0.002653 0.000000
# 3 -0.002812 -0.002604 0.013233 0.000000 0.003161 0.000000
# 4 0.000000 0.000000 0.000000 0.064169 0.000000 -0.033924
# 5 0.023063 -0.002653 0.003161 0.000000 0.071201 0.000000
# 6 0.000000 0.000000 0.000000 -0.033924 0.000000 0.058483
#
#
# Mechanical properties :
#
#
# Convention : Reuss Voigt Hill
#
# Bulk Modulus (GPa) = 31.91415 42.87513 37.39464
# Shear Modulus (GPa) = 18.64445 26.62413 22.63429
#
# Velocity S-wave (km/s) = 3.05855 3.65492 3.36995
# Velocity P-wave (km/s) = 5.33719 6.27085 5.82277
#
# Compressibility (1/GPa) = 0.03133406
#
# Stress axis : x y z
#
# Youngs Moduli (GPa) = 44.38197 84.44618 75.56683
#
# Poissons Ratio (x) = 0.22971 0.21249
# Poissons Ratio (y) = 0.12073 0.19680
# Poissons Ratio (z) = 0.12480 0.21992
#
# Static dielectric constant tensor:
#      x y z
#    x 1.694300 0.000000 0.017370 
#    y 0.000000 1.687610 0.000000 
#    z 0.017370 0.000000 1.731140 
# 
# From -- ./inp_files/13211.got.cif
#   From: 2010.05.17/outbox.cif.g08.bks.cpg/sg12_7_cif.got.tgz:13211.got - 2010.06.03 13:09:07.
