data_PCOD9217624
_publ_section_title
;
Structure prediction by ZEFSAII (Michael W. Deem and Ramdas Pophale) SiO2 
 PCOD9217624
Probable space group: C 2/M
;
_chemical_formula_sum "Si O2"
_cell_formula_units_Z 40
_cell_length_a 12.792830
_cell_length_b 12.968223
_cell_length_c 18.220852
_cell_angle_alpha 90.000000
_cell_angle_beta 34.975880
_cell_angle_gamma 90.000000
_cell_volume 1732.789710
_symmetry_space_group_name_H-M "C 2/M"
_symmetry_group_IT_number 12
_symmetry_cell_setting 'monoclinic'
loop_
_space_group_symop_operation_xyz
x,y,z
-x,y,-z
-x,-y,-z
x,-y,z
1/2+x,1/2+y,z
1/2-x,1/2+y,-z
1/2-x,1/2-y,-z
1/2+x,1/2-y,z
loop_
_atom_site_type_symbol
_atom_site_label
_atom_site_fract_x
_atom_site_fract_y
_atom_site_fract_z
Si Si1 0.868604 0.832835 0.146415
Si Si2 0.130621 0.888541 0.121291
Si Si3 0.874409 0.120419 0.500437
Si Si4 0.993743 0.284860 0.697576
Si Si5 0.962326 0.609406 0.109775
O O1 0.663080 0.859764 0.243762
O O2 0.976102 0.888422 0.148793
O O3 0.855541 0.713832 0.180959
O O4 0.000000 0.838048 0.000000
O O5 0.099705 0.790543 0.189695
O O6 0.123796 0.000000 0.164644
O O7 0.335836 0.881274 0.971921
O O8 0.938662 0.203730 0.403017
O O9 0.662855 0.152516 0.633461
O O10 0.000000 0.131649 0.500000
O O11 0.883507 0.000000 0.471797
O O12 0.877850 0.500000 0.180577
O O13 0.000000 0.605223 0.000000
#
# Coordination Sequence:
#
# PCOD9217624 Si02
#       5
#     8   8   8   8   8
#     4  11  22  37  60  89 132 161 195 244 299 354
#     4  11  22  37  58  87 123 165 205 237 289 360
#     4  10  23  44  66  91 118 151 204 261 306 351
#     4  11  22  40  67  90 119 161 200 247 305 361
#     4   9  17  32  55  84 118 157 200 238 279 345
#
# _framework density 23.084163
#
# number of rings (size 3 to 8) (size 9 to 14) (size 15 to 20)
#    0.000    1.600    4.000    2.400    0.000    2.000 
#    0.000    1.000    0.000    6.600    0.000    0.000 
#    0.000    0.000    0.000    0.000    0.000    0.000 
#
# Total GULP energy -111789.977542 kJ/mol
# GULP energy per Si atom -5589.498877 kJ/mol
# Density = 2.303162 g / cm^3
# Si number density = 23.084163 Si / 1000 Ang^3
#
#
#
# Elastic Constant Matrix: (Units=GPa)
#
#
# Indices 1 2 3 4 5 6 
#
# 1 126.0247 31.4980 30.5626 0.0000 -43.3704 0.0000
# 2 31.4980 83.7177 12.9289 -0.0003 -10.7709 0.0001
# 3 30.5626 12.9289 63.2161 -0.0010 -35.1204 0.0002
# 4 0.0000 -0.0003 -0.0010 14.9238 0.0002 -6.3859
# 5 -43.3704 -10.7709 -35.1204 0.0002 48.2014 0.0000
# 6 0.0000 0.0001 0.0002 -6.3859 0.0000 23.4228
#
#
#
# Elastic Compliance Matrix: (Units=1/GPa)
#
#
# Indices 1 2 3 4 5 6 
#
# 1 0.012346 -0.003361 0.000794 0.000000 0.010936 0.000000
# 2 -0.003361 0.013318 -0.001891 0.000000 -0.001426 0.000000
# 3 0.000794 -0.001891 0.026854 0.000002 0.019858 0.000000
# 4 0.000000 0.000000 0.000002 0.075857 0.000001 0.020681
# 5 0.010936 -0.001426 0.019858 0.000001 0.044737 0.000000
# 6 0.000000 0.000000 0.000000 0.020681 0.000000 0.048332
#
#
# Mechanical properties :
#
#
# Convention : Reuss Voigt Hill
#
# Bulk Modulus (GPa) = 22.93420 46.99307 34.96363
# Shear Modulus (GPa) = 20.41710 30.50753 25.46231
#
# Velocity S-wave (km/s) = 2.97722 3.63930 3.32478
# Velocity P-wave (km/s) = 4.66637 6.16934 5.46973
#
# Compressibility (1/GPa) = 0.04360301
#
# Stress axis : x y z
#
# Youngs Moduli (GPa) = 80.99833 75.08669 37.23831
#
# Poissons Ratio (x) = 0.25234 -0.02958
# Poissons Ratio (y) = 0.27221 0.07042
# Poissons Ratio (z) = -0.06434 0.14200
#
# Static dielectric constant tensor:
#      x y z
#    x 1.898880 0.000000 0.005590 
#    y 0.000000 1.841160 0.000000 
#    z 0.005590 0.000000 1.890080 
# 
# From -- ./inp_files/305087.got.cif
#   From: 2010.05.17/outbox.cif.g08.bks.cpg/sg12_153_cif.got.tgz:305087.got - 2010.06.03 13:09:07.
