data_PCOD9217499
_publ_section_title
;
Structure prediction by ZEFSAII (Michael W. Deem and Ramdas Pophale) SiO2 
 PCOD9217499
Probable space group: C 2/M
;
_chemical_formula_sum "Si O2"
_cell_formula_units_Z 56
_cell_length_a 23.606415
_cell_length_b 10.421056
_cell_length_c 12.841635
_cell_angle_alpha 90.000000
_cell_angle_beta 102.341913
_cell_angle_gamma 90.000000
_cell_volume 3086.082420
_symmetry_space_group_name_H-M "C 2/M"
_symmetry_group_IT_number 12
_symmetry_cell_setting 'monoclinic'
loop_
_space_group_symop_operation_xyz
x,y,z
-x,y,-z
-x,-y,-z
x,-y,z
1/2+x,1/2+y,z
1/2-x,1/2+y,-z
1/2-x,1/2-y,-z
1/2+x,1/2-y,z
loop_
_atom_site_type_symbol
_atom_site_label
_atom_site_fract_x
_atom_site_fract_y
_atom_site_fract_z
Si Si1 0.279462 0.147745 0.205900
Si Si2 0.807509 0.352497 0.913727
Si Si3 0.576433 0.500000 0.126877
Si Si4 0.779937 0.151656 0.591048
Si Si5 0.612158 0.227282 0.860229
Si Si6 0.556482 0.500000 0.873724
Si Si7 0.621524 0.749917 0.239730
Si Si8 0.008039 0.356526 0.118917
O O1 0.243905 0.250831 0.123686
O O2 0.255612 0.156152 0.313910
O O3 0.346516 0.185361 0.217489
O O4 0.271083 0.000000 0.168275
O O5 0.789688 0.500000 0.926411
O O6 0.842498 0.346603 0.818339
O O7 0.849785 0.303072 0.021552
O O8 0.514198 0.500000 0.163471
O O9 0.615445 0.620314 0.171219
O O10 0.564814 0.500000 0.000902
O O11 0.750000 0.250000 0.500000
O O12 0.843301 0.209765 0.644612
O O13 0.782807 0.000000 0.560930
O O14 0.588419 0.372658 0.845271
O O15 0.553905 0.146528 0.852111
O O16 0.555518 0.796465 0.213532
O O17 0.028570 0.500000 0.104827
O O18 0.000000 0.292268 0.000000
#
# Coordination Sequence:
#
# PCOD9217499 Si02
#       8
#     8   8   4   8   8   4   8   8
#     4  10  24  41  58  80 112 154 193 238 293 346
#     4  11  22  34  53  81 117 159 198 236 274 332
#     4  11  18  36  52  85 119 159 199 223 272 336
#     4  10  23  43  67  87 108 142 190 249 305 352
#     4  12  22  34  52  80 123 158 198 229 277 337
#     4  11  22  30  56  85 121 171 195 223 265 341
#     4  11  20  35  58  85 118 151 193 241 285 339
#     4  11  20  32  52  84 123 162 195 233 274 327
#
# _framework density 18.145985
#
# number of rings (size 3 to 8) (size 9 to 14) (size 15 to 20)
#    0.000    1.143    5.000    2.143    3.000    2.857 
#    0.000    0.000    0.000    0.857    0.000    5.000 
#    0.000    0.000    0.000    0.000    0.000    0.000 
#
# Total GULP energy -156141.231041 kJ/mol
# GULP energy per Si atom -5576.472537 kJ/mol
# Density = 1.810468 g / cm^3
# Si number density = 18.145985 Si / 1000 Ang^3
#
#
#
# Elastic Constant Matrix: (Units=GPa)
#
#
# Indices 1 2 3 4 5 6 
#
# 1 106.5326 31.1187 26.4582 0.0000 16.0069 0.0000
# 2 31.1187 135.0114 39.0719 0.0000 10.4411 0.0000
# 3 26.4582 39.0719 67.1425 0.0000 24.1983 0.0000
# 4 0.0000 0.0000 0.0000 42.9454 0.0000 53.9759
# 5 16.0069 10.4411 24.1983 0.0000 24.2763 0.0000
# 6 0.0000 0.0000 0.0000 53.9759 0.0000 149.4130
#
#
#
# Elastic Compliance Matrix: (Units=1/GPa)
#
#
# Indices 1 2 3 4 5 6 
#
# 1 0.011020 -0.001705 -0.001554 0.000000 -0.004983 0.000000
# 2 -0.001705 0.009239 -0.005739 0.000000 0.002871 0.000000
# 3 -0.001554 -0.005739 0.027447 0.000000 -0.023866 0.000000
# 4 0.000000 0.000000 0.000000 0.042650 0.000000 -0.015408
# 5 -0.004983 0.002871 -0.023866 0.000000 0.067032 0.000000
# 6 0.000000 0.000000 0.000000 -0.015408 0.000000 0.012259
#
#
# Mechanical properties :
#
#
# Convention : Reuss Voigt Hill
#
# Bulk Modulus (GPa) = 33.66004 55.77603 44.71804
# Shear Modulus (GPa) = 25.31047 57.46277 41.38662
#
# Velocity S-wave (km/s) = 3.73879 5.63344 4.78091
# Velocity P-wave (km/s) = 6.10147 8.55093 7.42786
#
# Compressibility (1/GPa) = 0.02970882
#
# Stress axis : x y z
#
# Youngs Moduli (GPa) = 90.74779 108.24204 36.43351
#
# Poissons Ratio (x) = 0.18452 0.05663
# Poissons Ratio (y) = 0.15470 0.20910
# Poissons Ratio (z) = 0.14106 0.62123
#
# Static dielectric constant tensor:
#      x y z
#    x 1.669990 0.000000 0.006100 
#    y 0.000000 1.511630 0.000000 
#    z 0.006100 0.000000 1.598320 
# 
# From -- ./inp_files/165746.got.cif
#   From: 2010.05.17/outbox.cif.g08.bks.cpg/sg12_83_cif.got.tgz:165746.got - 2010.06.03 13:09:07.
