data_PCOD9217725
_publ_section_title
;
Structure prediction by ZEFSAII (Michael W. Deem and Ramdas Pophale) SiO2 
 PCOD9217725
Probable space group: C 2/M
;
_chemical_formula_sum "Si O2"
_cell_formula_units_Z 48
_cell_length_a 29.810711
_cell_length_b 10.865682
_cell_length_c 15.267847
_cell_angle_alpha 90.000000
_cell_angle_beta 151.013699
_cell_angle_gamma 90.000000
_cell_volume 2396.574722
_symmetry_space_group_name_H-M "C 2/M"
_symmetry_group_IT_number 12
_symmetry_cell_setting 'monoclinic'
loop_
_space_group_symop_operation_xyz
x,y,z
-x,y,-z
-x,-y,-z
x,-y,z
1/2+x,1/2+y,z
1/2-x,1/2+y,-z
1/2-x,1/2-y,-z
1/2+x,1/2-y,z
loop_
_atom_site_type_symbol
_atom_site_label
_atom_site_fract_x
_atom_site_fract_y
_atom_site_fract_z
Si Si1 0.025973 0.146431 0.443984
Si Si2 0.509708 0.500000 0.157600
Si Si3 0.239436 0.144119 0.757089
Si Si4 0.473581 0.141412 0.858481
Si Si5 0.846904 0.000000 0.746597
Si Si6 0.782105 0.726002 0.457584
Si Si7 0.077241 0.237159 0.893979
O O1 0.135278 0.164185 0.614499
O O2 0.000000 0.169921 0.500000
O O3 0.967959 0.233351 0.279129
O O4 0.006070 0.000000 0.392591
O O5 0.612757 0.500000 0.286521
O O6 0.475705 0.618961 0.153852
O O7 0.438808 0.500000 0.957833
O O8 0.232465 0.172843 0.641083
O O9 0.262577 0.000000 0.812296
O O10 0.312198 0.242378 0.921924
O O11 0.388356 0.194179 0.657109
O O12 0.555487 0.157871 0.929503
O O13 0.449583 0.000000 0.834944
O O14 0.500000 0.196390 0.000000
O O15 0.785227 0.887457 0.675479
O O16 0.750000 0.750000 0.500000
#
# Coordination Sequence:
#
# PCOD9217725 Si02
#       7
#     8   4   8   8   4   8   8
#     4  10  23  44  70  98 128 167 217 273 334 396
#     4  11  24  38  57  92 130 168 217 271 308 377
#     4  11  25  43  66  96 130 170 217 270 331 391
#     4  11  24  40  57  89 133 174 212 260 320 382
#     4  11  24  38  57  88 128 172 227 255 308 379
#     4  12  23  37  59  86 125 174 218 260 312 384
#     4  12  22  41  67  95 129 174 214 270 325 389
#
# _framework density 20.028583999999999
#
# number of rings (size 3 to 8) (size 9 to 14) (size 15 to 20)
#    0.000    0.833    5.000    2.500    3.500    2.000 
#    0.000    0.000    0.000    2.000    0.000    0.000 
#    0.000    0.000    0.000    0.000    0.000    0.000 
#
# Total GULP energy -133617.317525 kJ/mol
# GULP energy per Si atom -5567.388230 kJ/mol
# Density = 1.998300 g / cm^3
# Si number density = 20.028584 Si / 1000 Ang^3
#
#
#
# Elastic Constant Matrix: (Units=GPa)
#
#
# Indices 1 2 3 4 5 6 
#
# 1 118.6281 22.0573 50.0427 0.0000 -6.7074 0.0000
# 2 22.0573 55.3610 25.7042 0.0000 2.9138 0.0000
# 3 50.0427 25.7042 122.9840 0.0000 -3.2071 0.0000
# 4 0.0000 0.0000 0.0000 19.0193 0.0000 7.4030
# 5 -6.7074 2.9138 -3.2071 0.0000 26.7262 0.0000
# 6 0.0000 0.0000 0.0000 7.4030 0.0000 18.4961
#
#
#
# Elastic Compliance Matrix: (Units=1/GPa)
#
#
# Indices 1 2 3 4 5 6 
#
# 1 0.010627 -0.002646 -0.003706 0.000000 0.002511 0.000000
# 2 -0.002646 0.020858 -0.003370 0.000000 -0.003342 0.000000
# 3 -0.003706 -0.003370 0.010361 0.000000 0.000681 0.000000
# 4 0.000000 0.000000 0.000000 0.062281 0.000000 -0.024928
# 5 0.002511 -0.003342 0.000681 0.000000 0.038493 0.000000
# 6 0.000000 0.000000 0.000000 -0.024928 0.000000 0.064043
#
#
# Mechanical properties :
#
#
# Convention : Reuss Voigt Hill
#
# Bulk Modulus (GPa) = 44.63648 54.73130 49.68389
# Shear Modulus (GPa) = 21.40666 26.12626 23.76646
#
# Velocity S-wave (km/s) = 3.27281 3.61563 3.44848
# Velocity P-wave (km/s) = 6.05115 6.69450 6.38094
#
# Compressibility (1/GPa) = 0.02240320
#
# Stress axis : x y z
#
# Youngs Moduli (GPa) = 94.10174 47.94331 96.51483
#
# Poissons Ratio (x) = 0.12684 0.35765
# Poissons Ratio (y) = 0.24896 0.32526
# Poissons Ratio (z) = 0.34871 0.16157
#
# Static dielectric constant tensor:
#      x y z
#    x 1.713290 0.000000 0.009810 
#    y 0.000000 1.570170 0.000000 
#    z 0.009810 0.000000 0.905020 
# 
# From -- ./inp_files/245874.got.cif
#   From: 2010.05.17/outbox.cif.g08.bks.cpg/sg12_123_cif.got.tgz:245874.got - 2010.06.03 13:09:07.
