data_PCOD9217304
_publ_section_title
;
Structure prediction by ZEFSAII (Michael W. Deem and Ramdas Pophale) SiO2 
 PCOD9217304
Probable space group: C 2/M
;
_chemical_formula_sum "Si O2"
_cell_formula_units_Z 52
_cell_length_a 28.182349
_cell_length_b 7.985265
_cell_length_c 14.581900
_cell_angle_alpha 90.000000
_cell_angle_beta 140.124736
_cell_angle_gamma 90.000000
_cell_volume 2103.869787
_symmetry_space_group_name_H-M "C 2/M"
_symmetry_group_IT_number 12
_symmetry_cell_setting 'monoclinic'
loop_
_space_group_symop_operation_xyz
x,y,z
-x,y,-z
-x,-y,-z
x,-y,z
1/2+x,1/2+y,z
1/2-x,1/2+y,-z
1/2-x,1/2-y,-z
1/2+x,1/2-y,z
loop_
_atom_site_type_symbol
_atom_site_label
_atom_site_fract_x
_atom_site_fract_y
_atom_site_fract_z
Si Si1 0.345023 0.314429 0.407391
Si Si2 0.270998 0.000000 0.398667
Si Si3 0.106166 0.702498 0.025759
Si Si4 0.638376 0.318486 0.277249
Si Si5 0.426108 0.695754 0.342460
Si Si6 0.546616 0.808245 0.296323
Si Si7 0.683679 0.193643 0.966986
O O1 0.311619 0.500000 0.376231
O O2 0.363142 0.299857 0.327459
O O3 0.423692 0.304786 0.577987
O O4 0.304821 0.150670 0.384568
O O5 0.223858 0.857608 0.388066
O O6 0.109810 0.500000 0.037060
O O7 0.168206 0.767004 0.045607
O O8 0.027428 0.745715 0.864308
O O9 0.111554 0.771403 0.135764
O O10 0.605042 0.500000 0.254973
O O11 0.611279 0.192738 0.314412
O O12 0.500000 0.765756 0.500000
O O13 0.439145 0.500000 0.339942
O O14 0.392162 0.782572 0.203235
O O15 0.537655 0.000000 0.314585
O O16 0.696831 0.000000 0.002512
O O17 0.750000 0.250000 0.000000
#
# Coordination Sequence:
#
# PCOD9217304 Si02
#       7
#     8   4   8   8   8   8   8
#     4  11  24  43  69  96 135 179 223 277 330 399
#     4  10  26  46  62 100 135 174 228 268 335 402
#     4  10  23  42  66  96 131 171 221 279 334 396
#     4  10  24  41  62  94 128 172 216 268 333 389
#     4  10  23  43  67  99 133 173 223 277 334 397
#     4  11  22  42  68  98 130 172 223 277 332 398
#     4  11  25  41  65  96 133 173 221 273 336 398
#
# _framework density 24.716359000000001
#
# number of rings (size 3 to 8) (size 9 to 14) (size 15 to 20)
#    0.462    1.077    0.769    2.769    3.231    6.462 
#    0.000    0.000    0.000    0.000    0.000    0.000 
#    0.000    0.000    0.000    0.000    0.000    0.000 
#
# Total GULP energy -144860.043900 kJ/mol
# GULP energy per Si atom -5571.540150 kJ/mol
# Density = 2.466010 g / cm^3
# Si number density = 24.716359 Si / 1000 Ang^3
#
#
#
# Elastic Constant Matrix: (Units=GPa)
#
#
# Indices 1 2 3 4 5 6 
#
# 1 84.1357 23.4566 11.4255 0.0000 -5.5351 0.0000
# 2 23.4566 102.0909 2.9343 0.0000 0.5522 0.0000
# 3 11.4255 2.9343 87.0012 0.0000 -11.8583 0.0000
# 4 0.0000 0.0000 0.0000 -6.8492 0.0000 17.2288
# 5 -5.5351 0.5522 -11.8583 0.0000 42.2490 0.0000
# 6 0.0000 0.0000 0.0000 17.2288 0.0000 31.0122
#
#
#
# Elastic Compliance Matrix: (Units=1/GPa)
#
#
# Indices 1 2 3 4 5 6 
#
# 1 0.012990 -0.002951 -0.001424 0.000000 0.001341 0.000000
# 2 -0.002951 0.010477 -0.000039 0.000000 -0.000534 0.000000
# 3 -0.001424 -0.000039 0.012121 0.000000 0.003216 0.000000
# 4 0.000000 0.000000 0.000000 -0.060899 0.000000 0.033832
# 5 0.001341 -0.000534 0.003216 0.000000 0.024754 0.000000
# 6 0.000000 0.000000 0.000000 0.033832 0.000000 0.013450
#
#
# Mechanical properties :
#
#
# Convention : Reuss Voigt Hill
#
# Bulk Modulus (GPa) = 37.36741 38.76231 38.06486
# Shear Modulus (GPa) = 163.18681 28.97651 96.08166
#
# Velocity S-wave (km/s) = 8.13432 3.42769 6.24164
# Velocity P-wave (km/s) = 10.16731 5.60199 8.20843
#
# Compressibility (1/GPa) = 0.02676129
#
# Stress axis : x y z
#
# Youngs Moduli (GPa) = 76.98359 95.44534 82.50357
#
# Poissons Ratio (x) = 0.28165 0.11745
# Poissons Ratio (y) = 0.22717 0.00319
# Poissons Ratio (z) = 0.10960 0.00369
#
# Static dielectric constant tensor:
#      x y z
#    x 1.998120 0.000000 0.079810 
#    y 0.000000 1.938440 0.000000 
#    z 0.079810 0.000000 2.024970 
# 
# From -- ./inp_files/250186.got.cif
#   From: 2010.05.17/outbox.cif.g08.bks.cpg/sg12_126_cif.got.tgz:250186.got - 2010.06.03 13:09:07.
