data_PCOD9217592
_publ_section_title
;
Structure prediction by ZEFSAII (Michael W. Deem and Ramdas Pophale) SiO2 
 PCOD9217592
Probable space group: C 2/M
;
_chemical_formula_sum "Si O2"
_cell_formula_units_Z 36
_cell_length_a 13.513937
_cell_length_b 12.105741
_cell_length_c 10.012961
_cell_angle_alpha 90.000000
_cell_angle_beta 57.756882
_cell_angle_gamma 90.000000
_cell_volume 1385.476996
_symmetry_space_group_name_H-M "C 2/M"
_symmetry_group_IT_number 12
_symmetry_cell_setting 'monoclinic'
loop_
_space_group_symop_operation_xyz
x,y,z
-x,y,-z
-x,-y,-z
x,-y,z
1/2+x,1/2+y,z
1/2-x,1/2+y,-z
1/2-x,1/2-y,-z
1/2+x,1/2-y,z
loop_
_atom_site_type_symbol
_atom_site_label
_atom_site_fract_x
_atom_site_fract_y
_atom_site_fract_z
Si Si1 0.594732 0.000000 0.684302
Si Si2 0.677667 0.383983 0.580882
Si Si3 0.710313 0.374432 0.140740
Si Si4 0.505215 0.201503 0.350847
Si Si5 0.639414 0.686557 0.902183
O O1 0.699883 0.092524 0.578151
O O2 0.499464 0.101510 0.750252
O O3 0.608817 0.500000 0.619192
O O4 0.602180 0.287071 0.576148
O O5 0.691489 0.360047 0.727813
O O6 0.700521 0.500000 0.197369
O O7 0.613253 0.285203 0.256600
O O8 0.828674 0.315737 0.104277
O O9 0.693996 0.371568 0.992664
O O10 0.500000 0.145273 0.500000
O O11 0.500000 0.669944 0.000000
#
# Coordination Sequence:
#
# PCOD9217592 Si02
#       5
#     4   8   8   8   8
#     4  10  25  44  70  95 139 191 230 276 341 419
#     4  10  23  43  71  99 133 186 229 282 339 408
#     4  11  26  45  71 106 139 182 230 292 347 405
#     4  12  24  45  66 103 141 180 235 283 344 409
#     4  11  23  47  70 101 141 180 238 278 348 421
#
# _framework density 25.983833000000001
#
# number of rings (size 3 to 8) (size 9 to 14) (size 15 to 20)
#    0.667    0.444    2.222    3.667    0.000    3.111 
#   14.000    0.000    0.000    0.000    0.000    0.000 
#    0.000    0.000    0.000    0.000    0.000    0.000 
#
# Total GULP energy -100271.003740 kJ/mol
# GULP energy per Si atom -5570.611319 kJ/mol
# Density = 2.592469 g / cm^3
# Si number density = 25.983833 Si / 1000 Ang^3
#
#
#
# Elastic Constant Matrix: (Units=GPa)
#
#
# Indices 1 2 3 4 5 6 
#
# 1 45.5853 32.7388 14.9216 0.0000 9.2162 0.0000
# 2 32.7388 193.9574 3.1082 0.0000 -24.9371 0.0000
# 3 14.9216 3.1082 82.8106 0.0000 12.1713 0.0000
# 4 0.0000 0.0000 0.0000 12.4678 0.0000 -14.5027
# 5 9.2162 -24.9371 12.1713 0.0000 34.5552 0.0000
# 6 0.0000 0.0000 0.0000 -14.5027 0.0000 13.5894
#
#
#
# Elastic Compliance Matrix: (Units=1/GPa)
#
#
# Indices 1 2 3 4 5 6 
#
# 1 0.030062 -0.006494 -0.003486 0.000000 -0.011476 0.000000
# 2 -0.006494 0.007145 -0.000116 0.000000 0.006929 0.000000
# 3 -0.003486 -0.000116 0.013271 0.000000 -0.003829 0.000000
# 4 0.000000 0.000000 0.000000 -0.332267 0.000000 -0.354599
# 5 -0.011476 0.006929 -0.003829 0.000000 0.038349 0.000000
# 6 0.000000 0.000000 0.000000 -0.354599 0.000000 -0.304844
#
#
# Mechanical properties :
#
#
# Convention : Reuss Voigt Hill
#
# Bulk Modulus (GPa) = 33.02037 47.09896 40.05967
# Shear Modulus (GPa) = -9.65258 30.22811 10.28777
#
# Velocity S-wave (km/s) = -1.92948 3.41448 1.99196
# Velocity P-wave (km/s) = 2.78779 5.80608 4.55424
#
# Compressibility (1/GPa) = 0.03028434
#
# Stress axis : x y z
#
# Youngs Moduli (GPa) = 33.26438 139.96522 75.35191
#
# Poissons Ratio (x) = 0.90893 0.26271
# Poissons Ratio (y) = 0.21602 0.00877
# Poissons Ratio (z) = 0.11597 0.01630
#
# Static dielectric constant tensor:
#      x y z
#    x 2.123560 0.000000 0.025930 
#    y 0.000000 2.295020 0.000000 
#    z 0.025930 0.000000 2.101150 
# 
# From -- ./inp_files/140060.got.cif
#   From: 2010.05.17/outbox.cif.g08.bks.cpg/sg12_71_cif.got.tgz:140060.got - 2010.06.03 13:09:07.
