data_PCOD9217018
_publ_section_title
;
Structure prediction by ZEFSAII (Michael W. Deem and Ramdas Pophale) SiO2 
 PCOD9217018
Probable space group: C 2/M
;
_chemical_formula_sum "Si O2"
_cell_formula_units_Z 40
_cell_length_a 19.989750
_cell_length_b 8.897141
_cell_length_c 15.248959
_cell_angle_alpha 90.000000
_cell_angle_beta 47.996868
_cell_angle_gamma 90.000000
_cell_volume 2015.348303
_symmetry_space_group_name_H-M "C 2/M"
_symmetry_group_IT_number 12
_symmetry_cell_setting 'monoclinic'
loop_
_space_group_symop_operation_xyz
x,y,z
-x,y,-z
-x,-y,-z
x,-y,z
1/2+x,1/2+y,z
1/2-x,1/2+y,-z
1/2-x,1/2-y,-z
1/2+x,1/2-y,z
loop_
_atom_site_type_symbol
_atom_site_label
_atom_site_fract_x
_atom_site_fract_y
_atom_site_fract_z
Si Si1 0.234118 0.321995 0.241304
Si Si2 0.549080 0.326511 0.363991
Si Si3 0.984734 0.677480 0.253104
Si Si4 0.676125 0.179903 0.998967
Si Si5 0.284577 0.821539 0.379175
O O1 0.245001 0.500000 0.233151
O O2 0.136779 0.277414 0.288278
O O3 0.305307 0.246293 0.113228
O O4 0.241550 0.254619 0.331941
O O5 0.500000 0.314011 0.500000
O O6 0.576378 0.500000 0.327202
O O7 0.485618 0.273218 0.341147
O O8 0.988282 0.500000 0.272589
O O9 0.892496 0.701830 0.282124
O O10 0.075681 0.714747 0.120830
O O11 0.686914 0.000000 0.988545
O O12 0.750000 0.250000 0.000000
O O13 0.250000 0.750000 0.500000
O O14 0.266186 0.000000 0.394739
#
# Coordination Sequence:
#
# PCOD9217018 Si02
#       5
#     8   8   8   8   8
#     4  12  25  41  63  92 127 170 212 259 315 373
#     4  11  23  38  61  92 123 160 210 265 315 372
#     4  10  23  41  64  91 124 165 207 256 319 379
#     4  11  22  40  65  95 127 164 209 264 319 374
#     4  11  24  44  66  93 129 169 210 260 316 378
#
# _framework density 19.847685999999999
#
# number of rings (size 3 to 8) (size 9 to 14) (size 15 to 20)
#    0.000    1.000    2.000    4.800    0.000    8.000 
#    0.000    4.000    0.000    0.000    0.000    0.000 
#    0.000    0.000    0.000    0.000    0.000    0.000 
#
# Total GULP energy -111903.279699 kJ/mol
# GULP energy per Si atom -5595.163985 kJ/mol
# Density = 1.980251 g / cm^3
# Si number density = 19.847686 Si / 1000 Ang^3
#
#
#
# Elastic Constant Matrix: (Units=GPa)
#
#
# Indices 1 2 3 4 5 6 
#
# 1 42.9297 14.5031 -4.6869 0.0000 3.9994 0.0000
# 2 14.5031 79.7243 23.4622 0.0001 -0.2322 -0.0002
# 3 -4.6869 23.4622 64.0460 0.0000 6.3931 0.0000
# 4 0.0000 0.0001 0.0000 32.0216 0.0000 4.1187
# 5 3.9994 -0.2322 6.3931 0.0000 38.5304 0.0001
# 6 0.0000 -0.0002 0.0000 4.1187 0.0001 33.2625
#
#
#
# Elastic Compliance Matrix: (Units=1/GPa)
#
#
# Indices 1 2 3 4 5 6 
#
# 1 0.026170 -0.006094 0.004497 0.000000 -0.003499 0.000000
# 2 -0.006094 0.015513 -0.006306 0.000000 0.001772 0.000000
# 3 0.004497 -0.006306 0.018611 0.000000 -0.003593 0.000000
# 4 0.000000 0.000000 0.000000 0.031734 0.000000 -0.003929
# 5 -0.003499 0.001772 -0.003593 0.000000 0.026924 0.000000
# 6 0.000000 0.000000 0.000000 -0.003929 0.000000 0.030550
#
#
# Mechanical properties :
#
#
# Convention : Reuss Voigt Hill
#
# Bulk Modulus (GPa) = 22.47806 28.13964 25.30885
# Shear Modulus (GPa) = 27.75654 30.99101 29.37378
#
# Velocity S-wave (km/s) = 3.74368 3.95580 3.85120
# Velocity P-wave (km/s) = 5.48058 5.92225 5.70569
#
# Compressibility (1/GPa) = 0.04448782
#
# Stress axis : x y z
#
# Youngs Moduli (GPa) = 38.21210 64.46305 53.73023
#
# Poissons Ratio (x) = 0.39286 -0.24162
# Poissons Ratio (y) = 0.23288 0.33881
# Poissons Ratio (z) = -0.17184 0.40649
#
# Static dielectric constant tensor:
#      x y z
#    x 1.666860 0.000000 -0.017800 
#    y 0.000000 1.660380 0.000000 
#    z -0.017800 0.000000 1.699030 
# 
# From -- ./inp_files/229654.got.cif
#   From: 2010.05.17/outbox.cif.g08.bks.cpg/sg12_115_cif.got.tgz:229654.got - 2010.06.03 13:09:07.
