data_PCOD9217880
_publ_section_title
;
Structure prediction by ZEFSAII (Michael W. Deem and Ramdas Pophale) SiO2 
 PCOD9217880
Probable space group: C 2/M
;
_chemical_formula_sum "Si O2"
_cell_formula_units_Z 58
_cell_length_a 19.862977
_cell_length_b 24.174367
_cell_length_c 9.357733
_cell_angle_alpha 90.000000
_cell_angle_beta 34.108614
_cell_angle_gamma 90.000000
_cell_volume 2519.705728
_symmetry_space_group_name_H-M "C 2/M"
_symmetry_group_IT_number 12
_symmetry_cell_setting 'monoclinic'
loop_
_space_group_symop_operation_xyz
x,y,z
-x,y,-z
-x,-y,-z
x,-y,z
1/2+x,1/2+y,z
1/2-x,1/2+y,-z
1/2-x,1/2-y,-z
1/2+x,1/2-y,z
loop_
_atom_site_type_symbol
_atom_site_label
_atom_site_fract_x
_atom_site_fract_y
_atom_site_fract_z
Si Si1 0.113808 0.789742 0.140461
Si Si2 0.867090 0.223966 0.220835
Si Si3 0.858774 0.439565 0.767613
Si Si4 0.282499 0.370191 0.547413
Si Si5 0.226170 0.064516 0.701170
Si Si6 0.991265 0.095246 0.735371
Si Si7 0.178228 0.325264 0.010104
Si Si8 0.000000 0.000000 0.500000
O O1 0.164301 0.789921 0.888443
O O2 0.081643 0.724158 0.207051
O O3 0.025756 0.842202 0.292869
O O4 0.206100 0.803214 0.105421
O O5 0.750000 0.250000 0.500000
O O6 0.877166 0.169924 0.302462
O O7 0.000000 0.251123 0.000000
O O8 0.814709 0.500000 0.899208
O O9 0.801478 0.428489 0.713580
O O10 0.000000 0.444106 0.500000
O O11 0.841605 0.386090 0.894367
O O12 0.220569 0.401086 0.524779
O O13 0.367966 0.412697 0.481266
O O14 0.204132 0.335723 0.797244
O O15 0.222599 0.000000 0.670468
O O16 0.093441 0.084742 0.979467
O O17 0.951875 0.049078 0.692663
#
# Coordination Sequence:
#
# PCOD9217880 Si02
#       8
#     8   8   8   8   8   8   8   2
#     4  11  23  45  66  99 144 187 239 296 371 437
#     4  12  23  46  70  99 141 197 242 302 369 449
#     4  10  23  48  74  95 132 186 243 300 367 436
#     4  12  24  40  69 103 142 184 235 293 367 442
#     4  11  23  42  67  96 140 186 232 291 365 445
#     4  12  23  41  66 101 143 191 228 289 364 443
#     4  11  24  44  68 105 135 183 241 302 363 442
#     4  12  28  40  66 112 146 186 244 296 366 452
#
# _framework density 23.018561999999999
#
# number of rings (size 3 to 8) (size 9 to 14) (size 15 to 20)
#    0.000    0.690    6.207    1.241    0.966    1.103 
#   11.172    0.690    0.000    2.483    0.000    0.000 
#    0.000    0.000    0.000    0.000    0.000    0.000 
#
# Total GULP energy -161540.174084 kJ/mol
# GULP energy per Si atom -5570.350830 kJ/mol
# Density = 2.296617 g / cm^3
# Si number density = 23.018562 Si / 1000 Ang^3
#
#
#
# Elastic Constant Matrix: (Units=GPa)
#
#
# Indices 1 2 3 4 5 6 
#
# 1 55.1396 34.7221 34.1830 -0.0003 14.3640 0.0001
# 2 34.7221 169.9521 54.1489 0.0002 24.6985 -0.0001
# 3 34.1830 54.1489 95.2355 -0.0001 25.0914 0.0000
# 4 -0.0003 0.0002 -0.0001 40.7025 0.0001 2.0542
# 5 14.3640 24.6985 25.0914 0.0001 36.7255 0.0000
# 6 0.0001 -0.0001 0.0000 2.0542 0.0000 30.1411
#
#
#
# Elastic Compliance Matrix: (Units=1/GPa)
#
#
# Indices 1 2 3 4 5 6 
#
# 1 0.024639 -0.002441 -0.006523 0.000000 -0.003538 0.000000
# 2 -0.002441 0.007619 -0.002875 0.000000 -0.002205 0.000000
# 3 -0.006523 -0.002875 0.016213 0.000000 -0.006592 0.000000
# 4 0.000000 0.000000 0.000000 0.024653 0.000000 -0.001680
# 5 -0.003538 -0.002205 -0.006592 0.000000 0.034600 0.000000
# 6 0.000000 0.000000 0.000000 -0.001680 0.000000 0.033292
#
#
# Mechanical properties :
#
#
# Convention : Reuss Voigt Hill
#
# Bulk Modulus (GPa) = 40.33557 62.93724 51.63641
# Shear Modulus (GPa) = 28.90855 34.66538 31.78696
#
# Velocity S-wave (km/s) = 3.54768 3.88490 3.72011
# Velocity P-wave (km/s) = 5.86025 6.89381 6.39793
#
# Compressibility (1/GPa) = 0.02479201
#
# Stress axis : x y z
#
# Youngs Moduli (GPa) = 40.58629 131.24731 61.67808
#
# Poissons Ratio (x) = 0.32040 0.40236
# Poissons Ratio (y) = 0.09908 0.17732
# Poissons Ratio (z) = 0.26476 0.37733
#
# Static dielectric constant tensor:
#      x y z
#    x 1.911280 0.000000 0.000300 
#    y 0.000000 1.973730 0.000000 
#    z 0.000300 0.000000 1.859870 
# 
# From -- ./inp_files/90804.got.cif
#   From: 2010.05.17/outbox.cif.g08.bks.cpg/sg12_46_cif.got.tgz:90804.got - 2010.06.03 13:09:07.
