data_PCOD9217515
_publ_section_title
;
Structure prediction by ZEFSAII (Michael W. Deem and Ramdas Pophale) SiO2 
 PCOD9217515
Probable space group: C 2/M
;
_chemical_formula_sum "Si O2"
_cell_formula_units_Z 48
_cell_length_a 25.200119
_cell_length_b 14.387405
_cell_length_c 6.529100
_cell_angle_alpha 90.000000
_cell_angle_beta 85.994094
_cell_angle_gamma 90.000000
_cell_volume 2361.435230
_symmetry_space_group_name_H-M "C 2/M"
_symmetry_group_IT_number 12
_symmetry_cell_setting 'monoclinic'
loop_
_space_group_symop_operation_xyz
x,y,z
-x,y,-z
-x,-y,-z
x,-y,z
1/2+x,1/2+y,z
1/2-x,1/2+y,-z
1/2-x,1/2-y,-z
1/2+x,1/2-y,z
loop_
_atom_site_type_symbol
_atom_site_label
_atom_site_fract_x
_atom_site_fract_y
_atom_site_fract_z
Si Si1 0.975961 0.500000 0.754712
Si Si2 0.413837 0.183714 0.871016
Si Si3 0.678594 0.216142 0.838952
Si Si4 0.947242 0.105482 0.396365
Si Si5 0.782724 0.109662 0.920481
Si Si6 0.000000 0.173475 0.000000
Si Si7 0.655672 0.712547 0.431784
O O1 0.941187 0.592273 0.779361
O O2 0.000000 0.500000 0.500000
O O3 0.000000 0.500000 0.000000
O O4 0.368882 0.218749 0.728619
O O5 0.380217 0.178337 0.090998
O O6 0.459688 0.259858 0.889349
O O7 0.722380 0.147011 0.920728
O O8 0.685743 0.229610 0.595905
O O9 0.688345 0.320075 0.928421
O O10 0.895360 0.164565 0.451947
O O11 0.000000 0.139280 0.500000
O O12 0.937633 0.000000 0.465543
O O13 0.963923 0.112211 0.156842
O O14 0.809905 0.136094 0.696442
O O15 0.786644 0.000000 0.963978
#
# Coordination Sequence:
#
# PCOD9217515 Si02
#       7
#     4   8   8   8   8   4   8
#     4  12  30  46  72 108 150 192 246 292 347 420
#     4  11  25  42  67  95 133 178 226 282 340 409
#     4  10  23  44  68  93 131 171 223 284 350 428
#     4  11  23  36  58  93 130 166 217 264 326 407
#     4  10  23  43  67  95 127 168 222 285 356 429
#     4  12  21  41  62  86 132 178 210 271 333 400
#     4  11  22  42  65  95 130 171 219 279 351 413
#
# _framework density 20.326622
#
# number of rings (size 3 to 8) (size 9 to 14) (size 15 to 20)
#    0.000    1.167    4.167    1.250    5.833    1.333 
#    1.500    0.000    0.000    0.000    0.000    0.000 
#    0.000    0.000    0.000    0.000    0.000    0.000 
#
# Total GULP energy -133728.627539 kJ/mol
# GULP energy per Si atom -5572.026147 kJ/mol
# Density = 2.028036 g / cm^3
# Si number density = 20.326622 Si / 1000 Ang^3
#
#
#
# Elastic Constant Matrix: (Units=GPa)
#
#
# Indices 1 2 3 4 5 6 
#
# 1 60.8391 32.2491 9.1862 0.0000 -14.9293 0.0000
# 2 32.2491 85.5289 23.1314 0.0000 -3.2267 0.0000
# 3 9.1862 23.1314 73.8391 0.0000 -3.2190 0.0000
# 4 0.0000 0.0000 0.0000 16.8492 0.0000 -8.1159
# 5 -14.9293 -3.2267 -3.2190 0.0000 34.5593 0.0000
# 6 0.0000 0.0000 0.0000 -8.1159 0.0000 26.2771
#
#
#
# Elastic Compliance Matrix: (Units=1/GPa)
#
#
# Indices 1 2 3 4 5 6 
#
# 1 0.023140 -0.008420 0.000161 0.000000 0.009225 0.000000
# 2 -0.008420 0.015862 -0.004032 0.000000 -0.002532 0.000000
# 3 0.000161 -0.004032 0.014833 0.000000 0.001075 0.000000
# 4 0.000000 0.000000 0.000000 0.069723 0.000000 0.021535
# 5 0.009225 -0.002532 0.001075 0.000000 0.032785 0.000000
# 6 0.000000 0.000000 0.000000 0.021535 0.000000 0.044707
#
#
# Mechanical properties :
#
#
# Convention : Reuss Voigt Hill
#
# Bulk Modulus (GPa) = 34.18552 38.81560 36.50056
# Shear Modulus (GPa) = 21.24210 25.91314 23.57762
#
# Velocity S-wave (km/s) = 3.23621 3.57436 3.40948
# Velocity P-wave (km/s) = 5.55146 6.01433 5.78752
#
# Compressibility (1/GPa) = 0.02925215
#
# Stress axis : x y z
#
# Youngs Moduli (GPa) = 43.21594 63.04447 67.41822
#
# Poissons Ratio (x) = 0.53087 -0.01087
# Poissons Ratio (y) = 0.36390 0.27182
# Poissons Ratio (z) = -0.00697 0.25418
#
# Static dielectric constant tensor:
#      x y z
#    x 1.719090 0.000000 0.000940 
#    y 0.000000 2.041810 0.000000 
#    z 0.000940 0.000000 1.860090 
# 
# From -- ./inp_files/28180.got.cif
#   From: 2010.05.17/outbox.cif.g08.bks.cpg/sg12_15_cif.got.tgz:28180.got - 2010.06.03 13:09:07.
