data_PCOD9217183
_publ_section_title
;
Structure prediction by ZEFSAII (Michael W. Deem and Ramdas Pophale) SiO2 
 PCOD9217183
Probable space group: C 2/M
;
_chemical_formula_sum "Si O2"
_cell_formula_units_Z 64
_cell_length_a 15.382903
_cell_length_b 17.829088
_cell_length_c 21.826303
_cell_angle_alpha 90.000000
_cell_angle_beta 150.111718
_cell_angle_gamma 90.000000
_cell_volume 2982.961104
_symmetry_space_group_name_H-M "C 2/M"
_symmetry_group_IT_number 12
_symmetry_cell_setting 'monoclinic'
loop_
_space_group_symop_operation_xyz
x,y,z
-x,y,-z
-x,-y,-z
x,-y,z
1/2+x,1/2+y,z
1/2-x,1/2+y,-z
1/2-x,1/2-y,-z
1/2+x,1/2-y,z
loop_
_atom_site_type_symbol
_atom_site_label
_atom_site_fract_x
_atom_site_fract_y
_atom_site_fract_z
Si Si1 0.723187 0.806924 0.039136
Si Si2 0.444018 0.587588 0.749829
Si Si3 0.821221 0.676408 0.328322
Si Si4 0.635947 0.085210 0.478864
Si Si5 0.306518 0.326184 0.888371
Si Si6 0.074891 0.588321 0.115807
Si Si7 0.685889 0.651138 0.643400
Si Si8 0.023445 0.587394 0.269718
O O1 0.682838 0.753964 0.072165
O O2 0.890885 0.858734 0.150553
O O3 0.750000 0.750000 0.000000
O O4 0.563430 0.862467 0.931355
O O5 0.487831 0.500000 0.786705
O O6 0.309990 0.618998 0.718755
O O7 0.335081 0.594023 0.620356
O O8 0.761534 0.683381 0.221617
O O9 0.812595 0.758762 0.351366
O O10 0.014887 0.642619 0.441600
O O11 0.602258 0.093658 0.386585
O O12 0.583465 0.000000 0.464080
O O13 0.166497 0.374384 0.841043
O O14 0.500000 0.359750 0.000000
O O15 0.069117 0.500000 0.124972
O O16 0.260208 0.618222 0.256176
O O17 0.000000 0.596343 0.000000
O O18 0.500000 0.627723 0.500000
O O19 0.837073 0.624527 0.689743
O O20 0.003904 0.500000 0.242479
#
# Coordination Sequence:
#
# PCOD9217183 Si02
#       8
#     8   8   8   8   8   8   8   8
#     4  12  24  41  63  90 125 162 208 265 325 388
#     4  11  22  38  64  93 123 166 217 266 321 389
#     4  11  22  38  61  93 130 167 213 267 327 387
#     4   9  20  39  62  90 127 168 213 269 323 377
#     4  11  23  41  66  91 123 169 216 270 326 384
#     4  11  25  45  66  89 123 167 214 264 316 377
#     4  12  25  42  67 100 135 175 218 264 327 396
#     4  10  23  42  63  93 132 170 213 267 325 385
#
# _framework density 21.455190999999999
#
# number of rings (size 3 to 8) (size 9 to 14) (size 15 to 20)
#    0.000    1.125    0.000    7.125    0.000    4.750 
#    0.000    8.750    0.000    0.000    0.000    0.000 
#    0.000    0.000    0.000    0.000    0.000    0.000 
#
# Total GULP energy -178898.798835 kJ/mol
# GULP energy per Si atom -5590.587464 kJ/mol
# Density = 2.140636 g / cm^3
# Si number density = 21.455191 Si / 1000 Ang^3
#
#
#
# Elastic Constant Matrix: (Units=GPa)
#
#
# Indices 1 2 3 4 5 6 
#
# 1 73.9357 43.1797 51.0591 -0.0010 8.7932 -0.0010
# 2 43.1797 146.9802 68.8558 0.0021 6.6588 0.0010
# 3 51.0591 68.8558 150.8382 0.0022 6.5794 0.0053
# 4 -0.0010 0.0021 0.0022 25.5032 0.0021 24.1699
# 5 8.7932 6.6588 6.5794 0.0021 32.2258 -0.0005
# 6 -0.0010 0.0010 0.0053 24.1699 -0.0005 -19.9520
#
#
#
# Elastic Compliance Matrix: (Units=1/GPa)
#
#
# Indices 1 2 3 4 5 6 
#
# 1 0.019184 -0.003186 -0.004883 0.000002 -0.003579 0.000000
# 2 -0.003186 0.009215 -0.003111 0.000000 -0.000400 0.000000
# 3 -0.004883 -0.003111 0.009703 -0.000002 -0.000006 0.000001
# 4 0.000002 0.000000 -0.000002 0.018254 -0.000001 0.022113
# 5 -0.003579 -0.000400 -0.000006 -0.000001 0.032091 -0.000002
# 6 0.000000 0.000000 0.000001 0.022113 -0.000002 -0.023333
#
#
# Mechanical properties :
#
#
# Convention : Reuss Voigt Hill
#
# Bulk Modulus (GPa) = 63.52471 77.54924 70.53698
# Shear Modulus (GPa) = 53.92481 21.46604 37.69543
#
# Velocity S-wave (km/s) = 5.01879 3.16651 4.19613
# Velocity P-wave (km/s) = 7.95341 7.04218 7.51162
#
# Compressibility (1/GPa) = 0.01574190
#
# Stress axis : x y z
#
# Youngs Moduli (GPa) = 52.12675 108.51939 103.06249
#
# Poissons Ratio (x) = 0.34574 0.50329
# Poissons Ratio (y) = 0.16608 0.32059
# Poissons Ratio (z) = 0.25455 0.33756
#
# Static dielectric constant tensor:
#      x y z
#    x 1.805500 0.000000 -0.043230 
#    y 0.000000 1.735120 0.000000 
#    z -0.043230 0.000000 1.839510 
# 
# From -- ./inp_files/340850.got.cif
#   From: 2010.05.17/outbox.cif.g08.bks.cpg/sg12_171_cif.got.tgz:340850.got - 2010.06.03 13:09:07.
