data_PCOD9217226
_publ_section_title
;
Structure prediction by ZEFSAII (Michael W. Deem and Ramdas Pophale) SiO2 
 PCOD9217226
Probable space group: C 2/M
;
_chemical_formula_sum "Si O2"
_cell_formula_units_Z 56
_cell_length_a 16.379715
_cell_length_b 9.679920
_cell_length_c 18.109150
_cell_angle_alpha 90.000000
_cell_angle_beta 58.178956
_cell_angle_gamma 90.000000
_cell_volume 2439.727543
_symmetry_space_group_name_H-M "C 2/M"
_symmetry_group_IT_number 12
_symmetry_cell_setting 'monoclinic'
loop_
_space_group_symop_operation_xyz
x,y,z
-x,y,-z
-x,-y,-z
x,-y,z
1/2+x,1/2+y,z
1/2-x,1/2+y,-z
1/2-x,1/2-y,-z
1/2+x,1/2-y,z
loop_
_atom_site_type_symbol
_atom_site_label
_atom_site_fract_x
_atom_site_fract_y
_atom_site_fract_z
Si Si1 0.401862 0.336171 0.198894
Si Si2 0.418748 0.158720 0.889292
Si Si3 0.551127 0.840131 0.357822
Si Si4 0.632298 0.354345 0.550808
Si Si5 0.342141 0.655243 0.814744
Si Si6 0.880875 0.348829 0.081419
Si Si7 0.722797 0.785052 0.385239
O O1 0.414250 0.500000 0.203820
O O2 0.485664 0.234957 0.187682
O O3 0.406821 0.291189 0.111256
O O4 0.302129 0.289824 0.283366
O O5 0.340972 0.258440 0.890794
O O6 0.411541 0.000000 0.868695
O O7 0.406971 0.160735 0.983223
O O8 0.446107 0.768264 0.413991
O O9 0.605427 0.747206 0.271314
O O10 0.624075 0.840149 0.394110
O O11 0.539422 0.000000 0.341958
O O12 0.579621 0.500000 0.584936
O O13 0.685804 0.348523 0.446474
O O14 0.713099 0.348505 0.577059
O O15 0.382980 0.500000 0.802642
O O16 0.231188 0.640873 0.850100
O O17 0.918736 0.500000 0.092014
#
# Coordination Sequence:
#
# PCOD9217226 Si02
#       7
#     8   8   8   8   8   8   8
#     4  12  24  41  67  96 130 175 225 277 337 406
#     4  11  24  42  64  94 133 175 222 278 340 405
#     4  12  25  45  72 103 140 185 230 281 346 416
#     4  11  26  47  73 105 139 180 230 286 345 411
#     4  11  23  41  66  96 131 173 224 279 335 402
#     4  10  23  42  64  93 131 174 221 277 338 403
#     4  11  26  46  71 100 139 181 227 281 342 413
#
# _framework density 22.953382000000001
#
# number of rings (size 3 to 8) (size 9 to 14) (size 15 to 20)
#    0.000    0.857    1.429    5.143    0.000   10.286 
#    0.000    0.000    0.000    0.000    0.000    0.000 
#    0.000    0.000    0.000    0.000    0.000    0.000 
#
# Total GULP energy -155982.792833 kJ/mol
# GULP energy per Si atom -5570.814030 kJ/mol
# Density = 2.290114 g / cm^3
# Si number density = 22.953382 Si / 1000 Ang^3
#
#
#
# Elastic Constant Matrix: (Units=GPa)
#
#
# Indices 1 2 3 4 5 6 
#
# 1 74.0367 63.7683 17.2699 0.0000 8.4210 0.0000
# 2 63.7683 190.8633 76.7054 0.0000 -4.6539 0.0000
# 3 17.2699 76.7054 82.7599 0.0000 6.9247 0.0000
# 4 0.0000 0.0000 0.0000 68.2159 0.0000 4.5022
# 5 8.4210 -4.6539 6.9247 0.0000 32.5867 0.0000
# 6 0.0000 0.0000 0.0000 4.5022 0.0000 19.5003
#
#
#
# Elastic Compliance Matrix: (Units=1/GPa)
#
#
# Indices 1 2 3 4 5 6 
#
# 1 0.021187 -0.009169 0.004729 0.000000 -0.007790 0.000000
# 2 -0.009169 0.012593 -0.010290 0.000000 0.006355 0.000000
# 3 0.004729 -0.010290 0.021237 0.000000 -0.007204 0.000000
# 4 0.000000 0.000000 0.000000 0.014886 0.000000 -0.003437
# 5 -0.007790 0.006355 -0.007204 0.000000 0.035139 0.000000
# 6 0.000000 0.000000 0.000000 -0.003437 0.000000 0.052075
#
#
# Mechanical properties :
#
#
# Convention : Reuss Voigt Hill
#
# Bulk Modulus (GPa) = 39.12980 73.68301 56.40640
# Shear Modulus (GPa) = 25.62830 36.72166 31.17498
#
# Velocity S-wave (km/s) = 3.34509 4.00413 3.68936
# Velocity P-wave (km/s) = 5.65721 7.31767 6.54035
#
# Compressibility (1/GPa) = 0.02555597
#
# Stress axis : x y z
#
# Youngs Moduli (GPa) = 47.19837 79.40720 47.08824
#
# Poissons Ratio (x) = 0.72810 -0.22268
# Poissons Ratio (y) = 0.43277 0.48456
# Poissons Ratio (z) = -0.22320 0.81713
#
# Static dielectric constant tensor:
#      x y z
#    x 2.050190 0.000000 0.022810 
#    y 0.000000 1.846870 0.000000 
#    z 0.022810 0.000000 1.841160 
# 
# From -- ./inp_files/313670.got.cif
#   From: 2010.05.17/outbox.cif.g08.bks.cpg/sg12_157_cif.got.tgz:313670.got - 2010.06.03 13:09:07.
