data_PCOD9217958
_publ_section_title
;
Structure prediction by ZEFSAII (Michael W. Deem and Ramdas Pophale) SiO2 
 PCOD9217958
Probable space group: C 2/M
;
_chemical_formula_sum "Si O2"
_cell_formula_units_Z 40
_cell_length_a 8.461076
_cell_length_b 15.026948
_cell_length_c 19.821359
_cell_angle_alpha 90.000000
_cell_angle_beta 45.825947
_cell_angle_gamma 90.000000
_cell_volume 1807.531959
_symmetry_space_group_name_H-M "C 2/M"
_symmetry_group_IT_number 12
_symmetry_cell_setting 'monoclinic'
loop_
_space_group_symop_operation_xyz
x,y,z
-x,y,-z
-x,-y,-z
x,-y,z
1/2+x,1/2+y,z
1/2-x,1/2+y,-z
1/2-x,1/2-y,-z
1/2+x,1/2-y,z
loop_
_atom_site_type_symbol
_atom_site_label
_atom_site_fract_x
_atom_site_fract_y
_atom_site_fract_z
Si Si1 0.477698 0.171046 0.368438
Si Si2 0.792140 0.191578 0.793281
Si Si3 0.500000 0.728292 0.500000
Si Si4 0.649553 0.000000 0.090886
Si Si5 0.210780 0.500000 0.233618
Si Si6 0.159030 0.000000 0.171421
Si Si7 0.300637 0.193004 0.919709
O O1 0.547700 0.251200 0.298861
O O2 0.530448 0.206599 0.427193
O O3 0.213867 0.166313 0.444017
O O4 0.608565 0.085766 0.302098
O O5 0.558991 0.179141 0.826454
O O6 0.724507 0.249226 0.879106
O O7 0.890250 0.095850 0.781627
O O8 0.772309 0.092909 0.042284
O O9 0.628847 0.000000 0.179768
O O10 0.432017 0.000000 0.104318
O O11 0.480190 0.500000 0.162331
O O12 0.250000 0.250000 0.000000
#
# Coordination Sequence:
#
# PCOD9217958 Si02
#       7
#     8   8   4   4   4   4   8
#     4  11  23  42  67  95 137 175 226 277 347 411
#     4  11  22  42  66  94 132 182 221 274 343 408
#     4  10  24  42  62 100 134 172 220 294 336 404
#     4  10  24  43  67 103 135 181 230 278 338 403
#     4  12  22  42  72 101 131 183 230 273 338 426
#     4  10  24  39  66 101 128 172 238 268 329 410
#     4  11  23  41  65  98 135 174 228 284 332 396
#
# _framework density 22.129624
#
# number of rings (size 3 to 8) (size 9 to 14) (size 15 to 20)
#    0.000    1.200    2.000    4.200    2.800    1.600 
#    0.000   10.000    0.000    0.000    0.000    0.000 
#    0.000    0.000    0.000    0.000    0.000    0.000 
#
# Total GULP energy -111510.965523 kJ/mol
# GULP energy per Si atom -5575.548276 kJ/mol
# Density = 2.207926 g / cm^3
# Si number density = 22.129624 Si / 1000 Ang^3
#
#
#
# Elastic Constant Matrix: (Units=GPa)
#
#
# Indices 1 2 3 4 5 6 
#
# 1 129.3346 24.7488 38.1404 0.0017 -10.3982 0.0001
# 2 24.7488 193.5469 39.7738 0.0002 14.2515 0.0001
# 3 38.1404 39.7738 81.9183 0.0016 18.7833 0.0004
# 4 0.0017 0.0002 0.0016 15.0432 -0.0024 -20.0161
# 5 -10.3982 14.2515 18.7833 -0.0024 46.5714 -0.0002
# 6 0.0001 0.0001 0.0004 -20.0161 -0.0002 8.0212
#
#
#
# Elastic Compliance Matrix: (Units=1/GPa)
#
#
# Indices 1 2 3 4 5 6 
#
# 1 0.009758 -0.000481 -0.005336 0.000000 0.004478 0.000000
# 2 -0.000481 0.005784 -0.002373 0.000000 -0.000920 0.000000
# 3 -0.005336 -0.002373 0.017576 0.000002 -0.007554 0.000003
# 4 0.000000 0.000000 0.000002 -0.028649 -0.000002 -0.071491
# 5 0.004478 -0.000920 -0.007554 -0.000002 0.025801 -0.000005
# 6 0.000000 0.000000 0.000003 -0.071491 -0.000005 -0.053729
#
#
# Mechanical properties :
#
#
# Convention : Reuss Voigt Hill
#
# Bulk Modulus (GPa) = 59.74964 67.79174 63.77069
# Shear Modulus (GPa) = -3331.96587 34.06960 -1648.94813
#
# Velocity S-wave (km/s) = -38.84491 3.92796 -27.32671
# Velocity P-wave (km/s) = 44.55159 7.16047 31.09318
#
# Compressibility (1/GPa) = 0.01673650
#
# Stress axis : x y z
#
# Youngs Moduli (GPa) = 102.48424 172.90123 56.89485
#
# Poissons Ratio (x) = 0.08313 0.30361
# Poissons Ratio (y) = 0.04928 0.13503
# Poissons Ratio (z) = 0.54690 0.41035
#
# Static dielectric constant tensor:
#      x y z
#    x 1.926900 0.000000 -0.036990 
#    y 0.000000 1.836980 0.000000 
#    z -0.036990 0.000000 1.799860 
# 
# From -- ./inp_files/299721.got.cif
#   From: 2010.05.17/outbox.cif.g08.bks.cpg/sg12_150_cif.got.tgz:299721.got - 2010.06.03 13:09:07.
