data_PCOD9217655
_publ_section_title
;
Structure prediction by ZEFSAII (Michael W. Deem and Ramdas Pophale) SiO2 
 PCOD9217655
Probable space group: C 2/M
;
_chemical_formula_sum "Si O2"
_cell_formula_units_Z 52
_cell_length_a 22.144953
_cell_length_b 23.668990
_cell_length_c 5.294574
_cell_angle_alpha 90.000000
_cell_angle_beta 52.609836
_cell_angle_gamma 90.000000
_cell_volume 2204.904237
_symmetry_space_group_name_H-M "C 2/M"
_symmetry_group_IT_number 12
_symmetry_cell_setting 'monoclinic'
loop_
_space_group_symop_operation_xyz
x,y,z
-x,y,-z
-x,-y,-z
x,-y,z
1/2+x,1/2+y,z
1/2-x,1/2+y,-z
1/2-x,1/2-y,-z
1/2+x,1/2-y,z
loop_
_atom_site_type_symbol
_atom_site_label
_atom_site_fract_x
_atom_site_fract_y
_atom_site_fract_z
Si Si1 0.664097 0.094571 0.976630
Si Si2 0.736094 0.500000 0.033922
Si Si3 0.832672 0.211021 0.012605
Si Si4 0.549653 0.383659 0.117907
Si Si5 0.949248 0.500000 0.882678
Si Si6 0.317996 0.184572 0.429448
Si Si7 0.076600 0.302697 0.458521
Si Si8 0.136344 0.000000 0.789847
O O1 0.712893 0.055426 0.038409
O O2 0.710375 0.130301 0.653798
O O3 0.615575 0.143404 0.229540
O O4 0.605910 0.053441 0.984780
O O5 0.700753 0.500000 0.845692
O O6 0.672788 0.500000 0.417469
O O7 0.746151 0.191076 0.189399
O O8 0.822265 0.260855 0.242507
O O9 0.884407 0.161350 0.988952
O O10 0.877980 0.243121 0.677798
O O11 0.500000 0.388303 0.500000
O O12 0.586401 0.444060 0.957918
O O13 0.500000 0.365679 0.000000
O O14 0.000000 0.500000 0.500000
O O15 0.000000 0.500000 0.000000
O O16 0.405365 0.179600 0.300447
O O17 0.000000 0.293447 0.500000
#
# Coordination Sequence:
#
# PCOD9217655 Si02
#       8
#     8   4   8   8   4   8   8   4
#     4  10  25  40  66  99 135 184 236 289 347 412
#     4  11  26  45  74 107 136 191 238 294 351 430
#     4  10  24  42  67 103 134 192 230 291 346 425
#     4  12  27  46  75 107 145 184 234 294 359 426
#     4  11  26  43  66  95 138 181 232 282 349 410
#     4  10  23  44  67  97 143 178 243 287 349 417
#     4  11  24  40  68  99 142 183 232 291 356 416
#     4  12  26  50  76 104 144 182 236 296 361 419
#
# _framework density 23.58379
#
# number of rings (size 3 to 8) (size 9 to 14) (size 15 to 20)
#    0.000    1.231    0.000    3.692   12.923    2.462 
#    0.000    0.000    0.000    0.000    0.000    0.000 
#    0.000    0.000    0.000    0.000    0.000    0.000 
#
# Total GULP energy -145288.776345 kJ/mol
# GULP energy per Si atom -5588.029859 kJ/mol
# Density = 2.353011 g / cm^3
# Si number density = 23.583790 Si / 1000 Ang^3
#
#
#
# Elastic Constant Matrix: (Units=GPa)
#
#
# Indices 1 2 3 4 5 6 
#
# 1 107.8623 1.4940 -17.5913 0.0000 -0.3960 0.0000
# 2 1.4940 121.3915 -2.4798 0.0000 -12.7347 0.0000
# 3 -17.5913 -2.4798 39.0307 0.0000 0.8239 0.0000
# 4 0.0000 0.0000 0.0000 -52.5883 0.0000 -0.5863
# 5 -0.3960 -12.7347 0.8239 0.0000 31.7677 0.0000
# 6 0.0000 0.0000 0.0000 -0.5863 0.0000 19.7662
#
#
#
# Elastic Compliance Matrix: (Units=1/GPa)
#
#
# Indices 1 2 3 4 5 6 
#
# 1 0.010007 -0.000032 0.004508 0.000000 -0.000005 0.000000
# 2 -0.000032 0.008608 0.000460 0.000000 0.003438 0.000000
# 3 0.004508 0.000460 0.027692 0.000000 -0.000478 0.000000
# 4 0.000000 0.000000 0.000000 -0.019009 0.000000 -0.000564
# 5 -0.000005 0.003438 -0.000478 0.000000 0.032869 0.000000
# 6 0.000000 0.000000 0.000000 -0.000564 0.000000 0.050575
#
#
# Mechanical properties :
#
#
# Convention : Reuss Voigt Hill
#
# Bulk Modulus (GPa) = 17.79978 25.68115 21.74047
# Shear Modulus (GPa) = 41.80775 18.91322 30.36048
#
# Velocity S-wave (km/s) = 4.21495 2.83496 3.59185
# Velocity P-wave (km/s) = 5.59031 4.65069 5.14201
#
# Compressibility (1/GPa) = 0.05618046
#
# Stress axis : x y z
#
# Youngs Moduli (GPa) = 99.93267 116.16675 36.11152
#
# Poissons Ratio (x) = 0.00367 -0.16280
# Poissons Ratio (y) = 0.00315 -0.01662
# Poissons Ratio (z) = -0.45051 -0.05345
#
# Static dielectric constant tensor:
#      x y z
#    x 1.970690 0.000000 0.069310 
#    y 0.000000 1.855340 0.000000 
#    z 0.069310 0.000000 2.106040 
# 
# From -- ./inp_files/21833.got.cif
#   From: 2010.05.17/outbox.cif.g08.bks.cpg/sg12_11_cif.got.tgz:21833.got - 2010.06.03 13:09:07.
