data_PCOD9217087
_publ_section_title
;
Structure prediction by ZEFSAII (Michael W. Deem and Ramdas Pophale) SiO2 
 PCOD9217087
Probable space group: C 2/M
;
_chemical_formula_sum "Si O2"
_cell_formula_units_Z 40
_cell_length_a 24.998299
_cell_length_b 16.913279
_cell_length_c 9.845129
_cell_angle_alpha 90.000000
_cell_angle_beta 29.291313
_cell_angle_gamma 90.000000
_cell_volume 2036.529555
_symmetry_space_group_name_H-M "C 2/M"
_symmetry_group_IT_number 12
_symmetry_cell_setting 'monoclinic'
loop_
_space_group_symop_operation_xyz
x,y,z
-x,y,-z
-x,-y,-z
x,-y,z
1/2+x,1/2+y,z
1/2-x,1/2+y,-z
1/2-x,1/2-y,-z
1/2+x,1/2-y,z
loop_
_atom_site_type_symbol
_atom_site_label
_atom_site_fract_x
_atom_site_fract_y
_atom_site_fract_z
Si Si1 0.238047 0.160460 0.082234
Si Si2 0.424298 0.086615 0.800438
Si Si3 0.777699 0.093356 0.170513
Si Si4 0.003840 0.188179 0.650873
Si Si5 0.054496 0.336218 0.733978
O O1 0.117596 0.140631 0.401864
O O2 0.250000 0.250000 0.000000
O O3 0.327818 0.149163 0.998573
O O4 0.257676 0.104828 0.908950
O O5 0.500000 0.095364 0.500000
O O6 0.495092 0.096105 0.777894
O O7 0.373711 0.000000 0.908255
O O8 0.681944 0.140207 0.461376
O O9 0.783706 0.000000 0.189877
O O10 0.895016 0.137886 0.922542
O O11 0.000000 0.214518 0.500000
O O12 0.028227 0.259920 0.698667
O O13 0.000000 0.326804 0.000000
#
# Coordination Sequence:
#
# PCOD9217087 Si02
#       5
#     8   8   8   8   8
#     4  11  19  37  65  92 126 160 205 258 313 371
#     4  11  21  36  61  90 121 156 202 260 311 359
#     4  11  23  40  65  98 130 161 205 266 320 371
#     4  10  23  41  67  92 125 165 210 258 313 373
#     4  12  25  41  65  90 127 170 216 254 311 373
#
# _framework density 19.641257
#
# number of rings (size 3 to 8) (size 9 to 14) (size 15 to 20)
#    0.000    1.000    4.000    4.200    0.000    6.800 
#    0.000    0.000    0.000    0.600    0.000    0.000 
#    0.000    0.000    0.000    0.000    0.000    0.000 
#
# Total GULP energy -111620.111139 kJ/mol
# GULP energy per Si atom -5581.005557 kJ/mol
# Density = 1.959655 g / cm^3
# Si number density = 19.641257 Si / 1000 Ang^3
#
#
#
# Elastic Constant Matrix: (Units=GPa)
#
#
# Indices 1 2 3 4 5 6 
#
# 1 58.7443 22.7206 55.0682 0.0000 -5.0280 0.0000
# 2 22.7206 100.9676 47.0493 0.0000 -4.6455 0.0000
# 3 55.0682 47.0493 161.6934 0.0000 -12.9103 0.0000
# 4 0.0000 0.0000 0.0000 15.1365 0.0000 -9.8543
# 5 -5.0280 -4.6455 -12.9103 0.0000 43.7782 0.0000
# 6 0.0000 0.0000 0.0000 -9.8543 0.0000 -1.3424
#
#
#
# Elastic Compliance Matrix: (Units=1/GPa)
#
#
# Indices 1 2 3 4 5 6 
#
# 1 0.025337 -0.001941 -0.008038 0.000000 0.000334 0.000000
# 2 -0.001941 0.011609 -0.002700 0.000000 0.000213 0.000000
# 3 -0.008038 -0.002700 0.009843 0.000000 0.001693 0.000000
# 4 0.000000 0.000000 0.000000 0.011432 0.000000 -0.083919
# 5 0.000334 0.000213 0.001693 0.000000 0.023403 0.000000
# 6 0.000000 0.000000 0.000000 -0.083919 0.000000 -0.128903
#
#
# Mechanical properties :
#
#
# Convention : Reuss Voigt Hill
#
# Bulk Modulus (GPa) = 46.65998 63.45350 55.05674
# Shear Modulus (GPa) = -338.31549 24.61893 -156.84828
#
# Velocity S-wave (km/s) = -13.13854 3.54422 -8.94594
# Velocity P-wave (km/s) = 14.36503 7.00893 8.86648
#
# Compressibility (1/GPa) = 0.02143164
#
# Stress axis : x y z
#
# Youngs Moduli (GPa) = 39.46837 86.14137 101.59770
#
# Poissons Ratio (x) = 0.16718 0.81660
# Poissons Ratio (y) = 0.07660 0.27431
# Poissons Ratio (z) = 0.31723 0.23258
#
# Static dielectric constant tensor:
#      x y z
#    x 1.681910 0.000000 -0.049890 
#    y 0.000000 1.747640 0.000000 
#    z -0.049890 0.000000 1.719590 
# 
# From -- ./inp_files/47149.got.cif
#   From: 2010.05.17/outbox.cif.g08.bks.cpg/sg12_24_cif.got.tgz:47149.got - 2010.06.03 13:09:07.
