data_PCOD9217557
_publ_section_title
;
Structure prediction by ZEFSAII (Michael W. Deem and Ramdas Pophale) SiO2 
 PCOD9217557
Probable space group: C 2/M
;
_chemical_formula_sum "Si O2"
_cell_formula_units_Z 48
_cell_length_a 16.285605
_cell_length_b 27.354329
_cell_length_c 9.001264
_cell_angle_alpha 90.000000
_cell_angle_beta 35.537526
_cell_angle_gamma 90.000000
_cell_volume 2330.697960
_symmetry_space_group_name_H-M "C 2/M"
_symmetry_group_IT_number 12
_symmetry_cell_setting 'monoclinic'
loop_
_space_group_symop_operation_xyz
x,y,z
-x,y,-z
-x,-y,-z
x,-y,z
1/2+x,1/2+y,z
1/2-x,1/2+y,-z
1/2-x,1/2-y,-z
1/2+x,1/2-y,z
loop_
_atom_site_type_symbol
_atom_site_label
_atom_site_fract_x
_atom_site_fract_y
_atom_site_fract_z
Si Si1 0.248998 0.152114 0.222307
Si Si2 0.662640 0.556312 0.811820
Si Si3 0.726110 0.349506 0.901222
Si Si4 0.522606 0.280979 0.723817
Si Si5 0.000000 0.709207 0.500000
Si Si6 0.500000 0.209861 0.000000
Si Si7 0.669775 0.055995 0.741496
O O1 0.132176 0.184182 0.479118
O O2 0.395373 0.176791 0.058149
O O3 0.254671 0.096591 0.270469
O O4 0.225739 0.152308 0.080768
O O5 0.673323 0.500000 0.848135
O O6 0.704755 0.596453 0.870378
O O7 0.767164 0.562008 0.516927
O O8 0.500000 0.564104 0.000000
O O9 0.872135 0.324827 0.637136
O O10 0.599510 0.315291 0.032071
O O11 0.456223 0.244951 0.697739
O O12 0.579453 0.245635 0.768221
O O13 0.699513 0.000000 0.743486
O O14 0.500000 0.062751 0.000000
#
# Coordination Sequence:
#
# PCOD9217557 Si02
#       7
#     8   8   8   8   4   4   8
#     4  12  24  43  67  98 134 173 224 276 335 400
#     4  10  24  47  73 102 133 171 223 280 338 404
#     4  12  26  42  68  98 131 179 220 277 335 395
#     4  12  25  44  63  94 135 177 224 274 330 395
#     4  12  24  44  63  90 143 174 216 276 330 396
#     4  12  26  40  63 100 127 184 220 272 330 396
#     4  10  23  43  68  97 133 172 217 275 336 399
#
# _framework density 20.594688000000001
#
# number of rings (size 3 to 8) (size 9 to 14) (size 15 to 20)
#    0.000    0.667    4.167    3.000    8.167    0.667 
#    0.000    0.417    0.000    5.000    0.000    0.000 
#    0.000    0.000    0.000    0.000    0.000    0.000 
#
# Total GULP energy -134221.165578 kJ/mol
# GULP energy per Si atom -5592.548566 kJ/mol
# Density = 2.054781 g / cm^3
# Si number density = 20.594688 Si / 1000 Ang^3
#
#
#
# Elastic Constant Matrix: (Units=GPa)
#
#
# Indices 1 2 3 4 5 6 
#
# 1 57.1531 58.8648 20.0488 0.0000 4.6056 0.0000
# 2 58.8648 156.4434 43.1578 0.0000 3.0698 0.0000
# 3 20.0488 43.1578 96.9422 0.0000 -13.7033 0.0000
# 4 0.0000 0.0000 0.0000 29.5267 0.0000 5.7027
# 5 4.6056 3.0698 -13.7033 0.0000 29.6972 0.0000
# 6 0.0000 0.0000 0.0000 5.7027 0.0000 50.6495
#
#
#
# Elastic Compliance Matrix: (Units=1/GPa)
#
#
# Indices 1 2 3 4 5 6 
#
# 1 0.029228 -0.010341 -0.002065 0.000000 -0.004417 0.000000
# 2 -0.010341 0.011110 -0.002935 0.000000 -0.000899 0.000000
# 3 -0.002065 -0.002935 0.012984 0.000000 0.006615 0.000000
# 4 0.000000 0.000000 0.000000 0.034621 0.000000 -0.003898
# 5 -0.004417 -0.000899 0.006615 0.000000 0.037503 0.000000
# 6 0.000000 0.000000 0.000000 -0.003898 0.000000 0.020182
#
#
# Mechanical properties :
#
#
# Convention : Reuss Voigt Hill
#
# Bulk Modulus (GPa) = 44.16875 61.63127 52.90001
# Shear Modulus (GPa) = 27.19486 34.53917 30.86701
#
# Velocity S-wave (km/s) = 3.63778 4.09967 3.87561
# Velocity P-wave (km/s) = 6.25602 7.23882 6.76529
#
# Compressibility (1/GPa) = 0.02264044
#
# Stress axis : x y z
#
# Youngs Moduli (GPa) = 34.21343 90.00575 77.01756
#
# Poissons Ratio (x) = 0.93078 0.15906
# Poissons Ratio (y) = 0.35381 0.22602
# Poissons Ratio (z) = 0.07066 0.26413
#
# Static dielectric constant tensor:
#      x y z
#    x 1.720210 0.000000 -0.005110 
#    y 0.000000 1.713350 0.000000 
#    z -0.005110 0.000000 1.762820 
# 
# From -- ./inp_files/67367.got.cif
#   From: 2010.05.17/outbox.cif.g08.bks.cpg/sg12_34_cif.got.tgz:67367.got - 2010.06.03 13:09:07.
