data_PCOD9217252
_publ_section_title
;
Structure prediction by ZEFSAII (Michael W. Deem and Ramdas Pophale) SiO2 
 PCOD9217252
Probable space group: C 2/M
;
_chemical_formula_sum "Si O2"
_cell_formula_units_Z 56
_cell_length_a 15.357115
_cell_length_b 8.685203
_cell_length_c 23.536293
_cell_angle_alpha 90.000000
_cell_angle_beta 64.134778
_cell_angle_gamma 90.000000
_cell_volume 2824.780068
_symmetry_space_group_name_H-M "C 2/M"
_symmetry_group_IT_number 12
_symmetry_cell_setting 'monoclinic'
loop_
_space_group_symop_operation_xyz
x,y,z
-x,y,-z
-x,-y,-z
x,-y,z
1/2+x,1/2+y,z
1/2-x,1/2+y,-z
1/2-x,1/2-y,-z
1/2+x,1/2-y,z
loop_
_atom_site_type_symbol
_atom_site_label
_atom_site_fract_x
_atom_site_fract_y
_atom_site_fract_z
Si Si1 0.836507 0.682854 0.513774
Si Si2 0.237559 0.816458 0.067092
Si Si3 0.810034 0.817191 0.646481
Si Si4 0.977831 0.183584 0.386280
Si Si5 0.529891 0.181820 0.152202
Si Si6 0.424467 0.681968 0.073325
Si Si7 0.895878 0.182966 0.286407
O O1 0.825646 0.500000 0.523538
O O2 0.750000 0.750000 0.500000
O O3 0.831477 0.763086 0.576162
O O4 0.933141 0.724564 0.451621
O O5 0.132223 0.768215 0.119202
O O6 0.321998 0.746939 0.082018
O O7 0.246031 0.000000 0.062515
O O8 0.250000 0.750000 0.000000
O O9 0.908350 0.784484 0.652834
O O10 0.713967 0.732362 0.694538
O O11 0.792598 0.000000 0.652254
O O12 0.920291 0.220238 0.345130
O O13 0.967089 0.000000 0.400628
O O14 0.466903 0.231796 0.115611
O O15 0.469859 0.230883 0.224467
O O16 0.546984 0.000000 0.146229
O O17 0.417332 0.500000 0.087560
O O18 0.500000 0.701882 0.000000
O O19 0.907086 0.000000 0.276064
#
# Coordination Sequence:
#
# PCOD9217252 Si02
#       7
#     8   8   8   8   8   8   8
#     4  12  23  37  62  94 127 165 212 266 325 379
#     4  12  24  41  67  99 133 169 212 262 322 383
#     4  11  23  41  65  94 128 167 214 265 323 384
#     4  10  23  42  65  92 127 168 211 263 323 379
#     4  12  26  44  67  96 133 174 218 266 323 385
#     4  11  23  41  68  99 131 167 212 264 321 382
#     4  11  24  44  66  90 127 173 218 264 318 381
#
# _framework density 19.824553000000002
#
# number of rings (size 3 to 8) (size 9 to 14) (size 15 to 20)
#    0.000    0.714    2.857    5.571    0.000    5.143 
#    0.000    4.286    0.000    0.000    0.000    0.000 
#    0.000    0.000    0.000    0.000    0.000    0.000 
#
# Total GULP energy -156736.340905 kJ/mol
# GULP energy per Si atom -5597.726461 kJ/mol
# Density = 1.977943 g / cm^3
# Si number density = 19.824553 Si / 1000 Ang^3
#
#
#
# Elastic Constant Matrix: (Units=GPa)
#
#
# Indices 1 2 3 4 5 6 
#
# 1 90.0749 1.4073 -7.1132 0.0000 -19.7808 0.0000
# 2 1.4073 56.5363 1.6549 0.0000 0.6916 0.0000
# 3 -7.1132 1.6549 47.4284 0.0000 -16.4652 0.0000
# 4 0.0000 0.0000 0.0000 32.2849 0.0000 -3.8100
# 5 -19.7808 0.6916 -16.4652 0.0000 25.5101 0.0000
# 6 0.0000 0.0000 0.0000 -3.8100 0.0000 35.5690
#
#
#
# Elastic Compliance Matrix: (Units=1/GPa)
#
#
# Indices 1 2 3 4 5 6 
#
# 1 0.015667 -0.000855 0.008512 0.000000 0.017666 0.000000
# 2 -0.000855 0.017778 -0.001477 0.000000 -0.002099 0.000000
# 3 0.008512 -0.001477 0.031856 0.000000 0.027202 0.000000
# 4 0.000000 0.000000 0.000000 0.031371 0.000000 0.003360
# 5 0.017666 -0.002099 0.027202 0.000000 0.070512 0.000000
# 6 0.000000 0.000000 0.000000 0.003360 0.000000 0.028474
#
#
# Mechanical properties :
#
#
# Convention : Reuss Voigt Hill
#
# Bulk Modulus (GPa) = 12.87655 20.65974 16.76815
# Shear Modulus (GPa) = 23.90228 31.87882 27.89055
#
# Velocity S-wave (km/s) = 3.47607 4.01440 3.75489
# Velocity P-wave (km/s) = 4.75606 5.65076 5.22261
#
# Compressibility (1/GPa) = 0.07766053
#
# Stress axis : x y z
#
# Youngs Moduli (GPa) = 63.82890 56.24947 31.39138
#
# Poissons Ratio (x) = 0.04811 -0.26721
# Poissons Ratio (y) = 0.05459 0.04637
# Poissons Ratio (z) = -0.54333 0.08309
#
# Static dielectric constant tensor:
#      x y z
#    x 1.694730 0.000000 -0.013730 
#    y 0.000000 1.662630 0.000000 
#    z -0.013730 0.000000 1.669810 
# 
# From -- ./inp_files/338572.got.cif
#   From: 2010.05.17/outbox.cif.g08.bks.cpg/sg12_170_cif.got.tgz:338572.got - 2010.06.03 13:09:07.
