data_PCOD9217064
_publ_section_title
;
Structure prediction by ZEFSAII (Michael W. Deem and Ramdas Pophale) SiO2 
 PCOD9217064
Probable space group: C 2/M
;
_chemical_formula_sum "Si O2"
_cell_formula_units_Z 58
_cell_length_a 21.254548
_cell_length_b 17.404487
_cell_length_c 7.691209
_cell_angle_alpha 90.000000
_cell_angle_beta 72.420912
_cell_angle_gamma 90.000000
_cell_volume 2712.300137
_symmetry_space_group_name_H-M "C 2/M"
_symmetry_group_IT_number 12
_symmetry_cell_setting 'monoclinic'
loop_
_space_group_symop_operation_xyz
x,y,z
-x,y,-z
-x,-y,-z
x,-y,z
1/2+x,1/2+y,z
1/2-x,1/2+y,-z
1/2-x,1/2-y,-z
1/2+x,1/2-y,z
loop_
_atom_site_type_symbol
_atom_site_label
_atom_site_fract_x
_atom_site_fract_y
_atom_site_fract_z
Si Si1 0.611032 0.218478 0.256011
Si Si2 0.300599 0.088757 0.895913
Si Si3 0.275699 0.912115 0.510796
Si Si4 0.303792 0.359705 0.733273
Si Si5 0.922155 0.631520 0.362469
Si Si6 0.500000 0.000000 0.500000
Si Si7 0.478322 0.279168 0.200386
Si Si8 0.069380 0.083456 0.542270
O O1 0.638201 0.145923 0.125791
O O2 0.671446 0.277242 0.223448
O O3 0.591411 0.185034 0.458467
O O4 0.546371 0.261088 0.242988
O O5 0.275466 0.103851 0.718207
O O6 0.322642 0.000000 0.879030
O O7 0.244504 0.103411 0.084488
O O8 0.233116 0.858297 0.421890
O O9 0.351540 0.906326 0.385161
O O10 0.252669 0.000000 0.505022
O O11 0.370471 0.406906 0.641233
O O12 0.945324 0.695065 0.205521
O O13 0.973100 0.567531 0.386053
O O14 0.433153 0.341642 0.334001
O O15 0.500000 0.313157 0.000000
O O16 0.000000 0.083952 0.500000
O O17 0.075889 0.000000 0.625958
#
# Coordination Sequence:
#
# PCOD9217064 Si02
#       8
#     8   8   8   8   8   2   8   8
#     4  11  23  43  67  94 135 177 231 272 351 418
#     4  10  24  42  66 101 138 180 223 276 341 427
#     4  10  23  41  66 104 137 176 229 280 340 416
#     4  12  23  44  71  95 140 180 222 292 347 409
#     4  11  22  42  71 100 135 187 231 279 342 419
#     4  12  20  40  82  92 138 196 232 274 356 400
#     4  12  25  43  67 102 140 175 232 298 345 418
#     4  11  23  45  71  93 124 181 237 287 352 415
#
# _framework density 21.384063999999999
#
# number of rings (size 3 to 8) (size 9 to 14) (size 15 to 20)
#    0.000    0.966    4.828    1.655    2.897    3.586 
#    0.000    0.345    0.000    0.000    0.000    0.000 
#    0.000    0.000    0.000    0.000    0.000    0.000 
#
# Total GULP energy -161700.321765 kJ/mol
# GULP energy per Si atom -5575.873164 kJ/mol
# Density = 2.133539 g / cm^3
# Si number density = 21.384064 Si / 1000 Ang^3
#
#
#
# Elastic Constant Matrix: (Units=GPa)
#
#
# Indices 1 2 3 4 5 6 
#
# 1 62.1518 13.2066 8.2451 0.0000 -10.1332 0.0000
# 2 13.2066 132.8258 23.6303 0.0000 -6.4947 0.0000
# 3 8.2451 23.6303 73.4068 0.0000 -22.6997 0.0000
# 4 0.0000 0.0000 0.0000 4.8576 0.0000 2.9111
# 5 -10.1332 -6.4947 -22.6997 0.0000 22.1728 0.0000
# 6 0.0000 0.0000 0.0000 2.9111 0.0000 -38.4726
#
#
#
# Elastic Compliance Matrix: (Units=1/GPa)
#
#
# Indices 1 2 3 4 5 6 
#
# 1 0.017708 -0.001550 0.001276 0.000000 0.008945 0.000000
# 2 -0.001550 0.008125 -0.002816 0.000000 -0.001212 0.000000
# 3 0.001276 -0.002816 0.020940 0.000000 0.021196 0.000000
# 4 0.000000 0.000000 0.000000 0.196932 0.000000 0.014901
# 5 0.008945 -0.001212 0.021196 0.000000 0.070534 0.000000
# 6 0.000000 0.000000 0.000000 0.014901 0.000000 -0.024865
#
#
# Mechanical properties :
#
#
# Convention : Reuss Voigt Hill
#
# Bulk Modulus (GPa) = 24.63465 39.83870 32.23668
# Shear Modulus (GPa) = 16.17676 12.59839 14.38758
#
# Velocity S-wave (km/s) = 2.75341 2.42987 2.59669
# Velocity P-wave (km/s) = 4.65333 5.15198 4.90899
#
# Compressibility (1/GPa) = 0.04059322
#
# Stress axis : x y z
#
# Youngs Moduli (GPa) = 56.47097 123.08413 47.75448
#
# Poissons Ratio (x) = 0.19082 -0.06095
# Poissons Ratio (y) = 0.08755 0.13447
# Poissons Ratio (z) = -0.07207 0.34659
#
# Static dielectric constant tensor:
#      x y z
#    x 1.797280 0.000000 -0.002830 
#    y 0.000000 1.804830 0.000000 
#    z -0.002830 0.000000 1.773300 
# 
# From -- ./inp_files/87913.got.cif
#   From: 2010.05.17/outbox.cif.g08.bks.cpg/sg12_44_cif.got.tgz:87913.got - 2010.06.03 13:09:07.
