data_PCOD9217056
_publ_section_title
;
Structure prediction by ZEFSAII (Michael W. Deem and Ramdas Pophale) SiO2 
 PCOD9217056
Probable space group: C 2/M
;
_chemical_formula_sum "Si O2"
_cell_formula_units_Z 56
_cell_length_a 14.348667
_cell_length_b 14.777956
_cell_length_c 24.971784
_cell_angle_alpha 90.000000
_cell_angle_beta 31.148425
_cell_angle_gamma 90.000000
_cell_volume 2738.935079
_symmetry_space_group_name_H-M "C 2/M"
_symmetry_group_IT_number 12
_symmetry_cell_setting 'monoclinic'
loop_
_space_group_symop_operation_xyz
x,y,z
-x,y,-z
-x,-y,-z
x,-y,z
1/2+x,1/2+y,z
1/2-x,1/2+y,-z
1/2-x,1/2-y,-z
1/2+x,1/2-y,z
loop_
_atom_site_type_symbol
_atom_site_label
_atom_site_fract_x
_atom_site_fract_y
_atom_site_fract_z
Si Si1 0.530503 0.604992 0.728390
Si Si2 0.342184 0.767058 0.618938
Si Si3 0.646433 0.123376 0.969768
Si Si4 0.689619 0.900462 0.065670
Si Si5 0.592170 0.110221 0.706421
Si Si6 0.914775 0.734055 0.708233
Si Si7 0.509731 0.314593 0.939772
O O1 0.579719 0.500000 0.691227
O O2 0.683496 0.659248 0.686399
O O3 0.482770 0.671529 0.701429
O O4 0.345275 0.600532 0.853240
O O5 0.500000 0.789248 0.500000
O O6 0.263860 0.667693 0.641861
O O7 0.415324 0.766841 0.643719
O O8 0.595003 0.097424 0.055106
O O9 0.619428 0.230593 0.983083
O O10 0.500000 0.090149 0.000000
O O11 0.560712 0.860979 0.174528
O O12 0.722983 0.000000 0.069564
O O13 0.887203 0.861677 0.956172
O O14 0.527475 0.153857 0.681975
O O15 0.611547 0.000000 0.695917
O O16 0.705511 0.715695 0.826570
O O17 0.500000 0.370352 0.000000
#
# Coordination Sequence:
#
# PCOD9217056 Si02
#       7
#     8   8   8   8   8   8   8
#     4  11  24  42  64  97 130 164 216 265 313 379
#     4  11  26  47  69  90 123 169 216 271 331 376
#     4  11  21  37  58  89 128 172 202 241 299 376
#     4  11  22  34  55  89 130 165 204 250 298 369
#     4  10  23  41  65  97 128 163 212 266 318 379
#     4  11  22  43  65  94 130 168 213 265 315 377
#     4  11  18  35  59  87 121 170 203 240 301 369
#
# _framework density 20.445903000000001
#
# number of rings (size 3 to 8) (size 9 to 14) (size 15 to 20)
#    0.000    1.143    4.286    3.429    0.000    6.000 
#    0.000    1.429    0.000    0.000    0.000    0.000 
#    0.000    0.000    0.000    0.000    0.000    0.000 
#
# Total GULP energy -156006.226741 kJ/mol
# GULP energy per Si atom -5571.650955 kJ/mol
# Density = 2.039937 g / cm^3
# Si number density = 20.445903 Si / 1000 Ang^3
#
#
#
# Elastic Constant Matrix: (Units=GPa)
#
#
# Indices 1 2 3 4 5 6 
#
# 1 146.8472 41.5537 35.0520 0.0009 29.7377 0.0002
# 2 41.5537 82.3120 23.5163 0.0014 -3.9543 0.0006
# 3 35.0520 23.5163 60.5728 0.0032 20.1165 0.0008
# 4 0.0009 0.0014 0.0032 -78.3164 -0.0002 14.8301
# 5 29.7377 -3.9543 20.1165 -0.0002 28.1708 -0.0002
# 6 0.0002 0.0006 0.0008 14.8301 -0.0002 -17.8946
#
#
#
# Elastic Compliance Matrix: (Units=1/GPa)
#
#
# Indices 1 2 3 4 5 6 
#
# 1 0.011129 -0.006312 0.000270 0.000000 -0.012827 0.000000
# 2 -0.006312 0.018563 -0.008694 0.000000 0.015477 0.000000
# 3 0.000270 -0.008694 0.026516 0.000001 -0.020441 0.000002
# 4 0.000000 0.000000 0.000001 -0.015146 -0.000001 -0.012552
# 5 -0.012827 0.015477 -0.020441 -0.000001 0.065807 -0.000003
# 6 0.000000 0.000000 0.000002 -0.012552 -0.000003 -0.066285
#
#
# Mechanical properties :
#
#
# Convention : Reuss Voigt Hill
#
# Bulk Modulus (GPa) = 37.40140 54.44178 45.92159
# Shear Modulus (GPa) = 63.31740 -0.96737 31.17501
#
# Velocity S-wave (km/s) = 5.57095 -0.68860 3.90905
# Velocity P-wave (km/s) = 7.72743 5.10420 6.54851
#
# Compressibility (1/GPa) = 0.02673697
#
# Stress axis : x y z
#
# Youngs Moduli (GPa) = 89.85689 53.87201 37.71238
#
# Poissons Ratio (x) = 0.34002 -0.01019
# Poissons Ratio (y) = 0.56714 0.32787
# Poissons Ratio (z) = -0.02428 0.46837
#
# Static dielectric constant tensor:
#      x y z
#    x 1.837380 0.000000 0.001070 
#    y 0.000000 1.837440 0.000000 
#    z 0.001070 0.000000 1.704900 
# 
# From -- ./inp_files/340324.got.cif
#   From: 2010.05.17/outbox.cif.g08.bks.cpg/sg12_171_cif.got.tgz:340324.got - 2010.06.03 13:09:07.
