data_PCOD9217587
_publ_section_title
;
Structure prediction by ZEFSAII (Michael W. Deem and Ramdas Pophale) SiO2 
 PCOD9217587
Probable space group: C 2/M
;
_chemical_formula_sum "Si O2"
_cell_formula_units_Z 32
_cell_length_a 17.085187
_cell_length_b 10.872722
_cell_length_c 7.842323
_cell_angle_alpha 90.000000
_cell_angle_beta 89.999967
_cell_angle_gamma 90.000000
_cell_volume 1456.809437
_symmetry_space_group_name_H-M "C 2/M"
_symmetry_group_IT_number 12
_symmetry_cell_setting 'monoclinic'
loop_
_space_group_symop_operation_xyz
x,y,z
-x,y,-z
-x,-y,-z
x,-y,z
1/2+x,1/2+y,z
1/2-x,1/2+y,-z
1/2-x,1/2-y,-z
1/2+x,1/2-y,z
loop_
_atom_site_type_symbol
_atom_site_label
_atom_site_fract_x
_atom_site_fract_y
_atom_site_fract_z
Si Si1 0.836757 0.217479 0.941295
Si Si2 0.948262 0.363895 0.749999
Si Si3 0.064065 0.868050 0.750001
Si Si4 0.836757 0.782521 0.558704
O O1 0.881342 0.141209 0.083938
O O2 0.750000 0.250000 0.000000
O O3 0.890265 0.339131 0.909706
O O4 0.833964 0.162208 0.750000
O O5 0.981368 0.500000 0.749999
O O6 0.890266 0.339131 0.590292
O O7 0.007616 0.249682 0.750000
O O8 0.118658 0.858792 0.583940
O O9 0.022073 0.000000 0.750001
O O10 0.750000 0.750000 0.500000
#
# Coordination Sequence:
#
# PCOD9217587 Si02
#       4
#     8   8   8   8
#     4  10  23  43  71 102 140 179 230 290 352 411
#     4  10  25  47  71 103 141 186 237 286 346 420
#     4  12  25  45  71 105 143 182 233 288 350 418
#     4  10  23  43  71 102 140 179 230 290 352 411
#
# _framework density 21.965810000000001
#
# number of rings (size 3 to 8) (size 9 to 14) (size 15 to 20)
#    1.500    0.000    2.500    1.500    0.000   13.000 
#    0.000    0.000    0.000    0.000    0.000    0.000 
#    0.000    0.000    0.000    0.000    0.000    0.000 
#
# Total GULP energy -89218.507462 kJ/mol
# GULP energy per Si atom -5576.156716 kJ/mol
# Density = 2.191581 g / cm^3
# Si number density = 21.965810 Si / 1000 Ang^3
#
#
#
# Elastic Constant Matrix: (Units=GPa)
#
#
# Indices 1 2 3 4 5 6 
#
# 1 146.2776 75.5860 50.2990 0.0000 -1.3069 0.0000
# 2 75.5860 178.3537 41.3539 0.0000 -3.1499 0.0000
# 3 50.2990 41.3539 163.0735 0.0000 2.8527 0.0000
# 4 0.0000 0.0000 0.0000 12.5152 0.0000 -0.5154
# 5 -1.3069 -3.1499 2.8527 0.0000 41.2708 0.0000
# 6 0.0000 0.0000 0.0000 -0.5154 0.0000 18.1147
#
#
#
# Elastic Compliance Matrix: (Units=1/GPa)
#
#
# Indices 1 2 3 4 5 6 
#
# 1 0.009325 -0.003487 -0.001995 0.000000 0.000167 0.000000
# 2 -0.003487 0.007274 -0.000778 0.000000 0.000498 0.000000
# 3 -0.001995 -0.000778 0.006955 0.000000 -0.000603 0.000000
# 4 0.000000 0.000000 0.000000 0.079997 0.000000 0.002276
# 5 0.000167 0.000498 -0.000603 0.000000 0.024315 0.000000
# 6 0.000000 0.000000 0.000000 0.002276 0.000000 0.055269
#
#
# Mechanical properties :
#
#
# Convention : Reuss Voigt Hill
#
# Bulk Modulus (GPa) = 90.61757 91.35363 90.98560
# Shear Modulus (GPa) = 25.08373 35.74453 30.41413
#
# Velocity S-wave (km/s) = 3.38293 4.03833 3.72507
# Velocity P-wave (km/s) = 7.52346 7.96389 7.74680
#
# Compressibility (1/GPa) = 0.01103539
#
# Stress axis : x y z
#
# Youngs Moduli (GPa) = 107.23319 137.48366 143.77322
#
# Poissons Ratio (x) = 0.47935 0.28685
# Poissons Ratio (y) = 0.37388 0.11183
# Poissons Ratio (z) = 0.21395 0.10694
#
# Static dielectric constant tensor:
#      x y z
#    x 1.799630 0.000000 0.005310 
#    y 0.000000 1.809490 0.000000 
#    z 0.005310 0.000000 1.857390 
# 
# From -- ./inp_files/70358.got.cif
#   From: 2010.05.17/outbox.cif.g08.bks.cpg/sg12_36_cif.got.tgz:70358.got - 2010.06.03 13:09:07.
