data_PCOD9217545
_publ_section_title
;
Structure prediction by ZEFSAII (Michael W. Deem and Ramdas Pophale) SiO2 
 PCOD9217545
Probable space group: C 2/M
;
_chemical_formula_sum "Si O2"
_cell_formula_units_Z 32
_cell_length_a 13.739036
_cell_length_b 19.278110
_cell_length_c 6.172668
_cell_angle_alpha 90.000000
_cell_angle_beta 127.530646
_cell_angle_gamma 90.000000
_cell_volume 1296.528136
_symmetry_space_group_name_H-M "C 2/M"
_symmetry_group_IT_number 12
_symmetry_cell_setting 'monoclinic'
loop_
_space_group_symop_operation_xyz
x,y,z
-x,y,-z
-x,-y,-z
x,-y,z
1/2+x,1/2+y,z
1/2-x,1/2+y,-z
1/2-x,1/2-y,-z
1/2+x,1/2-y,z
loop_
_atom_site_type_symbol
_atom_site_label
_atom_site_fract_x
_atom_site_fract_y
_atom_site_fract_z
Si Si1 0.295713 0.656845 0.735717
Si Si2 0.953336 0.416964 0.690255
Si Si3 0.366908 0.424426 0.211797
Si Si4 0.138091 0.215308 0.603559
O O1 0.185784 0.609602 0.498747
O O2 0.223136 0.719030 0.757471
O O3 0.370961 0.700018 0.663145
O O4 0.375875 0.603439 0.981399
O O5 0.964580 0.500000 0.706336
O O6 0.000000 0.396849 0.500000
O O7 0.000000 0.394114 0.000000
O O8 0.500000 0.429313 0.500000
O O9 0.306342 0.500000 0.144346
O O10 0.305917 0.357728 0.238136
O O11 0.000000 0.224851 0.500000
#
# Coordination Sequence:
#
# PCOD9217545 Si02
#       4
#     8   8   8   8
#     4  11  23  44  72 101 140 193 236 304 376 438
#     4  10  23  43  71 111 151 193 248 307 374 452
#     4  10  23  43  68 100 139 183 237 293 358 441
#     4  10  24  45  69 101 139 181 245 303 365 442
#
# _framework density 24.681298999999999
#
# number of rings (size 3 to 8) (size 9 to 14) (size 15 to 20)
#    0.000    1.750    0.000    2.250    3.500    6.000 
#   18.000    6.250    0.000    0.000    0.000    0.000 
#    0.000    0.000    0.000    0.000    0.000    0.000 
#
# Total GULP energy -89102.282594 kJ/mol
# GULP energy per Si atom -5568.892662 kJ/mol
# Density = 2.462512 g / cm^3
# Si number density = 24.681299 Si / 1000 Ang^3
#
#
#
# Elastic Constant Matrix: (Units=GPa)
#
#
# Indices 1 2 3 4 5 6 
#
# 1 141.3786 11.7916 54.1991 0.0000 -22.8855 0.0000
# 2 11.7916 141.3600 42.7461 0.0000 2.8076 0.0000
# 3 54.1991 42.7461 170.4753 0.0000 -11.7907 0.0000
# 4 0.0000 0.0000 0.0000 42.9099 0.0000 6.9475
# 5 -22.8855 2.8076 -11.7907 0.0000 13.6806 0.0000
# 6 0.0000 0.0000 0.0000 6.9475 0.0000 28.8240
#
#
#
# Elastic Compliance Matrix: (Units=1/GPa)
#
#
# Indices 1 2 3 4 5 6 
#
# 1 0.010491 -0.000555 -0.002100 0.000000 0.015854 0.000000
# 2 -0.000555 0.007838 -0.002089 0.000000 -0.004337 0.000000
# 3 -0.002100 -0.002089 0.007278 0.000000 0.003189 0.000000
# 4 0.000000 0.000000 0.000000 0.024251 0.000000 -0.005845
# 5 0.015854 -0.004337 0.003189 0.000000 0.103256 0.000000
# 6 0.000000 0.000000 0.000000 -0.005845 0.000000 0.036102
#
#
# Mechanical properties :
#
#
# Convention : Reuss Voigt Hill
#
# Bulk Modulus (GPa) = 62.03644 74.52082 68.27863
# Shear Modulus (GPa) = 24.50067 40.04803 32.27435
#
# Velocity S-wave (km/s) = 3.15410 4.03253 3.62006
# Velocity P-wave (km/s) = 6.20113 7.20698 6.72289
#
# Compressibility (1/GPa) = 0.01611956
#
# Stress axis : x y z
#
# Youngs Moduli (GPa) = 95.32230 127.57933 137.40362
#
# Poissons Ratio (x) = 0.07081 0.28850
# Poissons Ratio (y) = 0.05291 0.28703
# Poissons Ratio (z) = 0.20014 0.26651
#
# Static dielectric constant tensor:
#      x y z
#    x 2.105360 0.000000 -0.184390 
#    y 0.000000 1.928470 0.000000 
#    z -0.184390 0.000000 2.194490 
# 
# From -- ./inp_files/10907.got.cif
#   From: 2010.05.17/outbox.cif.g08.bks.cpg/sg12_6_cif.got.tgz:10907.got - 2010.06.03 13:09:07.
