data_PCOD9217931
_publ_section_title
;
Structure prediction by ZEFSAII (Michael W. Deem and Ramdas Pophale) SiO2 
 PCOD9217931
Probable space group: C 2/M
;
_chemical_formula_sum "Si O2"
_cell_formula_units_Z 60
_cell_length_a 17.677292
_cell_length_b 9.710054
_cell_length_c 20.591243
_cell_angle_alpha 90.000000
_cell_angle_beta 57.190642
_cell_angle_gamma 90.000000
_cell_volume 2970.614898
_symmetry_space_group_name_H-M "C 2/M"
_symmetry_group_IT_number 12
_symmetry_cell_setting 'monoclinic'
loop_
_space_group_symop_operation_xyz
x,y,z
-x,y,-z
-x,-y,-z
x,-y,z
1/2+x,1/2+y,z
1/2-x,1/2+y,-z
1/2-x,1/2-y,-z
1/2+x,1/2-y,z
loop_
_atom_site_type_symbol
_atom_site_label
_atom_site_fract_x
_atom_site_fract_y
_atom_site_fract_z
Si Si1 0.665372 0.662117 0.817024
Si Si2 0.777174 0.000000 0.999665
Si Si3 0.548797 0.836609 0.768728
Si Si4 0.057056 0.661086 0.614833
Si Si5 0.645294 0.222213 0.089779
Si Si6 0.395083 0.342113 0.525432
Si Si7 0.606647 0.849177 0.958851
Si Si8 0.353269 0.840856 0.662813
O O1 0.642389 0.500000 0.828237
O O2 0.605657 0.743891 0.791785
O O3 0.644053 0.732359 0.895259
O O4 0.769602 0.677624 0.749492
O O5 0.823926 0.121936 0.933297
O O6 0.726740 0.120277 0.067453
O O7 0.576309 0.812443 0.681340
O O8 0.443379 0.800032 0.826696
O O9 0.559421 0.000000 0.778445
O O10 0.076202 0.500000 0.591941
O O11 0.949819 0.681245 0.651938
O O12 0.107269 0.759687 0.540942
O O13 0.621281 0.169795 0.028142
O O14 0.500000 0.342044 0.500000
O O15 0.365632 0.500000 0.532852
O O16 0.344659 0.260303 0.605698
O O17 0.643696 0.000000 0.923368
O O18 0.500000 0.850111 0.000000
O O19 0.352661 0.000000 0.640211
#
# Coordination Sequence:
#
# PCOD9217931 Si02
#       8
#     8   4   8   8   8   8   8   8
#     4  11  25  39  60  88 117 155 200 251 294 345
#     4  10  24  38  60  86 118 144 194 246 304 346
#     4  11  22  40  62  82 120 160 198 238 300 358
#     4   9  19  36  61  87 113 156 195 234 290 352
#     4  11  22  42  60  87 115 158 194 247 299 351
#     4   9  17  32  58  89 121 151 183 233 292 348
#     4  11  22  39  62  81 110 155 205 241 291 352
#     4   9  19  38  59  88 118 149 194 241 284 345
#
# _framework density 20.197837
#
# number of rings (size 3 to 8) (size 9 to 14) (size 15 to 20)
#    0.000    1.867    2.667    0.800    1.867    5.600 
#    2.400    0.667    0.000    0.000    0.000    0.000 
#    0.000    0.000    0.000    0.000    0.000    0.000 
#
# Total GULP energy -167062.600910 kJ/mol
# GULP energy per Si atom -5568.753364 kJ/mol
# Density = 2.015187 g / cm^3
# Si number density = 20.197837 Si / 1000 Ang^3
#
#
#
# Elastic Constant Matrix: (Units=GPa)
#
#
# Indices 1 2 3 4 5 6 
#
# 1 37.0350 28.8314 11.7483 0.0000 17.8486 0.0000
# 2 28.8314 137.0703 39.1152 0.0000 8.6211 0.0001
# 3 11.7483 39.1152 74.8246 0.0000 17.1383 0.0000
# 4 0.0000 0.0000 0.0000 40.2749 0.0000 10.5111
# 5 17.8486 8.6211 17.1383 0.0000 22.6007 0.0000
# 6 0.0000 0.0001 0.0000 10.5111 0.0000 102.0901
#
#
#
# Elastic Compliance Matrix: (Units=1/GPa)
#
#
# Indices 1 2 3 4 5 6 
#
# 1 0.054450 -0.010722 0.007223 0.000000 -0.044388 0.000000
# 2 -0.010722 0.010687 -0.005941 0.000000 0.008896 0.000000
# 3 0.007223 -0.005941 0.019513 0.000000 -0.018235 0.000000
# 4 0.000000 0.000000 0.000000 0.025515 0.000000 -0.002627
# 5 -0.044388 0.008896 -0.018235 0.000000 0.089736 0.000000
# 6 0.000000 0.000000 0.000000 -0.002627 0.000000 0.010066
#
#
# Mechanical properties :
#
#
# Convention : Reuss Voigt Hill
#
# Bulk Modulus (GPa) = 15.20469 45.36887 30.28678
# Shear Modulus (GPa) = 19.93868 44.27548 32.10708
#
# Velocity S-wave (km/s) = 3.14533 4.68706 3.99134
# Velocity P-wave (km/s) = 4.55358 7.19738 6.02235
#
# Compressibility (1/GPa) = 0.06576918
#
# Stress axis : x y z
#
# Youngs Moduli (GPa) = 18.36548 93.57513 51.24878
#
# Poissons Ratio (x) = 1.00335 -0.37017
# Poissons Ratio (y) = 0.19692 0.30445
# Poissons Ratio (z) = -0.13265 0.55590
#
# Static dielectric constant tensor:
#      x y z
#    x 1.800670 0.000000 -0.012920 
#    y 0.000000 1.704260 0.000000 
#    z -0.012920 0.000000 1.682080 
# 
# From -- ./inp_files/320449.got.cif
#   From: 2010.05.17/outbox.cif.g08.bks.cpg/sg12_161_cif.got.tgz:320449.got - 2010.06.03 13:09:07.
