data_PCOD9217224
_publ_section_title
;
Structure prediction by ZEFSAII (Michael W. Deem and Ramdas Pophale) SiO2 
 PCOD9217224
Probable space group: C 2/M
;
_chemical_formula_sum "Si O2"
_cell_formula_units_Z 48
_cell_length_a 29.890750
_cell_length_b 8.852031
_cell_length_c 16.444605
_cell_angle_alpha 90.000000
_cell_angle_beta 145.144098
_cell_angle_gamma 90.000000
_cell_volume 2486.740200
_symmetry_space_group_name_H-M "C 2/M"
_symmetry_group_IT_number 12
_symmetry_cell_setting 'monoclinic'
loop_
_space_group_symop_operation_xyz
x,y,z
-x,y,-z
-x,-y,-z
x,-y,z
1/2+x,1/2+y,z
1/2-x,1/2+y,-z
1/2-x,1/2-y,-z
1/2+x,1/2-y,z
loop_
_atom_site_type_symbol
_atom_site_label
_atom_site_fract_x
_atom_site_fract_y
_atom_site_fract_z
Si Si1 0.092886 0.327360 0.646301
Si Si2 0.143478 0.321287 0.042168
Si Si3 0.492022 0.676301 0.891103
Si Si4 0.675782 0.681388 0.436799
Si Si5 0.199898 0.680744 0.649561
Si Si6 0.168826 0.822647 0.906582
O O1 0.118358 0.500000 0.705830
O O2 0.138654 0.287730 0.631507
O O3 0.112985 0.213541 0.748099
O O4 0.000000 0.329539 0.500000
O O5 0.155954 0.500000 0.062273
O O6 0.215338 0.241877 0.196442
O O7 0.143417 0.259877 0.950475
O O8 0.060535 0.276823 0.956374
O O9 0.504948 0.500000 0.887016
O O10 0.405697 0.719160 0.730519
O O11 0.500000 0.685706 0.000000
O O12 0.682991 0.500000 0.448657
O O13 0.750000 0.750000 0.500000
O O14 0.675467 0.744139 0.528173
O O15 0.203690 0.500000 0.644793
O O16 0.176335 0.000000 0.932810
O O17 0.250000 0.750000 0.000000
#
# Coordination Sequence:
#
# PCOD9217224 Si02
#       6
#     8   8   8   8   8   8
#     4  10  23  42  64  93 129 171 216 263 317 377
#     4  12  25  41  66  96 129 168 215 266 316 380
#     4  10  23  44  68  96 130 167 208 260 319 378
#     4  11  24  42  67  97 131 168 212 261 317 383
#     4  11  23  41  65  92 130 172 211 264 323 378
#     4  12  24  41  65  94 129 170 216 264 317 377
#
# _framework density 19.302379999999999
#
# number of rings (size 3 to 8) (size 9 to 14) (size 15 to 20)
#    0.000    1.000    1.667    5.000    2.333    4.000 
#    0.000    0.000    0.000    0.000    0.000    0.000 
#    0.000    0.000    0.000    0.000    0.000    0.000 
#
# Total GULP energy -134220.233188 kJ/mol
# GULP energy per Si atom -5592.509716 kJ/mol
# Density = 1.925845 g / cm^3
# Si number density = 19.302380 Si / 1000 Ang^3
#
#
#
# Elastic Constant Matrix: (Units=GPa)
#
#
# Indices 1 2 3 4 5 6 
#
# 1 91.9135 50.1184 67.5133 0.0000 1.3143 0.0000
# 2 50.1184 90.4449 57.1167 0.0000 3.1955 0.0000
# 3 67.5133 57.1167 146.6678 0.0000 1.4161 0.0000
# 4 0.0000 0.0000 0.0000 28.4387 0.0000 -2.3855
# 5 1.3143 3.1955 1.4161 0.0000 34.7313 0.0000
# 6 0.0000 0.0000 0.0000 -2.3855 0.0000 33.8336
#
#
#
# Elastic Compliance Matrix: (Units=1/GPa)
#
#
# Indices 1 2 3 4 5 6 
#
# 1 0.019044 -0.006659 -0.006174 0.000000 0.000144 0.000000
# 2 -0.006659 0.017034 -0.003557 0.000000 -0.001170 0.000000
# 3 -0.006174 -0.003557 0.011045 0.000000 0.000111 0.000000
# 4 0.000000 0.000000 0.000000 0.035373 0.000000 0.002494
# 5 0.000144 -0.001170 0.000111 0.000000 0.028890 0.000000
# 6 0.000000 0.000000 0.000000 0.002494 0.000000 0.029732
#
#
# Mechanical properties :
#
#
# Convention : Reuss Voigt Hill
#
# Bulk Modulus (GPa) = 69.72634 75.39144 72.55889
# Shear Modulus (GPa) = 27.98321 29.68590 28.83456
#
# Velocity S-wave (km/s) = 3.81166 3.92591 3.86921
# Velocity P-wave (km/s) = 7.45475 7.72614 7.59166
#
# Compressibility (1/GPa) = 0.01434178
#
# Stress axis : x y z
#
# Youngs Moduli (GPa) = 52.51026 58.70635 90.54269
#
# Poissons Ratio (x) = 0.39091 0.55905
# Poissons Ratio (y) = 0.34965 0.32207
# Poissons Ratio (z) = 0.32422 0.20883
#
# Static dielectric constant tensor:
#      x y z
#    x 2.777340 0.000000 1.012170 
#    y 0.000000 1.672250 0.000000 
#    z 1.012170 0.000000 2.546020 
# 
# From -- ./inp_files/244844.got.cif
#   From: 2010.05.17/outbox.cif.g08.bks.cpg/sg12_123_cif.got.tgz:244844.got - 2010.06.03 13:09:07.
