data_PCOD9217547
_publ_section_title
;
Structure prediction by ZEFSAII (Michael W. Deem and Ramdas Pophale) SiO2 
 PCOD9217547
Probable space group: C 2/M
;
_chemical_formula_sum "Si O2"
_cell_formula_units_Z 48
_cell_length_a 12.137726
_cell_length_b 14.870291
_cell_length_c 14.912927
_cell_angle_alpha 90.000000
_cell_angle_beta 120.264946
_cell_angle_gamma 90.000000
_cell_volume 2324.794938
_symmetry_space_group_name_H-M "C 2/M"
_symmetry_group_IT_number 12
_symmetry_cell_setting 'monoclinic'
loop_
_space_group_symop_operation_xyz
x,y,z
-x,y,-z
-x,-y,-z
x,-y,z
1/2+x,1/2+y,z
1/2-x,1/2+y,-z
1/2-x,1/2-y,-z
1/2+x,1/2-y,z
loop_
_atom_site_type_symbol
_atom_site_label
_atom_site_fract_x
_atom_site_fract_y
_atom_site_fract_z
Si Si1 0.857897 0.902639 0.792832
Si Si2 0.364471 0.859508 0.431573
Si Si3 0.402000 0.291382 0.147089
Si Si4 0.725266 0.105743 0.931780
Si Si5 0.188817 0.103796 0.510436
Si Si6 0.904184 0.170732 0.352055
O O1 0.741952 0.902562 0.675349
O O2 0.802428 0.894281 0.869731
O O3 0.953375 0.822333 0.810179
O O4 0.925442 0.000000 0.813232
O O5 0.500000 0.906146 0.500000
O O6 0.297837 0.845050 0.500370
O O7 0.399030 0.768439 0.394178
O O8 0.381227 0.184468 0.123549
O O9 0.366688 0.318967 0.233979
O O10 0.315943 0.351265 0.045006
O O11 0.689755 0.000000 0.934109
O O12 0.184721 0.115414 0.616007
O O13 0.047891 0.132372 0.418903
O O14 0.208638 0.000000 0.496562
#
# Coordination Sequence:
#
# PCOD9217547 Si02
#       6
#     8   8   8   8   8   8
#     4  11  23  41  67  98 131 172 226 274 325 398
#     4  12  24  40  66  94 132 178 218 274 327 392
#     4  11  22  40  70 100 131 176 219 274 337 399
#     4  10  23  43  68 102 133 167 221 280 334 398
#     4  11  24  41  63  94 131 171 225 277 327 394
#     4  11  22  39  64  94 128 176 222 266 333 402
#
# _framework density 20.646982999999999
#
# number of rings (size 3 to 8) (size 9 to 14) (size 15 to 20)
#    0.000    1.000    5.000    3.000    0.000    4.667 
#    0.000    0.000    0.000   10.000    0.000    0.000 
#    0.000    0.000    0.000    0.000    0.000    0.000 
#
# Total GULP energy -133968.368421 kJ/mol
# GULP energy per Si atom -5582.015351 kJ/mol
# Density = 2.059999 g / cm^3
# Si number density = 20.646983 Si / 1000 Ang^3
#
#
#
# Elastic Constant Matrix: (Units=GPa)
#
#
# Indices 1 2 3 4 5 6 
#
# 1 116.0718 44.8536 55.8423 0.0000 -5.9686 0.0000
# 2 44.8536 141.0514 58.0492 0.0000 -6.5933 0.0000
# 3 55.8423 58.0492 98.2567 0.0000 1.2539 0.0000
# 4 0.0000 0.0000 0.0000 27.1877 0.0000 4.3523
# 5 -5.9686 -6.5933 1.2539 0.0000 15.9649 0.0000
# 6 0.0000 0.0000 0.0000 4.3523 0.0000 11.1844
#
#
#
# Elastic Compliance Matrix: (Units=1/GPa)
#
#
# Indices 1 2 3 4 5 6 
#
# 1 0.012378 -0.001052 -0.006473 0.000000 0.004701 0.000000
# 2 -0.001052 0.009762 -0.005221 0.000000 0.004048 0.000000
# 3 -0.006473 -0.005221 0.017016 0.000000 -0.005913 0.000000
# 4 0.000000 0.000000 0.000000 0.039225 0.000000 -0.015264
# 5 0.004701 0.004048 -0.005913 0.000000 0.066531 0.000000
# 6 0.000000 0.000000 0.000000 -0.015264 0.000000 0.095351
#
#
# Mechanical properties :
#
#
# Convention : Reuss Voigt Hill
#
# Bulk Modulus (GPa) = 73.18738 74.76335 73.97536
# Shear Modulus (GPa) = 18.49726 23.97638 21.23682
#
# Velocity S-wave (km/s) = 2.99638 3.41141 3.21061
# Velocity P-wave (km/s) = 6.89166 7.19763 7.04631
#
# Compressibility (1/GPa) = 0.01366356
#
# Stress axis : x y z
#
# Youngs Moduli (GPa) = 80.78869 102.43632 58.76768
#
# Poissons Ratio (x) = 0.10781 0.38040
# Poissons Ratio (y) = 0.08502 0.30682
# Poissons Ratio (z) = 0.52295 0.53481
#
# Static dielectric constant tensor:
#      x y z
#    x 1.723280 0.000000 0.008200 
#    y 0.000000 1.783100 0.000000 
#    z 0.008200 0.000000 1.749400 
# 
# From -- ./inp_files/205139.got.cif
#   From: 2010.05.17/outbox.cif.g08.bks.cpg/sg12_103_cif.got.tgz:205139.got - 2010.06.03 13:09:07.
