data_PCOD9217706
_publ_section_title
;
Structure prediction by ZEFSAII (Michael W. Deem and Ramdas Pophale) SiO2 
 PCOD9217706
Probable space group: C 2/M
;
_chemical_formula_sum "Si O2"
_cell_formula_units_Z 48
_cell_length_a 17.988100
_cell_length_b 11.415325
_cell_length_c 13.213273
_cell_angle_alpha 90.000000
_cell_angle_beta 107.010824
_cell_angle_gamma 90.000000
_cell_volume 2594.509143
_symmetry_space_group_name_H-M "C 2/M"
_symmetry_group_IT_number 12
_symmetry_cell_setting 'monoclinic'
loop_
_space_group_symop_operation_xyz
x,y,z
-x,y,-z
-x,-y,-z
x,-y,z
1/2+x,1/2+y,z
1/2-x,1/2+y,-z
1/2-x,1/2-y,-z
1/2+x,1/2-y,z
loop_
_atom_site_type_symbol
_atom_site_label
_atom_site_fract_x
_atom_site_fract_y
_atom_site_fract_z
Si Si1 0.569677 0.500000 0.163242
Si Si2 0.385875 0.734898 0.708209
Si Si3 0.721581 0.141711 0.704277
Si Si4 0.915078 0.364042 0.514088
Si Si5 0.511750 0.139356 0.892266
Si Si6 0.174341 0.244166 0.898379
Si Si7 0.112094 0.000000 0.950649
O O1 0.583290 0.611294 0.239110
O O2 0.479961 0.500000 0.098680
O O3 0.619945 0.500000 0.077723
O O4 0.294410 0.716384 0.691366
O O5 0.400258 0.774931 0.599526
O O6 0.438047 0.823314 0.795853
O O7 0.649962 0.149376 0.597997
O O8 0.699628 0.204357 0.800404
O O9 0.738015 0.000000 0.722004
O O10 0.911557 0.500000 0.549483
O O11 0.000000 0.346228 0.500000
O O12 0.596298 0.183022 0.892372
O O13 0.513883 0.000000 0.896403
O O14 0.500000 0.189578 0.000000
O O15 0.146860 0.111644 0.907100
O O16 0.250000 0.250000 0.000000
#
# Coordination Sequence:
#
# PCOD9217706 Si02
#       7
#     4   8   8   8   8   8   4
#     4  11  22  40  68  91 129 173 218 264 328 392
#     4  12  22  42  67  93 126 172 218 269 322 393
#     4  11  24  43  67  94 131 173 219 269 327 387
#     4  10  23  44  69  96 127 167 217 271 328 385
#     4  11  23  39  61  92 128 167 215 270 326 381
#     4  12  25  40  64  95 132 172 219 267 320 390
#     4  11  24  42  63  96 134 174 217 264 327 384
#
# _framework density 18.500609000000001
#
# number of rings (size 3 to 8) (size 9 to 14) (size 15 to 20)
#    0.000    0.833    2.500    5.500    2.333    1.333 
#    3.000    1.250    0.000    0.000    0.000    0.000 
#    0.000    0.000    0.000    0.000    0.000    0.000 
#
# Total GULP energy -133854.904361 kJ/mol
# GULP energy per Si atom -5577.287682 kJ/mol
# Density = 1.845850 g / cm^3
# Si number density = 18.500609 Si / 1000 Ang^3
#
#
#
# Elastic Constant Matrix: (Units=GPa)
#
#
# Indices 1 2 3 4 5 6 
#
# 1 151.0772 51.8347 69.3425 0.0000 5.6526 0.0000
# 2 51.8347 107.4815 57.6686 0.0000 -12.6565 0.0000
# 3 69.3425 57.6686 148.1409 0.0000 -2.6415 0.0000
# 4 0.0000 0.0000 0.0000 38.4413 0.0000 -4.9276
# 5 5.6526 -12.6565 -2.6415 0.0000 42.0932 0.0000
# 6 0.0000 0.0000 0.0000 -4.9276 0.0000 42.2029
#
#
#
# Elastic Compliance Matrix: (Units=1/GPa)
#
#
# Indices 1 2 3 4 5 6 
#
# 1 0.009196 -0.003006 -0.003176 0.000000 -0.002338 0.000000
# 2 -0.003006 0.013205 -0.003660 0.000000 0.004145 0.000000
# 3 -0.003176 -0.003660 0.009660 0.000000 -0.000068 0.000000
# 4 0.000000 0.000000 0.000000 0.026409 0.000000 0.003083
# 5 -0.002338 0.004145 -0.000068 0.000000 0.025313 0.000000
# 6 0.000000 0.000000 0.000000 0.003083 0.000000 0.024055
#
#
# Mechanical properties :
#
#
# Convention : Reuss Voigt Hill
#
# Bulk Modulus (GPa) = 80.78702 84.93235 82.85968
# Shear Modulus (GPa) = 37.98038 39.73772 38.85905
#
# Velocity S-wave (km/s) = 4.53584 4.63959 4.58801
# Velocity P-wave (km/s) = 8.43764 8.64341 8.54115
#
# Compressibility (1/GPa) = 0.01237823
#
# Stress axis : x y z
#
# Youngs Moduli (GPa) = 108.74687 75.72763 103.51672
#
# Poissons Ratio (x) = 0.22764 0.32875
# Poissons Ratio (y) = 0.32690 0.37882
# Poissons Ratio (z) = 0.34536 0.27713
#
# Static dielectric constant tensor:
#      x y z
#    x 1.795770 0.000000 0.019540 
#    y 0.000000 1.675460 0.000000 
#    z 0.019540 0.000000 1.639770 
# 
# From -- ./inp_files/154346.got.cif
#   From: 2010.05.17/outbox.cif.g08.bks.cpg/sg12_78_cif.got.tgz:154346.got - 2010.06.03 13:09:07.
