data_PCOD9217929
_publ_section_title
;
Structure prediction by ZEFSAII (Michael W. Deem and Ramdas Pophale) SiO2 
 PCOD9217929
Probable space group: C 2/M
;
_chemical_formula_sum "Si O2"
_cell_formula_units_Z 60
_cell_length_a 11.549975
_cell_length_b 30.659504
_cell_length_c 11.565467
_cell_angle_alpha 90.000000
_cell_angle_beta 126.305715
_cell_angle_gamma 90.000000
_cell_volume 3300.455754
_symmetry_space_group_name_H-M "C 2/M"
_symmetry_group_IT_number 12
_symmetry_cell_setting 'monoclinic'
loop_
_space_group_symop_operation_xyz
x,y,z
-x,y,-z
-x,-y,-z
x,-y,z
1/2+x,1/2+y,z
1/2-x,1/2+y,-z
1/2-x,1/2-y,-z
1/2+x,1/2-y,z
loop_
_atom_site_type_symbol
_atom_site_label
_atom_site_fract_x
_atom_site_fract_y
_atom_site_fract_z
Si Si1 0.300405 0.448286 0.460404
Si Si2 0.415607 0.821973 0.830582
Si Si3 0.000000 0.656428 0.500000
Si Si4 0.005100 0.599231 0.293410
Si Si5 0.914260 0.084353 0.278361
Si Si6 0.869277 0.448184 0.010335
Si Si7 0.423761 0.677602 0.335829
Si Si8 0.910651 0.266295 0.613043
O O1 0.279411 0.500000 0.426902
O O2 0.153622 0.425274 0.413762
O O3 0.435010 0.441308 0.626080
O O4 0.346080 0.425206 0.366189
O O5 0.456184 0.863943 0.778725
O O6 0.246489 0.821117 0.753352
O O7 0.444463 0.781907 0.762040
O O8 0.500000 0.820812 0.000000
O O9 0.061303 0.623613 0.634343
O O10 0.918377 0.691566 0.533071
O O11 0.907725 0.566446 0.162566
O O12 0.952450 0.134920 0.275926
O O13 0.784332 0.070403 0.119168
O O14 0.862151 0.500000 0.997756
O O15 0.000000 0.434469 0.000000
O O16 0.500000 0.664955 0.500000
O O17 0.484900 0.725553 0.347881
O O18 0.750000 0.250000 0.500000
#
# Coordination Sequence:
#
# PCOD9217929 Si02
#       8
#     8   8   4   8   8   8   8   8
#     4  11  20  32  53  84 118 152 191 240 288 343
#     4  11  22  37  57  86 122 149 187 243 298 342
#     4  10  24  38  59  88 116 156 203 242 288 354
#     4  11  21  38  57  84 116 158 194 241 291 351
#     4  11  20  32  53  90 121 148 190 243 302 350
#     4  11  20  34  57  87 122 158 194 243 305 351
#     4  12  19  35  58  87 112 155 198 227 296 355
#     4  11  22  39  63  86 117 155 196 244 289 354
#
# _framework density 18.179307999999999
#
# number of rings (size 3 to 8) (size 9 to 14) (size 15 to 20)
#    0.000    0.933    6.000    3.200    1.867    0.533 
#    0.000    2.667    0.000    0.800    3.467    1.867 
#    0.000    0.000    0.000    0.000    0.000    0.000 
#
# Total GULP energy -167144.178806 kJ/mol
# GULP energy per Si atom -5571.472627 kJ/mol
# Density = 1.813793 g / cm^3
# Si number density = 18.179308 Si / 1000 Ang^3
#
#
#
# Elastic Constant Matrix: (Units=GPa)
#
#
# Indices 1 2 3 4 5 6 
#
# 1 24.3857 10.6015 44.1813 0.0000 0.5181 0.0000
# 2 10.6015 85.8679 35.2929 0.0000 -4.6408 0.0000
# 3 44.1813 35.2929 139.1569 0.0000 15.7487 0.0000
# 4 0.0000 0.0000 0.0000 30.0042 0.0000 -2.7438
# 5 0.5181 -4.6408 15.7487 0.0000 27.0798 0.0000
# 6 0.0000 0.0000 0.0000 -2.7438 0.0000 11.5241
#
#
#
# Elastic Compliance Matrix: (Units=1/GPa)
#
#
# Indices 1 2 3 4 5 6 
#
# 1 0.105232 0.003035 -0.036407 0.000000 0.019680 0.000000
# 2 0.003035 0.013607 -0.005001 0.000000 0.005182 0.000000
# 3 -0.036407 -0.005001 0.021443 0.000000 -0.012631 0.000000
# 4 0.000000 0.000000 0.000000 0.034071 0.000000 0.008112
# 5 0.019680 0.005182 -0.012631 0.000000 0.044785 0.000000
# 6 0.000000 0.000000 0.000000 0.008112 0.000000 0.088706
#
#
# Mechanical properties :
#
#
# Convention : Reuss Voigt Hill
#
# Bulk Modulus (GPa) = 15.73931 47.72910 31.73420
# Shear Modulus (GPa) = 12.32232 24.34393 18.33312
#
# Velocity S-wave (km/s) = 2.60632 3.66334 3.17907
# Velocity P-wave (km/s) = 4.21116 6.64869 5.56502
#
# Compressibility (1/GPa) = 0.06353519
#
# Stress axis : x y z
#
# Youngs Moduli (GPa) = 9.50284 73.49360 46.63526
#
# Poissons Ratio (x) = -0.22307 1.69786
# Poissons Ratio (y) = -0.02884 0.23323
# Poissons Ratio (z) = 0.34597 0.36755
#
# Static dielectric constant tensor:
#      x y z
#    x 1.751620 0.000000 -0.015730 
#    y 0.000000 1.927610 0.000000 
#    z -0.015730 0.000000 1.622630 
# 
# From -- ./inp_files/137619.got.cif
#   From: 2010.05.17/outbox.cif.g08.bks.cpg/sg12_69_cif.got.tgz:137619.got - 2010.06.03 13:09:07.
