data_PCOD9217479
_publ_section_title
;
Structure prediction by ZEFSAII (Michael W. Deem and Ramdas Pophale) SiO2 
 PCOD9217479
Probable space group: C 2/M
;
_chemical_formula_sum "Si O2"
_cell_formula_units_Z 44
_cell_length_a 8.721153
_cell_length_b 14.924216
_cell_length_c 20.977307
_cell_angle_alpha 90.000000
_cell_angle_beta 142.679163
_cell_angle_gamma 90.000000
_cell_volume 1655.338160
_symmetry_space_group_name_H-M "C 2/M"
_symmetry_group_IT_number 12
_symmetry_cell_setting 'monoclinic'
loop_
_space_group_symop_operation_xyz
x,y,z
-x,y,-z
-x,-y,-z
x,-y,z
1/2+x,1/2+y,z
1/2-x,1/2+y,-z
1/2-x,1/2-y,-z
1/2+x,1/2-y,z
loop_
_atom_site_type_symbol
_atom_site_label
_atom_site_fract_x
_atom_site_fract_y
_atom_site_fract_z
Si Si1 0.341178 0.500000 0.672920
Si Si2 0.388270 0.000000 0.066920
Si Si3 0.351467 0.500000 0.820888
Si Si4 0.280084 0.313271 0.762858
Si Si5 0.006408 0.180812 0.578123
Si Si6 0.738868 0.000000 0.296396
Si Si7 0.831068 0.322585 0.892794
Si Si8 0.000000 0.649199 0.500000
O O1 0.442332 0.500000 0.777190
O O2 0.574633 0.500000 0.703083
O O3 0.167143 0.584732 0.602054
O O4 0.515822 0.088973 0.078253
O O5 0.909842 0.000000 0.051809
O O6 0.467787 0.000000 0.168885
O O7 0.189704 0.407313 0.764216
O O8 0.156833 0.259063 0.663781
O O9 0.567626 0.334017 0.840611
O O10 0.275179 0.237894 0.814574
O O11 0.000000 0.210190 0.500000
O O12 0.755285 0.331831 0.470546
O O13 0.166048 0.088898 0.635177
O O14 0.000000 0.270909 0.000000
#
# Coordination Sequence:
#
# PCOD9217479 Si02
#       8
#     4   4   4   8   8   4   8   4
#     4  11  22  40  64  97 127 172 228 280 314 402
#     4  12  25  37  71 100 129 178 235 264 328 409
#     4  12  23  43  66  99 136 178 219 282 329 400
#     4  12  25  44  69  99 138 173 230 272 338 394
#     4  10  23  43  66  94 131 177 219 278 336 400
#     4  12  24  39  64  95 131 170 227 269 334 399
#     4  12  25  44  68 101 133 181 220 280 328 403
#     4   9  22  41  62  92 128 167 222 273 338 382
#
# _framework density 26.580672
#
# number of rings (size 3 to 8) (size 9 to 14) (size 15 to 20)
#    0.545    0.182    5.455    2.727    0.000    0.727 
#    3.273    2.273    0.000    0.000    0.000    0.000 
#    0.000    0.000    0.000    0.000    0.000    0.000 
#
# Total GULP energy -122960.371225 kJ/mol
# GULP energy per Si atom -5589.107783 kJ/mol
# Density = 2.652017 g / cm^3
# Si number density = 26.580672 Si / 1000 Ang^3
#
#
#
# Elastic Constant Matrix: (Units=GPa)
#
#
# Indices 1 2 3 4 5 6 
#
# 1 139.6904 84.9525 69.8554 -0.0001 9.1413 0.0000
# 2 84.9525 -936.8644 -579.5717 0.0000 101.2062 -0.0009
# 3 69.8554 -579.5717 -179.3493 0.0000 54.9067 -0.0008
# 4 -0.0001 0.0000 0.0000 35.0550 -0.0002 4.1432
# 5 9.1413 101.2062 54.9067 -0.0002 43.1518 -0.0001
# 6 0.0000 -0.0009 -0.0008 4.1432 -0.0001 19.2339
#
#
#
# Elastic Compliance Matrix: (Units=1/GPa)
#
#
# Indices 1 2 3 4 5 6 
#
# 1 0.007196 0.000875 -0.000804 0.000000 -0.002552 0.000000
# 2 0.000875 0.001298 -0.003485 0.000000 0.001205 0.000000
# 3 -0.000804 -0.003485 0.005705 0.000000 0.001085 0.000000
# 4 0.000000 0.000000 0.000000 0.029272 0.000000 -0.006306
# 5 -0.002552 0.001205 0.001085 0.000000 0.019508 0.000000
# 6 0.000000 0.000000 0.000000 -0.006306 0.000000 0.053350
#
#
# Mechanical properties :
#
#
# Convention : Reuss Voigt Hill
#
# Bulk Modulus (GPa) = 135.70045 -202.89455 -33.59705
# Shear Modulus (GPa) = 39.80400 -17.29584 11.25408
#
# Velocity S-wave (km/s) = 3.87393 -2.55363 2.05988
# Velocity P-wave (km/s) = 8.43640 9.22995 2.64756
#
# Compressibility (1/GPa) = 0.00736917
#
# Stress axis : x y z
#
# Youngs Moduli (GPa) = 138.96337 770.42206 175.28603
#
# Poissons Ratio (x) = -0.67377 0.14102
# Poissons Ratio (y) = -0.12153 0.61087
# Poissons Ratio (z) = 0.11180 2.68492
#
# Static dielectric constant tensor:
#      x y z
#    x 2.431000 0.000000 0.187840 
#    y 0.000000 2.380540 0.000000 
#    z 0.187840 0.000000 2.270850 
# 
# From -- ./inp_files/305584.got.cif
#   From: 2010.05.17/outbox.cif.g08.bks.cpg/sg12_153_cif.got.tgz:305584.got - 2010.06.03 13:09:07.
