data_PCOD9217759
_publ_section_title
;
Structure prediction by ZEFSAII (Michael W. Deem and Ramdas Pophale) SiO2 
 PCOD9217759
Probable space group: C 2/M
;
_chemical_formula_sum "Si O2"
_cell_formula_units_Z 48
_cell_length_a 19.536325
_cell_length_b 11.641052
_cell_length_c 9.694932
_cell_angle_alpha 90.000000
_cell_angle_beta 117.914324
_cell_angle_gamma 90.000000
_cell_volume 1948.316333
_symmetry_space_group_name_H-M "C 2/M"
_symmetry_group_IT_number 12
_symmetry_cell_setting 'monoclinic'
loop_
_space_group_symop_operation_xyz
x,y,z
-x,y,-z
-x,-y,-z
x,-y,z
1/2+x,1/2+y,z
1/2-x,1/2+y,-z
1/2-x,1/2-y,-z
1/2+x,1/2-y,z
loop_
_atom_site_type_symbol
_atom_site_label
_atom_site_fract_x
_atom_site_fract_y
_atom_site_fract_z
Si Si1 0.514770 0.636856 0.286108
Si Si2 0.281211 0.285441 0.840005
Si Si3 0.840690 0.743987 0.614247
Si Si4 0.071825 0.500000 0.923687
Si Si5 0.832126 0.500000 0.253017
Si Si6 0.589058 0.000000 0.393369
Si Si7 0.500000 0.793799 0.000000
Si Si8 0.346823 0.635961 0.189487
O O1 0.515736 0.500000 0.262932
O O2 0.599445 0.677699 0.415617
O O3 0.505429 0.712263 0.138454
O O4 0.437491 0.663206 0.302508
O O5 0.340657 0.287746 0.771648
O O6 0.221210 0.390321 0.771569
O O7 0.223822 0.176452 0.781822
O O8 0.325358 0.301327 0.025440
O O9 0.750000 0.750000 0.500000
O O10 0.869128 0.614653 0.620131
O O11 0.140932 0.500000 0.880026
O O12 0.996156 0.500000 0.752325
O O13 0.065196 0.611973 0.013376
O O14 0.900688 0.500000 0.430877
O O15 0.342580 0.500000 0.165906
#
# Coordination Sequence:
#
# PCOD9217759 Si02
#       8
#     8   8   8   4   4   4   4   8
#     4  11  24  43  72 100 140 181 230 282 348 419
#     4  11  24  42  69 100 143 173 226 282 345 412
#     4  12  27  46  69 100 132 181 238 288 338 406
#     4  11  25  42  70 108 140 177 232 283 352 406
#     4  12  24  45  70  97 138 185 225 282 340 413
#     4  12  26  49  70  94 135 187 237 288 335 415
#     4  11  21  42  66 112 137 167 222 288 342 415
#     4  10  23  45  67 102 139 181 221 280 354 416
#
# _framework density 24.636655999999999
#
# number of rings (size 3 to 8) (size 9 to 14) (size 15 to 20)
#    0.000    0.833    4.167    2.500    3.500    2.667 
#    0.000    0.833    0.000    2.000    0.000    0.000 
#    0.000    0.000    0.000    0.000    0.000    0.000 
#
# Total GULP energy -134252.010843 kJ/mol
# GULP energy per Si atom -5593.833785 kJ/mol
# Density = 2.458058 g / cm^3
# Si number density = 24.636656 Si / 1000 Ang^3
#
#
#
# Elastic Constant Matrix: (Units=GPa)
#
#
# Indices 1 2 3 4 5 6 
#
# 1 182.4041 57.3094 23.9315 0.0000 4.3476 0.0000
# 2 57.3094 134.5868 -1.2108 0.0000 5.7822 0.0000
# 3 23.9315 -1.2108 63.6561 0.0000 5.0402 0.0000
# 4 0.0000 0.0000 0.0000 -18.6076 0.0000 5.5620
# 5 4.3476 5.7822 5.0402 0.0000 57.6088 0.0000
# 6 0.0000 0.0000 0.0000 5.5620 0.0000 1.4867
#
#
#
# Elastic Compliance Matrix: (Units=1/GPa)
#
#
# Indices 1 2 3 4 5 6 
#
# 1 0.006729 -0.002889 -0.002585 0.000000 0.000008 0.000000
# 2 -0.002889 0.008705 0.001313 0.000000 -0.000771 0.000000
# 3 -0.002585 0.001313 0.016818 0.000000 -0.001408 0.000000
# 4 0.000000 0.000000 0.000000 -0.025370 0.000000 0.094917
# 5 0.000008 -0.000771 -0.001408 0.000000 0.017558 0.000000
# 6 0.000000 0.000000 0.000000 0.094917 0.000000 0.317543
#
#
# Mechanical properties :
#
#
# Convention : Reuss Voigt Hill
#
# Bulk Modulus (GPa) = 41.79061 60.07855 50.93458
# Shear Modulus (GPa) = 13.95544 28.13870 21.04707
#
# Velocity S-wave (km/s) = 2.38260 3.38323 2.92601
# Velocity P-wave (km/s) = 4.95668 6.30083 5.66874
#
# Compressibility (1/GPa) = 0.02392882
#
# Stress axis : x y z
#
# Youngs Moduli (GPa) = 148.61020 114.87345 59.46068
#
# Poissons Ratio (x) = 0.33186 0.15373
# Poissons Ratio (y) = 0.42933 -0.07805
# Poissons Ratio (z) = 0.38421 -0.15079
#
# Static dielectric constant tensor:
#      x y z
#    x 1.947990 0.000000 0.063820 
#    y 0.000000 1.916690 0.000000 
#    z 0.063820 0.000000 2.104180 
# 
# From -- ./inp_files/154356.got.cif
#   From: 2010.05.17/outbox.cif.g08.bks.cpg/sg12_78_cif.got.tgz:154356.got - 2010.06.03 13:09:07.
