data_PCOD9217982
_publ_section_title
;
Structure prediction by ZEFSAII (Michael W. Deem and Ramdas Pophale) SiO2 
 PCOD9217982
Probable space group: C 2/M
;
_chemical_formula_sum "Si O2"
_cell_formula_units_Z 42
_cell_length_a 24.552505
_cell_length_b 13.829599
_cell_length_c 4.578005
_cell_angle_alpha 90.000000
_cell_angle_beta 101.360843
_cell_angle_gamma 90.000000
_cell_volume 1524.009350
_symmetry_space_group_name_H-M "C 2/M"
_symmetry_group_IT_number 12
_symmetry_cell_setting 'monoclinic'
loop_
_space_group_symop_operation_xyz
x,y,z
-x,y,-z
-x,-y,-z
x,-y,z
1/2+x,1/2+y,z
1/2-x,1/2+y,-z
1/2-x,1/2-y,-z
1/2+x,1/2-y,z
loop_
_atom_site_type_symbol
_atom_site_label
_atom_site_fract_x
_atom_site_fract_y
_atom_site_fract_z
Si Si1 0.662690 0.691105 0.371311
Si Si2 0.776820 0.894656 0.056315
Si Si3 0.500000 0.500000 0.500000
Si Si4 0.053679 0.394904 0.844524
Si Si5 0.945735 0.819331 0.146744
Si Si6 0.332976 0.897790 0.671397
O O1 0.676191 0.621519 0.649999
O O2 0.664976 0.799060 0.501952
O O3 0.712464 0.679596 0.190747
O O4 0.607349 0.673719 0.124498
O O5 0.718514 0.892791 0.160874
O O6 0.784632 0.000000 0.928209
O O7 0.455577 0.413320 0.354859
O O8 0.053323 0.500000 0.682353
O O9 0.055221 0.287563 0.702642
O O10 0.109564 0.397371 0.092469
O O11 0.000000 0.394856 0.000000
O O12 0.000000 0.820334 0.000000
O O13 0.328484 0.000000 0.503234
#
# Coordination Sequence:
#
# PCOD9217982 Si02
#       6
#     8   8   2   8   8   8
#     4  11  24  42  67  93 130 172 221 268 324 392
#     4  11  24  40  64  95 131 172 219 269 323 385
#     4  12  26  40  62  90 132 168 222 262 328 382
#     4   8  15  35  66  94 124 163 212 265 324 389
#     4  10  24  40  62  91 125 169 212 269 326 382
#     4   9  19  38  63  96 132 170 215 271 329 385
#
# _framework density 27.558885
#
# number of rings (size 3 to 8) (size 9 to 14) (size 15 to 20)
#    0.000    2.095    0.000    2.000    5.333    0.000 
#    0.000    3.333    0.000    0.000    0.000    0.000 
#    0.000    0.000    0.000    0.000    0.000    0.000 
#
# Total GULP energy -117351.856601 kJ/mol
# GULP energy per Si atom -5588.183648 kJ/mol
# Density = 2.749616 g / cm^3
# Si number density = 27.558885 Si / 1000 Ang^3
#
#
#
# Elastic Constant Matrix: (Units=GPa)
#
#
# Indices 1 2 3 4 5 6 
#
# 1 183.0284 26.8198 52.6081 0.0000 17.0402 0.0000
# 2 26.8198 272.7359 38.2915 0.0000 15.4418 0.0000
# 3 52.6081 38.2915 93.0834 0.0000 33.6587 0.0000
# 4 0.0000 0.0000 0.0000 11.3693 0.0000 15.6538
# 5 17.0402 15.4418 33.6587 0.0000 72.4111 0.0000
# 6 0.0000 0.0000 0.0000 15.6538 0.0000 24.1177
#
#
#
# Elastic Compliance Matrix: (Units=1/GPa)
#
#
# Indices 1 2 3 4 5 6 
#
# 1 0.006531 -0.000133 -0.003715 0.000000 0.000218 0.000000
# 2 -0.000133 0.003895 -0.001488 0.000000 -0.000108 0.000000
# 3 -0.003715 -0.001488 0.015655 0.000000 -0.006085 0.000000
# 4 0.000000 0.000000 0.000000 0.827085 0.000000 -0.536826
# 5 0.000218 -0.000108 -0.006085 0.000000 0.016610 0.000000
# 6 0.000000 0.000000 0.000000 -0.536826 0.000000 0.389895
#
#
# Mechanical properties :
#
#
# Convention : Reuss Voigt Hill
#
# Bulk Modulus (GPa) = 64.90076 87.14295 76.02186
# Shear Modulus (GPa) = 3.92009 50.32149 27.12079
#
# Velocity S-wave (km/s) = 1.19396 4.27776 3.14045
# Velocity P-wave (km/s) = 5.04992 7.48921 6.38710
#
# Compressibility (1/GPa) = 0.01540814
#
# Stress axis : x y z
#
# Youngs Moduli (GPa) = 153.12397 256.76310 63.87548
#
# Poissons Ratio (x) = 0.03414 0.23731
# Poissons Ratio (y) = 0.02036 0.09505
# Poissons Ratio (z) = 0.56889 0.38209
#
# Static dielectric constant tensor:
#      x y z
#    x 2.111690 0.000000 -0.006760 
#    y 0.000000 2.155040 0.000000 
#    z -0.006760 0.000000 2.051350 
# 
# From -- ./inp_files/24334.got.cif
#   From: 2010.05.17/outbox.cif.g08.bks.cpg/sg12_13_cif.got.tgz:24334.got - 2010.06.03 13:09:07.
