data_PCOD9217362
_publ_section_title
;
Structure prediction by ZEFSAII (Michael W. Deem and Ramdas Pophale) SiO2 
 PCOD9217362
Probable space group: C 2/M
;
_chemical_formula_sum "Si O2"
_cell_formula_units_Z 42
_cell_length_a 9.329087
_cell_length_b 12.948400
_cell_length_c 18.027077
_cell_angle_alpha 90.000000
_cell_angle_beta 60.092597
_cell_angle_gamma 90.000000
_cell_volume 1887.624765
_symmetry_space_group_name_H-M "C 2/M"
_symmetry_group_IT_number 12
_symmetry_cell_setting 'monoclinic'
loop_
_space_group_symop_operation_xyz
x,y,z
-x,y,-z
-x,-y,-z
x,-y,z
1/2+x,1/2+y,z
1/2-x,1/2+y,-z
1/2-x,1/2-y,-z
1/2+x,1/2-y,z
loop_
_atom_site_type_symbol
_atom_site_label
_atom_site_fract_x
_atom_site_fract_y
_atom_site_fract_z
Si Si1 0.346284 0.310130 0.614737
Si Si2 0.656317 0.621125 0.630849
Si Si3 0.506755 0.118788 0.767385
Si Si4 0.657270 0.618164 0.804427
Si Si5 0.500000 0.500000 0.500000
Si Si6 0.565137 0.787748 0.061062
O O1 0.507510 0.326509 0.624021
O O2 0.313976 0.197997 0.586227
O O3 0.178758 0.327315 0.704883
O O4 0.364772 0.406857 0.554475
O O5 0.673183 0.500000 0.601200
O O6 0.609661 0.615341 0.730181
O O7 0.347311 0.155065 0.762238
O O8 0.455291 0.134197 0.865849
O O9 0.531424 0.000000 0.743587
O O10 0.652167 0.500000 0.833219
O O11 0.543070 0.690169 0.883441
O O12 0.500000 0.829254 0.000000
O O13 0.750000 0.750000 0.000000
#
# Coordination Sequence:
#
# PCOD9217362 Si02
#       6
#     8   8   8   8   2   8
#     4  12  25  48  79 109 155 191 248 314 380 454
#     4  11  24  46  76 112 143 197 251 299 375 458
#     4  11  23  44  70 100 137 196 244 301 379 447
#     4  10  23  42  70 100 136 190 247 296 359 441
#     4  12  28  52  78 122 150 198 242 324 384 448
#     4  12  25  40  62 100 143 185 242 306 363 429
#
# _framework density 22.250184999999998
#
# number of rings (size 3 to 8) (size 9 to 14) (size 15 to 20)
#    0.000    0.762    5.714    1.143    2.667    2.286 
#    1.714    0.476    0.000    0.000    0.000    0.000 
#    0.000    0.000    0.000    0.000    0.000    0.000 
#
# Total GULP energy -117084.910442 kJ/mol
# GULP energy per Si atom -5575.471926 kJ/mol
# Density = 2.219954 g / cm^3
# Si number density = 22.250185 Si / 1000 Ang^3
#
#
#
# Elastic Constant Matrix: (Units=GPa)
#
#
# Indices 1 2 3 4 5 6 
#
# 1 156.6552 51.0103 36.4465 0.0000 4.8449 0.0000
# 2 51.0103 160.9621 20.0091 0.0000 -17.2537 0.0000
# 3 36.4465 20.0091 85.7420 0.0000 -15.6347 0.0000
# 4 0.0000 0.0000 0.0000 42.2986 0.0000 -8.8551
# 5 4.8449 -17.2537 -15.6347 0.0000 22.9706 0.0000
# 6 0.0000 0.0000 0.0000 -8.8551 0.0000 38.3336
#
#
#
# Elastic Compliance Matrix: (Units=1/GPa)
#
#
# Indices 1 2 3 4 5 6 
#
# 1 0.008517 -0.002911 -0.004187 0.000000 -0.006832 0.000000
# 2 -0.002911 0.007793 0.000683 0.000000 0.006932 0.000000
# 3 -0.004187 0.000683 0.015456 0.000000 0.011916 0.000000
# 4 0.000000 0.000000 0.000000 0.024843 0.000000 0.005739
# 5 -0.006832 0.006932 0.011916 0.000000 0.058292 0.000000
# 6 0.000000 0.000000 0.000000 0.005739 0.000000 0.027412
#
#
# Mechanical properties :
#
#
# Convention : Reuss Voigt Hill
#
# Bulk Modulus (GPa) = 52.80875 68.69900 60.75387
# Shear Modulus (GPa) = 30.96823 40.44678 35.70750
#
# Velocity S-wave (km/s) = 3.73476 4.26821 4.01036
# Velocity P-wave (km/s) = 6.51026 7.43188 6.98629
#
# Compressibility (1/GPa) = 0.01893625
#
# Stress axis : x y z
#
# Youngs Moduli (GPa) = 117.41661 128.31423 64.69954
#
# Poissons Ratio (x) = 0.37351 0.27088
# Poissons Ratio (y) = 0.34179 -0.04417
# Poissons Ratio (z) = 0.49160 -0.08761
#
# Static dielectric constant tensor:
#      x y z
#    x 1.881630 0.000000 0.073670 
#    y 0.000000 1.869230 0.000000 
#    z 0.073670 0.000000 1.819510 
# 
# From -- ./inp_files/255705.got.cif
#   From: 2010.05.17/outbox.cif.g08.bks.cpg/sg12_128_cif.got.tgz:255705.got - 2010.06.03 13:09:07.
