data_PCOD9217796
_publ_section_title
;
Structure prediction by ZEFSAII (Michael W. Deem and Ramdas Pophale) SiO2 
 PCOD9217796
Probable space group: C 2/M
;
_chemical_formula_sum "Si O2"
_cell_formula_units_Z 32
_cell_length_a 7.411088
_cell_length_b 18.474394
_cell_length_c 10.568627
_cell_angle_alpha 90.000000
_cell_angle_beta 104.424195
_cell_angle_gamma 90.000000
_cell_volume 1401.394884
_symmetry_space_group_name_H-M "C 2/M"
_symmetry_group_IT_number 12
_symmetry_cell_setting 'monoclinic'
loop_
_space_group_symop_operation_xyz
x,y,z
-x,y,-z
-x,-y,-z
x,-y,z
1/2+x,1/2+y,z
1/2-x,1/2+y,-z
1/2-x,1/2-y,-z
1/2+x,1/2-y,z
loop_
_atom_site_type_symbol
_atom_site_label
_atom_site_fract_x
_atom_site_fract_y
_atom_site_fract_z
Si Si1 0.788220 0.332306 0.245734
Si Si2 0.718176 0.419690 0.999314
Si Si3 0.438146 0.415702 0.297493
Si Si4 0.698200 0.197875 0.374687
O O1 0.804998 0.359251 0.104296
O O2 0.636264 0.383711 0.286875
O O3 0.714353 0.251033 0.255478
O O4 0.990908 0.332741 0.343603
O O5 0.796410 0.500000 0.040919
O O6 0.500000 0.421484 0.000000
O O7 0.704532 0.408888 0.847345
O O8 0.455345 0.500000 0.331104
O O9 0.343605 0.366395 0.385965
O O10 0.750000 0.250000 0.500000
#
# Coordination Sequence:
#
# PCOD9217796 Si02
#       4
#     8   8   8   8
#     4  11  22  41  69  97 134 181 226 278 346 402
#     4   8  17  38  66 100 140 172 214 280 348 413
#     4  10  23  45  71 103 140 177 220 282 350 411
#     4  12  26  43  66  98 137 185 236 288 332 395
#
# _framework density 22.834389999999999
#
# number of rings (size 3 to 8) (size 9 to 14) (size 15 to 20)
#    0.000    1.750    2.500    3.000    0.000    4.000 
#    4.500    6.250    0.000    7.500    0.000    0.000 
#    0.000    0.000    0.000    0.000    0.000    0.000 
#
# Total GULP energy -89464.961762 kJ/mol
# GULP energy per Si atom -5591.560110 kJ/mol
# Density = 2.278242 g / cm^3
# Si number density = 22.834390 Si / 1000 Ang^3
#
#
#
# Elastic Constant Matrix: (Units=GPa)
#
#
# Indices 1 2 3 4 5 6 
#
# 1 132.4784 69.6175 42.2550 0.0000 17.1342 0.0000
# 2 69.6175 177.8647 43.6058 0.0000 9.2252 0.0000
# 3 42.2550 43.6058 79.3784 0.0000 19.5265 0.0000
# 4 0.0000 0.0000 0.0000 33.7302 0.0000 -13.5333
# 5 17.1342 9.2252 19.5265 0.0000 24.1875 0.0000
# 6 0.0000 0.0000 0.0000 -13.5333 0.0000 -9.3808
#
#
#
# Elastic Compliance Matrix: (Units=1/GPa)
#
#
# Indices 1 2 3 4 5 6 
#
# 1 0.010715 -0.003270 -0.002929 0.000000 -0.003979 0.000000
# 2 -0.003270 0.007500 -0.002802 0.000000 0.001718 0.000000
# 3 -0.002929 -0.002802 0.018621 0.000000 -0.011889 0.000000
# 4 0.000000 0.000000 0.000000 0.018778 0.000000 -0.027090
# 5 -0.003979 0.001718 -0.011889 0.000000 0.053105 0.000000
# 6 0.000000 0.000000 0.000000 -0.027090 0.000000 -0.067519
#
#
# Mechanical properties :
#
#
# Convention : Reuss Voigt Hill
#
# Bulk Modulus (GPa) = 53.09343 77.85311 65.47327
# Shear Modulus (GPa) = 76.35917 25.32361 50.84139
#
# Velocity S-wave (km/s) = 5.78904 3.33380 4.72373
# Velocity P-wave (km/s) = 8.24536 6.99912 7.64767
#
# Compressibility (1/GPa) = 0.01883472
#
# Stress axis : x y z
#
# Youngs Moduli (GPa) = 93.32277 133.33564 53.70270
#
# Poissons Ratio (x) = 0.43596 0.15730
# Poissons Ratio (y) = 0.30513 0.15048
# Poissons Ratio (z) = 0.27336 0.37361
#
# Static dielectric constant tensor:
#      x y z
#    x 1.863450 0.000000 -0.041260 
#    y 0.000000 1.810210 0.000000 
#    z -0.041260 0.000000 1.995450 
# 
# From -- ./inp_files/71622.got.cif
#   From: 2010.05.17/outbox.cif.g08.bks.cpg/sg12_36_cif.got.tgz:71622.got - 2010.06.03 13:09:07.
