data_PCOD9217000
_publ_section_title
;
Structure prediction by ZEFSAII (Michael W. Deem and Ramdas Pophale) SiO2 
 PCOD9217000
Probable space group: C 2/M
;
_chemical_formula_sum "Si O2"
_cell_formula_units_Z 64
_cell_length_a 9.354012
_cell_length_b 18.621921
_cell_length_c 29.410557
_cell_angle_alpha 90.000000
_cell_angle_beta 36.418906
_cell_angle_gamma 90.000000
_cell_volume 3041.454499
_symmetry_space_group_name_H-M "C 2/M"
_symmetry_group_IT_number 12
_symmetry_cell_setting 'monoclinic'
loop_
_space_group_symop_operation_xyz
x,y,z
-x,y,-z
-x,-y,-z
x,-y,z
1/2+x,1/2+y,z
1/2-x,1/2+y,-z
1/2-x,1/2-y,-z
1/2+x,1/2-y,z
loop_
_atom_site_type_symbol
_atom_site_label
_atom_site_fract_x
_atom_site_fract_y
_atom_site_fract_z
Si Si1 0.895057 0.165331 0.159560
Si Si2 0.842448 0.327136 0.994951
Si Si3 0.391606 0.670987 0.573777
Si Si4 0.394529 0.085768 0.152269
Si Si5 0.969468 0.705590 0.205034
Si Si6 0.935655 0.415663 0.690787
Si Si7 0.575487 0.695815 0.621736
Si Si8 0.847892 0.915435 0.321051
O O1 0.676097 0.203792 0.189432
O O2 0.777710 0.105539 0.220969
O O3 0.008648 0.227650 0.161599
O O4 0.094290 0.135720 0.074456
O O5 0.987659 0.373631 0.920815
O O6 0.750000 0.250000 0.000000
O O7 0.000000 0.317902 0.000000
O O8 0.500000 0.638665 0.500000
O O9 0.575059 0.684139 0.567844
O O10 0.179518 0.619784 0.645519
O O11 0.256000 0.743036 0.592386
O O12 0.481962 0.130932 0.173901
O O13 0.104181 0.094093 0.229578
O O14 0.446314 0.000000 0.139902
O O15 0.701785 0.714431 0.294120
O O16 0.962052 0.500000 0.681447
O O17 0.858838 0.388485 0.660290
O O18 0.640266 0.626424 0.634943
O O19 0.816630 0.000000 0.336727
#
# Coordination Sequence:
#
# PCOD9217000 Si02
#       8
#     8   8   8   8   8   8   8   8
#     4  12  24  39  66  93 123 165 220 263 319 374
#     4  12  25  40  63  90 128 170 215 267 321 381
#     4  12  25  42  66  97 131 165 203 260 321 383
#     4  10  23  41  63  93 129 167 213 268 323 371
#     4  11  22  39  66  92 119 165 208 264 310 374
#     4  11  24  42  63  93 127 165 214 263 313 383
#     4  11  21  40  66  96 125 162 210 261 310 378
#     4   9  21  41  68  93 125 171 216 260 314 376
#
# _framework density 21.042563999999999
#
# number of rings (size 3 to 8) (size 9 to 14) (size 15 to 20)
#    0.000    1.000    3.750    2.625    3.500    2.000 
#    0.000    0.625    0.000    1.875    0.000    0.000 
#    0.000    0.000    0.000    0.000    0.000    0.000 
#
# Total GULP energy -178959.425518 kJ/mol
# GULP energy per Si atom -5592.482047 kJ/mol
# Density = 2.099467 g / cm^3
# Si number density = 21.042564 Si / 1000 Ang^3
#
#
#
# Elastic Constant Matrix: (Units=GPa)
#
#
# Indices 1 2 3 4 5 6 
#
# 1 85.4225 15.5746 -3.2236 -0.0074 10.2784 0.0022
# 2 15.5746 79.9632 9.4533 -0.0061 7.2930 0.0037
# 3 -3.2236 9.4533 46.9109 -0.0124 13.7006 0.0061
# 4 -0.0074 -0.0061 -0.0124 14.3676 0.0039 8.4737
# 5 10.2784 7.2930 13.7006 0.0039 28.3006 -0.0025
# 6 0.0022 0.0037 0.0061 8.4737 -0.0025 22.3653
#
#
#
# Elastic Compliance Matrix: (Units=1/GPa)
#
#
# Indices 1 2 3 4 5 6 
#
# 1 0.012914 -0.002364 0.002976 0.000014 -0.005522 -0.000008
# 2 -0.002364 0.013384 -0.002449 0.000005 -0.001405 -0.000003
# 3 0.002976 -0.002449 0.025793 0.000040 -0.012937 -0.000024
# 4 0.000014 0.000005 0.000040 0.089630 -0.000041 -0.033959
# 5 -0.005522 -0.001405 -0.012937 -0.000041 0.043965 0.000025
# 6 -0.000008 -0.000003 -0.000024 -0.033959 0.000025 0.057579
#
#
# Mechanical properties :
#
#
# Convention : Reuss Voigt Hill
#
# Bulk Modulus (GPa) = 20.65309 28.43391 24.54350
# Shear Modulus (GPa) = 19.00585 25.70616 22.35601
#
# Velocity S-wave (km/s) = 3.00861 3.49897 3.26301
# Velocity P-wave (km/s) = 4.68030 5.46494 5.08777
#
# Compressibility (1/GPa) = 0.04841890
#
# Stress axis : x y z
#
# Youngs Moduli (GPa) = 77.43405 74.71728 38.76971
#
# Poissons Ratio (x) = 0.17660 -0.11540
# Poissons Ratio (y) = 0.18302 0.09495
# Poissons Ratio (z) = -0.23048 0.18299
#
# Static dielectric constant tensor:
#      x y z
#    x 1.759780 0.000000 0.010890 
#    y 0.000000 1.725910 -0.000010 
#    z 0.010890 -0.000010 1.793290 
# 
# From -- ./inp_files/333766.got.cif
#   From: 2010.05.17/outbox.cif.g08.bks.cpg/sg12_167_cif.got.tgz:333766.got - 2010.06.03 13:09:07.
