data_PCOD9217168
_publ_section_title
;
Structure prediction by ZEFSAII (Michael W. Deem and Ramdas Pophale) SiO2 
 PCOD9217168
Probable space group: C 2/M
;
_chemical_formula_sum "Si O2"
_cell_formula_units_Z 56
_cell_length_a 21.046491
_cell_length_b 8.900877
_cell_length_c 29.603510
_cell_angle_alpha 90.000000
_cell_angle_beta 148.847583
_cell_angle_gamma 90.000000
_cell_volume 2868.877526
_symmetry_space_group_name_H-M "C 2/M"
_symmetry_group_IT_number 12
_symmetry_cell_setting 'monoclinic'
loop_
_space_group_symop_operation_xyz
x,y,z
-x,y,-z
-x,-y,-z
x,-y,z
1/2+x,1/2+y,z
1/2-x,1/2+y,-z
1/2-x,1/2-y,-z
1/2+x,1/2-y,z
loop_
_atom_site_type_symbol
_atom_site_label
_atom_site_fract_x
_atom_site_fract_y
_atom_site_fract_z
Si Si1 0.732724 0.675306 0.703143
Si Si2 0.592778 0.819489 0.271796
Si Si3 0.892086 0.172679 0.871144
Si Si4 0.984065 0.321931 0.543269
Si Si5 0.166315 0.176501 0.909881
Si Si6 0.677323 0.672642 0.067844
Si Si7 0.751390 0.819831 0.451079
O O1 0.699784 0.500000 0.681716
O O2 0.794025 0.717713 0.692651
O O3 0.836273 0.709904 0.802873
O O4 0.614199 0.772722 0.642963
O O5 0.469941 0.743851 0.178243
O O6 0.635908 0.776505 0.348554
O O7 0.576355 0.000000 0.260402
O O8 0.833303 0.192476 0.884930
O O9 0.867945 0.000000 0.841744
O O10 0.038346 0.188324 0.965129
O O11 0.964016 0.500000 0.535081
O O12 0.873232 0.235617 0.499424
O O13 0.000000 0.283286 0.500000
O O14 0.235012 0.215157 0.904881
O O15 0.158626 0.000000 0.913601
O O16 0.250000 0.250000 0.000000
O O17 0.717142 0.500000 0.083138
O O18 0.750000 0.750000 0.500000
O O19 0.751900 0.000000 0.454496
#
# Coordination Sequence:
#
# PCOD9217168 Si02
#       7
#     8   8   8   8   8   8   8
#     4  11  22  37  61  91 121 156 202 251 308 367
#     4  10  23  42  63  88 122 163 205 255 312 369
#     4   9  19  36  59  87 117 154 197 246 303 361
#     4  11  23  40  65  93 122 159 205 255 308 369
#     4  12  25  39  60  88 121 160 204 251 304 366
#     4   9  19  38  60  82 116 157 198 246 301 358
#     4  11  24  44  68  95 131 170 212 263 322 382
#
# _framework density 19.519829000000001
#
# number of rings (size 3 to 8) (size 9 to 14) (size 15 to 20)
#    0.000    1.571    1.429    4.286    0.000    7.429 
#    0.000    2.857    0.000    0.000    0.000    0.000 
#    0.000    0.000    0.000    0.000    0.000    0.000 
#
# Total GULP energy -156451.149930 kJ/mol
# GULP energy per Si atom -5587.541069 kJ/mol
# Density = 1.947540 g / cm^3
# Si number density = 19.519829 Si / 1000 Ang^3
#
#
#
# Elastic Constant Matrix: (Units=GPa)
#
#
# Indices 1 2 3 4 5 6 
#
# 1 67.8144 38.5371 42.8397 0.0000 4.6236 0.0000
# 2 38.5371 56.6701 44.6456 0.0000 0.4470 0.0001
# 3 42.8397 44.6456 97.7234 0.0000 -8.2404 0.0000
# 4 0.0000 0.0000 0.0000 32.0108 0.0000 1.1546
# 5 4.6236 0.4470 -8.2404 0.0000 27.4263 0.0000
# 6 0.0000 0.0001 0.0000 1.1546 0.0000 31.4631
#
#
#
# Elastic Compliance Matrix: (Units=1/GPa)
#
#
# Indices 1 2 3 4 5 6 
#
# 1 0.026503 -0.013150 -0.006125 0.000000 -0.006094 0.000000
# 2 -0.013150 0.034606 -0.010164 0.000000 -0.001401 0.000000
# 3 -0.006125 -0.010164 0.018121 0.000000 0.006643 0.000000
# 4 0.000000 0.000000 0.000000 0.031281 0.000000 -0.001148
# 5 -0.006094 -0.001401 0.006643 0.000000 0.039507 0.000000
# 6 0.000000 0.000000 0.000000 -0.001148 0.000000 0.031825
#
#
# Mechanical properties :
#
#
# Convention : Reuss Voigt Hill
#
# Bulk Modulus (GPa) = 49.12875 52.69476 50.91175
# Shear Modulus (GPa) = 20.20152 24.59241 22.39697
#
# Velocity S-wave (km/s) = 3.22051 3.55331 3.39100
# Velocity P-wave (km/s) = 6.24918 6.62486 6.43976
#
# Compressibility (1/GPa) = 0.02035468
#
# Stress axis : x y z
#
# Youngs Moduli (GPa) = 37.73095 28.89653 55.18324
#
# Poissons Ratio (x) = 0.37998 0.33799
# Poissons Ratio (y) = 0.49615 0.56086
# Poissons Ratio (z) = 0.23110 0.29369
#
# Static dielectric constant tensor:
#      x y z
#    x 1.677190 0.000000 -0.015250 
#    y 0.000000 1.667010 0.000000 
#    z -0.015250 0.000000 1.688210 
# 
# From -- ./inp_files/380726.got.cif
#   From: 2010.05.17/outbox.cif.g08.bks.cpg/sg12_191_cif.got.tgz:380726.got - 2010.06.03 13:09:07.
