data_PCOD9217287
_publ_section_title
;
Structure prediction by ZEFSAII (Michael W. Deem and Ramdas Pophale) SiO2 
 PCOD9217287
Probable space group: C 2/M
;
_chemical_formula_sum "Si O2"
_cell_formula_units_Z 42
_cell_length_a 18.246588
_cell_length_b 19.969146
_cell_length_c 5.033582
_cell_angle_alpha 90.000000
_cell_angle_beta 84.525793
_cell_angle_gamma 90.000000
_cell_volume 1825.715340
_symmetry_space_group_name_H-M "C 2/M"
_symmetry_group_IT_number 12
_symmetry_cell_setting 'monoclinic'
loop_
_space_group_symop_operation_xyz
x,y,z
-x,y,-z
-x,-y,-z
x,-y,z
1/2+x,1/2+y,z
1/2-x,1/2+y,-z
1/2-x,1/2-y,-z
1/2+x,1/2-y,z
loop_
_atom_site_type_symbol
_atom_site_label
_atom_site_fract_x
_atom_site_fract_y
_atom_site_fract_z
Si Si1 0.370203 0.573789 0.235363
Si Si2 0.918161 0.201565 0.908015
Si Si3 0.000000 0.500000 0.000000
Si Si4 0.303074 0.809007 0.895590
Si Si5 0.226165 0.389232 0.585870
Si Si6 0.000000 0.119403 0.500000
Si Si7 0.889540 0.500000 0.540579
O O1 0.357566 0.500000 0.111883
O O2 0.306497 0.582118 0.480526
O O3 0.454296 0.574649 0.313101
O O4 0.370700 0.642572 0.064357
O O5 0.882295 0.274140 0.907566
O O6 0.935793 0.169135 0.618923
O O7 0.000000 0.205433 0.000000
O O8 0.051822 0.500000 0.718123
O O9 0.926299 0.500000 0.818629
O O10 0.286639 0.824921 0.596497
O O11 0.250000 0.750000 0.000000
O O12 0.288261 0.870157 0.103508
O O13 0.163698 0.437550 0.493497
#
# Coordination Sequence:
#
# PCOD9217287 Si02
#       7
#     8   8   2   8   8   4   4
#     4  11  23  42  68 102 139 188 231 296 347 429
#     4  10  24  43  65  95 141 182 236 288 347 425
#     4  10  24  50  80  94 152 174 226 316 370 430
#     4  12  25  44  70 103 141 190 234 293 356 423
#     4  12  26  45  75 106 143 184 243 295 365 431
#     4  10  23  42  66 100 140 191 232 292 348 421
#     4  11  24  52  74 111 137 187 238 308 369 438
#
# _framework density 23.00468
#
# number of rings (size 3 to 8) (size 9 to 14) (size 15 to 20)
#    0.000    0.952    2.857    3.143    5.333    4.190 
#   10.286    0.000    0.000    0.000    0.000    0.000 
#    0.000    0.000    0.000    0.000    0.000    0.000 
#
# Total GULP energy -116916.883276 kJ/mol
# GULP energy per Si atom -5567.470632 kJ/mol
# Density = 2.295232 g / cm^3
# Si number density = 23.004680 Si / 1000 Ang^3
#
#
#
# Elastic Constant Matrix: (Units=GPa)
#
#
# Indices 1 2 3 4 5 6 
#
# 1 108.4885 17.4269 12.4303 0.0000 -1.0488 0.0000
# 2 17.4269 55.7400 -0.6625 0.0000 -5.5012 0.0000
# 3 12.4303 -0.6625 96.6384 0.0000 -3.1054 0.0000
# 4 0.0000 0.0000 0.0000 58.7606 0.0000 -60.7811
# 5 -1.0488 -5.5012 -3.1054 0.0000 41.1647 0.0000
# 6 0.0000 0.0000 0.0000 -60.7811 0.0000 106.7670
#
#
#
# Elastic Compliance Matrix: (Units=1/GPa)
#
#
# Indices 1 2 3 4 5 6 
#
# 1 0.009866 -0.003126 -0.001299 0.000000 -0.000264 0.000000
# 2 -0.003126 0.019175 0.000615 0.000000 0.002529 0.000000
# 3 -0.001299 0.000615 0.010546 0.000000 0.000845 0.000000
# 4 0.000000 0.000000 0.000000 0.041393 0.000000 0.023564
# 5 -0.000264 0.002529 0.000845 0.000000 0.024688 0.000000
# 6 0.000000 0.000000 0.000000 0.023564 0.000000 0.022781
#
#
# Mechanical properties :
#
#
# Convention : Reuss Voigt Hill
#
# Bulk Modulus (GPa) = 31.28268 35.47292 33.37780
# Shear Modulus (GPa) = 34.07741 56.78328 45.43035
#
# Velocity S-wave (km/s) = 3.85297 4.97362 4.44873
# Velocity P-wave (km/s) = 5.78116 6.95959 6.39757
#
# Compressibility (1/GPa) = 0.03196657
#
# Stress axis : x y z
#
# Youngs Moduli (GPa) = 101.35818 52.15194 94.82006
#
# Poissons Ratio (x) = 0.16303 0.12317
# Poissons Ratio (y) = 0.31686 -0.05830
# Poissons Ratio (z) = 0.13166 -0.03206
#
# Static dielectric constant tensor:
#      x y z
#    x 1.921520 0.000000 -0.000870 
#    y 0.000000 2.036460 0.000000 
#    z -0.000870 0.000000 1.967130 
# 
# From -- ./inp_files/16053.got.cif
#   From: 2010.05.17/outbox.cif.g08.bks.cpg/sg12_9_cif.got.tgz:16053.got - 2010.06.03 13:09:07.
