data_PCOD9217574
_publ_section_title
;
Structure prediction by ZEFSAII (Michael W. Deem and Ramdas Pophale) SiO2 
 PCOD9217574
Probable space group: C 2/M
;
_chemical_formula_sum "Si O2"
_cell_formula_units_Z 56
_cell_length_a 26.707073
_cell_length_b 14.452751
_cell_length_c 11.807243
_cell_angle_alpha 90.000000
_cell_angle_beta 29.354625
_cell_angle_gamma 90.000000
_cell_volume 2234.141694
_symmetry_space_group_name_H-M "C 2/M"
_symmetry_group_IT_number 12
_symmetry_cell_setting 'monoclinic'
loop_
_space_group_symop_operation_xyz
x,y,z
-x,y,-z
-x,-y,-z
x,-y,z
1/2+x,1/2+y,z
1/2-x,1/2+y,-z
1/2-x,1/2-y,-z
1/2+x,1/2-y,z
loop_
_atom_site_type_symbol
_atom_site_label
_atom_site_fract_x
_atom_site_fract_y
_atom_site_fract_z
Si Si1 0.969868 0.607809 0.210597
Si Si2 0.460962 0.891489 0.690594
Si Si3 0.750300 0.890696 0.463416
Si Si4 0.736538 0.663737 0.109239
Si Si5 0.085920 0.102496 0.236626
Si Si6 0.357894 0.389684 0.477806
Si Si7 0.570832 0.299752 0.030613
O O1 0.005145 0.500000 0.120312
O O2 0.135313 0.623123 0.647067
O O3 0.957535 0.616642 0.370315
O O4 0.044992 0.694475 0.045901
O O5 0.500000 0.844458 0.500000
O O6 0.449059 0.000000 0.694704
O O7 0.346314 0.862046 0.942294
O O8 0.773600 0.869780 0.548403
O O9 0.771642 0.000000 0.406373
O O10 0.831670 0.835793 0.228392
O O11 0.687052 0.596738 0.113535
O O12 0.664590 0.664688 0.361553
O O13 0.750000 0.750000 0.000000
O O14 0.088906 0.175594 0.128466
O O15 0.000000 0.123870 0.500000
O O16 0.064582 0.000000 0.229990
O O17 0.355866 0.500000 0.505411
O O18 0.466568 0.357496 0.213712
#
# Coordination Sequence:
#
# PCOD9217574 Si02
#       7
#     8   8   8   8   8   8   8
#     4  10  25  48  72 105 155 206 259 316 384 464
#     4  10  23  43  69  98 137 190 249 306 369 448
#     4  10  24  49  81 113 150 203 261 324 387 455
#     4  12  26  42  71 106 151 197 247 311 385 464
#     4  11  23  42  70 109 153 193 246 318 392 464
#     4  11  24  47  77 113 154 197 257 321 389 463
#     4  12  24  41  78 116 154 198 260 323 387 462
#
# _framework density 25.065555
#
# number of rings (size 3 to 8) (size 9 to 14) (size 15 to 20)
#    0.000    1.143    1.429    3.857    4.000    4.000 
#    0.000    3.571    0.000    7.714    0.000    0.000 
#    0.000    0.000    0.000    0.000    0.000    0.000 
#
# Total GULP energy -156650.882473 kJ/mol
# GULP energy per Si atom -5594.674374 kJ/mol
# Density = 2.500850 g / cm^3
# Si number density = 25.065555 Si / 1000 Ang^3
#
#
#
# Elastic Constant Matrix: (Units=GPa)
#
#
# Indices 1 2 3 4 5 6 
#
# 1 186.3338 78.8417 42.7624 0.0000 -2.8617 0.0000
# 2 78.8417 158.4412 76.9727 0.0000 5.4708 0.0000
# 3 42.7624 76.9727 86.7116 0.0000 17.8907 0.0000
# 4 0.0000 0.0000 0.0000 26.4552 0.0000 -9.9048
# 5 -2.8617 5.4708 17.8907 0.0000 30.7514 0.0000
# 6 0.0000 0.0000 0.0000 -9.9048 0.0000 27.9110
#
#
#
# Elastic Compliance Matrix: (Units=1/GPa)
#
#
# Indices 1 2 3 4 5 6 
#
# 1 0.006905 -0.002918 -0.001199 0.000000 0.001859 0.000000
# 2 -0.002918 0.012846 -0.010724 0.000000 0.003682 0.000000
# 3 -0.001199 -0.010724 0.024175 0.000000 -0.012268 0.000000
# 4 0.000000 0.000000 0.000000 0.043592 0.000000 0.015469
# 5 0.001859 0.003682 -0.012268 0.000000 0.039174 0.000000
# 6 0.000000 0.000000 0.000000 0.015469 0.000000 0.041318
#
#
# Mechanical properties :
#
#
# Convention : Reuss Voigt Hill
#
# Bulk Modulus (GPa) = 70.20343 92.07113 81.13728
# Shear Modulus (GPa) = 24.69882 32.55083 28.62483
#
# Velocity S-wave (km/s) = 3.14246 3.60756 3.38301
# Velocity P-wave (km/s) = 6.42149 7.35965 6.90652
#
# Compressibility (1/GPa) = 0.01424432
#
# Stress axis : x y z
#
# Youngs Moduli (GPa) = 144.82385 77.84376 41.36575
#
# Poissons Ratio (x) = 0.22713 0.04958
# Poissons Ratio (y) = 0.42257 0.44362
# Poissons Ratio (z) = 0.17360 0.83482
#
# Static dielectric constant tensor:
#      x y z
#    x 1.488660 0.000000 -0.956280 
#    y 0.000000 2.065980 0.000000 
#    z -0.956280 0.000000 0.089480 
# 
# From -- ./inp_files/189595.got.cif
#   From: 2010.05.17/outbox.cif.g08.bks.cpg/sg12_95_cif.got.tgz:189595.got - 2010.06.03 13:09:07.
