data_PCOD9217652
_publ_section_title
;
Structure prediction by ZEFSAII (Michael W. Deem and Ramdas Pophale) SiO2 
 PCOD9217652
Probable space group: C 2/M
;
_chemical_formula_sum "Si O2"
_cell_formula_units_Z 32
_cell_length_a 7.377696
_cell_length_b 18.169109
_cell_length_c 10.202811
_cell_angle_alpha 90.000000
_cell_angle_beta 87.429419
_cell_angle_gamma 90.000000
_cell_volume 1366.271442
_symmetry_space_group_name_H-M "C 2/M"
_symmetry_group_IT_number 12
_symmetry_cell_setting 'monoclinic'
loop_
_space_group_symop_operation_xyz
x,y,z
-x,y,-z
-x,-y,-z
x,-y,z
1/2+x,1/2+y,z
1/2-x,1/2+y,-z
1/2-x,1/2-y,-z
1/2+x,1/2-y,z
loop_
_atom_site_type_symbol
_atom_site_label
_atom_site_fract_x
_atom_site_fract_y
_atom_site_fract_z
Si Si1 0.867275 0.584534 0.315572
Si Si2 0.782473 0.581711 0.021908
Si Si3 0.740888 0.159851 0.234803
Si Si4 0.091720 0.804185 0.368039
O O1 0.856449 0.500000 0.357145
O O2 0.753731 0.641589 0.404732
O O3 0.075759 0.607708 0.287102
O O4 0.766106 0.593052 0.177193
O O5 0.713441 0.500000 0.988462
O O6 0.720163 0.641506 0.918860
O O7 0.000000 0.579807 0.000000
O O8 0.668968 0.241895 0.268774
O O9 0.927486 0.152337 0.305755
O O10 0.000000 0.769772 0.500000
#
# Coordination Sequence:
#
# PCOD9217652 Si02
#       4
#     8   8   8   8
#     4  10  23  44  67  96 130 163 204 264 320 374
#     4   8  17  38  65  93 127 160 201 257 321 380
#     4  11  22  41  67  92 124 171 208 257 320 371
#     4  12  26  42  64  92 129 170 219 260 306 370
#
# _framework density 23.421408
#
# number of rings (size 3 to 8) (size 9 to 14) (size 15 to 20)
#    0.000    1.750    2.500    3.000    0.000    4.500 
#    4.500    3.750    0.000    0.000    0.000    0.000 
#    0.000    0.000    0.000    0.000    0.000    0.000 
#
# Total GULP energy -89403.318180 kJ/mol
# GULP energy per Si atom -5587.707386 kJ/mol
# Density = 2.336810 g / cm^3
# Si number density = 23.421408 Si / 1000 Ang^3
#
#
#
# Elastic Constant Matrix: (Units=GPa)
#
#
# Indices 1 2 3 4 5 6 
#
# 1 115.6909 32.4925 20.1460 0.0000 2.2809 0.0000
# 2 32.4925 121.2970 13.4407 0.0000 -8.6039 0.0000
# 3 20.1460 13.4407 52.3867 0.0000 2.8667 0.0000
# 4 0.0000 0.0000 0.0000 0.1258 0.0000 1.3072
# 5 2.2809 -8.6039 2.8667 0.0000 32.9057 0.0000
# 6 0.0000 0.0000 0.0000 1.3072 0.0000 109.2086
#
#
#
# Elastic Compliance Matrix: (Units=1/GPa)
#
#
# Indices 1 2 3 4 5 6 
#
# 1 0.009876 -0.002371 -0.003133 0.000000 -0.001032 0.000000
# 2 -0.002371 0.009251 -0.001611 0.000000 0.002724 0.000000
# 3 -0.003133 -0.001611 0.020817 0.000000 -0.002018 0.000000
# 4 0.000000 0.000000 0.000000 9.074858 0.000000 -0.108621
# 5 -0.001032 0.002724 -0.002018 0.000000 0.031349 0.000000
# 6 0.000000 0.000000 0.000000 -0.108621 0.000000 0.010457
#
#
# Mechanical properties :
#
#
# Convention : Reuss Voigt Hill
#
# Bulk Modulus (GPa) = 38.88921 46.83700 42.86310
# Shear Modulus (GPa) = 0.54470 43.33439 21.93954
#
# Velocity S-wave (km/s) = 0.48277 4.30607 3.06393
# Velocity P-wave (km/s) = 4.11715 6.69058 5.55494
#
# Compressibility (1/GPa) = 0.02571407
#
# Stress axis : x y z
#
# Youngs Moduli (GPa) = 101.25904 108.09475 48.03706
#
# Poissons Ratio (x) = 0.25634 0.15050
# Poissons Ratio (y) = 0.24013 0.07737
# Poissons Ratio (z) = 0.31724 0.17410
#
# Static dielectric constant tensor:
#      x y z
#    x 1.859290 0.000000 -0.016390 
#    y 0.000000 1.864300 0.000000 
#    z -0.016390 0.000000 2.005940 
# 
# From -- ./inp_files/117427.got.cif
#   From: 2010.05.17/outbox.cif.g08.bks.cpg/sg12_59_cif.got.tgz:117427.got - 2010.06.03 13:09:07.
