data_PCOD9217874
_publ_section_title
;
Structure prediction by ZEFSAII (Michael W. Deem and Ramdas Pophale) SiO2 
 PCOD9217874
Probable space group: C 2/M
;
_chemical_formula_sum "Si O2"
_cell_formula_units_Z 50
_cell_length_a 13.138800
_cell_length_b 13.378322
_cell_length_c 22.382548
_cell_angle_alpha 90.000000
_cell_angle_beta 153.110585
_cell_angle_gamma 90.000000
_cell_volume 1779.363191
_symmetry_space_group_name_H-M "C 2/M"
_symmetry_group_IT_number 12
_symmetry_cell_setting 'monoclinic'
loop_
_space_group_symop_operation_xyz
x,y,z
-x,y,-z
-x,-y,-z
x,-y,z
1/2+x,1/2+y,z
1/2-x,1/2+y,-z
1/2-x,1/2-y,-z
1/2+x,1/2-y,z
loop_
_atom_site_type_symbol
_atom_site_label
_atom_site_fract_x
_atom_site_fract_y
_atom_site_fract_z
Si Si1 0.878019 0.757592 0.702125
Si Si2 0.709661 0.622246 0.084028
Si Si3 0.500000 0.000000 0.000000
Si Si4 0.814146 0.381492 0.505710
Si Si5 0.057762 0.387924 0.920577
Si Si6 0.098528 0.881071 0.633271
Si Si7 0.844691 0.882571 0.802143
O O1 0.096025 0.699797 0.793359
O O2 0.760225 0.830969 0.594461
O O3 0.707288 0.670473 0.633192
O O4 0.925540 0.821168 0.787111
O O5 0.755829 0.500000 0.115504
O O6 0.777660 0.644834 0.045730
O O7 0.567099 0.634299 0.082086
O O8 0.378101 0.088167 0.977851
O O9 0.776824 0.500000 0.479298
O O10 0.637916 0.346185 0.463822
O O11 0.074857 0.369400 0.657835
O O12 0.007132 0.500000 0.872295
O O13 0.798281 0.350669 0.785611
O O14 0.075331 0.000000 0.612840
O O15 0.894422 0.000000 0.818248
#
# Coordination Sequence:
#
# PCOD9217874 Si02
#       7
#     8   8   2   8   8   8   8
#     4  11  24  45  77 109 156 203 261 335 400 464
#     4  11  25  45  70 108 159 212 258 315 395 486
#     4   8  16  32  62 108 134 182 262 316 396 410
#     4  10  23  47  81 115 150 200 268 339 398 467
#     4   8  17  36  65 101 142 191 251 318 373 449
#     4   9  20  42  73 107 151 198 264 319 385 488
#     4  11  25  47  75 111 155 201 263 334 399 473
#
# _framework density 28.099943
#
# number of rings (size 3 to 8) (size 9 to 14) (size 15 to 20)
#    0.480    1.600    0.000    1.920    2.240    5.120 
#    2.880    0.000    0.000    2.880    0.000    0.000 
#    0.000    0.000    0.000    0.000    0.000    0.000 
#
# Total GULP energy -139444.262857 kJ/mol
# GULP energy per Si atom -5577.770514 kJ/mol
# Density = 2.803599 g / cm^3
# Si number density = 28.099943 Si / 1000 Ang^3
#
#
#
# Elastic Constant Matrix: (Units=GPa)
#
#
# Indices 1 2 3 4 5 6 
#
# 1 242.9468 90.9789 63.6199 0.0016 14.3817 0.0022
# 2 90.9789 137.5355 88.8236 0.0021 0.3960 0.0013
# 3 63.6199 88.8236 164.9389 0.0061 -7.7192 0.0040
# 4 0.0016 0.0021 0.0061 36.4295 0.0028 1.5363
# 5 14.3817 0.3960 -7.7192 0.0028 53.7612 0.0019
# 6 0.0022 0.0013 0.0040 1.5363 0.0019 60.7524
#
#
#
# Elastic Compliance Matrix: (Units=1/GPa)
#
#
# Indices 1 2 3 4 5 6 
#
# 1 0.005599 -0.003463 -0.000366 0.000000 -0.001525 0.000000
# 2 -0.003463 0.013338 -0.005848 0.000000 -0.000012 0.000000
# 3 -0.000366 -0.005848 0.009423 -0.000001 0.001494 0.000000
# 4 0.000000 0.000000 -0.000001 0.027480 -0.000002 -0.000695
# 5 -0.001525 -0.000012 0.001494 -0.000002 0.019223 -0.000001
# 6 0.000000 0.000000 0.000000 -0.000695 -0.000001 0.016478
#
#
# Mechanical properties :
#
#
# Convention : Reuss Voigt Hill
#
# Bulk Modulus (GPa) = 111.02771 114.69625 112.86198
# Shear Modulus (GPa) = 43.89928 50.32187 47.11058
#
# Velocity S-wave (km/s) = 3.95683 4.23640 4.09899
# Velocity P-wave (km/s) = 7.77642 8.05203 7.91543
#
# Compressibility (1/GPa) = 0.00900676
#
# Stress axis : x y z
#
# Youngs Moduli (GPa) = 178.60130 74.97275 106.12107
#
# Poissons Ratio (x) = 0.25962 0.03886
# Poissons Ratio (y) = 0.61847 0.62057
# Poissons Ratio (z) = 0.06540 0.43842
#
# Static dielectric constant tensor:
#      x y z
#    x 2.250050 0.000000 0.003260 
#    y 0.000000 2.162640 0.000000 
#    z 0.003260 0.000000 2.423330 
# 
# From -- ./inp_files/339722.got.cif
#   From: 2010.05.17/outbox.cif.g08.bks.cpg/sg12_170_cif.got.tgz:339722.got - 2010.06.03 13:09:07.
