data_PCOD9217864
_publ_section_title
;
Structure prediction by ZEFSAII (Michael W. Deem and Ramdas Pophale) SiO2 
 PCOD9217864
Probable space group: C 2/M
;
_chemical_formula_sum "Si O2"
_cell_formula_units_Z 44
_cell_length_a 21.531842
_cell_length_b 7.553214
_cell_length_c 13.560208
_cell_angle_alpha 90.000000
_cell_angle_beta 88.715039
_cell_angle_gamma 90.000000
_cell_volume 2204.804564
_symmetry_space_group_name_H-M "C 2/M"
_symmetry_group_IT_number 12
_symmetry_cell_setting 'monoclinic'
loop_
_space_group_symop_operation_xyz
x,y,z
-x,y,-z
-x,-y,-z
x,-y,z
1/2+x,1/2+y,z
1/2-x,1/2+y,-z
1/2-x,1/2-y,-z
1/2+x,1/2-y,z
loop_
_atom_site_type_symbol
_atom_site_label
_atom_site_fract_x
_atom_site_fract_y
_atom_site_fract_z
Si Si1 0.204165 0.792949 0.910472
Si Si2 0.400794 0.000000 0.847154
Si Si3 0.312400 0.709604 0.769091
Si Si4 0.057516 0.211291 0.573719
Si Si5 0.024989 0.500000 0.733959
Si Si6 0.817495 0.211325 0.542875
Si Si7 0.600306 0.000000 0.931622
O O1 0.243196 0.744142 0.811433
O O2 0.144706 0.670595 0.921568
O O3 0.189706 0.000000 0.911867
O O4 0.250000 0.750000 0.000000
O O5 0.357757 0.828211 0.833317
O O6 0.452292 0.000000 0.760916
O O7 0.426898 0.000000 0.957087
O O8 0.325642 0.500000 0.776410
O O9 0.319300 0.771436 0.656133
O O10 0.044141 0.328909 0.669737
O O11 0.122651 0.271351 0.521687
O O12 0.000000 0.237360 0.500000
O O13 0.060839 0.000000 0.594898
O O14 0.056453 0.500000 0.839437
O O15 0.750000 0.250000 0.500000
O O16 0.823500 0.000000 0.546613
#
# Coordination Sequence:
#
# PCOD9217864 Si02
#       7
#     8   4   8   8   4   8   4
#     4  12  21  39  66  97 129 172 219 272 336 400
#     4  12  25  45  67  96 123 182 229 273 320 400
#     4  11  22  39  66  98 131 170 219 269 328 397
#     4  10  23  47  71  95 130 180 230 270 324 405
#     4  12  28  44  70  94 134 182 225 271 335 391
#     4  10  24  38  61  98 137 165 207 277 333 386
#     4  12  27  43  65  98 141 165 222 285 336 393
#
# _framework density 19.956416999999998
#
# number of rings (size 3 to 8) (size 9 to 14) (size 15 to 20)
#    0.000    0.909    4.545    1.636    5.091    2.909 
#    0.000    0.000    0.000    3.273    0.000    0.000 
#    0.000    0.000    0.000    0.000    0.000    0.000 
#
# Total GULP energy -122996.961783 kJ/mol
# GULP energy per Si atom -5590.770990 kJ/mol
# Density = 1.991099 g / cm^3
# Si number density = 19.956417 Si / 1000 Ang^3
#
#
#
# Elastic Constant Matrix: (Units=GPa)
#
#
# Indices 1 2 3 4 5 6 
#
# 1 105.3685 28.6105 43.8123 0.0000 -20.8410 0.0000
# 2 28.6105 125.8135 41.3852 0.0000 -3.1297 0.0000
# 3 43.8123 41.3852 127.8623 0.0000 -14.8510 0.0000
# 4 0.0000 0.0000 0.0000 26.9966 0.0000 -4.1372
# 5 -20.8410 -3.1297 -14.8510 0.0000 45.2159 0.0000
# 6 0.0000 0.0000 0.0000 -4.1372 0.0000 20.7392
#
#
#
# Elastic Compliance Matrix: (Units=1/GPa)
#
#
# Indices 1 2 3 4 5 6 
#
# 1 0.012101 -0.001620 -0.003106 0.000000 0.004445 0.000000
# 2 -0.001620 0.009117 -0.002505 0.000000 -0.000938 0.000000
# 3 -0.003106 -0.002505 0.009887 0.000000 0.001642 0.000000
# 4 0.000000 0.000000 0.000000 0.038210 0.000000 0.007622
# 5 0.004445 -0.000938 0.001642 0.000000 0.024640 0.000000
# 6 0.000000 0.000000 0.000000 0.007622 0.000000 0.049738
#
#
# Mechanical properties :
#
#
# Convention : Reuss Voigt Hill
#
# Bulk Modulus (GPa) = 60.08181 65.18446 62.63314
# Shear Modulus (GPa) = 30.54339 34.93943 32.74141
#
# Velocity S-wave (km/s) = 3.91641 4.18878 4.05488
# Velocity P-wave (km/s) = 7.11498 7.49192 7.30588
#
# Compressibility (1/GPa) = 0.01664397
#
# Stress axis : x y z
#
# Youngs Moduli (GPa) = 82.63817 109.68252 101.14605
#
# Poissons Ratio (x) = 0.17764 0.31415
# Poissons Ratio (y) = 0.13384 0.25337
# Poissons Ratio (z) = 0.25666 0.27475
#
# Static dielectric constant tensor:
#      x y z
#    x 1.699080 0.000000 -0.008710 
#    y 0.000000 1.688270 0.000000 
#    z -0.008710 0.000000 1.710270 
# 
# From -- ./inp_files/163256.got.cif
#   From: 2010.05.17/outbox.cif.g08.bks.cpg/sg12_82_cif.got.tgz:163256.got - 2010.06.03 13:09:07.
