data_PCOD9217843
_publ_section_title
;
Structure prediction by ZEFSAII (Michael W. Deem and Ramdas Pophale) SiO2 
 PCOD9217843
Probable space group: C 2/M
;
_chemical_formula_sum "Si O2"
_cell_formula_units_Z 32
_cell_length_a 25.945815
_cell_length_b 8.693898
_cell_length_c 19.654162
_cell_angle_alpha 90.000000
_cell_angle_beta 17.562360
_cell_angle_gamma 90.000000
_cell_volume 1337.748604
_symmetry_space_group_name_H-M "C 2/M"
_symmetry_group_IT_number 12
_symmetry_cell_setting 'monoclinic'
loop_
_space_group_symop_operation_xyz
x,y,z
-x,y,-z
-x,-y,-z
x,-y,z
1/2+x,1/2+y,z
1/2-x,1/2+y,-z
1/2-x,1/2-y,-z
1/2+x,1/2-y,z
loop_
_atom_site_type_symbol
_atom_site_label
_atom_site_fract_x
_atom_site_fract_y
_atom_site_fract_z
Si Si1 0.152469 0.500000 0.015467
Si Si2 0.315325 0.258443 0.709342
Si Si3 0.781196 0.500000 0.529002
Si Si4 0.157164 0.831371 0.480189
Si Si5 0.401716 0.500000 0.987004
Si Si6 0.336308 0.500000 0.921600
O O1 0.947888 0.500000 0.271489
O O2 0.242839 0.361472 0.861713
O O3 0.196004 0.500000 0.040540
O O4 0.500000 0.196154 0.500000
O O5 0.344960 0.331952 0.598711
O O6 0.160594 0.142870 0.892075
O O7 0.783939 0.664539 0.566198
O O8 0.598942 0.500000 0.721029
O O9 0.962164 0.855290 0.750807
O O10 0.240180 0.000000 0.394815
O O11 0.290005 0.500000 0.058431
#
# Coordination Sequence:
#
# PCOD9217843 Si02
#       6
#     4   8   4   8   4   4
#     4  12  24  45  82 107 146 187 247 309 368 439
#     4  12  23  46  75 108 144 187 246 310 368 427
#     4  12  29  49  70 111 153 198 241 297 364 445
#     4  10  23  47  75 106 149 187 248 301 369 432
#     4  12  30  45  68 108 154 194 246 293 366 445
#     4  10  23  46  72 112 141 190 250 299 366 435
#
# _framework density 23.920787000000001
#
# number of rings (size 3 to 8) (size 9 to 14) (size 15 to 20)
#    0.750    0.000    3.750    3.000    3.500    8.000 
#    2.250    1.250    0.000    0.000    0.000    0.000 
#    0.000    0.000    0.000    0.000    0.000    0.000 
#
# Total GULP energy -89250.663057 kJ/mol
# GULP energy per Si atom -5578.166441 kJ/mol
# Density = 2.386634 g / cm^3
# Si number density = 23.920787 Si / 1000 Ang^3
#
#
#
# Elastic Constant Matrix: (Units=GPa)
#
#
# Indices 1 2 3 4 5 6 
#
# 1 85.2692 25.9608 37.3450 -0.0001 5.2451 0.0001
# 2 25.9608 135.3498 29.8970 -0.0002 -10.4688 0.0001
# 3 37.3450 29.8970 138.8746 -0.0003 -0.8488 0.0003
# 4 -0.0001 -0.0002 -0.0003 36.8315 0.0000 -8.8022
# 5 5.2451 -10.4688 -0.8488 0.0000 36.9109 0.0000
# 6 0.0001 0.0001 0.0003 -8.8022 0.0000 35.3126
#
#
#
# Elastic Compliance Matrix: (Units=1/GPa)
#
#
# Indices 1 2 3 4 5 6 
#
# 1 0.014003 -0.002160 -0.003317 0.000000 -0.002679 0.000000
# 2 -0.002160 0.008267 -0.001183 0.000000 0.002624 0.000000
# 3 -0.003317 -0.001183 0.008349 0.000000 0.000328 0.000000
# 4 0.000000 0.000000 0.000000 0.028870 0.000000 0.007196
# 5 -0.002679 0.002624 0.000328 0.000000 0.028225 0.000000
# 6 0.000000 0.000000 0.000000 0.007196 0.000000 0.030112
#
#
# Mechanical properties :
#
#
# Convention : Reuss Voigt Hill
#
# Bulk Modulus (GPa) = 57.80626 60.65547 59.23087
# Shear Modulus (GPa) = 36.51966 39.56373 38.04170
#
# Velocity S-wave (km/s) = 3.91153 4.07129 3.99221
# Velocity P-wave (km/s) = 6.67969 6.89292 6.78714
#
# Compressibility (1/GPa) = 0.01729916
#
# Stress axis : x y z
#
# Youngs Moduli (GPa) = 71.41475 120.96478 119.77081
#
# Poissons Ratio (x) = 0.26133 0.39725
# Poissons Ratio (y) = 0.15428 0.14165
# Poissons Ratio (z) = 0.23687 0.14307
#
# Static dielectric constant tensor:
#      x y z
#    x 1.873700 0.000000 -0.031240 
#    y 0.000000 1.917080 0.000000 
#    z -0.031240 0.000000 1.817320 
# 
# From -- ./inp_files/327138.got.cif
#   From: 2010.05.17/outbox.cif.g08.bks.cpg/sg12_164_cif.got.tgz:327138.got - 2010.06.03 13:09:07.
