data_PCOD9217220
_publ_section_title
;
Structure prediction by ZEFSAII (Michael W. Deem and Ramdas Pophale) SiO2 
 PCOD9217220
Probable space group: C 2/M
;
_chemical_formula_sum "Si O2"
_cell_formula_units_Z 56
_cell_length_a 25.658032
_cell_length_b 8.964403
_cell_length_c 14.757426
_cell_angle_alpha 90.000000
_cell_angle_beta 58.078570
_cell_angle_gamma 90.000000
_cell_volume 2881.027383
_symmetry_space_group_name_H-M "C 2/M"
_symmetry_group_IT_number 12
_symmetry_cell_setting 'monoclinic'
loop_
_space_group_symop_operation_xyz
x,y,z
-x,y,-z
-x,-y,-z
x,-y,z
1/2+x,1/2+y,z
1/2-x,1/2+y,-z
1/2-x,1/2-y,-z
1/2+x,1/2-y,z
loop_
_atom_site_type_symbol
_atom_site_label
_atom_site_fract_x
_atom_site_fract_y
_atom_site_fract_z
Si Si1 0.109462 0.322344 0.276684
Si Si2 0.324599 0.824049 0.185804
Si Si3 0.502960 0.321568 0.275318
Si Si4 0.777494 0.177010 0.564743
Si Si5 0.250890 0.177750 0.900477
Si Si6 0.906482 0.679209 0.501908
Si Si7 0.952620 0.179415 0.123471
O O1 0.101005 0.500000 0.271956
O O2 0.181853 0.290736 0.203754
O O3 0.085816 0.283004 0.399001
O O4 0.070699 0.235977 0.237246
O O5 0.271702 0.802752 0.309774
O O6 0.301005 0.745254 0.116517
O O7 0.387668 0.755566 0.164237
O O8 0.331911 0.000000 0.163335
O O9 0.500558 0.500000 0.284455
O O10 0.458069 0.248617 0.390587
O O11 0.480348 0.278684 0.195717
O O12 0.750000 0.250000 0.500000
O O13 0.840962 0.256639 0.531357
O O14 0.787628 0.000000 0.542530
O O15 0.243615 0.000000 0.913287
O O16 0.250000 0.250000 0.000000
O O17 0.907030 0.500000 0.493626
O O18 0.944391 0.000000 0.130407
O O19 0.000000 0.218133 0.000000
#
# Coordination Sequence:
#
# PCOD9217220 Si02
#       7
#     8   8   8   8   8   8   8
#     4  10  23  42  64  92 127 168 208 254 315 377
#     4  11  24  42  65  96 127 163 209 262 316 373
#     4  11  24  40  63  94 127 166 212 264 317 371
#     4  11  23  38  61  92 128 166 209 258 314 376
#     4  11  24  43  67  96 129 168 211 260 316 375
#     4  11  22  40  63  90 126 167 210 254 314 380
#     4  10  24  45  65  89 123 167 212 258 315 375
#
# _framework density 19.43751
#
# number of rings (size 3 to 8) (size 9 to 14) (size 15 to 20)
#    0.000    1.286    1.429    3.429    2.000    9.429 
#    0.000    0.000    0.000    0.000    0.000    0.000 
#    0.000    0.000    0.000    0.000    0.000    0.000 
#
# Total GULP energy -156637.645208 kJ/mol
# GULP energy per Si atom -5594.201615 kJ/mol
# Density = 1.939327 g / cm^3
# Si number density = 19.437510 Si / 1000 Ang^3
#
#
#
# Elastic Constant Matrix: (Units=GPa)
#
#
# Indices 1 2 3 4 5 6 
#
# 1 141.9385 47.7188 19.8398 0.0000 24.0414 0.0000
# 2 47.7188 44.5927 31.6031 0.0000 12.6569 0.0000
# 3 19.8398 31.6031 63.8870 0.0000 23.8560 0.0000
# 4 0.0000 0.0000 0.0000 30.4242 0.0000 -0.7335
# 5 24.0414 12.6569 23.8560 0.0000 36.8586 0.0000
# 6 0.0000 0.0000 0.0000 -0.7335 0.0000 41.3513
#
#
#
# Elastic Compliance Matrix: (Units=1/GPa)
#
#
# Indices 1 2 3 4 5 6 
#
# 1 0.012895 -0.016667 0.006915 0.000000 -0.007163 0.000000
# 2 -0.016667 0.056103 -0.025639 0.000000 0.008200 0.000000
# 3 0.006915 -0.025639 0.032420 0.000000 -0.016689 0.000000
# 4 0.000000 0.000000 0.000000 0.032883 0.000000 0.000583
# 5 -0.007163 0.008200 -0.016689 0.000000 0.039789 0.000000
# 6 0.000000 0.000000 0.000000 0.000583 0.000000 0.024193
#
#
# Mechanical properties :
#
#
# Convention : Reuss Voigt Hill
#
# Bulk Modulus (GPa) = 32.64007 49.86017 41.25012
# Shear Modulus (GPa) = 17.90328 31.81059 24.85693
#
# Velocity S-wave (km/s) = 3.03820 4.04983 3.57993
# Velocity P-wave (km/s) = 5.39781 6.89749 6.19321
#
# Compressibility (1/GPa) = 0.03063719
#
# Stress axis : x y z
#
# Youngs Moduli (GPa) = 77.54729 17.82420 30.84502
#
# Poissons Ratio (x) = 0.29707 -0.21329
# Poissons Ratio (y) = 1.29246 0.79084
# Poissons Ratio (z) = -0.53623 0.45700
#
# Static dielectric constant tensor:
#      x y z
#    x 1.650260 0.000000 -0.003720 
#    y 0.000000 1.647440 0.000000 
#    z -0.003720 0.000000 1.666580 
# 
# From -- ./inp_files/238358.got.cif
#   From: 2010.05.17/outbox.cif.g08.bks.cpg/sg12_120_cif.got.tgz:238358.got - 2010.06.03 13:09:07.
