data_PCOD9217601
_publ_section_title
;
Structure prediction by ZEFSAII (Michael W. Deem and Ramdas Pophale) SiO2 
 PCOD9217601
Probable space group: C 2/M
;
_chemical_formula_sum "Si O2"
_cell_formula_units_Z 48
_cell_length_a 11.265510
_cell_length_b 25.049524
_cell_length_c 14.538536
_cell_angle_alpha 90.000000
_cell_angle_beta 29.608429
_cell_angle_gamma 90.000000
_cell_volume 2027.025903
_symmetry_space_group_name_H-M "C 2/M"
_symmetry_group_IT_number 12
_symmetry_cell_setting 'monoclinic'
loop_
_space_group_symop_operation_xyz
x,y,z
-x,y,-z
-x,-y,-z
x,-y,z
1/2+x,1/2+y,z
1/2-x,1/2+y,-z
1/2-x,1/2-y,-z
1/2+x,1/2-y,z
loop_
_atom_site_type_symbol
_atom_site_label
_atom_site_fract_x
_atom_site_fract_y
_atom_site_fract_z
Si Si1 0.999648 0.937073 0.397354
Si Si2 0.255851 0.212628 0.771610
Si Si3 0.841152 0.888206 0.883309
Si Si4 0.276581 0.912376 0.711217
Si Si5 0.039887 0.440043 0.226434
Si Si6 0.015061 0.766079 0.215967
O O1 0.722957 0.929214 0.554414
O O2 0.000000 0.915098 0.500000
O O3 0.178038 0.912133 0.204423
O O4 0.048211 0.000000 0.368777
O O5 0.304319 0.150910 0.715765
O O6 0.456003 0.236441 0.705779
O O7 0.204171 0.241375 0.708352
O O8 0.000000 0.214154 0.000000
O O9 0.945036 0.829283 0.799494
O O10 0.040091 0.919496 0.809711
O O11 0.609307 0.896365 0.103270
O O12 0.500000 0.930564 0.500000
O O13 0.283268 0.938400 0.806393
O O14 0.035173 0.500000 0.188724
O O15 0.250000 0.750000 0.000000
#
# Coordination Sequence:
#
# PCOD9217601 Si02
#       6
#     8   8   8   8   8   8
#     4  10  23  44  62  88 129 163 204 257 305 362
#     4   9  18  36  58  81 119 162 203 251 311 365
#     4  11  22  41  65  92 124 164 205 251 313 371
#     4  11  21  38  61  90 129 162 198 257 316 365
#     4  11  23  39  65  94 121 162 207 252 308 371
#     4   9  18  36  59  86 120 161 202 254 310 359
#
# _framework density 23.680012999999999
#
# number of rings (size 3 to 8) (size 9 to 14) (size 15 to 20)
#    0.000    1.833    1.667    4.000    0.000    3.000 
#   12.000    6.667    0.000    0.000    0.000    0.000 
#    0.000    0.000    0.000    0.000    0.000    0.000 
#
# Total GULP energy -134088.158921 kJ/mol
# GULP energy per Si atom -5587.006622 kJ/mol
# Density = 2.362612 g / cm^3
# Si number density = 23.680013 Si / 1000 Ang^3
#
#
#
# Elastic Constant Matrix: (Units=GPa)
#
#
# Indices 1 2 3 4 5 6 
#
# 1 134.7174 26.2576 22.5264 -0.0157 24.8696 -0.0005
# 2 26.2576 29.4686 1.0822 -0.0150 9.8521 -0.0042
# 3 22.5264 1.0822 59.9866 -0.0220 24.6044 -0.0005
# 4 -0.0157 -0.0150 -0.0220 -21.4215 0.0147 -4.7649
# 5 24.8696 9.8521 24.6044 0.0147 43.7171 0.0003
# 6 -0.0005 -0.0042 -0.0005 -4.7649 0.0003 27.2955
#
#
#
# Elastic Compliance Matrix: (Units=1/GPa)
#
#
# Indices 1 2 3 4 5 6 
#
# 1 0.009824 -0.007868 -0.002577 0.000000 -0.002365 -0.000001
# 2 -0.007868 0.043592 0.005671 -0.000036 -0.008540 0.000000
# 3 -0.002577 0.005671 0.022699 -0.000033 -0.012587 -0.000004
# 4 0.000000 -0.000036 -0.000033 -0.044937 0.000042 -0.007844
# 5 -0.002365 -0.008540 -0.012587 0.000042 0.033228 0.000005
# 6 -0.000001 0.000000 -0.000004 -0.007844 0.000005 0.035267
#
#
# Mechanical properties :
#
#
# Convention : Reuss Voigt Hill
#
# Bulk Modulus (GPa) = 15.02277 35.98943 25.50610
# Shear Modulus (GPa) = 38.04879 21.53865 29.79372
#
# Velocity S-wave (km/s) = 4.01283 3.01918 3.55093
# Velocity P-wave (km/s) = 5.27525 5.23308 5.25421
#
# Compressibility (1/GPa) = 0.06656561
#
# Stress axis : x y z
#
# Youngs Moduli (GPa) = 101.79074 22.93993 44.05567
#
# Poissons Ratio (x) = 0.18050 0.11354
# Poissons Ratio (y) = 0.80092 -0.24984
# Poissons Ratio (z) = 0.26233 -0.13009
#
# Static dielectric constant tensor:
#      x y z
#    x 1.943010 0.000010 -0.030790 
#    y 0.000010 2.103640 -0.000020 
#    z -0.030790 -0.000020 1.869970 
# 
# From -- ./inp_files/50800.got.cif
#   From: 2010.05.17/outbox.cif.g08.bks.cpg/sg12_26_cif.got.tgz:50800.got - 2010.06.03 13:09:07.
