data_PCOD9217911
_publ_section_title
;
Structure prediction by ZEFSAII (Michael W. Deem and Ramdas Pophale) SiO2 
 PCOD9217911
Probable space group: C 2/M
;
_chemical_formula_sum "Si O2"
_cell_formula_units_Z 36
_cell_length_a 18.023526
_cell_length_b 5.626979
_cell_length_c 21.008243
_cell_angle_alpha 90.000000
_cell_angle_beta 50.376966
_cell_angle_gamma 90.000000
_cell_volume 1641.120214
_symmetry_space_group_name_H-M "C 2/M"
_symmetry_group_IT_number 12
_symmetry_cell_setting 'monoclinic'
loop_
_space_group_symop_operation_xyz
x,y,z
-x,y,-z
-x,-y,-z
x,-y,z
1/2+x,1/2+y,z
1/2-x,1/2+y,-z
1/2-x,1/2-y,-z
1/2+x,1/2-y,z
loop_
_atom_site_type_symbol
_atom_site_label
_atom_site_fract_x
_atom_site_fract_y
_atom_site_fract_z
Si Si1 0.883011 0.500000 0.532140
Si Si2 0.694752 0.500000 0.286473
Si Si3 0.433678 0.000000 0.784682
Si Si4 0.145839 0.500000 0.691544
Si Si5 0.675121 0.500000 0.604329
Si Si6 0.964100 0.000000 0.439539
Si Si7 0.847897 0.500000 0.705121
Si Si8 0.252256 0.249509 0.922026
O O1 0.790684 0.500000 0.535633
O O2 0.934118 0.249071 0.489022
O O3 0.139638 0.500000 0.378840
O O4 0.769364 0.500000 0.303427
O O5 0.579297 0.500000 0.365409
O O6 0.707329 0.242710 0.248169
O O7 0.439580 0.000000 0.703690
O O8 0.364825 0.218582 0.841692
O O9 0.532243 0.000000 0.768423
O O10 0.157901 0.249888 0.648999
O O11 0.601396 0.500000 0.587091
O O12 0.212645 0.500000 0.920788
O O13 0.206002 0.000000 0.926166
O O14 0.250000 0.250000 0.000000
#
# Coordination Sequence:
#
# PCOD9217911 Si02
#       8
#     4   4   4   4   4   4   4   8
#     4  12  24  44  66  89 113 154 203 267 318 372
#     4  12  25  46  59  91 120 165 198 263 306 375
#     4  10  24  36  70  94 121 171 200 239 304 353
#     4  12  24  43  64  87 129 154 208 251 306 369
#     4  12  24  46  60  93 115 152 204 276 300 374
#     4  12  26  42  72  82 112 157 212 256 332 363
#     4  12  25  43  61  87 126 152 210 243 310 374
#     4   8  16  32  56  95 130 147 194 247 284 337
#
# _framework density 21.936237999999999
#
# number of rings (size 3 to 8) (size 9 to 14) (size 15 to 20)
#    0.667    0.444    2.222    4.667    3.111    2.667 
#    0.000    0.000    0.000    0.000    0.000    4.667 
#    0.000    0.000    0.000    0.000    0.000    0.222 
#
# Total GULP energy -100286.485177 kJ/mol
# GULP energy per Si atom -5571.471399 kJ/mol
# Density = 2.188631 g / cm^3
# Si number density = 21.936238 Si / 1000 Ang^3
#
#
#
# Elastic Constant Matrix: (Units=GPa)
#
#
# Indices 1 2 3 4 5 6 
#
# 1 178.8050 24.1733 48.3743 0.0118 -4.8204 -0.0729
# 2 24.1733 242.1393 31.9163 0.0670 10.7136 -0.4148
# 3 48.3743 31.9163 48.4449 0.0009 9.8348 -0.0197
# 4 0.0118 0.0670 0.0009 3.6654 -0.0004 138.1390
# 5 -4.8204 10.7136 9.8348 -0.0004 10.2772 0.0114
# 6 -0.0729 -0.4148 -0.0197 138.1390 0.0114 -659.3145
#
#
#
# Elastic Compliance Matrix: (Units=1/GPa)
#
#
# Indices 1 2 3 4 5 6 
#
# 1 0.009559 0.000009 -0.012981 -0.000001 0.016896 -0.000001
# 2 0.000009 0.004567 -0.002547 0.000003 -0.002319 -0.000002
# 3 -0.012981 -0.002547 0.044655 0.000004 -0.046166 0.000002
# 4 -0.000001 0.000003 0.000004 0.030667 -0.000013 0.006425
# 5 0.016896 -0.002319 -0.046166 -0.000013 0.151824 0.000001
# 6 -0.000001 -0.000002 0.000002 0.006425 0.000001 -0.000170
#
#
# Mechanical properties :
#
#
# Convention : Reuss Voigt Hill
#
# Bulk Modulus (GPa) = 36.04621 75.36854 55.70738
# Shear Modulus (GPa) = 17.76912 -104.74601 -43.48845
#
# Velocity S-wave (km/s) = 2.84920 -6.91765 -4.45735
# Velocity P-wave (km/s) = 5.22416 5.41965 1.01998
#
# Compressibility (1/GPa) = 0.02774217
#
# Stress axis : x y z
#
# Youngs Moduli (GPa) = 104.61461 218.94692 22.39413
#
# Poissons Ratio (x) = -0.00201 0.29070
# Poissons Ratio (y) = -0.00096 0.05705
# Poissons Ratio (z) = 1.35802 0.55773
#
# Static dielectric constant tensor:
#      x y z
#    x 1.812950 0.000010 0.033760 
#    y 0.000010 1.812990 0.000000 
#    z 0.033760 0.000000 1.889240 
# 
# From -- ./inp_files/341766.got.cif
#   From: 2010.05.17/outbox.cif.g08.bks.cpg/sg12_171_cif.got.tgz:341766.got - 2010.06.03 13:09:07.
