data_PCOD9217149
_publ_section_title
;
Structure prediction by ZEFSAII (Michael W. Deem and Ramdas Pophale) SiO2 
 PCOD9217149
Probable space group: C 2/M
;
_chemical_formula_sum "Si O2"
_cell_formula_units_Z 48
_cell_length_a 22.521702
_cell_length_b 7.652473
_cell_length_c 12.824744
_cell_angle_alpha 90.000000
_cell_angle_beta 110.487270
_cell_angle_gamma 90.000000
_cell_volume 2070.500829
_symmetry_space_group_name_H-M "C 2/M"
_symmetry_group_IT_number 12
_symmetry_cell_setting 'monoclinic'
loop_
_space_group_symop_operation_xyz
x,y,z
-x,y,-z
-x,-y,-z
x,-y,z
1/2+x,1/2+y,z
1/2-x,1/2+y,-z
1/2-x,1/2-y,-z
1/2+x,1/2-y,z
loop_
_atom_site_type_symbol
_atom_site_label
_atom_site_fract_x
_atom_site_fract_y
_atom_site_fract_z
Si Si1 0.617090 0.207329 0.818338
Si Si2 0.495863 0.701827 0.382954
Si Si3 0.750405 0.792839 0.833533
Si Si4 0.783204 0.293489 0.629229
Si Si5 0.607465 0.711452 0.040817
Si Si6 0.926341 0.798206 0.760010
O O1 0.575297 0.292663 0.703111
O O2 0.689329 0.275655 0.857113
O O3 0.618199 0.000000 0.801066
O O4 0.586528 0.241729 0.912294
O O5 0.500000 0.782179 0.500000
O O6 0.518071 0.500000 0.406994
O O7 0.536634 0.784228 0.314104
O O8 0.742511 0.762602 0.704968
O O9 0.819751 0.721526 0.904703
O O10 0.753665 0.000000 0.854558
O O11 0.793402 0.500000 0.641196
O O12 0.750000 0.250000 0.500000
O O13 0.851813 0.204820 0.685095
O O14 0.607806 0.500000 0.048399
O O15 0.570531 0.775930 0.120634
O O16 0.948403 0.000000 0.781172
#
# Coordination Sequence:
#
# PCOD9217149 Si02
#       6
#     8   8   8   8   8   8
#     4  11  23  37  58  88 122 155 194 244 293 344
#     4  10  23  42  62  84 113 154 202 243 289 353
#     4   9  20  38  57  85 121 155 191 238 293 346
#     4  11  22  35  57  86 116 153 193 237 289 347
#     4   9  18  36  61  85 116 154 194 240 293 352
#     4   9  20  40  61  84 116 151 194 247 292 340
#
# _framework density 23.182797000000001
#
# number of rings (size 3 to 8) (size 9 to 14) (size 15 to 20)
#    0.000    2.167    0.000    3.500    2.333    5.667 
#    0.000    3.333    0.000    0.000    0.000    0.000 
#    0.000    0.000    0.000    0.000    0.000    0.000 
#
# Total GULP energy -134079.540436 kJ/mol
# GULP energy per Si atom -5586.647518 kJ/mol
# Density = 2.313003 g / cm^3
# Si number density = 23.182797 Si / 1000 Ang^3
#
#
#
# Elastic Constant Matrix: (Units=GPa)
#
#
# Indices 1 2 3 4 5 6 
#
# 1 91.8885 5.3309 38.4818 0.0000 -35.0121 0.0000
# 2 5.3309 55.4088 -11.3219 0.0000 -3.1715 0.0000
# 3 38.4818 -11.3219 160.4732 0.0000 -26.7848 0.0000
# 4 0.0000 0.0000 0.0000 7.9869 0.0000 5.9447
# 5 -35.0121 -3.1715 -26.7848 0.0000 33.1305 0.0000
# 6 0.0000 0.0000 0.0000 5.9447 0.0000 10.7004
#
#
#
# Elastic Compliance Matrix: (Units=1/GPa)
#
#
# Indices 1 2 3 4 5 6 
#
# 1 0.018527 -0.001034 -0.001461 0.000000 0.018299 0.000000
# 2 -0.001034 0.018674 0.001944 0.000000 0.002267 0.000000
# 3 -0.001461 0.001944 0.007505 0.000000 0.004709 0.000000
# 4 0.000000 0.000000 0.000000 0.213483 0.000000 -0.118602
# 5 0.018299 0.002267 0.004709 0.000000 0.053546 0.000000
# 6 0.000000 0.000000 0.000000 -0.118602 0.000000 0.159345
#
#
# Mechanical properties :
#
#
# Convention : Reuss Voigt Hill
#
# Bulk Modulus (GPa) = 22.93398 41.41689 32.17544
# Shear Modulus (GPa) = 10.27290 28.71553 19.49422
#
# Velocity S-wave (km/s) = 2.10734 3.52327 2.90296
# Velocity P-wave (km/s) = 3.97936 5.86987 5.01452
#
# Compressibility (1/GPa) = 0.04360342
#
# Stress axis : x y z
#
# Youngs Moduli (GPa) = 53.97472 53.55023 133.24093
#
# Poissons Ratio (x) = 0.05536 0.19473
# Poissons Ratio (y) = 0.05580 -0.25898
# Poissons Ratio (z) = 0.07888 -0.10409
#
# Static dielectric constant tensor:
#      x y z
#    x 1.902280 0.000000 -0.015110 
#    y 0.000000 1.878530 0.000000 
#    z -0.015110 0.000000 1.860460 
# 
# From -- ./inp_files/172047.got.cif
#   From: 2010.05.17/outbox.cif.g08.bks.cpg/sg12_87_cif.got.tgz:172047.got - 2010.06.03 13:09:07.
