data_PCOD9217656
_publ_section_title
;
Structure prediction by ZEFSAII (Michael W. Deem and Ramdas Pophale) SiO2 
 PCOD9217656
Probable space group: C 2/M
;
_chemical_formula_sum "Si O2"
_cell_formula_units_Z 40
_cell_length_a 12.959140
_cell_length_b 20.813152
_cell_length_c 12.115393
_cell_angle_alpha 90.000000
_cell_angle_beta 35.106663
_cell_angle_gamma 90.000000
_cell_volume 1879.296078
_symmetry_space_group_name_H-M "C 2/M"
_symmetry_group_IT_number 12
_symmetry_cell_setting 'monoclinic'
loop_
_space_group_symop_operation_xyz
x,y,z
-x,y,-z
-x,-y,-z
x,-y,z
1/2+x,1/2+y,z
1/2-x,1/2+y,-z
1/2-x,1/2-y,-z
1/2+x,1/2-y,z
loop_
_atom_site_type_symbol
_atom_site_label
_atom_site_fract_x
_atom_site_fract_y
_atom_site_fract_z
Si Si1 0.891322 0.929102 0.757924
Si Si2 0.192181 0.672188 0.790529
Si Si3 0.835688 0.427133 0.818656
Si Si4 0.234697 0.624058 0.511308
Si Si5 0.785919 0.314013 0.697945
O O1 0.837339 0.872558 0.722670
O O2 0.097681 0.921850 0.612200
O O3 0.858990 0.000000 0.737610
O O4 0.767219 0.922892 0.975108
O O5 0.206607 0.665240 0.646569
O O6 0.211688 0.746626 0.805049
O O7 0.000000 0.647936 0.000000
O O8 0.815740 0.500000 0.793531
O O9 0.757995 0.373788 0.803997
O O10 0.046890 0.411582 0.650295
O O11 0.281733 0.667220 0.364149
O O12 0.000000 0.305084 0.500000
#
# Coordination Sequence:
#
# PCOD9217656 Si02
#       5
#     8   8   8   8   8
#     4  11  25  43  68  98 130 170 215 267 322 383
#     4  12  25  43  67  95 131 173 216 269 321 380
#     4  10  23  44  67  99 133 168 214 264 321 385
#     4  11  23  43  68  99 127 171 212 271 316 388
#     4  10  24  43  67  97 132 170 214 265 321 385
#
# _framework density 21.284565000000001
#
# number of rings (size 3 to 8) (size 9 to 14) (size 15 to 20)
#    0.000    1.200    2.000    3.000    2.800    9.600 
#    0.000    2.000    0.000    0.000    0.000    0.000 
#    0.000    0.000    0.000    0.000    0.000    0.000 
#
# Total GULP energy -111880.329294 kJ/mol
# GULP energy per Si atom -5594.016465 kJ/mol
# Density = 2.123612 g / cm^3
# Si number density = 21.284565 Si / 1000 Ang^3
#
#
#
# Elastic Constant Matrix: (Units=GPa)
#
#
# Indices 1 2 3 4 5 6 
#
# 1 97.6223 65.0547 24.1309 0.0087 15.7653 -0.0114
# 2 65.0547 162.5285 31.8813 -0.0028 11.6099 -0.0093
# 3 24.1309 31.8813 76.2909 -0.0004 -3.4321 -0.0321
# 4 0.0087 -0.0028 -0.0004 8.8864 -0.0063 -7.8748
# 5 15.7653 11.6099 -3.4321 -0.0063 22.1151 0.0256
# 6 -0.0114 -0.0093 -0.0321 -7.8748 0.0256 16.0722
#
#
#
# Elastic Compliance Matrix: (Units=1/GPa)
#
#
# Indices 1 2 3 4 5 6 
#
# 1 0.015931 -0.005064 -0.003338 -0.000016 -0.009217 0.000008
# 2 -0.005064 0.008679 -0.002082 0.000011 -0.001269 0.000004
# 3 -0.003338 -0.002082 0.015297 0.000041 0.005846 0.000038
# 4 -0.000016 0.000011 0.000041 0.198886 -0.000044 0.097447
# 5 -0.009217 -0.001269 0.005846 -0.000044 0.053362 -0.000102
# 6 0.000008 0.000004 0.000038 0.097447 -0.000102 0.109965
#
#
# Mechanical properties :
#
#
# Convention : Reuss Voigt Hill
#
# Bulk Modulus (GPa) = 52.79955 64.28616 58.54286
# Shear Modulus (GPa) = 11.64412 23.77304 17.70858
#
# Velocity S-wave (km/s) = 2.34149 3.34565 2.88756
# Velocity P-wave (km/s) = 5.67190 6.72259 6.21947
#
# Compressibility (1/GPa) = 0.01893955
#
# Stress axis : x y z
#
# Youngs Moduli (GPa) = 62.76879 115.22416 65.37395
#
# Poissons Ratio (x) = 0.58346 0.21820
# Poissons Ratio (y) = 0.31784 0.13612
# Poissons Ratio (z) = 0.20950 0.23992
#
# Static dielectric constant tensor:
#      x y z
#    x 1.739620 0.000000 0.005480 
#    y 0.000000 1.745480 0.000000 
#    z 0.005480 0.000000 1.755830 
# 
# From -- ./inp_files/133633.got.cif
#   From: 2010.05.17/outbox.cif.g08.bks.cpg/sg12_67_cif.got.tgz:133633.got - 2010.06.03 13:09:07.
