data_PCOD9217004
_publ_section_title
;
Structure prediction by ZEFSAII (Michael W. Deem and Ramdas Pophale) SiO2 
 PCOD9217004
Probable space group: C 2/M
;
_chemical_formula_sum "Si O2"
_cell_formula_units_Z 56
_cell_length_a 15.040574
_cell_length_b 17.064972
_cell_length_c 12.756862
_cell_angle_alpha 90.000000
_cell_angle_beta 62.300224
_cell_angle_gamma 90.000000
_cell_volume 2899.019460
_symmetry_space_group_name_H-M "C 2/M"
_symmetry_group_IT_number 12
_symmetry_cell_setting 'monoclinic'
loop_
_space_group_symop_operation_xyz
x,y,z
-x,y,-z
-x,-y,-z
x,-y,z
1/2+x,1/2+y,z
1/2-x,1/2+y,-z
1/2-x,1/2-y,-z
1/2+x,1/2-y,z
loop_
_atom_site_type_symbol
_atom_site_label
_atom_site_fract_x
_atom_site_fract_y
_atom_site_fract_z
Si Si1 0.432511 0.287709 0.142534
Si Si2 0.400565 0.788139 0.814836
Si Si3 0.393576 0.087434 0.999057
Si Si4 0.099109 0.590892 0.375197
Si Si5 0.747583 0.670210 0.209451
Si Si6 0.819260 0.907259 0.337818
Si Si7 0.382838 0.594312 0.537715
O O1 0.499718 0.253437 0.199062
O O2 0.340664 0.228047 0.178717
O O3 0.383033 0.367152 0.211150
O O4 0.500000 0.294678 0.000000
O O5 0.372902 0.846404 0.924723
O O6 0.410729 0.845283 0.710323
O O7 0.323679 0.719282 0.828897
O O8 0.400053 0.000000 0.950683
O O9 0.500000 0.102162 0.000000
O O10 0.301217 0.095146 0.129165
O O11 0.107625 0.500000 0.332560
O O12 0.201189 0.608725 0.383269
O O13 0.000000 0.594910 0.500000
O O14 0.685257 0.642935 0.344280
O O15 0.855712 0.882436 0.433429
O O16 0.833359 0.000000 0.324944
O O17 0.500000 0.607967 0.500000
O O18 0.364751 0.500000 0.558197
#
# Coordination Sequence:
#
# PCOD9217004 Si02
#       7
#     8   8   8   8   8   8   8
#     4  12  25  43  63  95 133 165 217 269 319 377
#     4  12  23  41  64  91 133 167 212 268 320 379
#     4  11  23  41  65  96 129 169 216 263 323 385
#     4  10  23  41  63  95 128 167 213 262 324 389
#     4  12  23  41  66  95 129 169 209 266 327 378
#     4  10  23  45  68  93 129 170 215 264 317 385
#     4  10  23  44  66  95 129 169 219 264 314 385
#
# _framework density 19.316877000000002
#
# number of rings (size 3 to 8) (size 9 to 14) (size 15 to 20)
#    0.000    1.000    4.286    2.143    2.000    2.571 
#    0.000    0.714    0.000    0.000    0.000    0.000 
#    0.000    0.000    0.000    0.000    0.000    0.000 
#
# Total GULP energy -156345.894525 kJ/mol
# GULP energy per Si atom -5583.781947 kJ/mol
# Density = 1.927291 g / cm^3
# Si number density = 19.316877 Si / 1000 Ang^3
#
#
#
# Elastic Constant Matrix: (Units=GPa)
#
#
# Indices 1 2 3 4 5 6 
#
# 1 190.4915 73.9427 60.8994 0.0000 -23.0593 0.0000
# 2 73.9427 81.1744 56.6207 0.0000 -16.0025 0.0000
# 3 60.8994 56.6207 116.7023 0.0000 -16.3008 0.0000
# 4 0.0000 0.0000 0.0000 40.2930 0.0000 9.6303
# 5 -23.0593 -16.0025 -16.3008 0.0000 38.8145 0.0000
# 6 0.0000 0.0000 0.0000 9.6303 0.0000 7.7000
#
#
#
# Elastic Compliance Matrix: (Units=1/GPa)
#
#
# Indices 1 2 3 4 5 6 
#
# 1 0.008315 -0.006595 -0.000881 0.000000 0.001851 0.000000
# 2 -0.006595 0.024495 -0.008052 0.000000 0.002799 0.000000
# 3 -0.000881 -0.008052 0.013171 0.000000 0.001688 0.000000
# 4 0.000000 0.000000 0.000000 0.035400 0.000000 -0.044274
# 5 0.001851 0.002799 0.001688 0.000000 0.028726 0.000000
# 6 0.000000 0.000000 0.000000 -0.044274 0.000000 0.185244
#
#
# Mechanical properties :
#
#
# Convention : Reuss Voigt Hill
#
# Bulk Modulus (GPa) = 66.99939 85.69929 76.34934
# Shear Modulus (GPa) = 15.08835 30.48852 22.78844
#
# Velocity S-wave (km/s) = 2.79784 3.97714 3.43843
# Velocity P-wave (km/s) = 6.72287 8.09639 7.44138
#
# Compressibility (1/GPa) = 0.01492551
#
# Stress axis : x y z
#
# Youngs Moduli (GPa) = 120.26033 40.82515 75.92601
#
# Poissons Ratio (x) = 0.26925 0.06688
# Poissons Ratio (y) = 0.79314 0.61132
# Poissons Ratio (z) = 0.10593 0.32871
#
# Static dielectric constant tensor:
#      x y z
#    x 1.640810 0.000000 0.000080 
#    y 0.000000 1.685840 0.000000 
#    z 0.000080 0.000000 1.674290 
# 
# From -- ./inp_files/146057.got.cif
#   From: 2010.05.17/outbox.cif.g08.bks.cpg/sg12_74_cif.got.tgz:146057.got - 2010.06.03 13:09:07.
