data_PCOD9217991
_publ_section_title
;
Structure prediction by ZEFSAII (Michael W. Deem and Ramdas Pophale) SiO2 
 PCOD9217991
Probable space group: C 2/M
;
_chemical_formula_sum "Si O2"
_cell_formula_units_Z 44
_cell_length_a 9.627686
_cell_length_b 9.180304
_cell_length_c 26.129680
_cell_angle_alpha 90.000000
_cell_angle_beta 122.734401
_cell_angle_gamma 90.000000
_cell_volume 1942.697781
_symmetry_space_group_name_H-M "C 2/M"
_symmetry_group_IT_number 12
_symmetry_cell_setting 'monoclinic'
loop_
_space_group_symop_operation_xyz
x,y,z
-x,y,-z
-x,-y,-z
x,-y,z
1/2+x,1/2+y,z
1/2-x,1/2+y,-z
1/2-x,1/2-y,-z
1/2+x,1/2-y,z
loop_
_atom_site_type_symbol
_atom_site_label
_atom_site_fract_x
_atom_site_fract_y
_atom_site_fract_z
Si Si1 0.594695 0.671655 0.943102
Si Si2 0.313902 0.172804 0.251623
Si Si3 0.277684 0.500000 0.483789
Si Si4 0.758113 0.328625 0.869048
Si Si5 0.694695 0.172714 0.325907
Si Si6 0.988846 0.279585 0.554876
O O1 0.586597 0.500000 0.954883
O O2 0.625049 0.681582 0.887946
O O3 0.427947 0.756954 0.922712
O O4 0.750000 0.750000 0.000000
O O5 0.290908 0.239010 0.190838
O O6 0.506139 0.192215 0.304825
O O7 0.209483 0.263688 0.271607
O O8 0.275063 0.000000 0.244685
O O9 0.141596 0.375164 0.440671
O O10 0.405879 0.624748 0.529254
O O11 0.781951 0.500000 0.862093
O O12 0.832196 0.260024 0.385308
O O13 0.733762 0.000000 0.335246
O O14 0.000000 0.346680 0.500000
#
# Coordination Sequence:
#
# PCOD9217991 Si02
#       6
#     8   8   4   8   8   8
#     4  11  24  41  68 104 138 177 220 266 319 378
#     4  11  26  45  67  95 125 173 219 266 322 383
#     4  10  24  40  64  90 124 160 206 250 334 384
#     4  11  24  44  67  95 137 174 219 271 321 377
#     4  11  26  43  66  94 129 165 216 268 324 389
#     4  11  24  41  64  91 124 162 205 262 325 390
#
# _framework density 22.648917000000001
#
# number of rings (size 3 to 8) (size 9 to 14) (size 15 to 20)
#    0.000    1.091    0.909    3.818    6.364    9.455 
#    0.000    0.000    0.000    0.000    0.000    0.000 
#    0.000    0.000    0.000    0.000    0.000    0.000 
#
# Total GULP energy -122691.994359 kJ/mol
# GULP energy per Si atom -5576.908835 kJ/mol
# Density = 2.259737 g / cm^3
# Si number density = 22.648917 Si / 1000 Ang^3
#
#
#
# Elastic Constant Matrix: (Units=GPa)
#
#
# Indices 1 2 3 4 5 6 
#
# 1 54.4854 10.6038 -7.1608 0.0000 0.8012 0.0000
# 2 10.6038 115.0845 1.0407 0.0000 6.6115 0.0000
# 3 -7.1608 1.0407 84.0986 0.0000 5.7687 0.0000
# 4 0.0000 0.0000 0.0000 53.5525 0.0000 36.4509
# 5 0.8012 6.6115 5.7687 0.0000 37.6208 0.0000
# 6 0.0000 0.0000 0.0000 36.4509 0.0000 35.7274
#
#
#
# Elastic Compliance Matrix: (Units=1/GPa)
#
#
# Indices 1 2 3 4 5 6 
#
# 1 0.018915 -0.001738 0.001656 0.000000 -0.000351 0.000000
# 2 -0.001738 0.008938 -0.000155 0.000000 -0.001510 0.000000
# 3 0.001656 -0.000155 0.012162 0.000000 -0.001873 0.000000
# 4 0.000000 0.000000 0.000000 0.061112 0.000000 -0.062350
# 5 -0.000351 -0.001510 -0.001873 0.000000 0.027141 0.000000
# 6 0.000000 0.000000 0.000000 -0.062350 0.000000 0.091602
#
#
# Mechanical properties :
#
#
# Convention : Reuss Voigt Hill
#
# Bulk Modulus (GPa) = 25.28991 29.18177 27.23584
# Shear Modulus (GPa) = 21.41122 41.99244 31.70183
#
# Velocity S-wave (km/s) = 3.07799 4.31055 3.74532
# Velocity P-wave (km/s) = 4.88082 6.13896 5.54568
#
# Compressibility (1/GPa) = 0.03954146
#
# Stress axis : x y z
#
# Youngs Moduli (GPa) = 52.86937 111.88797 82.22187
#
# Poissons Ratio (x) = 0.19441 -0.13617
# Poissons Ratio (y) = 0.09186 0.01274
# Poissons Ratio (z) = -0.08756 0.01734
#
# Static dielectric constant tensor:
#      x y z
#    x 1.916890 0.000000 -0.069810 
#    y 0.000000 1.771940 0.000000 
#    z -0.069810 0.000000 1.876640 
# 
# From -- ./inp_files/357573.got.cif
#   From: 2010.05.17/outbox.cif.g08.bks.cpg/sg12_179_cif.got.tgz:357573.got - 2010.06.03 13:09:07.
