data_PCOD9217320
_publ_section_title
;
Structure prediction by ZEFSAII (Michael W. Deem and Ramdas Pophale) SiO2 
 PCOD9217320
Probable space group: C 2/M
;
_chemical_formula_sum "Si O2"
_cell_formula_units_Z 32
_cell_length_a 9.597788
_cell_length_b 8.061659
_cell_length_c 18.616010
_cell_angle_alpha 90.000000
_cell_angle_beta 58.477059
_cell_angle_gamma 90.000000
_cell_volume 1227.838818
_symmetry_space_group_name_H-M "C 2/M"
_symmetry_group_IT_number 12
_symmetry_cell_setting 'monoclinic'
loop_
_space_group_symop_operation_xyz
x,y,z
-x,y,-z
-x,-y,-z
x,-y,z
1/2+x,1/2+y,z
1/2-x,1/2+y,-z
1/2-x,1/2-y,-z
1/2+x,1/2-y,z
loop_
_atom_site_type_symbol
_atom_site_label
_atom_site_fract_x
_atom_site_fract_y
_atom_site_fract_z
Si Si1 0.805734 0.182772 0.334712
Si Si2 0.002510 0.301944 0.919186
Si Si3 0.145341 0.300475 0.182898
Si Si4 0.661876 0.500000 0.407614
Si Si5 0.323029 0.000000 0.508224
O O1 0.685594 0.336281 0.353835
O O2 0.776168 0.149383 0.427495
O O3 0.988359 0.230694 0.265659
O O4 0.765967 0.000000 0.313195
O O5 0.983448 0.500000 0.929551
O O6 0.180199 0.262381 0.838426
O O7 0.873932 0.240565 0.895134
O O8 0.000000 0.228934 0.000000
O O9 0.139679 0.500000 0.185189
O O10 0.500000 0.500000 0.500000
O O11 0.810263 0.500000 0.426612
O O12 0.500000 0.000000 0.500000
#
# Coordination Sequence:
#
# PCOD9217320 Si02
#       5
#     8   8   8   4   4
#     4  10  24  43  65  96 131 175 211 272 331 384
#     4  10  23  42  67  96 132 172 219 271 327 392
#     4  11  23  42  64  97 133 173 220 271 327 394
#     4  12  24  42  68  96 127 166 225 274 316 394
#     4  10  24  44  64  92 129 170 215 266 330 384
#
# _framework density 26.062052999999999
#
# number of rings (size 3 to 8) (size 9 to 14) (size 15 to 20)
#    0.750    0.750    1.250    3.000    0.000    6.500 
#    0.000    0.000    0.000    0.000    0.000    0.000 
#    0.000    0.000    0.000    0.000    0.000    0.000 
#
# Total GULP energy -89483.488048 kJ/mol
# GULP energy per Si atom -5592.718003 kJ/mol
# Density = 2.600273 g / cm^3
# Si number density = 26.062053 Si / 1000 Ang^3
#
#
#
# Elastic Constant Matrix: (Units=GPa)
#
#
# Indices 1 2 3 4 5 6 
#
# 1 128.0766 -16.0771 20.8602 0.0000 10.3231 0.0000
# 2 -16.0771 99.7463 -15.1025 0.0000 6.2370 0.0000
# 3 20.8602 -15.1025 93.6062 0.0000 2.5620 0.0000
# 4 0.0000 0.0000 0.0000 33.2249 0.0000 -9.7828
# 5 10.3231 6.2370 2.5620 0.0000 47.8236 0.0000
# 6 0.0000 0.0000 0.0000 -9.7828 0.0000 1.4069
#
#
#
# Elastic Compliance Matrix: (Units=1/GPa)
#
#
# Indices 1 2 3 4 5 6 
#
# 1 0.008376 0.001223 -0.001618 0.000000 -0.001881 0.000000
# 2 0.001223 0.010554 0.001477 0.000000 -0.001719 0.000000
# 3 -0.001618 0.001477 0.011294 0.000000 -0.000448 0.000000
# 4 0.000000 0.000000 0.000000 -0.028734 0.000000 -0.199809
# 5 -0.001881 -0.001719 -0.000448 0.000000 0.021564 0.000000
# 6 0.000000 0.000000 0.000000 -0.199809 0.000000 -0.678604
#
#
# Mechanical properties :
#
#
# Convention : Reuss Voigt Hill
#
# Bulk Modulus (GPa) = 30.87500 33.42114 32.14807
# Shear Modulus (GPa) = -7.72896 38.60763 15.43933
#
# Velocity S-wave (km/s) = -1.72396 3.85304 2.43658
# Velocity P-wave (km/s) = 2.81242 5.71367 4.50310
#
# Compressibility (1/GPa) = 0.03238866
#
# Stress axis : x y z
#
# Youngs Moduli (GPa) = 119.38249 94.75340 88.54069
#
# Poissons Ratio (x) = -0.11586 0.14325
# Poissons Ratio (y) = -0.14598 -0.13080
# Poissons Ratio (z) = 0.19315 -0.13998
#
# Static dielectric constant tensor:
#      x y z
#    x 2.008910 0.000000 0.059070 
#    y 0.000000 2.176870 0.000000 
#    z 0.059070 0.000000 2.035660 
# 
# From -- ./inp_files/303374.got.cif
#   From: 2010.05.17/outbox.cif.g08.bks.cpg/sg12_152_cif.got.tgz:303374.got - 2010.06.03 13:09:07.
