data_PCOD9217606
_publ_section_title
;
Structure prediction by ZEFSAII (Michael W. Deem and Ramdas Pophale) SiO2 
 PCOD9217606
Probable space group: C 2/M
;
_chemical_formula_sum "Si O2"
_cell_formula_units_Z 36
_cell_length_a 24.155600
_cell_length_b 12.730379
_cell_length_c 10.633739
_cell_angle_alpha 90.000000
_cell_angle_beta 26.128940
_cell_angle_gamma 90.000000
_cell_volume 1440.075549
_symmetry_space_group_name_H-M "C 2/M"
_symmetry_group_IT_number 12
_symmetry_cell_setting 'monoclinic'
loop_
_space_group_symop_operation_xyz
x,y,z
-x,y,-z
-x,-y,-z
x,-y,z
1/2+x,1/2+y,z
1/2-x,1/2+y,-z
1/2-x,1/2-y,-z
1/2+x,1/2-y,z
loop_
_atom_site_type_symbol
_atom_site_label
_atom_site_fract_x
_atom_site_fract_y
_atom_site_fract_z
Si Si1 0.325090 0.615246 0.948296
Si Si2 0.047264 0.500000 0.097841
Si Si3 0.862781 0.883581 0.343387
Si Si4 0.166809 0.655628 0.517591
Si Si5 0.385584 0.154555 0.822825
O O1 0.385982 0.500000 0.824106
O O2 0.228911 0.617736 0.261511
O O3 0.242237 0.632160 0.992265
O O4 0.404546 0.720687 0.804335
O O5 0.960195 0.591797 0.210095
O O6 0.111769 0.591585 0.054675
O O7 0.851842 0.780622 0.450139
O O8 0.758818 0.871270 0.445617
O O9 0.846014 0.000000 0.433986
O O10 0.000000 0.880581 0.000000
O O11 0.500000 0.118401 0.500000
#
# Coordination Sequence:
#
# PCOD9217606 Si02
#       5
#     8   4   8   8   8
#     4  11  22  40  63  92 128 164 202 256 308 369
#     4  12  21  42  66  90 122 178 195 263 293 395
#     4  10  23  44  64  91 126 160 205 266 311 362
#     4  11  22  40  66  92 121 166 211 246 314 376
#     4  11  22  38  63  94 127 162 208 250 306 370
#
# _framework density 24.998688999999999
#
# number of rings (size 3 to 8) (size 9 to 14) (size 15 to 20)
#    0.000    1.111    5.556    0.333    3.111    0.444 
#    2.000    0.556    0.000    0.000    0.000    0.000 
#    0.000    0.000    0.000    0.000    0.000    0.000 
#
# Total GULP energy -100352.285495 kJ/mol
# GULP energy per Si atom -5575.126972 kJ/mol
# Density = 2.494179 g / cm^3
# Si number density = 24.998689 Si / 1000 Ang^3
#
#
#
# Elastic Constant Matrix: (Units=GPa)
#
#
# Indices 1 2 3 4 5 6 
#
# 1 90.7524 40.9384 27.6120 0.0000 -22.6000 0.0000
# 2 40.9384 304.3660 36.6729 0.0000 -7.1503 0.0000
# 3 27.6120 36.6729 52.2432 0.0000 13.1527 0.0000
# 4 0.0000 0.0000 0.0000 172.4919 0.0000 130.8294
# 5 -22.6000 -7.1503 13.1527 0.0000 29.4941 0.0000
# 6 0.0000 0.0000 0.0000 130.8294 0.0000 202.6732
#
#
#
# Elastic Compliance Matrix: (Units=1/GPa)
#
#
# Indices 1 2 3 4 5 6 
#
# 1 0.023381 -0.000267 -0.018772 0.000000 0.026222 0.000000
# 2 -0.000267 0.003729 -0.002988 0.000000 0.002032 0.000000
# 3 -0.018772 -0.002988 0.039386 0.000000 -0.032672 0.000000
# 4 0.000000 0.000000 0.000000 0.011359 0.000000 -0.007332
# 5 0.026222 0.002032 -0.032672 0.000000 0.069061 0.000000
# 6 0.000000 0.000000 0.000000 -0.007332 0.000000 0.009667
#
#
# Mechanical properties :
#
#
# Convention : Reuss Voigt Hill
#
# Bulk Modulus (GPa) = 44.55930 73.08979 58.82455
# Shear Modulus (GPa) = 24.02490 103.74105 63.88297
#
# Velocity S-wave (km/s) = 3.10344 6.44893 5.06063
# Velocity P-wave (km/s) = 5.54122 9.20611 7.59795
#
# Compressibility (1/GPa) = 0.02244200
#
# Stress axis : x y z
#
# Youngs Moduli (GPa) = 42.76975 268.15228 25.38978
#
# Poissons Ratio (x) = 0.07160 0.47661
# Poissons Ratio (y) = 0.01142 0.07587
# Poissons Ratio (z) = 0.80287 0.80131
#
# Static dielectric constant tensor:
#      x y z
#    x 1.899940 0.000000 0.030670 
#    y 0.000000 1.976260 0.000000 
#    z 0.030670 0.000000 2.043690 
# 
# From -- ./inp_files/175047.got.cif
#   From: 2010.05.17/outbox.cif.g08.bks.cpg/sg12_88_cif.got.tgz:175047.got - 2010.06.03 13:09:07.
