data_PCOD9217654
_publ_section_title
;
Structure prediction by ZEFSAII (Michael W. Deem and Ramdas Pophale) SiO2 
 PCOD9217654
Probable space group: C 2/M
;
_chemical_formula_sum "Si O2"
_cell_formula_units_Z 26
_cell_length_a 14.708773
_cell_length_b 18.000643
_cell_length_c 4.792037
_cell_angle_alpha 90.000000
_cell_angle_beta 133.544051
_cell_angle_gamma 90.000000
_cell_volume 919.665151
_symmetry_space_group_name_H-M "C 2/M"
_symmetry_group_IT_number 12
_symmetry_cell_setting 'monoclinic'
loop_
_space_group_symop_operation_xyz
x,y,z
-x,y,-z
-x,-y,-z
x,-y,z
1/2+x,1/2+y,z
1/2-x,1/2+y,-z
1/2-x,1/2-y,-z
1/2+x,1/2-y,z
loop_
_atom_site_type_symbol
_atom_site_label
_atom_site_fract_x
_atom_site_fract_y
_atom_site_fract_z
Si Si1 0.166565 0.419685 0.672555
Si Si2 0.000000 0.000000 0.500000
Si Si3 0.381929 0.243116 0.441648
Si Si4 0.664706 0.394656 0.456116
O O1 0.103325 0.500000 0.506598
O O2 0.103059 0.343164 0.445578
O O3 0.292808 0.423496 0.753417
O O4 0.212510 0.408480 0.087011
O O5 0.941188 0.936348 0.593342
O O6 0.500000 0.261575 0.500000
O O7 0.366155 0.307636 0.634462
O O8 0.250000 0.250000 0.000000
#
# Coordination Sequence:
#
# PCOD9217654 Si02
#       4
#     8   2   8   8
#     4  11  22  41  63  93 132 173 219 271 330 399
#     4  12  20  38  68  94 132 166 228 274 334 382
#     4  10  23  44  67  97 134 177 222 276 335 398
#     4  11  23  40  63  98 130 171 220 278 334 386
#
# _framework density 28.271160999999999
#
# number of rings (size 3 to 8) (size 9 to 14) (size 15 to 20)
#    0.000    1.231    4.615    0.923    0.000    3.077 
#    0.000   15.385    0.000    9.231    0.000    0.000 
#    0.000    0.000    0.000    0.000    0.000    0.000 
#
# Total GULP energy -72611.973840 kJ/mol
# GULP energy per Si atom -5585.536449 kJ/mol
# Density = 2.820681 g / cm^3
# Si number density = 28.271161 Si / 1000 Ang^3
#
#
#
# Elastic Constant Matrix: (Units=GPa)
#
#
# Indices 1 2 3 4 5 6 
#
# 1 159.0103 12.2673 26.5082 0.0000 -6.9266 0.0000
# 2 12.2673 309.6441 2.2883 0.0000 -6.7281 0.0000
# 3 26.5082 2.2883 112.0560 0.0000 -6.0408 0.0000
# 4 0.0000 0.0000 0.0000 -66.5530 0.0000 -41.8698
# 5 -6.9266 -6.7281 -6.0408 0.0000 42.7745 0.0000
# 6 0.0000 0.0000 0.0000 -41.8698 0.0000 19.4210
#
#
#
# Elastic Compliance Matrix: (Units=1/GPa)
#
#
# Indices 1 2 3 4 5 6 
#
# 1 0.006594 -0.000232 -0.001511 0.000000 0.000818 0.000000
# 2 -0.000232 0.003249 0.000014 0.000000 0.000475 0.000000
# 3 -0.001511 0.000014 0.009339 0.000000 0.001076 0.000000
# 4 0.000000 0.000000 0.000000 -0.006377 0.000000 -0.013748
# 5 0.000818 0.000475 0.001076 0.000000 0.023738 0.000000
# 6 0.000000 0.000000 0.000000 -0.013748 0.000000 0.021852
#
#
# Mechanical properties :
#
#
# Convention : Reuss Voigt Hill
#
# Bulk Modulus (GPa) = 63.59621 73.64869 68.62245
# Shear Modulus (GPa) = 74.52054 35.10493 54.81274
#
# Velocity S-wave (km/s) = 5.13969 3.52763 4.40798
# Velocity P-wave (km/s) = 7.60038 6.53449 7.08750
#
# Compressibility (1/GPa) = 0.01572421
#
# Stress axis : x y z
#
# Youngs Moduli (GPa) = 151.64448 307.79247 107.07410
#
# Poissons Ratio (x) = 0.07150 0.16180
# Poissons Ratio (y) = 0.03523 -0.00152
# Poissons Ratio (z) = 0.22916 -0.00438
#
# Static dielectric constant tensor:
#      x y z
#    x 2.125390 0.000000 0.122100 
#    y 0.000000 2.218750 0.000000 
#    z 0.122100 0.000000 2.281040 
# 
# From -- ./inp_files/5621.got.cif
#   From: 2010.05.17/outbox.cif.g08.bks.cpg/sg12_3_cif.got.tgz:5621.got - 2010.06.03 13:09:07.
