data_PCOD9217108
_publ_section_title
;
Structure prediction by ZEFSAII (Michael W. Deem and Ramdas Pophale) SiO2 
 PCOD9217108
Probable space group: C 2/M
;
_chemical_formula_sum "Si O2"
_cell_formula_units_Z 48
_cell_length_a 9.025818
_cell_length_b 14.302604
_cell_length_c 24.519124
_cell_angle_alpha 90.000000
_cell_angle_beta 136.833612
_cell_angle_gamma 90.000000
_cell_volume 2165.401874
_symmetry_space_group_name_H-M "C 2/M"
_symmetry_group_IT_number 12
_symmetry_cell_setting 'monoclinic'
loop_
_space_group_symop_operation_xyz
x,y,z
-x,y,-z
-x,-y,-z
x,-y,z
1/2+x,1/2+y,z
1/2-x,1/2+y,-z
1/2-x,1/2-y,-z
1/2+x,1/2-y,z
loop_
_atom_site_type_symbol
_atom_site_label
_atom_site_fract_x
_atom_site_fract_y
_atom_site_fract_z
Si Si1 0.755701 0.000000 0.500394
Si Si2 0.588180 0.896345 0.962810
Si Si3 0.271776 0.181527 0.431982
Si Si4 0.952087 0.653177 0.242375
Si Si5 0.732566 0.000000 0.369219
Si Si6 0.182118 0.702772 0.677232
Si Si7 0.460936 0.695561 0.925486
O O1 0.712126 0.093052 0.523837
O O2 0.656948 0.000000 0.412538
O O3 0.012370 0.000000 0.561146
O O4 0.476315 0.802788 0.906734
O O5 0.565476 0.000000 0.930319
O O6 0.500000 0.904787 0.000000
O O7 0.837357 0.866920 0.037965
O O8 0.500000 0.238874 0.500000
O O9 0.286822 0.151767 0.372498
O O10 0.050520 0.239445 0.384689
O O11 0.828974 0.654612 0.267392
O O12 0.762291 0.644327 0.147920
O O13 0.143727 0.583985 0.309496
O O14 0.094042 0.740533 0.262150
O O15 0.500000 0.705810 0.000000
#
# Coordination Sequence:
#
# PCOD9217108 Si02
#       7
#     4   8   8   8   4   8   8
#     4  11  23  42  70  96 135 173 222 274 325 417
#     4   9  20  40  65  96 128 163 227 274 335 396
#     4  11  21  40  65  95 126 170 223 271 325 402
#     4  11  24  44  64  93 136 174 221 280 338 397
#     4  11  24  44  65  98 136 179 214 276 348 390
#     4  10  24  40  63  94 131 170 222 275 340 384
#     4  10  23  41  69  96 132 179 228 278 335 405
#
# _framework density 22.166785000000001
#
# number of rings (size 3 to 8) (size 9 to 14) (size 15 to 20)
#    0.000    1.667    1.667    1.750    8.167    2.333 
#    0.000    0.000    7.333    0.000    0.000    0.000 
#    0.000    0.000    0.000    0.000    0.000    0.000 
#
# Total GULP energy -133638.233129 kJ/mol
# GULP energy per Si atom -5568.259714 kJ/mol
# Density = 2.211633 g / cm^3
# Si number density = 22.166785 Si / 1000 Ang^3
#
#
#
# Elastic Constant Matrix: (Units=GPa)
#
#
# Indices 1 2 3 4 5 6 
#
# 1 93.7894 17.3687 25.9776 0.0000 12.2852 0.0000
# 2 17.3687 43.5686 9.1509 0.0000 -6.6374 0.0000
# 3 25.9776 9.1509 114.0169 0.0000 5.1523 0.0000
# 4 0.0000 0.0000 0.0000 13.6277 0.0000 26.8685
# 5 12.2852 -6.6374 5.1523 0.0000 30.0118 0.0000
# 6 0.0000 0.0000 0.0000 26.8685 0.0000 -137.0895
#
#
#
# Elastic Compliance Matrix: (Units=1/GPa)
#
#
# Indices 1 2 3 4 5 6 
#
# 1 0.013170 -0.005732 -0.002257 0.000000 -0.006271 0.000000
# 2 -0.005732 0.026787 -0.001227 0.000000 0.008481 0.000000
# 3 -0.002257 -0.001227 0.009427 0.000000 -0.000966 0.000000
# 4 0.000000 0.000000 0.000000 0.052928 0.000000 0.010373
# 5 -0.006271 0.008481 -0.000966 0.000000 0.037929 0.000000
# 6 0.000000 0.000000 0.000000 0.010373 0.000000 -0.005261
#
#
# Mechanical properties :
#
#
# Convention : Reuss Voigt Hill
#
# Bulk Modulus (GPa) = 32.30813 39.59661 35.95237
# Shear Modulus (GPa) = 30.53822 -5.43149 12.55336
#
# Velocity S-wave (km/s) = 3.71571 -1.56704 2.38232
# Velocity P-wave (km/s) = 5.74589 3.82461 4.88073
#
# Compressibility (1/GPa) = 0.03095197
#
# Stress axis : x y z
#
# Youngs Moduli (GPa) = 75.92827 37.33147 106.07741
#
# Poissons Ratio (x) = 0.21397 0.23945
# Poissons Ratio (y) = 0.43520 0.13019
# Poissons Ratio (z) = 0.17139 0.04582
#
# Static dielectric constant tensor:
#      x y z
#    x 1.828410 0.000000 -0.009970 
#    y 0.000000 1.910070 0.000000 
#    z -0.009970 0.000000 1.818230 
# 
# From -- ./inp_files/356387.got.cif
#   From: 2010.05.17/outbox.cif.g08.bks.cpg/sg12_179_cif.got.tgz:356387.got - 2010.06.03 13:09:07.
