data_PCOD9217065
_publ_section_title
;
Structure prediction by ZEFSAII (Michael W. Deem and Ramdas Pophale) SiO2 
 PCOD9217065
Probable space group: C 2/M
;
_chemical_formula_sum "Si O2"
_cell_formula_units_Z 44
_cell_length_a 5.375777
_cell_length_b 15.652989
_cell_length_c 22.486838
_cell_angle_alpha 90.000000
_cell_angle_beta 64.288940
_cell_angle_gamma 90.000000
_cell_volume 1704.859031
_symmetry_space_group_name_H-M "C 2/M"
_symmetry_group_IT_number 12
_symmetry_cell_setting 'monoclinic'
loop_
_space_group_symop_operation_xyz
x,y,z
-x,y,-z
-x,-y,-z
x,-y,z
1/2+x,1/2+y,z
1/2-x,1/2+y,-z
1/2-x,1/2-y,-z
1/2+x,1/2-y,z
loop_
_atom_site_type_symbol
_atom_site_label
_atom_site_fract_x
_atom_site_fract_y
_atom_site_fract_z
Si Si1 0.500000 0.372633 0.500000
Si Si2 0.540916 0.000000 0.566190
Si Si3 0.204706 0.500000 0.292877
Si Si4 0.922439 0.794771 0.384274
Si Si5 0.822870 0.000000 0.077300
Si Si6 0.832854 0.802437 0.123664
Si Si7 0.410546 0.857634 0.255456
Si Si8 0.234880 0.500000 0.823510
O O1 0.250267 0.423163 0.555928
O O2 0.366297 0.333040 0.454987
O O3 0.500000 0.000000 0.500000
O O4 0.275667 0.000000 0.637054
O O5 0.439527 0.500000 0.217455
O O6 0.035430 0.416676 0.293700
O O7 0.131797 0.720968 0.384255
O O8 0.118501 0.831971 0.312848
O O9 0.880128 0.904433 0.101938
O O10 0.488419 0.000000 0.100998
O O11 0.000000 0.000000 0.000000
O O12 0.619567 0.750309 0.102499
O O13 0.660479 0.800164 0.204236
O O14 0.342843 0.916878 0.206305
#
# Coordination Sequence:
#
# PCOD9217065 Si02
#       8
#     4   4   4   8   4   8   8   4
#     4  11  26  44  58  90 128 173 236 296 370 457
#     4  11  26  40  68  93 131 178 238 310 378 459
#     4  11  22  41  71 101 139 192 254 325 390 472
#     4  12  27  42  64  90 129 183 235 299 379 457
#     4  10  25  52  81 121 170 221 272 332 400 480
#     4  11  26  48  80 120 166 212 270 331 399 479
#     4  10  23  41  66 104 142 188 251 320 390 462
#     4   9  23  39  73 105 142 191 249 316 390 457
#
# _framework density 25.808585999999998
#
# number of rings (size 3 to 8) (size 9 to 14) (size 15 to 20)
#    0.000    1.273    1.818    2.182   12.727    1.455 
#    0.000    0.909    0.000    0.000    0.000    0.000 
#    0.000    0.000    0.000    0.000    0.000    0.000 
#
# Total GULP energy -122575.996063 kJ/mol
# GULP energy per Si atom -5571.636185 kJ/mol
# Density = 2.574984 g / cm^3
# Si number density = 25.808586 Si / 1000 Ang^3
#
#
#
# Elastic Constant Matrix: (Units=GPa)
#
#
# Indices 1 2 3 4 5 6 
#
# 1 96.4794 60.9715 25.1554 0.0000 -13.1819 0.0000
# 2 60.9715 95.3016 60.5332 0.0000 -12.0568 0.0000
# 3 25.1554 60.5332 173.5908 0.0000 -30.9808 0.0000
# 4 0.0000 0.0000 0.0000 42.0538 0.0000 -3.8800
# 5 -13.1819 -12.0568 -30.9808 0.0000 21.9452 0.0000
# 6 0.0000 0.0000 0.0000 -3.8800 0.0000 41.9685
#
#
#
# Elastic Compliance Matrix: (Units=1/GPa)
#
#
# Indices 1 2 3 4 5 6 
#
# 1 0.019089 -0.013276 0.003486 0.000000 0.009094 0.000000
# 2 -0.013276 0.022730 -0.006947 0.000000 -0.005295 0.000000
# 3 0.003486 -0.006947 0.009853 0.000000 0.012187 0.000000
# 4 0.000000 0.000000 0.000000 0.023984 0.000000 0.002217
# 5 0.009094 -0.005295 0.012187 0.000000 0.065327 0.000000
# 6 0.000000 0.000000 0.000000 0.002217 0.000000 0.024032
#
#
# Mechanical properties :
#
#
# Convention : Reuss Voigt Hill
#
# Bulk Modulus (GPa) = 54.95338 73.18799 64.07069
# Shear Modulus (GPa) = 24.44339 35.77430 30.10884
#
# Velocity S-wave (km/s) = 3.08084 3.72713 3.41929
# Velocity P-wave (km/s) = 5.83047 6.85139 6.36144
#
# Compressibility (1/GPa) = 0.01819724
#
# Stress axis : x y z
#
# Youngs Moduli (GPa) = 52.38744 43.99529 101.49108
#
# Poissons Ratio (x) = 0.58410 -0.35384
# Poissons Ratio (y) = 0.69552 0.70507
# Poissons Ratio (z) = -0.18265 0.30564
#
# Static dielectric constant tensor:
#      x y z
#    x 2.076910 0.000000 -0.014090 
#    y 0.000000 2.241560 0.000000 
#    z -0.014090 0.000000 2.038030 
# 
# From -- ./inp_files/331044.got.cif
#   From: 2010.05.17/outbox.cif.g08.bks.cpg/sg12_166_cif.got.tgz:331044.got - 2010.06.03 13:09:07.
