data_PCOD9217696
_publ_section_title
;
Structure prediction by ZEFSAII (Michael W. Deem and Ramdas Pophale) SiO2 
 PCOD9217696
Probable space group: C 2/M
;
_chemical_formula_sum "Si O2"
_cell_formula_units_Z 40
_cell_length_a 19.796852
_cell_length_b 10.738975
_cell_length_c 7.876451
_cell_angle_alpha 90.000000
_cell_angle_beta 105.839784
_cell_angle_gamma 90.000000
_cell_volume 1610.933348
_symmetry_space_group_name_H-M "C 2/M"
_symmetry_group_IT_number 12
_symmetry_cell_setting 'monoclinic'
loop_
_space_group_symop_operation_xyz
x,y,z
-x,y,-z
-x,-y,-z
x,-y,z
1/2+x,1/2+y,z
1/2-x,1/2+y,-z
1/2-x,1/2-y,-z
1/2+x,1/2-y,z
loop_
_atom_site_type_symbol
_atom_site_label
_atom_site_fract_x
_atom_site_fract_y
_atom_site_fract_z
Si Si1 0.025222 0.737456 0.823307
Si Si2 0.790434 0.500000 0.683501
Si Si3 0.857419 0.000000 0.585543
Si Si4 0.660045 0.861098 0.747539
Si Si5 0.226004 0.000000 0.010288
Si Si6 0.878505 0.271281 0.623056
Si Si7 0.077794 0.000000 0.749059
O O1 0.099963 0.672305 0.841408
O O2 0.035331 0.877049 0.763269
O O3 0.959265 0.685975 0.671989
O O4 0.000000 0.731532 0.000000
O O5 0.725879 0.500000 0.507203
O O6 0.758496 0.500000 0.846649
O O7 0.835157 0.375182 0.690486
O O8 0.874889 0.130219 0.688813
O O9 0.897663 0.000000 0.430679
O O10 0.654035 0.766871 0.588689
O O11 0.642326 0.000000 0.667474
O O12 0.737963 0.881326 0.873258
O O13 0.144376 0.000000 0.922036
#
# Coordination Sequence:
#
# PCOD9217696 Si02
#       7
#     8   4   4   8   4   8   4
#     4  12  26  43  68 102 138 182 236 289 354 414
#     4  11  23  45  71 107 138 183 236 295 350 414
#     4  11  25  45  69 106 141 190 232 287 356 421
#     4  10  23  44  69 102 133 186 231 289 345 414
#     4   9  23  46  70 101 142 183 239 289 346 420
#     4  12  24  45  73 103 146 184 235 291 351 426
#     4  11  24  46  69  98 143 190 229 285 358 425
#
# _framework density 24.830325999999999
#
# number of rings (size 3 to 8) (size 9 to 14) (size 15 to 20)
#    0.600    0.400    3.000    3.300    1.400    2.800 
#   10.800    0.000    0.000    0.000    0.000    0.000 
#    0.000    0.000    0.000    0.000    0.000    0.000 
#
# Total GULP energy -112006.569428 kJ/mol
# GULP energy per Si atom -5600.328471 kJ/mol
# Density = 2.477381 g / cm^3
# Si number density = 24.830326 Si / 1000 Ang^3
#
#
#
# Elastic Constant Matrix: (Units=GPa)
#
#
# Indices 1 2 3 4 5 6 
#
# 1 112.6509 19.8639 23.4059 0.0000 15.3165 0.0000
# 2 19.8639 104.5198 2.4114 0.0000 -9.6949 0.0000
# 3 23.4059 2.4114 61.5220 0.0000 -1.1656 0.0000
# 4 0.0000 0.0000 0.0000 11.7431 0.0000 6.9568
# 5 15.3165 -9.6949 -1.1656 0.0000 45.3509 0.0000
# 6 0.0000 0.0000 0.0000 6.9568 0.0000 51.4604
#
#
#
# Elastic Compliance Matrix: (Units=1/GPa)
#
#
# Indices 1 2 3 4 5 6 
#
# 1 0.010706 -0.002332 -0.004061 0.000000 -0.004219 0.000000
# 2 -0.002332 0.010276 0.000541 0.000000 0.002998 0.000000
# 3 -0.004061 0.000541 0.017815 0.000000 0.001945 0.000000
# 4 0.000000 0.000000 0.000000 0.092570 0.000000 -0.012514
# 5 -0.004219 0.002998 0.001945 0.000000 0.024166 0.000000
# 6 0.000000 0.000000 0.000000 -0.012514 0.000000 0.021124
#
#
# Mechanical properties :
#
#
# Convention : Reuss Voigt Hill
#
# Bulk Modulus (GPa) = 36.91055 41.11723 39.01389
# Shear Modulus (GPa) = 25.33017 37.24499 31.28758
#
# Velocity S-wave (km/s) = 3.19741 3.87716 3.55358
# Velocity P-wave (km/s) = 5.34122 6.05296 5.70820
#
# Compressibility (1/GPa) = 0.02709252
#
# Stress axis : x y z
#
# Youngs Moduli (GPa) = 93.40848 97.30999 56.13204
#
# Poissons Ratio (x) = 0.22695 0.22798
# Poissons Ratio (y) = 0.21785 -0.03038
# Poissons Ratio (z) = 0.37937 -0.05267
#
# Static dielectric constant tensor:
#      x y z
#    x 1.924400 0.000000 0.009450 
#    y 0.000000 1.979990 0.000000 
#    z 0.009450 0.000000 1.973960 
# 
# From -- ./inp_files/83696.got.cif
#   From: 2010.05.17/outbox.cif.g08.bks.cpg/sg12_42_cif.got.tgz:83696.got - 2010.06.03 13:09:07.
