data_PCOD9217039
_publ_section_title
;
Structure prediction by ZEFSAII (Michael W. Deem and Ramdas Pophale) SiO2 
 PCOD9217039
Probable space group: C 2/M
;
_chemical_formula_sum "Si O2"
_cell_formula_units_Z 56
_cell_length_a 17.514919
_cell_length_b 15.516215
_cell_length_c 11.574272
_cell_angle_alpha 90.000000
_cell_angle_beta 128.014574
_cell_angle_gamma 90.000000
_cell_volume 2478.183265
_symmetry_space_group_name_H-M "C 2/M"
_symmetry_group_IT_number 12
_symmetry_cell_setting 'monoclinic'
loop_
_space_group_symop_operation_xyz
x,y,z
-x,y,-z
-x,-y,-z
x,-y,z
1/2+x,1/2+y,z
1/2-x,1/2+y,-z
1/2-x,1/2-y,-z
1/2+x,1/2-y,z
loop_
_atom_site_type_symbol
_atom_site_label
_atom_site_fract_x
_atom_site_fract_y
_atom_site_fract_z
Si Si1 0.890155 0.852784 0.931784
Si Si2 0.779055 0.595379 0.088178
Si Si3 0.361006 0.252918 0.311078
Si Si4 0.666075 0.156644 0.112845
Si Si5 0.186716 0.900480 0.385398
Si Si6 0.396348 0.095579 0.704953
Si Si7 0.046358 0.758805 0.363028
O O1 0.836378 0.893971 0.992316
O O2 0.886550 0.749511 0.946173
O O3 0.822693 0.879208 0.759484
O O4 0.000000 0.878183 0.000000
O O5 0.808061 0.500000 0.152252
O O6 0.824470 0.671539 0.205485
O O7 0.814486 0.611315 0.990753
O O8 0.273732 0.316827 0.254331
O O9 0.443662 0.294422 0.308496
O O10 0.404960 0.225895 0.473571
O O11 0.618866 0.103179 0.171826
O O12 0.292786 0.891685 0.542469
O O13 0.113760 0.831785 0.372787
O O14 0.157652 0.000000 0.375695
O O15 0.460698 0.176113 0.725753
O O16 0.432864 0.000000 0.709596
#
# Coordination Sequence:
#
# PCOD9217039 Si02
#       7
#     8   8   8   8   8   8   8
#     4  11  24  41  66  92 123 166 218 256 311 372
#     4  11  25  42  61  91 130 167 211 260 311 375
#     4  10  23  41  65  89 123 170 210 251 323 372
#     4  11  22  41  64  89 127 171 207 256 313 374
#     4  11  23  39  64  95 127 161 206 265 318 366
#     4  11  22  39  66  98 125 163 210 257 317 376
#     4  11  22  41  66  94 126 164 208 263 312 379
#
# _framework density 22.597199
#
# number of rings (size 3 to 8) (size 9 to 14) (size 15 to 20)
#    0.000    1.143    2.857    4.714    4.000    3.429 
#    0.000    3.571    0.000    2.571    0.000    0.000 
#    0.000    0.000    0.000    0.000    0.000    0.000 
#
# Total GULP energy -156565.174419 kJ/mol
# GULP energy per Si atom -5591.613372 kJ/mol
# Density = 2.254577 g / cm^3
# Si number density = 22.597199 Si / 1000 Ang^3
#
#
#
# Elastic Constant Matrix: (Units=GPa)
#
#
# Indices 1 2 3 4 5 6 
#
# 1 91.3868 7.2669 18.6049 0.0000 -16.4564 0.0000
# 2 7.2669 85.6951 -1.0894 0.0000 -7.5379 0.0000
# 3 18.6049 -1.0894 75.1659 0.0000 -19.5628 0.0000
# 4 0.0000 0.0000 0.0000 18.2133 0.0000 -10.9344
# 5 -16.4564 -7.5379 -19.5628 0.0000 33.4740 0.0000
# 6 0.0000 0.0000 0.0000 -10.9344 0.0000 2.6809
#
#
#
# Elastic Compliance Matrix: (Units=1/GPa)
#
#
# Indices 1 2 3 4 5 6 
#
# 1 0.012224 -0.000635 -0.001779 0.000000 0.004827 0.000000
# 2 -0.000635 0.012006 0.001125 0.000000 0.003049 0.000000
# 3 -0.001779 0.001125 0.016038 0.000000 0.008752 0.000000
# 4 0.000000 0.000000 0.000000 -0.037901 0.000000 -0.154585
# 5 0.004827 0.003049 0.008752 0.000000 0.038048 0.000000
# 6 0.000000 0.000000 0.000000 -0.154585 0.000000 -0.257490
#
#
# Mechanical properties :
#
#
# Convention : Reuss Voigt Hill
#
# Bulk Modulus (GPa) = 26.53163 33.53473 30.03318
# Shear Modulus (GPa) = -24.76063 26.03799 0.63868
#
# Velocity S-wave (km/s) = -3.31379 3.39819 0.53221
# Velocity P-wave (km/s) = 1.69557 5.50176 3.70097
#
# Compressibility (1/GPa) = 0.03769086
#
# Stress axis : x y z
#
# Youngs Moduli (GPa) = 81.80409 83.29474 62.35111
#
# Poissons Ratio (x) = 0.05286 0.11090
# Poissons Ratio (y) = 0.05191 -0.07012
# Poissons Ratio (z) = 0.14549 -0.09367
#
# Static dielectric constant tensor:
#      x y z
#    x 1.879060 0.000000 0.026470 
#    y 0.000000 1.788310 0.000000 
#    z 0.026470 0.000000 1.878180 
# 
# From -- ./inp_files/156705.got.cif
#   From: 2010.05.17/outbox.cif.g08.bks.cpg/sg12_79_cif.got.tgz:156705.got - 2010.06.03 13:09:07.
