data_PCOD9217676
_publ_section_title
;
Structure prediction by ZEFSAII (Michael W. Deem and Ramdas Pophale) SiO2 
 PCOD9217676
Probable space group: C 2/M
;
_chemical_formula_sum "Si O2"
_cell_formula_units_Z 64
_cell_length_a 26.469811
_cell_length_b 8.641564
_cell_length_c 14.083957
_cell_angle_alpha 90.000000
_cell_angle_beta 108.592169
_cell_angle_gamma 90.000000
_cell_volume 3053.444864
_symmetry_space_group_name_H-M "C 2/M"
_symmetry_group_IT_number 12
_symmetry_cell_setting 'monoclinic'
loop_
_space_group_symop_operation_xyz
x,y,z
-x,y,-z
-x,-y,-z
x,-y,z
1/2+x,1/2+y,z
1/2-x,1/2+y,-z
1/2-x,1/2-y,-z
1/2+x,1/2-y,z
loop_
_atom_site_type_symbol
_atom_site_label
_atom_site_fract_x
_atom_site_fract_y
_atom_site_fract_z
Si Si1 0.800688 0.179717 0.082645
Si Si2 0.373712 0.176962 0.974005
Si Si3 0.524583 0.677943 0.618826
Si Si4 0.475840 0.330430 0.087924
Si Si5 0.850404 0.187514 0.311987
Si Si6 0.554473 0.817859 0.281645
Si Si7 0.348714 0.684881 0.752536
Si Si8 0.735145 0.815319 0.595243
O O1 0.820905 0.241894 0.196911
O O2 0.790721 0.000000 0.092013
O O3 0.750000 0.250000 0.000000
O O4 0.844402 0.210423 0.029103
O O5 0.365886 0.235311 0.861708
O O6 0.355269 0.000000 0.970340
O O7 0.433374 0.195596 0.047743
O O8 0.500000 0.672141 0.500000
O O9 0.524053 0.500000 0.656202
O O10 0.586595 0.730761 0.654655
O O11 0.482979 0.782454 0.651387
O O12 0.454130 0.500000 0.105369
O O13 0.522632 0.274833 0.182529
O O14 0.500000 0.350840 0.000000
O O15 0.816916 0.247904 0.382465
O O16 0.849484 0.000000 0.314343
O O17 0.613995 0.749224 0.310068
O O18 0.557234 0.000000 0.265245
O O19 0.355915 0.500000 0.764976
O O20 0.287035 0.717310 0.692092
O O21 0.750000 0.750000 0.500000
O O22 0.729072 0.000000 0.583841
#
# Coordination Sequence:
#
# PCOD9217676 Si02
#       8
#     8   8   8   8   8   8   8   8
#     4  11  23  40  64  93 131 176 221 267 324 389
#     4  12  24  38  62  96 133 170 215 270 324 382
#     4  10  23  44  70  96 128 174 222 268 327 402
#     4  11  22  38  61  88 125 173 215 256 311 382
#     4  10  23  44  68  96 130 170 218 271 324 388
#     4  12  25  40  64  98 135 171 216 277 331 384
#     4  11  24  43  65  93 130 175 221 266 323 398
#     4  11  26  45  70  97 127 167 213 269 330 390
#
# _framework density 20.959932999999999
#
# number of rings (size 3 to 8) (size 9 to 14) (size 15 to 20)
#    0.000    1.000    1.250    5.250    1.750    7.250 
#    0.000    0.000    0.000    0.000    0.000    0.000 
#    0.000    0.000    0.000    0.000    0.000    0.000 
#
# Total GULP energy -178646.594507 kJ/mol
# GULP energy per Si atom -5582.706078 kJ/mol
# Density = 2.091223 g / cm^3
# Si number density = 20.959933 Si / 1000 Ang^3
#
#
#
# Elastic Constant Matrix: (Units=GPa)
#
#
# Indices 1 2 3 4 5 6 
#
# 1 82.2592 -2.5112 13.8470 0.0000 -6.8816 0.0000
# 2 -2.5112 54.4849 6.6641 0.0000 3.3383 0.0000
# 3 13.8470 6.6641 74.6921 0.0000 -8.2041 0.0000
# 4 0.0000 0.0000 0.0000 28.8725 0.0000 -3.3804
# 5 -6.8816 3.3383 -8.2041 0.0000 30.3112 0.0000
# 6 0.0000 0.0000 0.0000 -3.3804 0.0000 31.4449
#
#
#
# Elastic Compliance Matrix: (Units=1/GPa)
#
#
# Indices 1 2 3 4 5 6 
#
# 1 0.012731 0.000717 -0.002180 0.000000 0.002221 0.000000
# 2 0.000717 0.018793 -0.002081 0.000000 -0.002470 0.000000
# 3 -0.002180 -0.002081 0.014376 0.000000 0.003625 0.000000
# 4 0.000000 0.000000 0.000000 0.035077 0.000000 0.003771
# 5 0.002221 -0.002470 0.003625 0.000000 0.034749 0.000000
# 6 0.000000 0.000000 0.000000 0.003771 0.000000 0.032207
#
#
# Mechanical properties :
#
#
# Convention : Reuss Voigt Hill
#
# Bulk Modulus (GPa) = 25.76481 27.49288 26.62885
# Shear Modulus (GPa) = 29.76932 31.02145 30.39538
#
# Velocity S-wave (km/s) = 3.77277 3.85130 3.81224
# Velocity P-wave (km/s) = 5.59442 5.73777 5.66655
#
# Compressibility (1/GPa) = 0.03881263
#
# Stress axis : x y z
#
# Youngs Moduli (GPa) = 78.54568 53.21237 69.55858
#
# Poissons Ratio (x) = -0.03817 0.15166
# Poissons Ratio (y) = -0.05635 0.14475
# Poissons Ratio (z) = 0.17125 0.11073
#
# Static dielectric constant tensor:
#      x y z
#    x 1.646920 0.000000 -0.051170 
#    y 0.000000 1.695610 0.000000 
#    z -0.051170 0.000000 1.728270 
# 
# From -- ./inp_files/244128.got.cif
#   From: 2010.05.17/outbox.cif.g08.bks.cpg/sg12_123_cif.got.tgz:244128.got - 2010.06.03 13:09:07.
