data_PCOD9217034
_publ_section_title
;
Structure prediction by ZEFSAII (Michael W. Deem and Ramdas Pophale) SiO2 
 PCOD9217034
Probable space group: C 2/M
;
_chemical_formula_sum "Si O2"
_cell_formula_units_Z 50
_cell_length_a 9.482458
_cell_length_b 22.848111
_cell_length_c 11.719816
_cell_angle_alpha 90.000000
_cell_angle_beta 67.288479
_cell_angle_gamma 90.000000
_cell_volume 2342.285269
_symmetry_space_group_name_H-M "C 2/M"
_symmetry_group_IT_number 12
_symmetry_cell_setting 'monoclinic'
loop_
_space_group_symop_operation_xyz
x,y,z
-x,y,-z
-x,-y,-z
x,-y,z
1/2+x,1/2+y,z
1/2-x,1/2+y,-z
1/2-x,1/2-y,-z
1/2+x,1/2-y,z
loop_
_atom_site_type_symbol
_atom_site_label
_atom_site_fract_x
_atom_site_fract_y
_atom_site_fract_z
Si Si1 0.162836 0.606231 0.476938
Si Si2 0.162847 0.321657 0.692587
Si Si3 0.680295 0.305561 0.956644
Si Si4 0.000000 0.500000 0.000000
Si Si5 0.003226 0.931448 0.630601
Si Si6 0.271763 0.891196 0.121847
Si Si7 0.138409 0.717585 0.324552
O O1 0.168980 0.621847 0.608885
O O2 0.319039 0.576102 0.390015
O O3 0.153254 0.669006 0.417153
O O4 0.000000 0.576292 0.500000
O O5 0.136035 0.344412 0.828685
O O6 0.311306 0.280757 0.647056
O O7 0.026301 0.282916 0.683801
O O8 0.749311 0.303937 0.809490
O O9 0.500000 0.301260 0.000000
O O10 0.750000 0.250000 0.000000
O O11 0.725874 0.361944 0.016865
O O12 0.127051 0.448415 0.927968
O O13 0.000000 0.909490 0.500000
O O14 0.882223 0.902369 0.754460
O O15 0.964056 0.000000 0.639645
#
# Coordination Sequence:
#
# PCOD9217034 Si02
#       7
#     8   8   8   2   8   8   8
#     4  10  23  41  65 100 142 177 219 279 344 409
#     4  11  23  40  66 101 137 178 227 276 349 401
#     4  12  25  41  68 102 140 183 231 286 352 424
#     4  12  28  48  72 104 140 188 238 300 350 416
#     4  11  23  43  71  99 129 173 236 285 343 402
#     4  12  25  46  72  99 140 183 238 291 348 415
#     4  11  23  39  62 100 138 179 221 271 340 423
#
# _framework density 21.346675999999999
#
# number of rings (size 3 to 8) (size 9 to 14) (size 15 to 20)
#    0.000    0.800    4.000    3.360    3.360    0.320 
#    0.000    0.400   17.600    0.000    0.000    0.000 
#    0.000    0.000    0.000    0.000    0.000    0.000 
#
# Total GULP energy -139479.886777 kJ/mol
# GULP energy per Si atom -5579.195471 kJ/mol
# Density = 2.129809 g / cm^3
# Si number density = 21.346676 Si / 1000 Ang^3
#
#
#
# Elastic Constant Matrix: (Units=GPa)
#
#
# Indices 1 2 3 4 5 6 
#
# 1 127.4115 19.9084 20.7622 0.0000 -18.0667 0.0000
# 2 19.9084 57.4926 -1.4349 0.0000 -3.8160 0.0000
# 3 20.7622 -1.4349 96.3287 0.0000 -14.3321 0.0000
# 4 0.0000 0.0000 0.0000 25.8025 0.0000 -11.8016
# 5 -18.0667 -3.8160 -14.3321 0.0000 38.2908 0.0000
# 6 0.0000 0.0000 0.0000 -11.8016 0.0000 34.3594
#
#
#
# Elastic Compliance Matrix: (Units=1/GPa)
#
#
# Indices 1 2 3 4 5 6 
#
# 1 0.009034 -0.002938 -0.001483 0.000000 0.003414 0.000000
# 2 -0.002938 0.018493 0.001034 0.000000 0.000844 0.000000
# 3 -0.001483 0.001034 0.011254 0.000000 0.003616 0.000000
# 4 0.000000 0.000000 0.000000 0.045979 0.000000 0.015793
# 5 0.003414 0.000844 0.003616 0.000000 0.029164 0.000000
# 6 0.000000 0.000000 0.000000 0.015793 0.000000 0.034529
#
#
# Mechanical properties :
#
#
# Convention : Reuss Voigt Hill
#
# Bulk Modulus (GPa) = 31.24355 39.96714 35.60534
# Shear Modulus (GPa) = 30.13944 35.82367 32.98156
#
# Velocity S-wave (km/s) = 3.76161 4.10101 3.93497
# Velocity P-wave (km/s) = 5.79088 6.41778 6.11237
#
# Compressibility (1/GPa) = 0.03200661
#
# Stress axis : x y z
#
# Youngs Moduli (GPa) = 110.69886 54.07484 88.85649
#
# Poissons Ratio (x) = 0.15890 0.13176
# Poissons Ratio (y) = 0.32529 -0.09191
# Poissons Ratio (z) = 0.16414 -0.05593
#
# Static dielectric constant tensor:
#      x y z
#    x 1.763560 0.000000 -0.036830 
#    y 0.000000 1.738070 0.000000 
#    z -0.036830 0.000000 1.907340 
# 
# From -- ./inp_files/123576.got.cif
#   From: 2010.05.17/outbox.cif.g08.bks.cpg/sg12_62_cif.got.tgz:123576.got - 2010.06.03 13:09:07.
