data_PCOD9217307
_publ_section_title
;
Structure prediction by ZEFSAII (Michael W. Deem and Ramdas Pophale) SiO2 
 PCOD9217307
Probable space group: C 2/M
;
_chemical_formula_sum "Si O2"
_cell_formula_units_Z 56
_cell_length_a 17.816114
_cell_length_b 14.304420
_cell_length_c 17.916273
_cell_angle_alpha 90.000000
_cell_angle_beta 145.187560
_cell_angle_gamma 90.000000
_cell_volume 2606.662139
_symmetry_space_group_name_H-M "C 2/M"
_symmetry_group_IT_number 12
_symmetry_cell_setting 'monoclinic'
loop_
_space_group_symop_operation_xyz
x,y,z
-x,y,-z
-x,-y,-z
x,-y,z
1/2+x,1/2+y,z
1/2-x,1/2+y,-z
1/2-x,1/2-y,-z
1/2+x,1/2-y,z
loop_
_atom_site_type_symbol
_atom_site_label
_atom_site_fract_x
_atom_site_fract_y
_atom_site_fract_z
Si Si1 0.296322 0.894245 0.019472
Si Si2 0.787817 0.108974 0.879387
Si Si3 0.621555 0.217130 0.352419
Si Si4 0.265150 0.723501 0.263208
Si Si5 0.501496 0.748874 0.891717
Si Si6 0.563439 0.340550 0.728133
Si Si7 0.814681 0.101089 0.438765
O O1 0.286795 0.885472 0.101312
O O2 0.392765 0.820250 0.058185
O O3 0.336099 0.000000 0.033782
O O4 0.149589 0.876750 0.867289
O O5 0.727245 0.170315 0.761967
O O6 0.803521 0.000000 0.873774
O O7 0.922806 0.163333 0.009782
O O8 0.750000 0.250000 0.500000
O O9 0.587267 0.279875 0.252193
O O10 0.499215 0.238709 0.305107
O O11 0.672403 0.118875 0.361543
O O12 0.333287 0.664449 0.254299
O O13 0.330141 0.686220 0.392739
O O14 0.109345 0.705223 0.146294
O O15 0.434751 0.395365 0.595194
O O16 0.815638 0.000000 0.401864
#
# Coordination Sequence:
#
# PCOD9217307 Si02
#       7
#     8   8   8   8   8   8   8
#     4  11  23  38  66 100 128 167 216 265 324 391
#     4  11  23  41  65  92 123 170 223 273 320 375
#     4   9  20  38  65  89 123 171 215 263 316 373
#     4  11  24  38  62  91 132 175 211 263 321 388
#     4  11  21  40  60  92 136 167 213 266 325 384
#     4  11  20  40  66  94 132 169 213 263 319 386
#     4  10  23  42  66  97 132 172 215 264 327 393
#
# _framework density 21.483412999999999
#
# number of rings (size 3 to 8) (size 9 to 14) (size 15 to 20)
#    0.000    1.429    2.857    2.571    0.000    5.143 
#    0.000    1.429    0.000    6.857    0.000    0.000 
#    0.000    0.000    0.000    0.000    0.000    0.000 
#
# Total GULP energy -155929.506497 kJ/mol
# GULP energy per Si atom -5568.910946 kJ/mol
# Density = 2.143452 g / cm^3
# Si number density = 21.483413 Si / 1000 Ang^3
#
#
#
# Elastic Constant Matrix: (Units=GPa)
#
#
# Indices 1 2 3 4 5 6 
#
# 1 97.6157 35.5091 8.3486 0.0000 4.1144 0.0000
# 2 35.5091 129.1083 54.8472 0.0000 -3.4289 0.0000
# 3 8.3486 54.8472 93.5266 0.0000 -16.4408 0.0000
# 4 0.0000 0.0000 0.0000 14.6255 0.0000 -10.9024
# 5 4.1144 -3.4289 -16.4408 0.0000 22.5417 0.0000
# 6 0.0000 0.0000 0.0000 -10.9024 0.0000 20.8489
#
#
#
# Elastic Compliance Matrix: (Units=1/GPa)
#
#
# Indices 1 2 3 4 5 6 
#
# 1 0.011558 -0.003510 0.000645 0.000000 -0.002173 0.000000
# 2 -0.003510 0.011595 -0.006955 0.000000 -0.002668 0.000000
# 3 0.000645 -0.006955 0.016640 0.000000 0.010961 0.000000
# 4 0.000000 0.000000 0.000000 0.112053 0.000000 0.058596
# 5 -0.002173 -0.002668 0.010961 0.000000 0.052347 0.000000
# 6 0.000000 0.000000 0.000000 0.058596 0.000000 0.078605
#
#
# Mechanical properties :
#
#
# Convention : Reuss Voigt Hill
#
# Bulk Modulus (GPa) = 49.62525 57.51782 53.57153
# Shear Modulus (GPa) = 16.17300 26.37293 21.27296
#
# Velocity S-wave (km/s) = 2.74672 3.50751 3.15016
# Velocity P-wave (km/s) = 5.76271 6.57531 6.18237
#
# Compressibility (1/GPa) = 0.02015103
#
# Stress axis : x y z
#
# Youngs Moduli (GPa) = 86.52264 86.24580 60.09563
#
# Poissons Ratio (x) = 0.30276 -0.03876
# Poissons Ratio (y) = 0.30373 0.41798
# Poissons Ratio (z) = -0.05580 0.59986
#
# Static dielectric constant tensor:
#      x y z
#    x 1.878000 0.000000 -0.032230 
#    y 0.000000 1.787910 0.000000 
#    z -0.032230 0.000000 1.833030 
# 
# From -- ./inp_files/277894.got.cif
#   From: 2010.05.17/outbox.cif.g08.bks.cpg/sg12_139_cif.got.tgz:277894.got - 2010.06.03 13:09:07.
