data_PCOD9217352
_publ_section_title
;
Structure prediction by ZEFSAII (Michael W. Deem and Ramdas Pophale) SiO2 
 PCOD9217352
Probable space group: C 2/M
;
_chemical_formula_sum "Si O2"
_cell_formula_units_Z 32
_cell_length_a 17.758419
_cell_length_b 15.917876
_cell_length_c 9.047782
_cell_angle_alpha 90.000000
_cell_angle_beta 31.937135
_cell_angle_gamma 90.000000
_cell_volume 1352.937538
_symmetry_space_group_name_H-M "C 2/M"
_symmetry_group_IT_number 12
_symmetry_cell_setting 'monoclinic'
loop_
_space_group_symop_operation_xyz
x,y,z
-x,y,-z
-x,-y,-z
x,-y,z
1/2+x,1/2+y,z
1/2-x,1/2+y,-z
1/2-x,1/2-y,-z
1/2+x,1/2-y,z
loop_
_atom_site_type_symbol
_atom_site_label
_atom_site_fract_x
_atom_site_fract_y
_atom_site_fract_z
Si Si1 0.898912 0.094476 0.290193
Si Si2 0.179212 0.681327 0.505297
Si Si3 0.076942 0.598569 0.211397
Si Si4 0.350255 0.693349 0.671576
O O1 0.750378 0.097959 0.450717
O O2 0.890893 0.140476 0.457864
O O3 0.948331 0.000000 0.233752
O O4 0.000000 0.137196 0.000000
O O5 0.250000 0.750000 0.500000
O O6 0.217378 0.721577 0.283148
O O7 0.015345 0.654808 0.751058
O O8 0.086438 0.500000 0.151538
O O9 0.000000 0.599758 0.500000
O O10 0.232834 0.640282 0.953705
O O11 0.500000 0.709957 0.500000
#
# Coordination Sequence:
#
# PCOD9217352 Si02
#       4
#     8   8   8   8
#     4  10  23  42  68  99 136 180 228 284 345 413
#     4  10  24  42  69  99 139 178 228 285 348 413
#     4  11  26  46  71 104 141 184 234 291 350 414
#     4  11  26  45  73 102 141 185 235 289 352 417
#
# _framework density 23.652238000000001
#
# number of rings (size 3 to 8) (size 9 to 14) (size 15 to 20)
#    0.000    1.500    0.000    2.250   10.500    7.000 
#    0.000    6.250    0.000    0.000    0.000    0.000 
#    0.000    0.000    0.000    0.000    0.000    0.000 
#
# Total GULP energy -89187.749510 kJ/mol
# GULP energy per Si atom -5574.234344 kJ/mol
# Density = 2.359840 g / cm^3
# Si number density = 23.652238 Si / 1000 Ang^3
#
#
#
# Elastic Constant Matrix: (Units=GPa)
#
#
# Indices 1 2 3 4 5 6 
#
# 1 152.5542 41.0417 50.3746 0.0001 -6.5780 -0.0001
# 2 41.0417 107.4225 11.8320 0.0000 13.0265 0.0000
# 3 50.3746 11.8320 81.3235 0.0000 16.3732 -0.0001
# 4 0.0001 0.0000 0.0000 24.5499 -0.0001 -1.2035
# 5 -6.5780 13.0265 16.3732 -0.0001 36.2938 0.0001
# 6 -0.0001 0.0000 -0.0001 -1.2035 0.0001 26.6684
#
#
#
# Elastic Compliance Matrix: (Units=1/GPa)
#
#
# Indices 1 2 3 4 5 6 
#
# 1 0.010212 -0.003905 -0.007053 0.000000 0.006434 0.000000
# 2 -0.003905 0.011272 0.001909 0.000000 -0.005615 0.000000
# 3 -0.007053 0.001909 0.018460 0.000000 -0.010291 0.000000
# 4 0.000000 0.000000 0.000000 0.040824 0.000000 0.001842
# 5 0.006434 -0.005615 -0.010291 0.000000 0.035377 0.000000
# 6 0.000000 0.000000 0.000000 0.001842 0.000000 0.037581
#
#
# Mechanical properties :
#
#
# Convention : Reuss Voigt Hill
#
# Bulk Modulus (GPa) = 45.77492 60.86631 53.32061
# Shear Modulus (GPa) = 27.91682 33.37254 30.64468
#
# Velocity S-wave (km/s) = 3.43928 3.76036 3.60340
# Velocity P-wave (km/s) = 5.93017 6.68158 6.31705
#
# Compressibility (1/GPa) = 0.02184602
#
# Stress axis : x y z
#
# Youngs Moduli (GPa) = 97.92422 88.71924 54.17234
#
# Poissons Ratio (x) = 0.34645 0.38207
# Poissons Ratio (y) = 0.38239 -0.10344
# Poissons Ratio (z) = 0.69065 -0.16940
#
# Static dielectric constant tensor:
#      x y z
#    x 1.893490 0.000000 -0.044480 
#    y 0.000000 1.987530 0.000000 
#    z -0.044480 0.000000 1.970140 
# 
# From -- ./inp_files/74260.got.cif
#   From: 2010.05.17/outbox.cif.g08.bks.cpg/sg12_38_cif.got.tgz:74260.got - 2010.06.03 13:09:07.
