data_PCOD9217993
_publ_section_title
;
Structure prediction by ZEFSAII (Michael W. Deem and Ramdas Pophale) SiO2 
 PCOD9217993
Probable space group: C 2/M
;
_chemical_formula_sum "Si O2"
_cell_formula_units_Z 48
_cell_length_a 7.200833
_cell_length_b 29.086762
_cell_length_c 14.694851
_cell_angle_alpha 90.000000
_cell_angle_beta 43.332638
_cell_angle_gamma 90.000000
_cell_volume 2112.101486
_symmetry_space_group_name_H-M "C 2/M"
_symmetry_group_IT_number 12
_symmetry_cell_setting 'monoclinic'
loop_
_space_group_symop_operation_xyz
x,y,z
-x,y,-z
-x,-y,-z
x,-y,z
1/2+x,1/2+y,z
1/2-x,1/2+y,-z
1/2-x,1/2-y,-z
1/2+x,1/2-y,z
loop_
_atom_site_type_symbol
_atom_site_label
_atom_site_fract_x
_atom_site_fract_y
_atom_site_fract_z
Si Si1 0.104655 0.777833 0.131003
Si Si2 0.212837 0.647665 0.300467
Si Si3 0.227432 0.551544 0.213560
Si Si4 0.634022 0.066734 0.042637
Si Si5 0.756719 0.849659 0.783690
Si Si6 0.298187 0.794178 0.370539
O O1 0.906210 0.819409 0.166283
O O2 0.287636 0.805391 0.137553
O O3 0.946480 0.744611 0.258121
O O4 0.250000 0.750000 0.000000
O O5 0.118935 0.597427 0.301117
O O6 0.432260 0.637709 0.301654
O O7 0.961803 0.682944 0.395997
O O8 0.203821 0.500000 0.263180
O O9 0.108488 0.548090 0.154050
O O10 0.454035 0.564585 0.910023
O O11 0.474156 0.114569 0.108727
O O12 0.500000 0.046085 0.000000
O O13 0.734652 0.836237 0.687723
O O14 0.000000 0.777645 0.500000
#
# Coordination Sequence:
#
# PCOD9217993 Si02
#       6
#     8   8   8   8   8   8
#     4  10  25  42  66 102 137 187 227 275 339 411
#     4  10  24  43  64  97 135 174 227 287 325 419
#     4  11  24  39  64  99 138 180 223 282 355 424
#     4  11  20  38  59  92 137 174 217 270 346 416
#     4  10  24  40  64  92 133 184 217 277 340 399
#     4  12  26  45  68  97 140 185 233 283 340 406
#
# _framework density 22.726181
#
# number of rings (size 3 to 8) (size 9 to 14) (size 15 to 20)
#    1.000    0.333    3.333    2.000    4.667    6.667 
#    0.000    0.000    0.000    0.500    0.000    1.167 
#    0.000    0.000    0.000    0.000    0.000    0.000 
#
# Total GULP energy -133624.581803 kJ/mol
# GULP energy per Si atom -5567.690908 kJ/mol
# Density = 2.267446 g / cm^3
# Si number density = 22.726181 Si / 1000 Ang^3
#
#
#
# Elastic Constant Matrix: (Units=GPa)
#
#
# Indices 1 2 3 4 5 6 
#
# 1 106.4173 50.3776 1.5796 0.0000 -0.2728 0.0000
# 2 50.3776 179.2766 45.9142 0.0000 -13.4313 0.0000
# 3 1.5796 45.9142 52.8638 0.0000 -9.6388 0.0000
# 4 0.0000 0.0000 0.0000 92.6391 0.0000 158.1322
# 5 -0.2728 -13.4313 -9.6388 0.0000 22.3406 0.0000
# 6 0.0000 0.0000 0.0000 158.1322 0.0000 282.0302
#
#
#
# Elastic Compliance Matrix: (Units=1/GPa)
#
#
# Indices 1 2 3 4 5 6 
#
# 1 0.011238 -0.003987 0.002947 0.000000 -0.000988 0.000000
# 2 -0.003987 0.008652 -0.007008 0.000000 0.002130 0.000000
# 3 0.002947 -0.007008 0.026215 0.000000 0.007134 0.000000
# 4 0.000000 0.000000 0.000000 0.251536 0.000000 -0.141034
# 5 -0.000988 0.002130 0.007134 0.000000 0.049108 0.000000
# 6 0.000000 0.000000 0.000000 -0.141034 0.000000 0.082623
#
#
# Mechanical properties :
#
#
# Convention : Reuss Voigt Hill
#
# Bulk Modulus (GPa) = 33.32147 59.36673 46.34410
# Shear Modulus (GPa) = 10.97765 95.44774 53.21270
#
# Velocity S-wave (km/s) = 2.20020 6.48770 4.84412
# Velocity P-wave (km/s) = 4.59875 9.07191 7.19194
#
# Compressibility (1/GPa) = 0.03001068
#
# Stress axis : x y z
#
# Youngs Moduli (GPa) = 88.98430 115.57375 38.14537
#
# Poissons Ratio (x) = 0.46074 -0.11240
# Poissons Ratio (y) = 0.35474 0.26731
# Poissons Ratio (z) = -0.26219 0.80989
#
# Static dielectric constant tensor:
#      x y z
#    x 1.970950 0.000000 -0.034380 
#    y 0.000000 1.899700 0.000000 
#    z -0.034380 0.000000 1.880130 
# 
# From -- ./inp_files/200773.got.cif
#   From: 2010.05.17/outbox.cif.g08.bks.cpg/sg12_101_cif.got.tgz:200773.got - 2010.06.03 13:09:07.
