data_PCOD9217514
_publ_section_title
;
Structure prediction by ZEFSAII (Michael W. Deem and Ramdas Pophale) SiO2 
 PCOD9217514
Probable space group: C 2/M
;
_chemical_formula_sum "Si O2"
_cell_formula_units_Z 48
_cell_length_a 19.433444
_cell_length_b 8.882312
_cell_length_c 19.891060
_cell_angle_alpha 90.000000
_cell_angle_beta 43.922480
_cell_angle_gamma 90.000000
_cell_volume 2381.747427
_symmetry_space_group_name_H-M "C 2/M"
_symmetry_group_IT_number 12
_symmetry_cell_setting 'monoclinic'
loop_
_space_group_symop_operation_xyz
x,y,z
-x,y,-z
-x,-y,-z
x,-y,z
1/2+x,1/2+y,z
1/2-x,1/2+y,-z
1/2-x,1/2-y,-z
1/2+x,1/2-y,z
loop_
_atom_site_type_symbol
_atom_site_label
_atom_site_fract_x
_atom_site_fract_y
_atom_site_fract_z
Si Si1 0.852852 0.322337 0.403625
Si Si2 0.730126 0.180300 0.086639
Si Si3 0.385294 0.318779 0.095845
Si Si4 0.798333 0.677230 0.292674
Si Si5 0.607219 0.173804 0.390767
Si Si6 0.558496 0.322491 0.289210
O O1 0.854009 0.500000 0.418886
O O2 0.750000 0.250000 0.500000
O O3 0.859738 0.304447 0.317927
O O4 0.947541 0.241449 0.368363
O O5 0.813637 0.222923 0.083722
O O6 0.624889 0.240300 0.187008
O O7 0.729296 0.000000 0.083017
O O8 0.750000 0.250000 0.000000
O O9 0.377991 0.500000 0.109434
O O10 0.349816 0.241440 0.189676
O O11 0.500000 0.281652 0.000000
O O12 0.777901 0.500000 0.298917
O O13 0.695763 0.767626 0.374523
O O14 0.500000 0.183415 0.500000
O O15 0.607567 0.278240 0.325359
O O16 0.624821 0.000000 0.358827
O O17 0.558402 0.500000 0.278689
#
# Coordination Sequence:
#
# PCOD9217514 Si02
#       6
#     8   8   8   8   8   8
#     4  11  25  44  65  96 133 173 220 269 323 385
#     4  11  24  43  67  97 132 169 213 267 325 388
#     4  10  23  43  67  95 127 167 214 261 318 386
#     4  11  24  41  64  95 129 166 212 264 319 383
#     4  11  23  40  65  94 126 167 212 263 322 384
#     4  12  25  42  66  95 130 172 217 268 323 383
#
# _framework density 20.153269000000002
#
# number of rings (size 3 to 8) (size 9 to 14) (size 15 to 20)
#    0.000    1.000    1.667    4.500    2.333    7.667 
#    0.000    0.000    0.000    0.000    0.000    0.000 
#    0.000    0.000    0.000    0.000    0.000    0.000 
#
# Total GULP energy -134277.222646 kJ/mol
# GULP energy per Si atom -5594.884277 kJ/mol
# Density = 2.010740 g / cm^3
# Si number density = 20.153269 Si / 1000 Ang^3
#
#
#
# Elastic Constant Matrix: (Units=GPa)
#
#
# Indices 1 2 3 4 5 6 
#
# 1 59.4272 27.4974 13.9778 0.0000 -3.8448 0.0000
# 2 27.4974 83.4936 26.3099 0.0000 2.4567 0.0000
# 3 13.9778 26.3099 86.5625 0.0000 -3.7459 0.0000
# 4 0.0000 0.0000 0.0000 35.6662 0.0000 0.1100
# 5 -3.8448 2.4567 -3.7459 0.0000 38.9789 0.0000
# 6 0.0000 0.0000 0.0000 0.1100 0.0000 30.2543
#
#
#
# Elastic Compliance Matrix: (Units=1/GPa)
#
#
# Indices 1 2 3 4 5 6 
#
# 1 0.020193 -0.006327 -0.001240 0.000000 0.002271 0.000000
# 2 -0.006327 0.015286 -0.003709 0.000000 -0.001944 0.000000
# 3 -0.001240 -0.003709 0.012938 0.000000 0.001355 0.000000
# 4 0.000000 0.000000 0.000000 0.028038 0.000000 -0.000102
# 5 0.002271 -0.001944 0.001355 0.000000 0.026132 0.000000
# 6 0.000000 0.000000 0.000000 -0.000102 0.000000 0.033054
#
#
# Mechanical properties :
#
#
# Convention : Reuss Voigt Hill
#
# Bulk Modulus (GPa) = 38.65728 40.56150 39.60939
# Shear Modulus (GPa) = 29.97359 31.75975 30.86667
#
# Velocity S-wave (km/s) = 3.86071 3.97408 3.91781
# Velocity P-wave (km/s) = 6.25274 6.42090 6.33738
#
# Compressibility (1/GPa) = 0.02586835
#
# Stress axis : x y z
#
# Youngs Moduli (GPa) = 49.52171 65.41776 77.28958
#
# Poissons Ratio (x) = 0.41387 0.09580
# Poissons Ratio (y) = 0.31330 0.28664
# Poissons Ratio (z) = 0.06138 0.24261
#
# Static dielectric constant tensor:
#      x y z
#    x 1.708160 0.000000 -0.004420 
#    y 0.000000 1.668830 0.000000 
#    z -0.004420 0.000000 1.713220 
# 
# From -- ./inp_files/319575.got.cif
#   From: 2010.05.17/outbox.cif.g08.bks.cpg/sg12_160_cif.got.tgz:319575.got - 2010.06.03 13:09:07.
