data_PCOD9217876
_publ_section_title
;
Structure prediction by ZEFSAII (Michael W. Deem and Ramdas Pophale) SiO2 
 PCOD9217876
Probable space group: C 2/M
;
_chemical_formula_sum "Si O2"
_cell_formula_units_Z 52
_cell_length_a 29.662366
_cell_length_b 9.317073
_cell_length_c 15.582792
_cell_angle_alpha 90.000000
_cell_angle_beta 38.631095
_cell_angle_gamma 90.000000
_cell_volume 2688.601466
_symmetry_space_group_name_H-M "C 2/M"
_symmetry_group_IT_number 12
_symmetry_cell_setting 'monoclinic'
loop_
_space_group_symop_operation_xyz
x,y,z
-x,y,-z
-x,-y,-z
x,-y,z
1/2+x,1/2+y,z
1/2-x,1/2+y,-z
1/2-x,1/2-y,-z
1/2+x,1/2-y,z
loop_
_atom_site_type_symbol
_atom_site_label
_atom_site_fract_x
_atom_site_fract_y
_atom_site_fract_z
Si Si1 0.462550 0.836483 0.645612
Si Si2 0.691057 0.833806 0.391070
Si Si3 0.953788 0.830636 0.338631
Si Si4 0.719117 0.500000 0.062241
Si Si5 0.303018 0.792639 0.819711
Si Si6 0.793266 0.672107 0.358729
Si Si7 0.440472 0.333687 0.161931
O O1 0.500000 0.792747 0.500000
O O2 0.486422 0.732318 0.686108
O O3 0.377162 0.836674 0.757460
O O4 0.486892 0.000000 0.628187
O O5 0.618959 0.757904 0.533810
O O6 0.688955 0.830743 0.291555
O O7 0.757581 0.740603 0.327149
O O8 0.695409 0.000000 0.413532
O O9 0.971532 0.813502 0.211693
O O10 0.942761 0.000000 0.371447
O O11 0.705879 0.625340 0.153111
O O12 0.738119 0.376582 0.961183
O O13 0.785816 0.500000 0.372989
O O14 0.750000 0.750000 0.500000
O O15 0.875377 0.724017 0.244757
O O16 0.413411 0.500000 0.198563
O O17 0.500000 0.316977 0.000000
#
# Coordination Sequence:
#
# PCOD9217876 Si02
#       7
#     8   8   8   4   8   8   8
#     4  11  22  39  63  92 128 168 212 265 324 381
#     4  12  23  41  68  97 131 171 219 274 327 384
#     4  11  24  39  65  99 129 166 219 273 329 389
#     4  10  24  44  64  88 130 180 218 270 314 392
#     4  11  23  44  65  92 132 175 221 265 324 385
#     4  12  25  42  69 101 133 170 223 278 333 396
#     4  10  23  48  69  94 135 177 215 272 340 404
#
# _framework density 19.340910999999998
#
# number of rings (size 3 to 8) (size 9 to 14) (size 15 to 20)
#    0.000    0.923    4.615    2.308    3.231    1.231 
#    5.538    0.000    0.000    0.000    0.000    0.000 
#    0.000    0.000    0.000    0.000    0.000    0.000 
#
# Total GULP energy -144763.016168 kJ/mol
# GULP energy per Si atom -5567.808314 kJ/mol
# Density = 1.929689 g / cm^3
# Si number density = 19.340911 Si / 1000 Ang^3
#
#
#
# Elastic Constant Matrix: (Units=GPa)
#
#
# Indices 1 2 3 4 5 6 
#
# 1 109.6399 57.4362 26.4964 0.0000 11.3158 0.0000
# 2 57.4362 191.1715 43.1229 -0.0001 12.5125 -0.0001
# 3 26.4964 43.1229 64.7654 0.0000 22.0291 0.0000
# 4 0.0000 -0.0001 0.0000 54.9337 0.0000 -11.7085
# 5 11.3158 12.5125 22.0291 0.0000 21.5948 0.0000
# 6 0.0000 -0.0001 0.0000 -11.7085 0.0000 35.8956
#
#
#
# Elastic Compliance Matrix: (Units=1/GPa)
#
#
# Indices 1 2 3 4 5 6 
#
# 1 0.011302 -0.002798 -0.001987 0.000000 -0.002274 0.000000
# 2 -0.002798 0.006861 -0.003935 0.000000 0.001506 0.000000
# 3 -0.001987 -0.003935 0.027172 0.000000 -0.024397 0.000000
# 4 0.000000 0.000000 0.000000 0.019564 0.000000 0.006381
# 5 -0.002274 0.001506 -0.024397 0.000000 0.071514 0.000000
# 6 0.000000 0.000000 0.000000 0.006381 0.000000 0.029940
#
#
# Mechanical properties :
#
#
# Convention : Reuss Voigt Hill
#
# Bulk Modulus (GPa) = 35.85189 68.85421 52.35305
# Shear Modulus (GPa) = 25.89452 38.38626 32.14039
#
# Velocity S-wave (km/s) = 3.66300 4.45985 4.08092
# Velocity P-wave (km/s) = 6.03880 7.88657 7.02371
#
# Compressibility (1/GPa) = 0.02789254
#
# Stress axis : x y z
#
# Youngs Moduli (GPa) = 88.48281 145.75442 36.80292
#
# Poissons Ratio (x) = 0.40789 0.07313
# Poissons Ratio (y) = 0.24762 0.14483
# Poissons Ratio (z) = 0.17581 0.57360
#
# Static dielectric constant tensor:
#      x y z
#    x 1.701430 0.000000 -0.008470 
#    y 0.000000 1.680670 0.000000 
#    z -0.008470 0.000000 1.674890 
# 
# From -- ./inp_files/249593.got.cif
#   From: 2010.05.17/outbox.cif.g08.bks.cpg/sg12_125_cif.got.tgz:249593.got - 2010.06.03 13:09:07.
