data_PCOD9217186
_publ_section_title
;
Structure prediction by ZEFSAII (Michael W. Deem and Ramdas Pophale) SiO2 
 PCOD9217186
Probable space group: C 2/M
;
_chemical_formula_sum "Si O2"
_cell_formula_units_Z 36
_cell_length_a 24.049578
_cell_length_b 7.398908
_cell_length_c 22.276285
_cell_angle_alpha 90.000000
_cell_angle_beta 158.945177
_cell_angle_gamma 90.000000
_cell_volume 1424.059112
_symmetry_space_group_name_H-M "C 2/M"
_symmetry_group_IT_number 12
_symmetry_cell_setting 'monoclinic'
loop_
_space_group_symop_operation_xyz
x,y,z
-x,y,-z
-x,-y,-z
x,-y,z
1/2+x,1/2+y,z
1/2-x,1/2+y,-z
1/2-x,1/2-y,-z
1/2+x,1/2-y,z
loop_
_atom_site_type_symbol
_atom_site_label
_atom_site_fract_x
_atom_site_fract_y
_atom_site_fract_z
Si Si1 0.117846 0.282789 0.788610
Si Si2 0.414700 0.214012 0.696762
Si Si3 0.339726 0.000000 0.951673
Si Si4 0.598697 0.781979 0.542875
Si Si5 0.440113 0.703623 0.859018
O O1 0.147952 0.500000 0.817157
O O2 0.043833 0.235615 0.778196
O O3 0.989944 0.240325 0.608148
O O4 0.259231 0.158741 0.912606
O O5 0.250000 0.250000 0.500000
O O6 0.415609 0.303420 0.762108
O O7 0.433683 0.000000 0.729566
O O8 0.421897 0.841336 0.993636
O O9 0.500000 0.713189 0.500000
O O10 0.776345 0.726548 0.719079
O O11 0.602597 0.000000 0.550924
O O12 0.473250 0.500000 0.911705
#
# Coordination Sequence:
#
# PCOD9217186 Si02
#       5
#     8   8   4   8   8
#     4  10  23  42  63  94 129 166 212 257 314 376
#     4  11  21  37  64  94 126 162 208 261 313 368
#     4  12  26  42  61  92 138 176 203 250 316 386
#     4   9  19  41  72  96 119 161 217 275 318 359
#     4  11  23  42  64  94 130 165 213 259 314 376
#
# _framework density 25.279847
#
# number of rings (size 3 to 8) (size 9 to 14) (size 15 to 20)
#    0.000    1.556    3.333    1.333    3.111    1.778 
#    0.000    4.444    0.000    5.333    0.000    0.000 
#    0.000    0.000    0.000    0.000    0.000    0.000 
#
# Total GULP energy -100394.356156 kJ/mol
# GULP energy per Si atom -5577.464231 kJ/mol
# Density = 2.522231 g / cm^3
# Si number density = 25.279847 Si / 1000 Ang^3
#
#
#
# Elastic Constant Matrix: (Units=GPa)
#
#
# Indices 1 2 3 4 5 6 
#
# 1 183.2830 39.9012 78.7019 0.0001 16.6781 0.0000
# 2 39.9012 142.7267 57.7699 0.0003 16.7652 0.0003
# 3 78.7019 57.7699 103.5699 0.0008 43.6153 0.0000
# 4 0.0001 0.0003 0.0008 -37.6316 0.0000 -130.4006
# 5 16.6781 16.7652 43.6153 0.0000 58.7164 -0.0002
# 6 0.0000 0.0003 0.0000 -130.4006 -0.0002 -275.8016
#
#
#
# Elastic Compliance Matrix: (Units=1/GPa)
#
#
# Indices 1 2 3 4 5 6 
#
# 1 0.008598 0.000558 -0.008367 0.000000 0.003613 0.000000
# 2 0.000558 0.009203 -0.006380 0.000000 0.001953 0.000000
# 3 -0.008367 -0.006380 0.025909 -0.000001 -0.015047 0.000000
# 4 0.000000 0.000000 -0.000001 0.041627 0.000000 -0.019682
# 5 0.003613 0.001953 -0.015047 0.000000 0.026624 0.000000
# 6 0.000000 0.000000 0.000000 -0.019682 0.000000 0.005680
#
#
# Mechanical properties :
#
#
# Convention : Reuss Voigt Hill
#
# Bulk Modulus (GPa) = 65.21941 86.92505 76.07223
# Shear Modulus (GPa) = 33.08398 -34.06290 -0.48946
#
# Velocity S-wave (km/s) = 3.62153 -3.67472 -0.44049
# Velocity P-wave (km/s) = 6.58349 4.05648 5.46797
#
# Compressibility (1/GPa) = 0.01533286
#
# Stress axis : x y z
#
# Youngs Moduli (GPa) = 116.29956 108.65613 38.59709
#
# Poissons Ratio (x) = -0.06067 0.32294
# Poissons Ratio (y) = -0.06494 0.24626
# Poissons Ratio (z) = 0.97308 0.69325
#
# Static dielectric constant tensor:
#      x y z
#    x 1.894030 0.000000 -0.014540 
#    y 0.000000 2.452200 0.000000 
#    z -0.014540 0.000000 1.992300 
# 
# From -- ./inp_files/107387.got.cif
#   From: 2010.05.17/outbox.cif.g08.bks.cpg/sg12_54_cif.got.tgz:107387.got - 2010.06.03 13:09:07.
