data_PCOD9217501
_publ_section_title
;
Structure prediction by ZEFSAII (Michael W. Deem and Ramdas Pophale) SiO2 
 PCOD9217501
Probable space group: C 2/M
;
_chemical_formula_sum "Si O2"
_cell_formula_units_Z 60
_cell_length_a 8.851603
_cell_length_b 22.724187
_cell_length_c 14.561643
_cell_angle_alpha 90.000000
_cell_angle_beta 70.680074
_cell_angle_gamma 90.000000
_cell_volume 2764.064355
_symmetry_space_group_name_H-M "C 2/M"
_symmetry_group_IT_number 12
_symmetry_cell_setting 'monoclinic'
loop_
_space_group_symop_operation_xyz
x,y,z
-x,y,-z
-x,-y,-z
x,-y,z
1/2+x,1/2+y,z
1/2-x,1/2+y,-z
1/2-x,1/2-y,-z
1/2+x,1/2-y,z
loop_
_atom_site_type_symbol
_atom_site_label
_atom_site_fract_x
_atom_site_fract_y
_atom_site_fract_z
Si Si1 0.627722 0.635177 0.653234
Si Si2 0.436044 0.763362 0.268862
Si Si3 0.728398 0.432615 0.454486
Si Si4 0.334435 0.431693 0.748691
Si Si5 0.000000 0.145425 0.000000
Si Si6 0.811595 0.632913 0.055989
Si Si7 0.988071 0.357746 0.603184
Si Si8 0.732560 0.260748 0.869195
O O1 0.557918 0.700522 0.680541
O O2 0.650923 0.611879 0.543934
O O3 0.514074 0.590228 0.728609
O O4 0.803428 0.634452 0.661571
O O5 0.428332 0.815418 0.342075
O O6 0.285679 0.759208 0.232708
O O7 0.581477 0.777519 0.168897
O O8 0.689301 0.500000 0.487313
O O9 0.687959 0.423281 0.356057
O O10 0.916645 0.418567 0.421924
O O11 0.310993 0.500000 0.773773
O O12 0.223892 0.393373 0.836553
O O13 0.152696 0.115301 0.024564
O O14 0.896343 0.188223 0.087614
O O15 0.797293 0.703939 0.062105
O O16 0.000000 0.618233 0.000000
O O17 0.000000 0.329398 0.500000
#
# Coordination Sequence:
#
# PCOD9217501 Si02
#       8
#     8   8   8   8   4   8   8   8
#     4  11  22  39  63  96 132 173 216 267 322 389
#     4  12  23  38  61  95 132 171 209 263 327 395
#     4  10  23  43  67  92 124 174 228 272 320 383
#     4  11  24  45  67  93 126 168 222 274 330 395
#     4  12  24  42  67 102 131 166 220 270 342 416
#     4  12  25  44  70 100 130 174 219 278 339 403
#     4  10  24  39  59  93 133 171 215 268 323 384
#     4  12  21  40  64  90 131 167 214 261 324 406
#
# _framework density 21.707163999999999
#
# number of rings (size 3 to 8) (size 9 to 14) (size 15 to 20)
#    0.000    0.800    4.667    2.800    0.000    7.467 
#    0.000    0.333    0.000    0.000    0.000    0.000 
#    0.000    0.000    0.000    0.000    0.000    0.000 
#
# Total GULP energy -167383.300254 kJ/mol
# GULP energy per Si atom -5579.443342 kJ/mol
# Density = 2.165776 g / cm^3
# Si number density = 21.707164 Si / 1000 Ang^3
#
#
#
# Elastic Constant Matrix: (Units=GPa)
#
#
# Indices 1 2 3 4 5 6 
#
# 1 102.8407 18.0168 22.3272 0.0000 -18.0637 0.0000
# 2 18.0168 70.3415 31.2063 0.0000 -4.6459 0.0000
# 3 22.3272 31.2063 68.5028 0.0000 -9.9705 0.0000
# 4 0.0000 0.0000 0.0000 25.1664 0.0000 8.1761
# 5 -18.0637 -4.6459 -9.9705 0.0000 46.3523 0.0000
# 6 0.0000 0.0000 0.0000 8.1761 0.0000 11.0221
#
#
#
# Elastic Compliance Matrix: (Units=1/GPa)
#
#
# Indices 1 2 3 4 5 6 
#
# 1 0.011162 -0.001554 -0.002395 0.000000 0.003679 0.000000
# 2 -0.001554 0.018034 -0.007777 0.000000 -0.000471 0.000000
# 3 -0.002395 -0.007777 0.019276 0.000000 0.002433 0.000000
# 4 0.000000 0.000000 0.000000 0.052352 0.000000 -0.038834
# 5 0.003679 -0.000471 0.002433 0.000000 0.023484 0.000000
# 6 0.000000 0.000000 0.000000 -0.038834 0.000000 0.119533
#
#
# Mechanical properties :
#
#
# Convention : Reuss Voigt Hill
#
# Bulk Modulus (GPa) = 39.96837 42.75396 41.36117
# Shear Modulus (GPa) = 18.14012 27.85048 22.99530
#
# Velocity S-wave (km/s) = 2.89394 3.58580 3.25828
# Velocity P-wave (km/s) = 5.44233 6.07309 5.76634
#
# Compressibility (1/GPa) = 0.02501978
#
# Stress axis : x y z
#
# Youngs Moduli (GPa) = 89.58887 55.45234 51.87898
#
# Poissons Ratio (x) = 0.08615 0.12425
# Poissons Ratio (y) = 0.13918 0.40348
# Poissons Ratio (z) = 0.21456 0.43127
#
# Static dielectric constant tensor:
#      x y z
#    x 1.867130 0.000000 0.029670 
#    y 0.000000 1.758440 0.000000 
#    z 0.029670 0.000000 1.825090 
# 
# From -- ./inp_files/198857.got.cif
#   From: 2010.05.17/outbox.cif.g08.bks.cpg/sg12_100_cif.got.tgz:198857.got - 2010.06.03 13:09:07.
