data_PCOD9217998
_publ_section_title
;
Structure prediction by ZEFSAII (Michael W. Deem and Ramdas Pophale) SiO2 
 PCOD9217998
Probable space group: C 2/M
;
_chemical_formula_sum "Si O2"
_cell_formula_units_Z 52
_cell_length_a 14.582014
_cell_length_b 16.159331
_cell_length_c 16.500617
_cell_angle_alpha 90.000000
_cell_angle_beta 38.643419
_cell_angle_gamma 90.000000
_cell_volume 2428.028631
_symmetry_space_group_name_H-M "C 2/M"
_symmetry_group_IT_number 12
_symmetry_cell_setting 'monoclinic'
loop_
_space_group_symop_operation_xyz
x,y,z
-x,y,-z
-x,-y,-z
x,-y,z
1/2+x,1/2+y,z
1/2-x,1/2+y,-z
1/2-x,1/2-y,-z
1/2+x,1/2-y,z
loop_
_atom_site_type_symbol
_atom_site_label
_atom_site_fract_x
_atom_site_fract_y
_atom_site_fract_z
Si Si1 0.417044 0.500000 0.353442
Si Si2 0.740429 0.500000 0.183044
Si Si3 0.339125 0.218919 0.860242
Si Si4 0.261466 0.500000 0.619234
Si Si5 0.373219 0.097778 0.700609
Si Si6 0.207306 0.357182 0.424599
Si Si7 0.838668 0.325144 0.128246
Si Si8 0.831244 0.684268 0.322921
O O1 0.594057 0.500000 0.228269
O O2 0.397948 0.500000 0.464302
O O3 0.332202 0.419445 0.374437
O O4 0.714625 0.500000 0.299941
O O5 0.835425 0.419111 0.100905
O O6 0.309616 0.135912 0.827836
O O7 0.298859 0.285806 0.821255
O O8 0.505830 0.212859 0.770353
O O9 0.250000 0.250000 0.000000
O O10 0.185468 0.586771 0.645898
O O11 0.298532 0.130081 0.668949
O O12 0.546780 0.119004 0.570025
O O13 0.358452 0.000000 0.711598
O O14 0.231152 0.259354 0.424487
O O15 0.809808 0.317264 0.241985
O O16 0.000000 0.288145 0.000000
#
# Coordination Sequence:
#
# PCOD9217998 Si02
#       8
#     4   4   8   4   8   8   8   8
#     4  12  21  40  65  99 145 170 241 286 351 441
#     4  10  24  40  65  96 132 182 231 292 351 409
#     4  12  25  42  71 102 134 182 242 291 346 426
#     4  10  25  43  64 101 142 192 228 288 353 435
#     4  11  23  45  71 103 143 185 234 286 364 429
#     4  11  22  41  73 103 143 187 231 295 358 426
#     4  11  22  45  65  92 136 180 233 290 345 420
#     4  11  24  43  69 100 138 185 234 291 359 415
#
# _framework density 21.416551999999999
#
# number of rings (size 3 to 8) (size 9 to 14) (size 15 to 20)
#    0.000    0.923    4.615    2.769    1.077    3.692 
#    4.154    0.000    0.000    1.385    0.000    0.000 
#    0.000    0.000    0.000    0.000    0.000    0.000 
#
# Total GULP energy -144966.743183 kJ/mol
# GULP energy per Si atom -5575.643969 kJ/mol
# Density = 2.136781 g / cm^3
# Si number density = 21.416552 Si / 1000 Ang^3
#
#
#
# Elastic Constant Matrix: (Units=GPa)
#
#
# Indices 1 2 3 4 5 6 
#
# 1 131.8539 32.9095 24.5605 0.0003 -5.1671 0.0003
# 2 32.9095 160.5355 17.8799 0.0004 -14.5603 0.0003
# 3 24.5605 17.8799 43.6902 0.0012 4.7594 0.0009
# 4 0.0003 0.0004 0.0012 21.9834 -0.0006 -0.0463
# 5 -5.1671 -14.5603 4.7594 -0.0006 38.1122 -0.0005
# 6 0.0003 0.0003 0.0009 -0.0463 -0.0005 -17.8080
#
#
#
# Elastic Compliance Matrix: (Units=1/GPa)
#
#
# Indices 1 2 3 4 5 6 
#
# 1 0.008785 -0.001168 -0.004604 0.000000 0.001320 0.000000
# 2 -0.001168 0.007006 -0.002519 0.000000 0.002833 0.000000
# 3 -0.004604 -0.002519 0.027048 -0.000001 -0.004964 0.000001
# 4 0.000000 0.000000 -0.000001 0.045489 0.000001 -0.000118
# 5 0.001320 0.002833 -0.004964 0.000001 0.028119 -0.000001
# 6 0.000000 0.000000 0.000001 -0.000118 -0.000001 -0.056154
#
#
# Mechanical properties :
#
#
# Convention : Reuss Voigt Hill
#
# Bulk Modulus (GPa) = 38.08583 54.08662 46.08622
# Shear Modulus (GPa) = 58.39150 25.83948 42.11549
#
# Velocity S-wave (km/s) = 5.22722 3.47727 4.43933
# Velocity P-wave (km/s) = 7.36572 6.43671 6.91683
#
# Compressibility (1/GPa) = 0.02625649
#
# Stress axis : x y z
#
# Youngs Moduli (GPa) = 113.82882 142.73147 36.97083
#
# Poissons Ratio (x) = 0.16677 0.17022
# Poissons Ratio (y) = 0.13300 0.09313
# Poissons Ratio (z) = 0.52409 0.35954
#
# Static dielectric constant tensor:
#      x y z
#    x 1.794390 0.000000 0.050350 
#    y 0.000000 1.831780 0.000000 
#    z 0.050350 0.000000 1.739960 
# 
# From -- ./inp_files/270614.got.cif
#   From: 2010.05.17/outbox.cif.g08.bks.cpg/sg12_136_cif.got.tgz:270614.got - 2010.06.03 13:09:07.
