data_PCOD9217243
_publ_section_title
;
Structure prediction by ZEFSAII (Michael W. Deem and Ramdas Pophale) SiO2 
 PCOD9217243
Probable space group: C 2/M
;
_chemical_formula_sum "Si O2"
_cell_formula_units_Z 44
_cell_length_a 9.534460
_cell_length_b 9.436296
_cell_length_c 22.829517
_cell_angle_alpha 90.000000
_cell_angle_beta 89.435903
_cell_angle_gamma 90.000000
_cell_volume 2053.871796
_symmetry_space_group_name_H-M "C 2/M"
_symmetry_group_IT_number 12
_symmetry_cell_setting 'monoclinic'
loop_
_space_group_symop_operation_xyz
x,y,z
-x,y,-z
-x,-y,-z
x,-y,z
1/2+x,1/2+y,z
1/2-x,1/2+y,-z
1/2-x,1/2-y,-z
1/2+x,1/2-y,z
loop_
_atom_site_type_symbol
_atom_site_label
_atom_site_fract_x
_atom_site_fract_y
_atom_site_fract_z
Si Si1 0.194975 0.000000 0.986729
Si Si2 0.576512 0.834111 0.344594
Si Si3 0.800563 0.774338 0.917082
Si Si4 0.858495 0.161761 0.538233
Si Si5 0.960100 0.661676 0.157978
Si Si6 0.201541 0.666357 0.724276
O O1 0.140827 0.877389 0.033589
O O2 0.265164 0.876204 0.945198
O O3 0.609828 0.744016 0.402013
O O4 0.670066 0.766169 0.292697
O O5 0.414393 0.823499 0.326629
O O6 0.610551 0.000000 0.352508
O O7 0.655501 0.837308 0.893130
O O8 0.911721 0.756000 0.864402
O O9 0.750000 0.250000 0.500000
O O10 0.000000 0.154665 0.500000
O O11 0.810159 0.000000 0.549924
O O12 0.007212 0.500000 0.168580
O O13 0.878552 0.710115 0.216210
O O14 0.242560 0.500000 0.729877
#
# Coordination Sequence:
#
# PCOD9217243 Si02
#       6
#     4   8   8   8   8   8
#     4  10  24  40  64  96 120 164 206 250 316 384
#     4  11  23  41  64  95 128 167 212 260 310 368
#     4  11  23  42  66  90 125 163 203 258 316 379
#     4  11  24  41  65  97 132 170 213 259 309 368
#     4  11  23  43  64  92 125 161 207 263 314 368
#     4  10  23  42  65  89 124 168 211 258 315 371
#
# _framework density 21.422951999999999
#
# number of rings (size 3 to 8) (size 9 to 14) (size 15 to 20)
#    0.000    1.273    1.818    3.273    0.000   10.909 
#    3.273    0.000    0.000    0.000    0.000    0.000 
#    0.000    0.000    0.000    0.000    0.000    0.000 
#
# Total GULP energy -122566.343124 kJ/mol
# GULP energy per Si atom -5571.197415 kJ/mol
# Density = 2.137419 g / cm^3
# Si number density = 21.422952 Si / 1000 Ang^3
#
#
#
# Elastic Constant Matrix: (Units=GPa)
#
#
# Indices 1 2 3 4 5 6 
#
# 1 51.5882 15.8732 -7.0912 0.0000 -3.0028 0.0000
# 2 15.8732 135.3708 22.1359 0.0000 -3.9178 0.0000
# 3 -7.0912 22.1359 71.6419 0.0000 -9.7338 0.0000
# 4 0.0000 0.0000 0.0000 31.8673 0.0000 -0.1656
# 5 -3.0028 -3.9178 -9.7338 0.0000 37.4672 0.0000
# 6 0.0000 0.0000 0.0000 -0.1656 0.0000 1.8824
#
#
#
# Elastic Compliance Matrix: (Units=1/GPa)
#
#
# Indices 1 2 3 4 5 6 
#
# 1 0.020859 -0.002916 0.003267 0.000000 0.002216 0.000000
# 2 -0.002916 0.008189 -0.002834 0.000000 -0.000114 0.000000
# 3 0.003267 -0.002834 0.015707 0.000000 0.004046 0.000000
# 4 0.000000 0.000000 0.000000 0.031394 0.000000 0.002762
# 5 0.002216 -0.000114 0.004046 0.000000 0.027907 0.000000
# 6 0.000000 0.000000 0.000000 0.002762 0.000000 0.531479
#
#
# Mechanical properties :
#
#
# Convention : Reuss Voigt Hill
#
# Bulk Modulus (GPa) = 25.13286 35.60407 30.36847
# Shear Modulus (GPa) = 7.64799 29.42225 18.53512
#
# Velocity S-wave (km/s) = 1.89149 3.70996 2.94462
# Velocity P-wave (km/s) = 4.06541 5.91671 5.07617
#
# Compressibility (1/GPa) = 0.03978855
#
# Stress axis : x y z
#
# Youngs Moduli (GPa) = 47.93981 122.11169 63.66523
#
# Poissons Ratio (x) = 0.35607 -0.20798
# Poissons Ratio (y) = 0.13979 0.18045
# Poissons Ratio (z) = -0.15661 0.34611
#
# Static dielectric constant tensor:
#      x y z
#    x 1.795040 0.000000 0.020650 
#    y 0.000000 1.725150 0.000000 
#    z 0.020650 0.000000 1.791240 
# 
# From -- ./inp_files/303622.got.cif
#   From: 2010.05.17/outbox.cif.g08.bks.cpg/sg12_152_cif.got.tgz:303622.got - 2010.06.03 13:09:07.
