data_PCOD9217412
_publ_section_title
;
Structure prediction by ZEFSAII (Michael W. Deem and Ramdas Pophale) SiO2 
 PCOD9217412
Probable space group: C 2/M
;
_chemical_formula_sum "Si O2"
_cell_formula_units_Z 48
_cell_length_a 13.235682
_cell_length_b 12.880418
_cell_length_c 16.746132
_cell_angle_alpha 90.000000
_cell_angle_beta 119.424983
_cell_angle_gamma 90.000000
_cell_volume 2486.616353
_symmetry_space_group_name_H-M "C 2/M"
_symmetry_group_IT_number 12
_symmetry_cell_setting 'monoclinic'
loop_
_space_group_symop_operation_xyz
x,y,z
-x,y,-z
-x,-y,-z
x,-y,z
1/2+x,1/2+y,z
1/2-x,1/2+y,-z
1/2-x,1/2-y,-z
1/2+x,1/2-y,z
loop_
_atom_site_type_symbol
_atom_site_label
_atom_site_fract_x
_atom_site_fract_y
_atom_site_fract_z
Si Si1 0.243815 0.764993 0.738131
Si Si2 0.932386 0.382783 0.587060
Si Si3 0.291646 0.618355 0.604934
Si Si4 0.034080 0.375502 0.103514
Si Si5 0.910680 0.619254 0.210970
Si Si6 0.020635 0.161831 0.595577
O O1 0.273975 0.698067 0.670492
O O2 0.354314 0.814187 0.822821
O O3 0.177230 0.691776 0.775841
O O4 0.150225 0.852678 0.676488
O O5 0.966921 0.500000 0.576231
O O6 0.803327 0.365677 0.503050
O O7 0.007470 0.287594 0.584137
O O8 0.964492 0.377469 0.693432
O O9 0.275066 0.500000 0.627219
O O10 0.418791 0.629212 0.615690
O O11 0.053885 0.500000 0.115677
O O12 0.933430 0.351537 0.128732
O O13 0.000000 0.349495 0.000000
O O14 0.871409 0.500000 0.200454
O O15 0.000000 0.118195 0.500000
#
# Coordination Sequence:
#
# PCOD9217412 Si02
#       6
#     8   8   8   8   8   8
#     4  11  21  37  62  84 113 152 192 239 282 337
#     4   9  18  33  55  81 116 159 199 232 266 322
#     4  11  23  37  54  82 122 162 194 231 278 333
#     4  10  23  43  64  86 112 144 189 243 296 346
#     4   9  19  35  58  88 115 149 196 236 277 334
#     4  11  22  33  53  83 122 153 197 233 279 336
#
# _framework density 19.303339000000001
#
# number of rings (size 3 to 8) (size 9 to 14) (size 15 to 20)
#    0.000    1.833    1.667    3.000    2.333    2.667 
#    0.000    0.000    0.000    2.000    0.000    0.000 
#    0.000    0.000    0.000    0.000    0.000    0.000 
#
# Total GULP energy -133901.842127 kJ/mol
# GULP energy per Si atom -5579.243422 kJ/mol
# Density = 1.925940 g / cm^3
# Si number density = 19.303339 Si / 1000 Ang^3
#
#
#
# Elastic Constant Matrix: (Units=GPa)
#
#
# Indices 1 2 3 4 5 6 
#
# 1 96.4436 18.6543 49.7576 0.0000 -12.7534 0.0000
# 2 18.6543 56.1516 17.4513 0.0000 0.1726 0.0000
# 3 49.7576 17.4513 95.7612 0.0000 -24.7119 0.0000
# 4 0.0000 0.0000 0.0000 17.5514 0.0000 8.3383
# 5 -12.7534 0.1726 -24.7119 0.0000 33.5526 0.0000
# 6 0.0000 0.0000 0.0000 8.3383 0.0000 -11.5939
#
#
#
# Elastic Compliance Matrix: (Units=1/GPa)
#
#
# Indices 1 2 3 4 5 6 
#
# 1 0.014528 -0.002666 -0.006957 0.000000 0.000412 0.000000
# 2 -0.002666 0.019658 -0.003068 0.000000 -0.003374 0.000000
# 3 -0.006957 -0.003068 0.017209 0.000000 0.010046 0.000000
# 4 0.000000 0.000000 0.000000 0.042466 0.000000 0.030541
# 5 0.000412 -0.003374 0.010046 0.000000 0.037377 0.000000
# 6 0.000000 0.000000 0.000000 0.030541 0.000000 -0.064287
#
#
# Mechanical properties :
#
#
# Convention : Reuss Voigt Hill
#
# Bulk Modulus (GPa) = 38.44002 46.67586 42.55794
# Shear Modulus (GPa) = 49.50321 18.73490 34.11905
#
# Velocity S-wave (km/s) = 5.06957 3.11875 4.20875
# Velocity P-wave (km/s) = 7.36372 6.09930 6.76113
#
# Compressibility (1/GPa) = 0.02601455
#
# Stress axis : x y z
#
# Youngs Moduli (GPa) = 68.83304 50.86883 58.10953
#
# Poissons Ratio (x) = 0.13560 0.40424
# Poissons Ratio (y) = 0.18348 0.17829
# Poissons Ratio (z) = 0.47884 0.15607
#
# Static dielectric constant tensor:
#      x y z
#    x 1.688260 0.000000 0.000460 
#    y 0.000000 1.711060 0.000000 
#    z 0.000460 0.000000 1.686600 
# 
# From -- ./inp_files/143075.got.cif
#   From: 2010.05.17/outbox.cif.g08.bks.cpg/sg12_72_cif.got.tgz:143075.got - 2010.06.03 13:09:07.
