data_PCOD9217686
_publ_section_title
;
Structure prediction by ZEFSAII (Michael W. Deem and Ramdas Pophale) SiO2 
 PCOD9217686
Probable space group: C 2/M
;
_chemical_formula_sum "Si O2"
_cell_formula_units_Z 40
_cell_length_a 9.226330
_cell_length_b 18.139928
_cell_length_c 11.184649
_cell_angle_alpha 90.000000
_cell_angle_beta 77.245742
_cell_angle_gamma 90.000000
_cell_volume 1825.730484
_symmetry_space_group_name_H-M "C 2/M"
_symmetry_group_IT_number 12
_symmetry_cell_setting 'monoclinic'
loop_
_space_group_symop_operation_xyz
x,y,z
-x,y,-z
-x,-y,-z
x,-y,z
1/2+x,1/2+y,z
1/2-x,1/2+y,-z
1/2-x,1/2-y,-z
1/2+x,1/2-y,z
loop_
_atom_site_type_symbol
_atom_site_label
_atom_site_fract_x
_atom_site_fract_y
_atom_site_fract_z
Si Si1 0.400169 0.704026 0.836868
Si Si2 0.163957 0.199158 0.420688
Si Si3 0.835821 0.084433 0.219258
Si Si4 0.659907 0.914984 0.500269
Si Si5 0.865713 0.641278 0.954776
O O1 0.349987 0.724469 0.711957
O O2 0.537706 0.647084 0.812572
O O3 0.433732 0.782095 0.891588
O O4 0.266474 0.665125 0.932100
O O5 0.250000 0.250000 0.500000
O O6 0.257664 0.124446 0.407362
O O7 0.000000 0.186254 0.500000
O O8 0.759730 0.090511 0.363267
O O9 0.712278 0.098801 0.140123
O O10 0.892944 0.000000 0.196519
O O11 0.500000 0.880320 0.500000
O O12 0.636899 0.000000 0.534176
O O13 0.000000 0.602371 0.000000
#
# Coordination Sequence:
#
# PCOD9217686 Si02
#       5
#     8   8   8   8   8
#     4  11  24  43  66  96 134 180 220 277 335 408
#     4  12  25  40  67 100 132 171 228 278 333 406
#     4  11  24  46  71 100 136 178 228 279 335 405
#     4  10  23  44  68  97 139 180 216 274 346 408
#     4  11  25  42  67  95 134 175 225 278 343 396
#
# _framework density 21.909037999999999
#
# number of rings (size 3 to 8) (size 9 to 14) (size 15 to 20)
#    0.000    1.000    2.000    4.800    5.600    3.200 
#    0.000    0.000    0.000    0.000    0.000    0.000 
#    0.000    0.000    0.000    0.000    0.000    0.000 
#
# Total GULP energy -111937.036200 kJ/mol
# GULP energy per Si atom -5596.851810 kJ/mol
# Density = 2.185917 g / cm^3
# Si number density = 21.909038 Si / 1000 Ang^3
#
#
#
# Elastic Constant Matrix: (Units=GPa)
#
#
# Indices 1 2 3 4 5 6 
#
# 1 113.4781 39.8074 7.0456 0.0000 20.9523 0.0000
# 2 39.8074 78.7261 9.6237 0.0000 2.9754 0.0000
# 3 7.0456 9.6237 70.1555 0.0000 32.4251 0.0000
# 4 0.0000 0.0000 0.0000 19.7565 0.0000 -4.6502
# 5 20.9523 2.9754 32.4251 0.0000 40.7801 0.0000
# 6 0.0000 0.0000 0.0000 -4.6502 0.0000 32.7701
#
#
#
# Elastic Compliance Matrix: (Units=1/GPa)
#
#
# Indices 1 2 3 4 5 6 
#
# 1 0.012486 -0.006435 0.003758 0.000000 -0.008933 0.000000
# 2 -0.006435 0.016250 -0.004052 0.000000 0.005343 0.000000
# 3 0.003758 -0.004052 0.024013 0.000000 -0.020728 0.000000
# 4 0.000000 0.000000 0.000000 0.052365 0.000000 0.007431
# 5 -0.008933 0.005343 -0.020728 0.000000 0.045203 0.000000
# 6 0.000000 0.000000 0.000000 0.007431 0.000000 0.031570
#
#
# Mechanical properties :
#
#
# Convention : Reuss Voigt Hill
#
# Bulk Modulus (GPa) = 25.45219 41.70146 33.57682
# Shear Modulus (GPa) = 23.98746 32.38686 28.18716
#
# Velocity S-wave (km/s) = 3.31247 3.84896 3.59075
# Velocity P-wave (km/s) = 5.12565 6.23120 5.70527
#
# Compressibility (1/GPa) = 0.03928936
#
# Stress axis : x y z
#
# Youngs Moduli (GPa) = 80.09100 61.54015 41.64437
#
# Poissons Ratio (x) = 0.39602 -0.15649
# Poissons Ratio (y) = 0.51539 0.16875
# Poissons Ratio (z) = -0.30096 0.24936
#
# Static dielectric constant tensor:
#      x y z
#    x 1.791870 0.000000 0.007300 
#    y 0.000000 1.833370 0.000000 
#    z 0.007300 0.000000 1.776680 
# 
# From -- ./inp_files/118896.got.cif
#   From: 2010.05.17/outbox.cif.g08.bks.cpg/sg12_60_cif.got.tgz:118896.got - 2010.06.03 13:09:07.
