data_PCOD9217791
_publ_section_title
;
Structure prediction by ZEFSAII (Michael W. Deem and Ramdas Pophale) SiO2 
 PCOD9217791
Probable space group: C 2/M
;
_chemical_formula_sum "Si O2"
_cell_formula_units_Z 36
_cell_length_a 18.613910
_cell_length_b 13.244987
_cell_length_c 7.708876
_cell_angle_alpha 90.000000
_cell_angle_beta 63.464140
_cell_angle_gamma 90.000000
_cell_volume 1700.339961
_symmetry_space_group_name_H-M "C 2/M"
_symmetry_group_IT_number 12
_symmetry_cell_setting 'monoclinic'
loop_
_space_group_symop_operation_xyz
x,y,z
-x,y,-z
-x,-y,-z
x,-y,z
1/2+x,1/2+y,z
1/2-x,1/2+y,-z
1/2-x,1/2-y,-z
1/2+x,1/2-y,z
loop_
_atom_site_type_symbol
_atom_site_label
_atom_site_fract_x
_atom_site_fract_y
_atom_site_fract_z
Si Si1 0.000000 0.732464 0.500000
Si Si2 0.886965 0.620199 0.892491
Si Si3 0.294665 0.619707 0.900954
Si Si4 0.626774 0.379638 0.535516
Si Si5 0.907599 0.802084 0.073146
O O1 0.053602 0.662457 0.317947
O O2 0.053746 0.807697 0.556998
O O3 0.892919 0.500000 0.905378
O O4 0.794685 0.647986 0.943649
O O5 0.905209 0.681393 0.049820
O O6 0.299115 0.500000 0.912917
O O7 0.307118 0.641311 0.683535
O O8 0.367392 0.659488 0.939185
O O9 0.608516 0.500000 0.551292
O O10 0.643889 0.345724 0.712720
O O11 0.000000 0.834927 0.000000
#
# Coordination Sequence:
#
# PCOD9217791 Si02
#       5
#     4   8   8   8   8
#     4  12  22  44  68 100 132 184 216 274 332 394
#     4  11  25  46  67  96 136 183 227 268 324 393
#     4  10  23  45  70  97 137 174 215 281 338 392
#     4  11  23  40  67 103 132 166 220 274 340 397
#     4  12  23  41  69 102 132 174 219 274 336 391
#
# _framework density 21.172238
#
# number of rings (size 3 to 8) (size 9 to 14) (size 15 to 20)
#    0.000    0.889    4.444    2.000    0.000    4.889 
#    0.000    0.000    0.000    0.000    0.000    0.000 
#    0.000    0.000    0.000    0.000    0.000    0.000 
#
# Total GULP energy -100532.717784 kJ/mol
# GULP energy per Si atom -5585.150988 kJ/mol
# Density = 2.112405 g / cm^3
# Si number density = 21.172238 Si / 1000 Ang^3
#
#
#
# Elastic Constant Matrix: (Units=GPa)
#
#
# Indices 1 2 3 4 5 6 
#
# 1 60.8260 29.9411 39.2159 0.0000 -15.3616 0.0000
# 2 29.9411 101.0557 69.4701 0.0000 -12.1480 0.0000
# 3 39.2159 69.4701 137.0007 0.0000 -8.1590 0.0000
# 4 0.0000 0.0000 0.0000 37.5842 0.0000 0.4150
# 5 -15.3616 -12.1480 -8.1590 0.0000 33.6877 0.0000
# 6 0.0000 0.0000 0.0000 0.4150 0.0000 30.6837
#
#
#
# Elastic Compliance Matrix: (Units=1/GPa)
#
#
# Indices 1 2 3 4 5 6 
#
# 1 0.022861 -0.002473 -0.004791 0.000000 0.008372 0.000000
# 2 -0.002473 0.015918 -0.007193 0.000000 0.002870 0.000000
# 3 -0.004791 -0.007193 0.012210 0.000000 -0.001821 0.000000
# 4 0.000000 0.000000 0.000000 0.026611 0.000000 -0.000360
# 5 0.008372 0.002870 -0.001821 0.000000 0.034096 0.000000
# 6 0.000000 0.000000 0.000000 -0.000360 0.000000 0.032595
#
#
# Mechanical properties :
#
#
# Convention : Reuss Voigt Hill
#
# Bulk Modulus (GPa) = 45.30158 64.01515 54.65836
# Shear Modulus (GPa) = 27.69106 31.07481 29.38293
#
# Velocity S-wave (km/s) = 3.62041 3.83523 3.72937
# Velocity P-wave (km/s) = 6.23856 7.06492 6.66456
#
# Compressibility (1/GPa) = 0.02207429
#
# Stress axis : x y z
#
# Youngs Moduli (GPa) = 43.74220 62.82206 81.90343
#
# Poissons Ratio (x) = 0.15538 0.39241
# Poissons Ratio (y) = 0.10819 0.58911
# Poissons Ratio (z) = 0.20958 0.45186
#
# Static dielectric constant tensor:
#      x y z
#    x 1.758590 0.000000 -0.012120 
#    y 0.000000 1.790780 0.000000 
#    z -0.012120 0.000000 1.810260 
# 
# From -- ./inp_files/72213.got.cif
#   From: 2010.05.17/outbox.cif.g08.bks.cpg/sg12_37_cif.got.tgz:72213.got - 2010.06.03 13:09:07.
