data_PCOD9217918
_publ_section_title
;
Structure prediction by ZEFSAII (Michael W. Deem and Ramdas Pophale) SiO2 
 PCOD9217918
Probable space group: C 2/M
;
_chemical_formula_sum "Si O2"
_cell_formula_units_Z 56
_cell_length_a 18.110539
_cell_length_b 23.316995
_cell_length_c 21.189699
_cell_angle_alpha 90.000000
_cell_angle_beta 19.417431
_cell_angle_gamma 90.000000
_cell_volume 2974.764301
_symmetry_space_group_name_H-M "C 2/M"
_symmetry_group_IT_number 12
_symmetry_cell_setting 'monoclinic'
loop_
_space_group_symop_operation_xyz
x,y,z
-x,y,-z
-x,-y,-z
x,-y,z
1/2+x,1/2+y,z
1/2-x,1/2+y,-z
1/2-x,1/2-y,-z
1/2+x,1/2-y,z
loop_
_atom_site_type_symbol
_atom_site_label
_atom_site_fract_x
_atom_site_fract_y
_atom_site_fract_z
Si Si1 0.384759 0.308262 0.410700
Si Si2 0.797348 0.685742 0.988318
Si Si3 0.588665 0.000000 0.502037
Si Si4 0.300935 0.312290 0.622370
Si Si5 0.354740 0.120605 0.486293
Si Si6 0.317615 0.624078 0.049289
Si Si7 0.845351 0.000000 0.064027
Si Si8 0.242866 0.683598 0.317707
O O1 0.250000 0.250000 0.500000
O O2 0.621408 0.316083 0.186773
O O3 0.400740 0.304371 0.472425
O O4 0.250501 0.365230 0.496688
O O5 0.750000 0.750000 0.000000
O O6 0.753330 0.646754 0.962156
O O7 0.044006 0.671266 0.815416
O O8 0.500000 0.000000 0.500000
O O9 0.696483 0.061095 0.435696
O O10 0.391770 0.000000 0.711898
O O11 0.500000 0.343832 0.500000
O O12 0.268271 0.250943 0.683389
O O13 0.617156 0.129846 0.261426
O O14 0.243850 0.169775 0.618682
O O15 0.374645 0.557132 0.001152
O O16 0.542768 0.656595 0.886731
O O17 0.000000 0.000000 0.000000
O O18 0.000000 0.657210 0.500000
#
# Coordination Sequence:
#
# PCOD9217918 Si02
#       8
#     8   8   4   8   8   8   4   8
#     4  12  20  36  60  85 112 150 199 243 289 361
#     4  12  20  37  62  83 111 155 196 246 302 352
#     4  10  24  38  54  80 122 159 199 244 287 340
#     4  11  24  39  56  88 121 149 195 250 304 354
#     4  11  21  36  57  80 108 161 199 237 284 341
#     4  11  22  38  55  79 113 159 202 239 287 344
#     4  10  26  38  52  84 122 164 204 241 287 345
#     4  11  23  34  53  84 114 154 200 240 293 344
#
# _framework density 18.825021
#
# number of rings (size 3 to 8) (size 9 to 14) (size 15 to 20)
#    0.000    0.857    7.143    0.429    6.000    0.571 
#    0.000    3.214    0.000    0.000    0.000    2.000 
#    0.000    2.286    0.000    0.000    0.000    0.000 
#
# Total GULP energy -155937.025386 kJ/mol
# GULP energy per Si atom -5569.179478 kJ/mol
# Density = 1.878217 g / cm^3
# Si number density = 18.825021 Si / 1000 Ang^3
#
#
#
# Elastic Constant Matrix: (Units=GPa)
#
#
# Indices 1 2 3 4 5 6 
#
# 1 102.1791 29.3816 33.7197 0.0569 -11.3979 0.0926
# 2 29.3816 80.5793 9.4632 0.0609 -3.4128 0.1069
# 3 33.7197 9.4632 142.5809 0.3509 0.3143 -0.0326
# 4 0.0569 0.0609 0.3509 13.3984 -0.1309 3.8169
# 5 -11.3979 -3.4128 0.3143 -0.1309 37.8454 -0.0069
# 6 0.0926 0.1069 -0.0326 3.8169 -0.0069 22.8295
#
#
#
# Elastic Compliance Matrix: (Units=1/GPa)
#
#
# Indices 1 2 3 4 5 6 
#
# 1 0.012170 -0.003989 -0.002621 0.000081 0.003328 -0.000047
# 2 -0.003989 0.013864 0.000023 -0.000034 0.000049 -0.000043
# 3 -0.002621 0.000023 0.007634 -0.000213 -0.000851 0.000057
# 4 0.000081 -0.000034 -0.000213 0.078377 0.000292 -0.013104
# 5 0.003328 0.000049 -0.000851 0.000292 0.027438 -0.000055
# 6 -0.000047 -0.000043 0.000057 -0.013104 -0.000055 0.045994
#
#
# Mechanical properties :
#
#
# Convention : Reuss Voigt Hill
#
# Bulk Modulus (GPa) = 48.79239 52.27424 50.53332
# Shear Modulus (GPa) = 24.33301 31.66630 27.99966
#
# Velocity S-wave (km/s) = 3.59916 4.10584 3.86082
# Velocity P-wave (km/s) = 6.57625 7.09267 6.83934
#
# Compressibility (1/GPa) = 0.02049500
#
# Stress axis : x y z
#
# Youngs Moduli (GPa) = 82.17068 72.12934 130.98821
#
# Poissons Ratio (x) = 0.28771 0.34331
# Poissons Ratio (y) = 0.32776 -0.00303
# Poissons Ratio (z) = 0.21536 -0.00167
#
# Static dielectric constant tensor:
#      x y z
#    x 1.715220 -0.000050 -0.042420 
#    y -0.000050 1.683150 0.000140 
#    z -0.042420 0.000140 1.726210 
# 
# From -- ./inp_files/318271.got.cif
#   From: 2010.05.17/outbox.cif.g08.bks.cpg/sg12_160_cif.got.tgz:318271.got - 2010.06.03 13:09:07.
