data_PCOD9217644
_publ_section_title
;
Structure prediction by ZEFSAII (Michael W. Deem and Ramdas Pophale) SiO2 
 PCOD9217644
Probable space group: C 2/M
;
_chemical_formula_sum "Si O2"
_cell_formula_units_Z 34
_cell_length_a 18.850534
_cell_length_b 7.736790
_cell_length_c 14.691478
_cell_angle_alpha 90.000000
_cell_angle_beta 138.095795
_cell_angle_gamma 90.000000
_cell_volume 1431.044248
_symmetry_space_group_name_H-M "C 2/M"
_symmetry_group_IT_number 12
_symmetry_cell_setting 'monoclinic'
loop_
_space_group_symop_operation_xyz
x,y,z
-x,y,-z
-x,-y,-z
x,-y,z
1/2+x,1/2+y,z
1/2-x,1/2+y,-z
1/2-x,1/2-y,-z
1/2+x,1/2-y,z
loop_
_atom_site_type_symbol
_atom_site_label
_atom_site_fract_x
_atom_site_fract_y
_atom_site_fract_z
Si Si1 0.937800 0.704204 0.573902
Si Si2 0.221113 0.207809 0.268053
Si Si3 0.000000 0.000000 0.500000
Si Si4 0.279052 0.310315 0.927121
Si Si5 0.508358 0.197279 0.163898
O O1 0.958431 0.500000 0.571712
O O2 0.816249 0.743857 0.428460
O O3 0.955182 0.726432 0.697708
O O4 0.003667 0.845381 0.581918
O O5 0.109348 0.277153 0.196266
O O6 0.210653 0.000000 0.251851
O O7 0.251002 0.279663 0.196652
O O8 0.229995 0.500000 0.874814
O O9 0.406883 0.311789 0.044788
O O10 0.250000 0.250000 0.000000
O O11 0.470309 0.000000 0.119842
#
# Coordination Sequence:
#
# PCOD9217644 Si02
#       5
#     8   8   2   8   8
#     4  10  25  44  67 102 137 168 224 277 326 398
#     4  10  23  44  67  93 131 174 219 277 327 388
#     4  12  26  40  72 102 132 188 208 270 356 382
#     4  11  25  42  65  94 130 173 220 271 329 392
#     4  11  24  42  67  97 132 172 215 274 330 394
#
# _framework density 23.758873000000001
#
# number of rings (size 3 to 8) (size 9 to 14) (size 15 to 20)
#    0.000    1.412    0.000    3.176    8.235    4.706 
#    0.000    0.000    0.000    0.000    0.000    0.000 
#    0.000    0.000    0.000    0.000    0.000    0.000 
#
# Total GULP energy -94819.292150 kJ/mol
# GULP energy per Si atom -5577.605421 kJ/mol
# Density = 2.370480 g / cm^3
# Si number density = 23.758873 Si / 1000 Ang^3
#
#
#
# Elastic Constant Matrix: (Units=GPa)
#
#
# Indices 1 2 3 4 5 6 
#
# 1 104.6357 25.3468 9.7855 0.0000 -5.5931 0.0000
# 2 25.3468 64.6081 -5.2188 0.0000 -5.8912 0.0000
# 3 9.7855 -5.2188 51.7851 0.0000 14.4275 0.0000
# 4 0.0000 0.0000 0.0000 13.4262 0.0000 -3.4223
# 5 -5.5931 -5.8912 14.4275 0.0000 44.2996 0.0000
# 6 0.0000 0.0000 0.0000 -3.4223 0.0000 265.5617
#
#
#
# Elastic Compliance Matrix: (Units=1/GPa)
#
#
# Indices 1 2 3 4 5 6 
#
# 1 0.011000 -0.004396 -0.003020 0.000000 0.001788 0.000000
# 2 -0.004396 0.017482 0.002309 0.000000 0.001018 0.000000
# 3 -0.003020 0.002309 0.022144 0.000000 -0.007286 0.000000
# 4 0.000000 0.000000 0.000000 0.074727 0.000000 0.000963
# 5 0.001788 0.001018 -0.007286 0.000000 0.025308 0.000000
# 6 0.000000 0.000000 0.000000 0.000963 0.000000 0.003778
#
#
# Mechanical properties :
#
#
# Convention : Reuss Voigt Hill
#
# Bulk Modulus (GPa) = 24.74537 31.20622 27.97579
# Shear Modulus (GPa) = 28.07060 77.39853 52.73457
#
# Velocity S-wave (km/s) = 3.44099 5.71379 4.71635
# Velocity P-wave (km/s) = 5.12104 7.52947 6.43887
#
# Compressibility (1/GPa) = 0.04041160
#
# Stress axis : x y z
#
# Youngs Moduli (GPa) = 90.91011 57.20170 45.15945
#
# Poissons Ratio (x) = 0.25148 0.13637
# Poissons Ratio (y) = 0.39967 -0.10427
# Poissons Ratio (z) = 0.27452 -0.13208
#
# Static dielectric constant tensor:
#      x y z
#    x 1.890030 0.000000 -0.009370 
#    y 0.000000 1.930180 0.000000 
#    z -0.009370 0.000000 1.891580 
# 
# From -- ./inp_files/221317.got.cif
#   From: 2010.05.17/outbox.cif.g08.bks.cpg/sg12_111_cif.got.tgz:221317.got - 2010.06.03 13:09:07.
