data_PCOD9217868
_publ_section_title
;
Structure prediction by ZEFSAII (Michael W. Deem and Ramdas Pophale) SiO2 
 PCOD9217868
Probable space group: C 2/M
;
_chemical_formula_sum "Si O2"
_cell_formula_units_Z 40
_cell_length_a 9.053803
_cell_length_b 25.768392
_cell_length_c 11.092978
_cell_angle_alpha 90.000000
_cell_angle_beta 129.562485
_cell_angle_gamma 90.000000
_cell_volume 1995.178257
_symmetry_space_group_name_H-M "C 2/M"
_symmetry_group_IT_number 12
_symmetry_cell_setting 'monoclinic'
loop_
_space_group_symop_operation_xyz
x,y,z
-x,y,-z
-x,-y,-z
x,-y,z
1/2+x,1/2+y,z
1/2-x,1/2+y,-z
1/2-x,1/2-y,-z
1/2+x,1/2-y,z
loop_
_atom_site_type_symbol
_atom_site_label
_atom_site_fract_x
_atom_site_fract_y
_atom_site_fract_z
Si Si1 0.222992 0.133451 0.613120
Si Si2 0.466207 0.939276 0.125551
Si Si3 0.790108 0.309420 0.395815
Si Si4 0.038564 0.720145 0.158422
Si Si5 0.773410 0.851983 0.884355
O O1 0.351971 0.083308 0.706665
O O2 0.263769 0.162282 0.508207
O O3 0.299417 0.175190 0.750616
O O4 0.000000 0.122211 0.500000
O O5 0.292320 0.903319 0.079992
O O6 0.436206 0.000000 0.131598
O O7 0.500000 0.931673 0.000000
O O8 0.625000 0.268183 0.277879
O O9 0.790094 0.351036 0.287895
O O10 0.000000 0.282968 0.500000
O O11 0.000000 0.732547 0.000000
O O12 0.651311 0.805123 0.881346
O O13 0.000000 0.846408 0.000000
#
# Coordination Sequence:
#
# PCOD9217868 Si02
#       5
#     8   8   8   8   8
#     4  11  24  41  66  94 132 169 215 269 329 381
#     4  10  23  47  73  96 126 167 215 268 331 397
#     4  12  24  42  61  94 130 178 217 268 316 376
#     4  11  25  42  60  92 134 183 220 259 310 385
#     4  11  25  42  66  96 135 170 219 267 323 379
#
# _framework density 20.048335000000002
#
# number of rings (size 3 to 8) (size 9 to 14) (size 15 to 20)
#    0.000    1.000    4.000    4.200    8.400    2.400 
#    0.000    2.000    0.000    0.000    0.000    0.000 
#    0.000    0.000    0.000    0.000    0.000    0.000 
#
# Total GULP energy -111827.282511 kJ/mol
# GULP energy per Si atom -5591.364126 kJ/mol
# Density = 2.000270 g / cm^3
# Si number density = 20.048335 Si / 1000 Ang^3
#
#
#
# Elastic Constant Matrix: (Units=GPa)
#
#
# Indices 1 2 3 4 5 6 
#
# 1 124.8197 66.0797 73.2086 0.0000 26.1163 0.0000
# 2 66.0797 141.3747 59.8201 0.0000 -7.0991 0.0000
# 3 73.2086 59.8201 130.1202 0.0000 7.9784 0.0000
# 4 0.0000 0.0000 0.0000 16.6636 0.0000 2.8646
# 5 26.1163 -7.0991 7.9784 0.0000 43.2628 0.0000
# 6 0.0000 0.0000 0.0000 2.8646 0.0000 10.6923
#
#
#
# Elastic Compliance Matrix: (Units=1/GPa)
#
#
# Indices 1 2 3 4 5 6 
#
# 1 0.016724 -0.005697 -0.006184 0.000000 -0.009890 0.000000
# 2 -0.005697 0.010936 -0.002168 0.000000 0.005633 0.000000
# 3 -0.006184 -0.002168 0.012091 0.000000 0.001147 0.000000
# 4 0.000000 0.000000 0.000000 0.062908 0.000000 -0.016854
# 5 -0.009890 0.005633 0.001147 0.000000 0.029798 0.000000
# 6 0.000000 0.000000 0.000000 -0.016854 0.000000 0.098040
#
#
# Mechanical properties :
#
#
# Convention : Reuss Voigt Hill
#
# Bulk Modulus (GPa) = 85.81085 88.28126 87.04605
# Shear Modulus (GPa) = 19.04918 27.27082 23.16000
#
# Velocity S-wave (km/s) = 3.08581 3.69216 3.40252
# Velocity P-wave (km/s) = 7.45595 7.89341 7.67780
#
# Compressibility (1/GPa) = 0.01165354
#
# Stress axis : x y z
#
# Youngs Moduli (GPa) = 59.79591 91.43775 82.70884
#
# Poissons Ratio (x) = 0.52091 0.51144
# Poissons Ratio (y) = 0.34065 0.17931
# Poissons Ratio (z) = 0.36976 0.19824
#
# Static dielectric constant tensor:
#      x y z
#    x 1.737900 0.000000 0.020640 
#    y 0.000000 1.704770 0.000000 
#    z 0.020640 0.000000 1.740370 
# 
# From -- ./inp_files/135605.got.cif
#   From: 2010.05.17/outbox.cif.g08.bks.cpg/sg12_68_cif.got.tgz:135605.got - 2010.06.03 13:09:07.
