data_PCOD9217272
_publ_section_title
;
Structure prediction by ZEFSAII (Michael W. Deem and Ramdas Pophale) SiO2 
 PCOD9217272
Probable space group: C 2/M
;
_chemical_formula_sum "Si O2"
_cell_formula_units_Z 48
_cell_length_a 18.045254
_cell_length_b 15.221805
_cell_length_c 17.576205
_cell_angle_alpha 90.000000
_cell_angle_beta 29.105339
_cell_angle_gamma 90.000000
_cell_volume 2348.350018
_symmetry_space_group_name_H-M "C 2/M"
_symmetry_group_IT_number 12
_symmetry_cell_setting 'monoclinic'
loop_
_space_group_symop_operation_xyz
x,y,z
-x,y,-z
-x,-y,-z
x,-y,z
1/2+x,1/2+y,z
1/2-x,1/2+y,-z
1/2-x,1/2-y,-z
1/2+x,1/2-y,z
loop_
_atom_site_type_symbol
_atom_site_label
_atom_site_fract_x
_atom_site_fract_y
_atom_site_fract_z
Si Si1 0.043269 0.599437 0.782159
Si Si2 0.964565 0.098393 0.188203
Si Si3 0.392745 0.899369 0.453836
Si Si4 0.089454 0.754106 0.350784
Si Si5 0.602999 0.758300 0.844293
Si Si6 0.295105 0.335454 0.908914
O O1 0.088681 0.500000 0.760639
O O2 0.071182 0.613252 0.667595
O O3 0.130346 0.673274 0.752142
O O4 0.863310 0.613160 0.958668
O O5 0.788564 0.109902 0.371462
O O6 0.989637 0.175891 0.105673
O O7 0.079666 0.112835 0.154483
O O8 0.983662 0.000000 0.140544
O O9 0.488220 0.828341 0.414908
O O10 0.434221 0.000000 0.437008
O O11 0.246049 0.725760 0.250155
O O12 0.133779 0.807908 0.235704
O O13 0.000000 0.801769 0.500000
O O14 0.500000 0.804780 0.000000
O O15 0.250000 0.250000 0.000000
#
# Coordination Sequence:
#
# PCOD9217272 Si02
#       6
#     8   8   8   8   8   8
#     4  11  24  44  69  92 124 173 225 268 313 381
#     4  11  24  42  67  96 129 169 215 267 317 381
#     4  10  23  42  65  95 127 170 219 262 319 388
#     4  12  24  39  65  96 130 174 208 264 330 383
#     4  12  24  42  63  95 130 167 214 262 327 386
#     4  12  22  43  67  94 128 170 221 264 315 384
#
# _framework density 20.439883999999999
#
# number of rings (size 3 to 8) (size 9 to 14) (size 15 to 20)
#    0.000    0.667    6.667    0.500    2.333    3.000 
#    0.000    0.000    0.000    2.500    0.000    0.000 
#    0.000    0.000    0.000    0.000    0.000    0.000 
#
# Total GULP energy -134109.496352 kJ/mol
# GULP energy per Si atom -5587.895681 kJ/mol
# Density = 2.039336 g / cm^3
# Si number density = 20.439884 Si / 1000 Ang^3
#
#
#
# Elastic Constant Matrix: (Units=GPa)
#
#
# Indices 1 2 3 4 5 6 
#
# 1 81.6039 32.0119 6.2215 0.0003 -8.6576 -0.0001
# 2 32.0119 86.1813 -4.3538 -0.0003 0.6314 0.0002
# 3 6.2215 -4.3538 60.0761 -0.0011 9.6765 0.0006
# 4 0.0003 -0.0003 -0.0011 27.2367 0.0000 -4.6871
# 5 -8.6576 0.6314 9.6765 0.0000 41.0437 0.0002
# 6 -0.0001 0.0002 0.0006 -4.6871 0.0002 9.8736
#
#
#
# Elastic Compliance Matrix: (Units=1/GPa)
#
#
# Indices 1 2 3 4 5 6 
#
# 1 0.015136 -0.005783 -0.002614 0.000000 0.003898 0.000000
# 2 -0.005783 0.013862 0.001907 0.000000 -0.001883 0.000000
# 3 -0.002614 0.001907 0.017825 0.000001 -0.004783 -0.000001
# 4 0.000000 0.000000 0.000001 0.039981 0.000000 0.018979
# 5 0.003898 -0.001883 -0.004783 0.000000 0.026343 0.000000
# 6 0.000000 0.000000 -0.000001 0.018979 0.000000 0.110290
#
#
# Mechanical properties :
#
#
# Convention : Reuss Voigt Hill
#
# Bulk Modulus (GPa) = 29.54981 32.84671 31.19826
# Shear Modulus (GPa) = 20.18589 28.56292 24.37441
#
# Velocity S-wave (km/s) = 3.14598 3.74225 3.45699
# Velocity P-wave (km/s) = 5.26161 5.89724 5.58847
#
# Compressibility (1/GPa) = 0.03384116
#
# Stress axis : x y z
#
# Youngs Moduli (GPa) = 66.06912 72.14201 56.10125
#
# Poissons Ratio (x) = 0.41718 0.14667
# Poissons Ratio (y) = 0.38206 -0.10697
# Poissons Ratio (z) = 0.17273 -0.13755
#
# Static dielectric constant tensor:
#      x y z
#    x 1.717000 0.000000 0.007330 
#    y 0.000000 1.731990 0.000000 
#    z 0.007330 0.000000 1.751940 
# 
# From -- ./inp_files/88149.got.cif
#   From: 2010.05.17/outbox.cif.g08.bks.cpg/sg12_45_cif.got.tgz:88149.got - 2010.06.03 13:09:07.
