data_PCOD9217044
_publ_section_title
;
Structure prediction by ZEFSAII (Michael W. Deem and Ramdas Pophale) SiO2 
 PCOD9217044
Probable space group: C 2/M
;
_chemical_formula_sum "Si O2"
_cell_formula_units_Z 32
_cell_length_a 15.649018
_cell_length_b 19.270673
_cell_length_c 8.369318
_cell_angle_alpha 90.000000
_cell_angle_beta 31.797669
_cell_angle_gamma 90.000000
_cell_volume 1329.902275
_symmetry_space_group_name_H-M "C 2/M"
_symmetry_group_IT_number 12
_symmetry_cell_setting 'monoclinic'
loop_
_space_group_symop_operation_xyz
x,y,z
-x,y,-z
-x,-y,-z
x,-y,z
1/2+x,1/2+y,z
1/2-x,1/2+y,-z
1/2-x,1/2-y,-z
1/2+x,1/2-y,z
loop_
_atom_site_type_symbol
_atom_site_label
_atom_site_fract_x
_atom_site_fract_y
_atom_site_fract_z
Si Si1 0.234371 0.135873 0.484830
Si Si2 0.298581 0.077900 0.707841
Si Si3 0.945867 0.342993 0.866771
Si Si4 0.927155 0.192380 0.793946
O O1 0.214963 0.082887 0.661982
O O2 0.382293 0.181535 0.323802
O O3 0.069683 0.169872 0.689938
O O4 0.326788 0.115925 0.174051
O O5 0.479780 0.102768 0.375083
O O6 0.286400 0.000000 0.786454
O O7 0.210189 0.135132 0.956363
O O8 0.872976 0.270627 0.923385
O O9 0.000000 0.191221 0.500000
#
# Coordination Sequence:
#
# PCOD9217044 Si02
#       4
#     8   8   8   8
#     4   9  21  37  64  90 121 158 208 256 306 362
#     4  10  23  41  65  93 124 164 210 256 311 368
#     4   9  21  38  65  91 121 158 211 259 306 361
#     4  12  24  37  62  95 133 162 206 255 313 367
#
# _framework density 24.061916
#
# number of rings (size 3 to 8) (size 9 to 14) (size 15 to 20)
#    1.500    0.500    0.000    3.000    7.000    8.500 
#    0.000    0.000    0.000    5.250    0.000    0.000 
#    0.000    0.000    0.000    0.000    0.000    0.000 
#
# Total GULP energy -89205.068097 kJ/mol
# GULP energy per Si atom -5575.316756 kJ/mol
# Density = 2.400715 g / cm^3
# Si number density = 24.061916 Si / 1000 Ang^3
#
#
#
# Elastic Constant Matrix: (Units=GPa)
#
#
# Indices 1 2 3 4 5 6 
#
# 1 77.9330 11.5109 -0.6988 0.0002 1.3066 -0.0001
# 2 11.5109 125.6770 42.9459 0.0028 12.7125 0.0032
# 3 -0.6988 42.9459 102.7559 0.0059 22.0746 0.0054
# 4 0.0002 0.0028 0.0059 10.4183 -0.0018 -12.4275
# 5 1.3066 12.7125 22.0746 -0.0018 55.2125 -0.0023
# 6 -0.0001 0.0032 0.0054 -12.4275 -0.0023 15.0765
#
#
#
# Elastic Compliance Matrix: (Units=1/GPa)
#
#
# Indices 1 2 3 4 5 6 
#
# 1 0.013053 -0.001421 0.000743 -0.000012 -0.000279 -0.000009
# 2 -0.001421 0.009458 -0.003831 -0.000078 -0.000612 -0.000065
# 3 0.000743 -0.003831 0.012200 -0.000692 -0.004013 -0.000575
# 4 -0.000012 -0.000078 -0.000692 5.736000 0.000685 4.728168
# 5 -0.000279 -0.000612 -0.004013 0.000685 0.019864 0.000570
# 6 -0.000009 -0.000065 -0.000575 4.728168 0.000570 3.963744
#
#
# Mechanical properties :
#
#
# Convention : Reuss Voigt Hill
#
# Bulk Modulus (GPa) = 38.92266 45.98688 42.45477
# Shear Modulus (GPa) = 0.51167 32.98196 16.74682
#
# Velocity S-wave (km/s) = 0.46164 3.70633 2.64102
# Velocity P-wave (km/s) = 4.06144 6.12121 5.19445
#
# Compressibility (1/GPa) = 0.02569198
#
# Stress axis : x y z
#
# Youngs Moduli (GPa) = 76.61212 105.72902 81.96564
#
# Poissons Ratio (x) = 0.15025 -0.06086
# Poissons Ratio (y) = 0.10887 0.31401
# Poissons Ratio (z) = -0.05689 0.40505
#
# Static dielectric constant tensor:
#      x y z
#    x 2.128010 0.000000 -0.000110 
#    y 0.000000 1.831670 0.000000 
#    z -0.000110 0.000000 1.901180 
# 
# From -- ./inp_files/63090.got.cif
#   From: 2010.05.17/outbox.cif.g08.bks.cpg/sg12_32_cif.got.tgz:63090.got - 2010.06.03 13:09:07.
