data_PCOD9217413
_publ_section_title
;
Structure prediction by ZEFSAII (Michael W. Deem and Ramdas Pophale) SiO2 
 PCOD9217413
Probable space group: C 2/M
;
_chemical_formula_sum "Si O2"
_cell_formula_units_Z 64
_cell_length_a 9.187775
_cell_length_b 19.922045
_cell_length_c 21.422525
_cell_angle_alpha 90.000000
_cell_angle_beta 120.639036
_cell_angle_gamma 90.000000
_cell_volume 3373.749329
_symmetry_space_group_name_H-M "C 2/M"
_symmetry_group_IT_number 12
_symmetry_cell_setting 'monoclinic'
loop_
_space_group_symop_operation_xyz
x,y,z
-x,y,-z
-x,-y,-z
x,-y,z
1/2+x,1/2+y,z
1/2-x,1/2+y,-z
1/2-x,1/2-y,-z
1/2+x,1/2-y,z
loop_
_atom_site_type_symbol
_atom_site_label
_atom_site_fract_x
_atom_site_fract_y
_atom_site_fract_z
Si Si1 0.706836 0.659349 0.293593
Si Si2 0.852161 0.423404 0.916531
Si Si3 0.452503 0.199931 0.706719
Si Si4 0.801096 0.815771 0.447839
Si Si5 0.359728 0.696808 0.917775
Si Si6 0.538379 0.420379 0.143949
Si Si7 0.521104 0.190110 0.145063
Si Si8 0.699518 0.840257 0.550580
O O1 0.585332 0.722053 0.284255
O O2 0.882237 0.687217 0.300531
O O3 0.618624 0.609801 0.225263
O O4 0.749447 0.629704 0.371771
O O5 0.847605 0.500000 0.892757
O O6 0.664119 0.408083 0.900434
O O7 0.902768 0.371678 0.875090
O O8 0.000000 0.418426 0.000000
O O9 0.291240 0.166246 0.636638
O O10 0.470789 0.172512 0.780241
O O11 0.754681 0.864657 0.494648
O O12 0.736045 0.737697 0.436370
O O13 0.000000 0.810536 0.500000
O O14 0.385120 0.622057 0.896425
O O15 0.381163 0.745474 0.862154
O O16 0.176933 0.703933 0.908566
O O17 0.500000 0.713474 0.000000
O O18 0.568308 0.500000 0.146001
O O19 0.500000 0.838345 0.500000
#
# Coordination Sequence:
#
# PCOD9217413 Si02
#       8
#     8   8   8   8   8   8   8   8
#     4  11  22  36  56  85 118 157 188 241 296 349
#     4  10  23  43  64  86 116 155 198 244 294 352
#     4  11  21  34  54  84 122 153 190 234 298 348
#     4   9  18  28  46  80 116 154 184 230 284 346
#     4  12  24  39  61  89 117 154 196 242 299 354
#     4  11  24  42  61  84 115 153 201 249 297 356
#     4  12  22  38  60  89 123 156 190 242 293 360
#     4   9  16  29  48  74 115 150 187 229 285 345
#
# _framework density 18.969992999999999
#
# number of rings (size 3 to 8) (size 9 to 14) (size 15 to 20)
#    0.000    1.375    3.750    2.250    7.000    0.750 
#    0.000    0.000    0.000    0.375    0.000    0.000 
#    0.000    3.500    0.000    0.000    0.000    0.000 
#
# Total GULP energy -178240.638021 kJ/mol
# GULP energy per Si atom -5570.019938 kJ/mol
# Density = 1.892682 g / cm^3
# Si number density = 18.969993 Si / 1000 Ang^3
#
#
#
# Elastic Constant Matrix: (Units=GPa)
#
#
# Indices 1 2 3 4 5 6 
#
# 1 50.2555 29.5444 -7.1347 0.0000 5.3504 0.0000
# 2 29.5444 42.5778 10.0862 0.0000 -0.0516 0.0000
# 3 -7.1347 10.0862 69.3769 0.0000 0.0401 0.0000
# 4 0.0000 0.0000 0.0000 1.5510 0.0000 -1.4079
# 5 5.3504 -0.0516 0.0401 0.0000 27.9198 0.0000
# 6 0.0000 0.0000 0.0000 -1.4079 0.0000 22.5380
#
#
#
# Elastic Compliance Matrix: (Units=1/GPa)
#
#
# Indices 1 2 3 4 5 6 
#
# 1 0.038866 -0.028922 0.008206 0.000000 -0.007513 0.000000
# 2 -0.028922 0.045846 -0.009643 0.000000 0.005641 0.000000
# 3 0.008206 -0.009643 0.016661 0.000000 -0.001614 0.000000
# 4 0.000000 0.000000 0.000000 0.683514 0.000000 0.042697
# 5 -0.007513 0.005641 -0.001614 0.000000 0.037269 0.000000
# 6 0.000000 0.000000 0.000000 0.042697 0.000000 0.047037
#
#
# Mechanical properties :
#
#
# Convention : Reuss Voigt Hill
#
# Bulk Modulus (GPa) = 24.59682 25.24465 24.92074
# Shear Modulus (GPa) = 5.29964 19.04939 12.17451
#
# Velocity S-wave (km/s) = 1.67325 3.17233 2.53608
# Velocity P-wave (km/s) = 4.08991 5.17250 4.66273
#
# Compressibility (1/GPa) = 0.04065567
#
# Stress axis : x y z
#
# Youngs Moduli (GPa) = 25.72966 21.81219 60.02143
#
# Poissons Ratio (x) = 0.63084 -0.49253
# Poissons Ratio (y) = 0.74414 0.57877
# Poissons Ratio (z) = -0.21114 0.21033
#
# Static dielectric constant tensor:
#      x y z
#    x 1.685670 0.000000 -0.038010 
#    y 0.000000 1.653170 0.000000 
#    z -0.038010 0.000000 1.734050 
# 
# From -- ./inp_files/302141.got.cif
#   From: 2010.05.17/outbox.cif.g08.bks.cpg/sg12_152_cif.got.tgz:302141.got - 2010.06.03 13:09:07.
