data_PCOD9217984
_publ_section_title
;
Structure prediction by ZEFSAII (Michael W. Deem and Ramdas Pophale) SiO2 
 PCOD9217984
Probable space group: C 2/M
;
_chemical_formula_sum "Si O2"
_cell_formula_units_Z 44
_cell_length_a 29.841649
_cell_length_b 9.460643
_cell_length_c 26.010708
_cell_angle_alpha 90.000000
_cell_angle_beta 16.203941
_cell_angle_gamma 90.000000
_cell_volume 2049.221069
_symmetry_space_group_name_H-M "C 2/M"
_symmetry_group_IT_number 12
_symmetry_cell_setting 'monoclinic'
loop_
_space_group_symop_operation_xyz
x,y,z
-x,y,-z
-x,-y,-z
x,-y,z
1/2+x,1/2+y,z
1/2-x,1/2+y,-z
1/2-x,1/2-y,-z
1/2+x,1/2-y,z
loop_
_atom_site_type_symbol
_atom_site_label
_atom_site_fract_x
_atom_site_fract_y
_atom_site_fract_z
Si Si1 0.147188 0.159545 0.073424
Si Si2 0.715974 0.166834 0.896832
Si Si3 0.602751 0.663903 0.477620
Si Si4 0.335873 0.334709 0.148467
Si Si5 0.817143 0.784202 0.491770
Si Si6 0.319444 0.000000 0.427168
O O1 0.971208 0.151804 0.291805
O O2 0.210416 0.000000 0.998377
O O3 0.250000 0.250000 0.000000
O O4 0.153697 0.242562 0.013317
O O5 0.653184 0.239241 0.914340
O O6 0.910780 0.178354 0.683861
O O7 0.678721 0.000000 0.941974
O O8 0.643509 0.500000 0.420516
O O9 0.694065 0.769288 0.339179
O O10 0.654841 0.695088 0.478881
O O11 0.306904 0.500000 0.167806
O O12 0.500000 0.325915 0.000000
O O13 0.676090 0.876706 0.622994
O O14 0.807293 0.623851 0.484841
#
# Coordination Sequence:
#
# PCOD9217984 Si02
#       6
#     8   8   8   8   8   4
#     4  12  24  41  68 100 141 178 226 278 330 399
#     4  11  25  45  72 102 134 178 226 282 340 401
#     4  11  23  44  72  98 135 174 227 280 336 398
#     4  11  27  49  69  99 136 174 223 282 343 404
#     4  11  23  44  65 100 140 182 226 276 334 400
#     4  10  24  40  62  94 138 182 228 266 334 404
#
# _framework density 21.471571999999998
#
# number of rings (size 3 to 8) (size 9 to 14) (size 15 to 20)
#    0.000    0.909    3.636    2.182    3.818    8.000 
#    3.273    0.000    0.000    0.000    0.000    0.000 
#    0.000    0.000    0.000    0.000    0.000    0.000 
#
# Total GULP energy -122614.339744 kJ/mol
# GULP energy per Si atom -5573.379079 kJ/mol
# Density = 2.142270 g / cm^3
# Si number density = 21.471572 Si / 1000 Ang^3
#
#
#
# Elastic Constant Matrix: (Units=GPa)
#
#
# Indices 1 2 3 4 5 6 
#
# 1 121.8992 69.5978 15.4450 -0.0003 17.6519 0.0000
# 2 69.5978 235.7440 33.8258 0.0033 4.1076 0.0000
# 3 15.4450 33.8258 60.0234 0.0001 10.2320 0.0013
# 4 -0.0003 0.0033 0.0001 25.2055 0.0013 0.4755
# 5 17.6519 4.1076 10.2320 0.0013 31.6625 -0.0010
# 6 0.0000 0.0000 0.0013 0.4755 -0.0010 46.8939
#
#
#
# Elastic Compliance Matrix: (Units=1/GPa)
#
#
# Indices 1 2 3 4 5 6 
#
# 1 0.010777 -0.003071 -0.000091 0.000001 -0.005580 0.000000
# 2 -0.003071 0.005492 -0.002620 -0.000001 0.001846 0.000000
# 3 -0.000091 -0.002620 0.019148 0.000001 -0.005797 -0.000001
# 4 0.000001 -0.000001 0.000001 0.039682 -0.000002 -0.000402
# 5 -0.005580 0.001846 -0.005797 -0.000002 0.036328 0.000001
# 6 0.000000 0.000000 -0.000001 -0.000402 0.000001 0.021329
#
#
# Mechanical properties :
#
#
# Convention : Reuss Voigt Hill
#
# Bulk Modulus (GPa) = 41.92285 72.82262 57.37273
# Shear Modulus (GPa) = 32.83641 40.67224 36.75432
#
# Velocity S-wave (km/s) = 3.91486 4.35700 4.14184
# Velocity P-wave (km/s) = 6.32472 7.70070 7.04638
#
# Compressibility (1/GPa) = 0.02385334
#
# Stress axis : x y z
#
# Youngs Moduli (GPa) = 92.79383 182.07289 52.22451
#
# Poissons Ratio (x) = 0.55919 0.00475
# Poissons Ratio (y) = 0.28499 0.13681
# Poissons Ratio (z) = 0.00844 0.47696
#
# Static dielectric constant tensor:
#      x y z
#    x 1.788480 0.000000 -0.052240 
#    y 0.000000 1.734330 0.000010 
#    z -0.052240 0.000010 1.955980 
# 
# From -- ./inp_files/370501.got.cif
#   From: 2010.05.17/outbox.cif.g08.bks.cpg/sg12_186_cif.got.tgz:370501.got - 2010.06.03 13:09:07.
