data_PCOD9217679
_publ_section_title
;
Structure prediction by ZEFSAII (Michael W. Deem and Ramdas Pophale) SiO2 
 PCOD9217679
Probable space group: C 2/M
;
_chemical_formula_sum "Si O2"
_cell_formula_units_Z 34
_cell_length_a 9.435617
_cell_length_b 14.213826
_cell_length_c 17.505221
_cell_angle_alpha 90.000000
_cell_angle_beta 132.967256
_cell_angle_gamma 90.000000
_cell_volume 1717.938743
_symmetry_space_group_name_H-M "C 2/M"
_symmetry_group_IT_number 12
_symmetry_cell_setting 'monoclinic'
loop_
_space_group_symop_operation_xyz
x,y,z
-x,y,-z
-x,-y,-z
x,-y,z
1/2+x,1/2+y,z
1/2-x,1/2+y,-z
1/2-x,1/2-y,-z
1/2+x,1/2-y,z
loop_
_atom_site_type_symbol
_atom_site_label
_atom_site_fract_x
_atom_site_fract_y
_atom_site_fract_z
Si Si1 0.221965 0.687837 0.566467
Si Si2 0.000000 0.500000 0.000000
Si Si3 0.080785 0.307098 0.231639
Si Si4 0.609314 0.500000 0.425597
Si Si5 0.823434 0.500000 0.664515
Si Si6 0.805295 0.690731 0.899615
O O1 0.250000 0.750000 0.500000
O O2 0.287215 0.748579 0.662279
O O3 0.348424 0.594510 0.604578
O O4 0.000000 0.661980 0.500000
O O5 0.834599 0.585236 0.943163
O O6 0.062235 0.408455 0.265173
O O7 0.180297 0.319355 0.186442
O O8 0.882404 0.249931 0.148461
O O9 0.761972 0.500000 0.553040
O O10 0.389092 0.500000 0.373825
O O11 0.000000 0.742542 0.000000
#
# Coordination Sequence:
#
# PCOD9217679 Si02
#       6
#     8   2   8   4   4   8
#     4  12  24  41  64  98 137 176 219 272 320 390
#     4   8  22  44  74  86 132 154 218 266 342 382
#     4  12  23  41  69  94 130 172 221 262 333 390
#     4  11  23  42  61  94 139 183 219 269 315 386
#     4  11  23  38  66  95 132 180 221 261 328 388
#     4  10  23  44  68  97 124 166 217 277 325 393
#
# _framework density 19.791159
#
# number of rings (size 3 to 8) (size 9 to 14) (size 15 to 20)
#    0.706    0.235    2.353    6.000    0.000    0.941 
#    0.000    1.765    0.000    0.000    0.000    0.000 
#    0.000    0.000    0.000    0.000    0.000    0.000 
#
# Total GULP energy -94676.548077 kJ/mol
# GULP energy per Si atom -5569.208710 kJ/mol
# Density = 1.974611 g / cm^3
# Si number density = 19.791159 Si / 1000 Ang^3
#
#
#
# Elastic Constant Matrix: (Units=GPa)
#
#
# Indices 1 2 3 4 5 6 
#
# 1 24.8035 -0.4447 5.6566 0.0000 10.7888 0.0000
# 2 -0.4447 126.3155 13.2234 0.0000 15.9481 0.0000
# 3 5.6566 13.2234 46.8055 0.0000 6.5381 0.0000
# 4 0.0000 0.0000 0.0000 36.1171 0.0000 12.2062
# 5 10.7888 15.9481 6.5381 0.0000 37.1592 0.0000
# 6 0.0000 0.0000 0.0000 12.2062 0.0000 24.8931
#
#
#
# Elastic Compliance Matrix: (Units=1/GPa)
#
#
# Indices 1 2 3 4 5 6 
#
# 1 0.047481 0.002406 -0.004457 0.000000 -0.014034 0.000000
# 2 0.002406 0.008662 -0.002174 0.000000 -0.004033 0.000000
# 3 -0.004457 -0.002174 0.022766 0.000000 -0.001778 0.000000
# 4 0.000000 0.000000 0.000000 0.033187 0.000000 -0.016273
# 5 -0.014034 -0.004033 -0.001778 0.000000 0.033030 0.000000
# 6 0.000000 0.000000 0.000000 -0.016273 0.000000 0.048151
#
#
# Mechanical properties :
#
#
# Convention : Reuss Voigt Hill
#
# Bulk Modulus (GPa) = 14.19313 26.08834 20.14073
# Shear Modulus (GPa) = 22.20091 31.59984 26.90037
#
# Velocity S-wave (km/s) = 3.35290 4.00016 3.69075
# Velocity P-wave (km/s) = 4.70917 5.87754 5.32549
#
# Compressibility (1/GPa) = 0.07045663
#
# Stress axis : x y z
#
# Youngs Moduli (GPa) = 21.06115 115.44629 43.92434
#
# Poissons Ratio (x) = -0.27772 0.19579
# Poissons Ratio (y) = -0.05067 0.09551
# Poissons Ratio (z) = 0.09388 0.25104
#
# Static dielectric constant tensor:
#      x y z
#    x 1.700500 0.000000 -0.027980 
#    y 0.000000 1.698510 0.000000 
#    z -0.027980 0.000000 1.747320 
# 
# From -- ./inp_files/194004.got.cif
#   From: 2010.05.17/outbox.cif.g08.bks.cpg/sg12_98_cif.got.tgz:194004.got - 2010.06.03 13:09:07.
