data_PCOD9217261
_publ_section_title
;
Structure prediction by ZEFSAII (Michael W. Deem and Ramdas Pophale) SiO2 
 PCOD9217261
Probable space group: C 2/M
;
_chemical_formula_sum "Si O2"
_cell_formula_units_Z 40
_cell_length_a 16.023231
_cell_length_b 8.701279
_cell_length_c 31.548110
_cell_angle_alpha 90.000000
_cell_angle_beta 27.634251
_cell_angle_gamma 90.000000
_cell_volume 2040.146527
_symmetry_space_group_name_H-M "C 2/M"
_symmetry_group_IT_number 12
_symmetry_cell_setting 'monoclinic'
loop_
_space_group_symop_operation_xyz
x,y,z
-x,y,-z
-x,-y,-z
x,-y,z
1/2+x,1/2+y,z
1/2-x,1/2+y,-z
1/2-x,1/2-y,-z
1/2+x,1/2-y,z
loop_
_atom_site_type_symbol
_atom_site_label
_atom_site_fract_x
_atom_site_fract_y
_atom_site_fract_z
Si Si1 0.929633 0.183934 0.898461
Si Si2 0.281124 0.316701 0.785383
Si Si3 0.447124 0.181950 0.403300
Si Si4 0.633524 0.318697 0.400631
Si Si5 0.481754 0.314890 0.777078
O O1 0.944209 0.230580 0.842452
O O2 0.104269 0.241017 0.845281
O O3 0.924455 0.000000 0.901948
O O4 0.750000 0.250000 0.000000
O O5 0.264305 0.500000 0.789083
O O6 0.451916 0.260550 0.681321
O O7 0.323306 0.278269 0.815320
O O8 0.250000 0.250000 0.500000
O O9 0.565517 0.221502 0.391286
O O10 0.436358 0.000000 0.401477
O O11 0.500000 0.293405 0.500000
O O12 0.629009 0.500000 0.391993
O O13 0.835271 0.266732 0.319894
O O14 0.508443 0.500000 0.763848
#
# Coordination Sequence:
#
# PCOD9217261 Si02
#       5
#     8   8   8   8   8
#     4  11  24  44  68  96 129 171 217 271 329 385
#     4  11  23  42  67  96 129 169 214 268 325 383
#     4  12  24  39  60  90 129 172 216 264 320 383
#     4  11  23  38  60  92 128 168 216 265 316 378
#     4  10  23  42  65  93 129 170 213 263 324 386
#
# _framework density 19.606435999999999
#
# number of rings (size 3 to 8) (size 9 to 14) (size 15 to 20)
#    0.000    1.000    2.000    4.800    0.000    8.000 
#    0.000    4.000    0.000    0.000    0.000    0.000 
#    0.000    0.000    0.000    0.000    0.000    0.000 
#
# Total GULP energy -111891.186114 kJ/mol
# GULP energy per Si atom -5594.559306 kJ/mol
# Density = 1.956181 g / cm^3
# Si number density = 19.606436 Si / 1000 Ang^3
#
#
#
# Elastic Constant Matrix: (Units=GPa)
#
#
# Indices 1 2 3 4 5 6 
#
# 1 148.5966 42.2036 65.3672 -0.0006 -5.5535 -0.0035
# 2 42.2036 55.3445 37.2959 -0.0008 4.0137 -0.0022
# 3 65.3672 37.2959 140.3712 -0.0004 -4.9448 -0.0002
# 4 -0.0006 -0.0008 -0.0004 35.7233 -0.0002 -5.3842
# 5 -5.5535 4.0137 -4.9448 -0.0002 22.3246 -0.0001
# 6 -0.0035 -0.0022 -0.0002 -5.3842 -0.0001 33.6448
#
#
#
# Elastic Compliance Matrix: (Units=1/GPa)
#
#
# Indices 1 2 3 4 5 6 
#
# 1 0.009726 -0.005643 -0.002932 0.000000 0.002785 0.000001
# 2 -0.005643 0.025922 -0.004508 0.000001 -0.007063 0.000001
# 3 -0.002932 -0.004508 0.009766 0.000000 0.002244 -0.000001
# 4 0.000000 0.000001 0.000000 0.028685 0.000000 0.004590
# 5 0.002785 -0.007063 0.002244 0.000000 0.047253 0.000000
# 6 0.000001 0.000001 -0.000001 0.004590 0.000000 0.030457
#
#
# Mechanical properties :
#
#
# Convention : Reuss Voigt Hill
#
# Bulk Modulus (GPa) = 51.95332 70.44952 61.20142
# Shear Modulus (GPa) = 27.11619 31.63491 29.37555
#
# Velocity S-wave (km/s) = 3.72294 4.02119 3.87494
# Velocity P-wave (km/s) = 6.71089 7.58748 7.16260
#
# Compressibility (1/GPa) = 0.01924805
#
# Stress axis : x y z
#
# Youngs Moduli (GPa) = 102.81642 38.57705 102.39478
#
# Poissons Ratio (x) = 0.21769 0.30020
# Poissons Ratio (y) = 0.58019 0.46163
# Poissons Ratio (z) = 0.30143 0.17392
#
# Static dielectric constant tensor:
#      x y z
#    x 1.716640 0.000000 0.003630 
#    y 0.000000 1.649050 0.000000 
#    z 0.003630 0.000000 1.658580 
# 
# From -- ./inp_files/211198.got.cif
#   From: 2010.05.17/outbox.cif.g08.bks.cpg/sg12_106_cif.got.tgz:211198.got - 2010.06.03 13:09:07.
