data_PCOD9217005
_publ_section_title
;
Structure prediction by ZEFSAII (Michael W. Deem and Ramdas Pophale) SiO2 
 PCOD9217005
Probable space group: C 2/M
;
_chemical_formula_sum "Si O2"
_cell_formula_units_Z 40
_cell_length_a 15.512632
_cell_length_b 21.097209
_cell_length_c 7.446372
_cell_angle_alpha 90.000000
_cell_angle_beta 50.371374
_cell_angle_gamma 90.000000
_cell_volume 1876.963111
_symmetry_space_group_name_H-M "C 2/M"
_symmetry_group_IT_number 12
_symmetry_cell_setting 'monoclinic'
loop_
_space_group_symop_operation_xyz
x,y,z
-x,y,-z
-x,-y,-z
x,-y,z
1/2+x,1/2+y,z
1/2-x,1/2+y,-z
1/2-x,1/2-y,-z
1/2+x,1/2-y,z
loop_
_atom_site_type_symbol
_atom_site_label
_atom_site_fract_x
_atom_site_fract_y
_atom_site_fract_z
Si Si1 0.946441 0.000000 0.877886
Si Si2 0.411827 0.608275 0.493148
Si Si3 0.237015 0.000000 0.125947
Si Si4 0.000000 0.731159 0.000000
Si Si5 0.927782 0.363513 0.413731
Si Si6 0.499370 0.000000 0.717221
Si Si7 0.301938 0.309539 0.327841
O O1 0.000118 0.940254 0.709392
O O2 0.814935 0.000000 0.008122
O O3 0.000000 0.000000 0.000000
O O4 0.500000 0.647379 0.500000
O O5 0.316584 0.563056 0.710109
O O6 0.356686 0.647936 0.409413
O O7 0.370249 0.000000 0.951144
O O8 0.031447 0.686520 0.790538
O O9 0.101349 0.778123 0.919082
O O10 0.798592 0.347693 0.629328
O O11 0.000000 0.359362 0.500000
O O12 0.941420 0.434008 0.312749
O O13 0.500000 0.000000 0.500000
O O14 0.250000 0.250000 0.500000
#
# Coordination Sequence:
#
# PCOD9217005 Si02
#       7
#     4   8   4   4   8   4   8
#     4   9  19  34  61  94 132 158 206 267 329 398
#     4   9  20  40  62  95 129 167 214 271 332 391
#     4   9  20  38  65  94 127 175 211 259 348 403
#     4  10  24  45  68  95 126 180 232 264 330 384
#     4  10  24  45  66  98 136 168 218 278 329 398
#     4  10  23  41  64  98 128 164 218 264 333 410
#     4  10  23  41  63  95 129 164 230 267 310 397
#
# _framework density 21.311021
#
# number of rings (size 3 to 8) (size 9 to 14) (size 15 to 20)
#    0.000    2.400    0.000    1.200    7.000    9.200 
#    7.200    0.000    0.000    0.000    0.000    0.000 
#    0.000    0.000    0.000    0.000    0.000    0.000 
#
# Total GULP energy -111528.934201 kJ/mol
# GULP energy per Si atom -5576.446710 kJ/mol
# Density = 2.126252 g / cm^3
# Si number density = 21.311021 Si / 1000 Ang^3
#
#
#
# Elastic Constant Matrix: (Units=GPa)
#
#
# Indices 1 2 3 4 5 6 
#
# 1 96.8302 59.1807 11.2526 0.0000 -12.9423 0.0000
# 2 59.1807 117.2891 37.6385 0.0000 -27.2590 0.0000
# 3 11.2526 37.6385 69.8163 0.0000 -18.1935 0.0000
# 4 0.0000 0.0000 0.0000 1.3960 0.0000 20.9295
# 5 -12.9423 -27.2590 -18.1935 0.0000 38.2195 0.0000
# 6 0.0000 0.0000 0.0000 20.9295 0.0000 -2.5259
#
#
#
# Elastic Compliance Matrix: (Units=1/GPa)
#
#
# Indices 1 2 3 4 5 6 
#
# 1 0.015169 -0.008265 0.002070 0.000000 0.000227 0.000000
# 2 -0.008265 0.015880 -0.005716 0.000000 0.005806 0.000000
# 3 0.002070 -0.005716 0.018484 0.000000 0.005423 0.000000
# 4 0.000000 0.000000 0.000000 0.005720 0.000000 0.047398
# 5 0.000227 0.005806 0.005423 0.000000 0.032964 0.000000
# 6 0.000000 0.000000 0.000000 0.047398 0.000000 -0.003161
#
#
# Mechanical properties :
#
#
# Convention : Reuss Voigt Hill
#
# Bulk Modulus (GPa) = 38.89326 55.56436 47.22881
# Shear Modulus (GPa) = 42.57186 19.14216 30.85701
#
# Velocity S-wave (km/s) = 4.47435 3.00030 3.80930
# Velocity P-wave (km/s) = 6.70694 6.17512 6.44651
#
# Compressibility (1/GPa) = 0.02571140
#
# Stress axis : x y z
#
# Youngs Moduli (GPa) = 65.92531 62.97235 54.09966
#
# Poissons Ratio (x) = 0.52048 -0.11200
# Poissons Ratio (y) = 0.54489 0.30923
# Poissons Ratio (z) = -0.13648 0.35994
#
# Static dielectric constant tensor:
#      x y z
#    x 1.774750 0.000000 0.035150 
#    y 0.000000 1.768150 0.000000 
#    z 0.035150 0.000000 1.805910 
# 
# From -- ./inp_files/63234.got.cif
#   From: 2010.05.17/outbox.cif.g08.bks.cpg/sg12_32_cif.got.tgz:63234.got - 2010.06.03 13:09:07.
