data_PCOD9217469
_publ_section_title
;
Structure prediction by ZEFSAII (Michael W. Deem and Ramdas Pophale) SiO2 
 PCOD9217469
Probable space group: C 2/M
;
_chemical_formula_sum "Si O2"
_cell_formula_units_Z 52
_cell_length_a 14.964543
_cell_length_b 18.064395
_cell_length_c 16.128650
_cell_angle_alpha 90.000000
_cell_angle_beta 142.177185
_cell_angle_gamma 90.000000
_cell_volume 2673.636559
_symmetry_space_group_name_H-M "C 2/M"
_symmetry_group_IT_number 12
_symmetry_cell_setting 'monoclinic'
loop_
_space_group_symop_operation_xyz
x,y,z
-x,y,-z
-x,-y,-z
x,-y,z
1/2+x,1/2+y,z
1/2-x,1/2+y,-z
1/2-x,1/2-y,-z
1/2+x,1/2-y,z
loop_
_atom_site_type_symbol
_atom_site_label
_atom_site_fract_x
_atom_site_fract_y
_atom_site_fract_z
Si Si1 0.656646 0.713244 0.759697
Si Si2 0.242006 0.414632 0.416334
Si Si3 0.408076 0.697455 0.856597
Si Si4 0.965234 0.688786 0.179144
Si Si5 0.891481 0.916853 0.704310
Si Si6 0.500000 0.639565 0.500000
Si Si7 0.762163 0.914888 0.071907
O O1 0.772251 0.763935 0.799273
O O2 0.588009 0.756386 0.787286
O O3 0.538093 0.690099 0.605979
O O4 0.735360 0.637430 0.845885
O O5 0.189569 0.500000 0.378809
O O6 0.323266 0.400782 0.564040
O O7 0.360772 0.406249 0.429800
O O8 0.111802 0.356329 0.308497
O O9 0.502760 0.759367 0.877115
O O10 0.353768 0.640759 0.747554
O O11 0.500000 0.663372 0.000000
O O12 0.839840 0.629092 0.066780
O O13 0.067579 0.915622 0.828310
O O14 0.845904 0.000000 0.693152
O O15 0.716274 0.000000 0.050682
#
# Coordination Sequence:
#
# PCOD9217469 Si02
#       7
#     8   8   8   8   8   4   8
#     4  12  25  40  66  98 129 167 214 265 317 375
#     4  11  24  42  65  95 131 170 211 263 321 377
#     4  12  23  40  66  95 127 166 214 264 318 379
#     4  12  24  43  64  95 134 166 209 265 320 379
#     4  10  23  43  66  91 127 171 215 263 314 374
#     4  12  23  38  64  98 125 170 216 260 315 384
#     4  11  22  42  67  93 126 169 211 260 322 376
#
# _framework density 19.449165000000001
#
# number of rings (size 3 to 8) (size 9 to 14) (size 15 to 20)
#    0.000    0.615    6.154    2.077    2.154    2.154 
#    0.000    2.308    0.000    1.846    0.000    0.000 
#    0.000    0.000    0.000    0.000    0.000    0.000 
#
# Total GULP energy -145243.242803 kJ/mol
# GULP energy per Si atom -5586.278569 kJ/mol
# Density = 1.940490 g / cm^3
# Si number density = 19.449165 Si / 1000 Ang^3
#
#
#
# Elastic Constant Matrix: (Units=GPa)
#
#
# Indices 1 2 3 4 5 6 
#
# 1 80.2564 38.5692 20.7524 0.0001 -18.6021 -0.0002
# 2 38.5692 108.1932 53.7211 0.0001 -11.7438 -0.0002
# 3 20.7524 53.7211 100.1259 0.0000 -13.1755 -0.0005
# 4 0.0001 0.0001 0.0000 33.9988 -0.0003 -5.2175
# 5 -18.6021 -11.7438 -13.1755 -0.0003 13.4538 -0.0005
# 6 -0.0002 -0.0002 -0.0005 -5.2175 -0.0005 -8.4439
#
#
#
# Elastic Compliance Matrix: (Units=1/GPa)
#
#
# Indices 1 2 3 4 5 6 
#
# 1 0.020527 -0.005589 0.002109 0.000000 0.025568 -0.000002
# 2 -0.005589 0.014424 -0.006820 0.000000 -0.001816 0.000000
# 3 0.002109 -0.006820 0.014705 0.000000 0.011364 -0.000001
# 4 0.000000 0.000000 0.000000 0.026865 0.000000 -0.016600
# 5 0.025568 -0.001816 0.011364 0.000000 0.119224 -0.000008
# 6 -0.000002 0.000000 -0.000001 -0.016600 -0.000008 -0.108172
#
#
# Mechanical properties :
#
#
# Convention : Reuss Voigt Hill
#
# Bulk Modulus (GPa) = 34.41645 57.18454 45.80050
# Shear Modulus (GPa) = 42.42343 19.50395 30.96369
#
# Velocity S-wave (km/s) = 4.67545 3.17016 3.99436
# Velocity P-wave (km/s) = 6.84693 6.54720 6.69874
#
# Compressibility (1/GPa) = 0.02905587
#
# Stress axis : x y z
#
# Youngs Moduli (GPa) = 48.71571 69.32738 68.00596
#
# Poissons Ratio (x) = 0.38750 -0.14342
# Poissons Ratio (y) = 0.27230 0.46377
# Poissons Ratio (z) = -0.10274 0.47279
#
# Static dielectric constant tensor:
#      x y z
#    x 1.662840 0.000000 0.016440 
#    y 0.000000 1.682080 0.000000 
#    z 0.016440 0.000000 1.705210 
# 
# From -- ./inp_files/216720.got.cif
#   From: 2010.05.17/outbox.cif.g08.bks.cpg/sg12_109_cif.got.tgz:216720.got - 2010.06.03 13:09:07.
