data_PCOD9217424
_publ_section_title
;
Structure prediction by ZEFSAII (Michael W. Deem and Ramdas Pophale) SiO2 
 PCOD9217424
Probable space group: C 2/M
;
_chemical_formula_sum "Si O2"
_cell_formula_units_Z 58
_cell_length_a 27.063871
_cell_length_b 22.322150
_cell_length_c 8.701953
_cell_angle_alpha 90.000000
_cell_angle_beta 31.354740
_cell_angle_gamma 90.000000
_cell_volume 2735.431806
_symmetry_space_group_name_H-M "C 2/M"
_symmetry_group_IT_number 12
_symmetry_cell_setting 'monoclinic'
loop_
_space_group_symop_operation_xyz
x,y,z
-x,y,-z
-x,-y,-z
x,-y,z
1/2+x,1/2+y,z
1/2-x,1/2+y,-z
1/2-x,1/2-y,-z
1/2+x,1/2-y,z
loop_
_atom_site_type_symbol
_atom_site_label
_atom_site_fract_x
_atom_site_fract_y
_atom_site_fract_z
Si Si1 0.445495 0.729622 0.784775
Si Si2 0.000000 0.000000 0.500000
Si Si3 0.777174 0.318624 0.249501
Si Si4 0.136838 0.104371 0.107846
Si Si5 0.257093 0.933688 0.519782
Si Si6 0.588133 0.254013 0.660484
Si Si7 0.428030 0.067417 0.308796
Si Si8 0.323636 0.148813 0.777444
O O1 0.500000 0.763079 0.500000
O O2 0.405221 0.669174 0.819153
O O3 0.526278 0.713129 0.693446
O O4 0.358355 0.769993 0.079531
O O5 0.074176 0.946150 0.353409
O O6 0.776939 0.377765 0.356015
O O7 0.669871 0.292127 0.527817
O O8 0.805600 0.333558 0.998939
O O9 0.162783 0.077024 0.870842
O O10 0.227974 0.118870 0.968601
O O11 0.335404 0.935077 0.447063
O O12 0.256097 0.000000 0.448942
O O13 0.647372 0.203485 0.411669
O O14 0.500000 0.232488 0.000000
O O15 0.407355 0.101982 0.519225
O O16 0.460943 0.000000 0.254829
O O17 0.500000 0.097693 0.000000
#
# Coordination Sequence:
#
# PCOD9217424 Si02
#       8
#     8   2   8   8   8   8   8   8
#     4  12  24  42  70  99 137 180 223 289 343 413
#     4  12  24  40  76 106 126 182 240 270 324 412
#     4  12  26  44  64 101 142 179 224 286 354 405
#     4  11  23  43  70  96 131 179 227 278 328 398
#     4  10  23  43  64  93 135 176 221 274 338 398
#     4  12  26  42  66 100 132 176 231 280 349 410
#     4   9  20  39  64  92 124 170 228 279 325 401
#     4  11  23  41  65  93 136 172 224 278 339 406
#
# _framework density 21.203233999999998
#
# number of rings (size 3 to 8) (size 9 to 14) (size 15 to 20)
#    0.000    0.966    4.138    2.483    6.759    1.655 
#    0.000    0.000    0.000    4.966    0.000    0.000 
#    0.000    0.000    0.000    0.000    0.000    0.000 
#
# Total GULP energy -161504.533026 kJ/mol
# GULP energy per Si atom -5569.121828 kJ/mol
# Density = 2.115497 g / cm^3
# Si number density = 21.203234 Si / 1000 Ang^3
#
#
#
# Elastic Constant Matrix: (Units=GPa)
#
#
# Indices 1 2 3 4 5 6 
#
# 1 51.8010 23.5286 26.5625 0.0000 1.6766 0.0000
# 2 23.5286 100.3722 12.4960 0.0000 1.1130 0.0000
# 3 26.5625 12.4960 66.8150 0.0000 -5.0052 0.0000
# 4 0.0000 0.0000 0.0000 18.8592 0.0000 -4.2646
# 5 1.6766 1.1130 -5.0052 0.0000 34.0007 0.0000
# 6 0.0000 0.0000 0.0000 -4.2646 0.0000 8.4321
#
#
#
# Elastic Compliance Matrix: (Units=1/GPa)
#
#
# Indices 1 2 3 4 5 6 
#
# 1 0.026733 -0.005007 -0.009887 0.000000 -0.002610 0.000000
# 2 -0.005007 0.011151 -0.000105 0.000000 -0.000134 0.000000
# 3 -0.009887 -0.000105 0.019165 0.000000 0.003312 0.000000
# 4 0.000000 0.000000 0.000000 0.059872 0.000000 0.030280
# 5 -0.002610 -0.000134 0.003312 0.000000 0.030032 0.000000
# 6 0.000000 0.000000 0.000000 0.030280 0.000000 0.133909
#
#
# Mechanical properties :
#
#
# Convention : Reuss Voigt Hill
#
# Bulk Modulus (GPa) = 36.96626 38.24027 37.60327
# Shear Modulus (GPa) = 15.63102 22.68515 19.15809
#
# Velocity S-wave (km/s) = 2.71809 3.27447 3.00916
# Velocity P-wave (km/s) = 5.22712 5.68950 5.46321
#
# Compressibility (1/GPa) = 0.02705170
#
# Stress axis : x y z
#
# Youngs Moduli (GPa) = 37.40693 89.67700 52.17834
#
# Poissons Ratio (x) = 0.44899 0.51588
# Poissons Ratio (y) = 0.18729 0.00548
# Poissons Ratio (z) = 0.36984 0.00942
#
# Static dielectric constant tensor:
#      x y z
#    x 1.757870 0.000000 0.001410 
#    y 0.000000 1.800640 0.000000 
#    z 0.001410 0.000000 1.912410 
# 
# From -- ./inp_files/106896.got.cif
#   From: 2010.05.17/outbox.cif.g08.bks.cpg/sg12_54_cif.got.tgz:106896.got - 2010.06.03 13:09:07.
