data_PCOD9217426
_publ_section_title
;
Structure prediction by ZEFSAII (Michael W. Deem and Ramdas Pophale) SiO2 
 PCOD9217426
Probable space group: C 2/M
;
_chemical_formula_sum "Si O2"
_cell_formula_units_Z 52
_cell_length_a 13.642921
_cell_length_b 14.565695
_cell_length_c 18.723853
_cell_angle_alpha 90.000000
_cell_angle_beta 43.501744
_cell_angle_gamma 90.000000
_cell_volume 2561.296950
_symmetry_space_group_name_H-M "C 2/M"
_symmetry_group_IT_number 12
_symmetry_cell_setting 'monoclinic'
loop_
_space_group_symop_operation_xyz
x,y,z
-x,y,-z
-x,-y,-z
x,-y,z
1/2+x,1/2+y,z
1/2-x,1/2+y,-z
1/2-x,1/2-y,-z
1/2+x,1/2-y,z
loop_
_atom_site_type_symbol
_atom_site_label
_atom_site_fract_x
_atom_site_fract_y
_atom_site_fract_z
Si Si1 0.825347 0.750000 0.845028
Si Si2 0.830014 0.358006 0.582843
Si Si3 0.713495 0.394495 0.802160
Si Si4 0.750000 0.500000 0.500000
Si Si5 0.286505 0.894495 0.197839
Si Si6 0.169986 0.858006 0.417157
Si Si7 0.527315 0.750000 0.087285
O O1 0.821766 0.661166 0.796061
O O2 0.821766 0.838834 0.796061
O O3 0.943574 0.750000 0.843355
O O4 0.675830 0.750000 0.967340
O O5 0.765351 0.386163 0.693479
O O6 0.771995 0.420238 0.550284
O O7 0.801481 0.250000 0.586284
O O8 0.000000 0.370740 0.500000
O O9 0.700722 0.500000 0.829977
O O10 0.565997 0.338532 0.883373
O O11 0.728005 0.420238 0.449716
O O12 0.234649 0.886163 0.306521
O O13 0.434003 0.838532 0.116627
O O14 0.299278 0.000000 0.170023
O O15 0.000000 0.870740 0.500000
#
# Coordination Sequence:
#
# PCOD9217426 Si02
#       7
#     8   8   8   4   8   8   8
#     4  10  23  43  66  89 128 161 203 262 314 364
#     4  11  24  44  62  91 129 167 209 253 309 364
#     4  11  22  41  64  93 126 164 207 253 309 371
#     4  12  24  40  64  92 122 164 210 262 294 360
#     4  11  22  41  64  93 126 164 207 253 309 371
#     4  11  24  44  62  91 129 167 209 253 309 364
#     4  10  23  43  64  96 122 160 210 257 311 372
#
# _framework density 20.302213999999999
#
# number of rings (size 3 to 8) (size 9 to 14) (size 15 to 20)
#    0.000    1.231    4.615    2.769    0.000    6.154 
#    0.000    3.077    0.000    0.000    0.000    0.000 
#    0.000    0.000    0.000    0.000    0.000    0.000 
#
# Total GULP energy -144858.382051 kJ/mol
# GULP energy per Si atom -5571.476233 kJ/mol
# Density = 2.025601 g / cm^3
# Si number density = 20.302214 Si / 1000 Ang^3
#
#
#
# Elastic Constant Matrix: (Units=GPa)
#
#
# Indices 1 2 3 4 5 6 
#
# 1 88.4041 49.7446 20.4987 0.0000 49.6465 0.0000
# 2 49.7446 193.2568 16.1140 0.0000 26.8480 0.0000
# 3 20.4987 16.1140 72.1038 -0.0001 22.1099 0.0001
# 4 0.0000 0.0000 -0.0001 21.3190 0.0001 47.3250
# 5 49.6465 26.8480 22.1099 0.0001 48.6406 0.0000
# 6 0.0000 0.0000 0.0001 47.3250 0.0000 35.6664
#
#
#
# Elastic Compliance Matrix: (Units=1/GPa)
#
#
# Indices 1 2 3 4 5 6 
#
# 1 0.028713 -0.003621 0.001185 0.000000 -0.027846 0.000000
# 2 -0.003621 0.006069 -0.000503 0.000000 0.000575 0.000000
# 3 0.001185 -0.000503 0.016186 0.000000 -0.008290 0.000000
# 4 0.000000 0.000000 0.000000 -0.024111 0.000000 0.031992
# 5 -0.027846 0.000575 -0.008290 0.000000 0.052432 0.000000
# 6 0.000000 0.000000 0.000000 0.031992 0.000000 -0.014412
#
#
# Mechanical properties :
#
#
# Convention : Reuss Voigt Hill
#
# Bulk Modulus (GPa) = 22.17793 58.49770 40.33781
# Shear Modulus (GPa) = 58.28534 38.95236 48.61885
#
# Velocity S-wave (km/s) = 5.36388 4.38496 4.89893
# Velocity P-wave (km/s) = 7.02205 7.38331 7.20494
#
# Compressibility (1/GPa) = 0.04508988
#
# Stress axis : x y z
#
# Youngs Moduli (GPa) = 34.82799 164.78310 61.78062
#
# Poissons Ratio (x) = 0.59667 -0.07322
# Poissons Ratio (y) = 0.12611 0.03108
# Poissons Ratio (z) = -0.04128 0.08290
#
# Static dielectric constant tensor:
#      x y z
#    x 1.707570 0.000000 -0.007430 
#    y 0.000000 1.759140 0.000000 
#    z -0.007430 0.000000 1.718590 
# 
# From -- ./inp_files/269778.got.cif
#   From: 2010.05.17/outbox.cif.g08.bks.cpg/sg12_135_cif.got.tgz:269778.got - 2010.06.03 13:09:07.
