data_PCOD9217942
_publ_section_title
;
Structure prediction by ZEFSAII (Michael W. Deem and Ramdas Pophale) SiO2 
 PCOD9217942
Probable space group: C 2/M
;
_chemical_formula_sum "Si O2"
_cell_formula_units_Z 36
_cell_length_a 7.694602
_cell_length_b 17.855266
_cell_length_c 11.880236
_cell_angle_alpha 90.000000
_cell_angle_beta 68.944852
_cell_angle_gamma 90.000000
_cell_volume 1523.240926
_symmetry_space_group_name_H-M "C 2/M"
_symmetry_group_IT_number 12
_symmetry_cell_setting 'monoclinic'
loop_
_space_group_symop_operation_xyz
x,y,z
-x,y,-z
-x,-y,-z
x,-y,z
1/2+x,1/2+y,z
1/2-x,1/2+y,-z
1/2-x,1/2-y,-z
1/2+x,1/2-y,z
loop_
_atom_site_type_symbol
_atom_site_label
_atom_site_fract_x
_atom_site_fract_y
_atom_site_fract_z
Si Si1 0.332309 0.782395 0.626527
Si Si2 0.105611 0.659731 0.142090
Si Si3 0.000000 0.218730 0.000000
Si Si4 0.962390 0.000000 0.818289
Si Si5 0.814890 0.500000 0.906866
Si Si6 0.469868 0.370993 0.631810
O O1 0.500000 0.792000 0.500000
O O2 0.378904 0.823340 0.731211
O O3 0.313729 0.693378 0.654865
O O4 0.150544 0.821292 0.619695
O O5 0.992740 0.724950 0.106761
O O6 0.059335 0.574109 0.130090
O O7 0.315322 0.669865 0.042137
O O8 0.945546 0.071143 0.738637
O O9 0.162104 0.000000 0.839099
O O10 0.806332 0.000000 0.951093
O O11 0.500000 0.405209 0.500000
#
# Coordination Sequence:
#
# PCOD9217942 Si02
#       6
#     8   8   4   4   4   8
#     4  11  23  41  67  97 128 168 214 266 316 378
#     4  11  23  43  65  96 129 169 215 265 320 382
#     4  10  24  38  70  96 126 166 218 268 318 376
#     4  11  23  42  64  96 127 172 212 263 320 390
#     4  11  24  41  64  92 133 172 210 262 327 378
#     4  11  23  42  68  97 127 167 217 265 319 379
#
# _framework density 23.633818000000002
#
# number of rings (size 3 to 8) (size 9 to 14) (size 15 to 20)
#    0.000    1.111    2.222    5.667    6.222    0.444 
#    0.000    2.222    0.000    1.333    0.000    0.778 
#    0.000    0.000    0.000    0.000    0.000    0.000 
#
# Total GULP energy -100866.529448 kJ/mol
# GULP energy per Si atom -5603.696080 kJ/mol
# Density = 2.358003 g / cm^3
# Si number density = 23.633818 Si / 1000 Ang^3
#
#
#
# Elastic Constant Matrix: (Units=GPa)
#
#
# Indices 1 2 3 4 5 6 
#
# 1 64.8946 15.2101 19.7284 0.0000 20.1973 0.0000
# 2 15.2101 155.9985 50.7143 0.0000 8.1546 0.0000
# 3 19.7284 50.7143 164.5915 0.0000 30.7728 0.0000
# 4 0.0000 0.0000 0.0000 33.8330 0.0000 6.3997
# 5 20.1973 8.1546 30.7728 0.0000 36.8309 0.0000
# 6 0.0000 0.0000 0.0000 6.3997 0.0000 -1.4415
#
#
#
# Elastic Compliance Matrix: (Units=1/GPa)
#
#
# Indices 1 2 3 4 5 6 
#
# 1 0.018843 -0.001321 0.000030 0.000000 -0.010066 0.000000
# 2 -0.001321 0.007219 -0.002255 0.000000 0.001010 0.000000
# 3 0.000030 -0.002255 0.007913 0.000000 -0.006129 0.000000
# 4 0.000000 0.000000 0.000000 0.016066 0.000000 0.071324
# 5 -0.010066 0.001010 -0.006129 0.000000 0.037568 0.000000
# 6 0.000000 0.000000 0.000000 0.071324 0.000000 -0.377068
#
#
# Mechanical properties :
#
#
# Convention : Reuss Voigt Hill
#
# Bulk Modulus (GPa) = 37.19690 61.86559 49.53124
# Shear Modulus (GPa) = -18.28772 33.83325 7.77277
#
# Velocity S-wave (km/s) = -2.78473 3.78770 1.81548
# Velocity P-wave (km/s) = 2.33096 6.73517 5.03963
#
# Compressibility (1/GPa) = 0.02688396
#
# Stress axis : x y z
#
# Youngs Moduli (GPa) = 53.07061 138.51586 126.38018
#
# Poissons Ratio (x) = 0.18297 -0.00385
# Poissons Ratio (y) = 0.07010 0.28498
# Poissons Ratio (z) = -0.00162 0.31235
#
# Static dielectric constant tensor:
#      x y z
#    x 1.979740 0.000000 0.000570 
#    y 0.000000 1.878210 0.000000 
#    z 0.000570 0.000000 1.896990 
# 
# From -- ./inp_files/118801.got.cif
#   From: 2010.05.17/outbox.cif.g08.bks.cpg/sg12_60_cif.got.tgz:118801.got - 2010.06.03 13:09:07.
