data_PCOD9217705
_publ_section_title
;
Structure prediction by ZEFSAII (Michael W. Deem and Ramdas Pophale) SiO2 
 PCOD9217705
Probable space group: C 2/M
;
_chemical_formula_sum "Si O2"
_cell_formula_units_Z 48
_cell_length_a 8.848962
_cell_length_b 30.125922
_cell_length_c 15.847147
_cell_angle_alpha 90.000000
_cell_angle_beta 32.188082
_cell_angle_gamma 90.000000
_cell_volume 2250.435987
_symmetry_space_group_name_H-M "C 2/M"
_symmetry_group_IT_number 12
_symmetry_cell_setting 'monoclinic'
loop_
_space_group_symop_operation_xyz
x,y,z
-x,y,-z
-x,-y,-z
x,-y,z
1/2+x,1/2+y,z
1/2-x,1/2+y,-z
1/2-x,1/2-y,-z
1/2+x,1/2-y,z
loop_
_atom_site_type_symbol
_atom_site_label
_atom_site_fract_x
_atom_site_fract_y
_atom_site_fract_z
Si Si1 0.886587 0.853240 0.145176
Si Si2 0.836979 0.371043 0.487406
Si Si3 0.471823 0.734234 0.824140
Si Si4 0.053153 0.394661 0.072582
Si Si5 0.566479 0.449358 0.369508
Si Si6 0.683861 0.693146 0.276094
O O1 0.570596 0.871596 0.302881
O O2 0.898044 0.811128 0.201399
O O3 0.000000 0.839455 0.000000
O O4 0.115307 0.889368 0.067325
O O5 0.645022 0.415143 0.576634
O O6 0.619622 0.330616 0.573049
O O7 0.000000 0.367252 0.500000
O O8 0.329542 0.722050 0.803161
O O9 0.703953 0.773052 0.706699
O O10 0.250000 0.750000 0.000000
O O11 0.882809 0.431183 0.204801
O O12 0.910150 0.346685 0.159571
O O13 0.000000 0.403661 0.000000
O O14 0.500000 0.447046 0.500000
O O15 0.535264 0.500000 0.355572
#
# Coordination Sequence:
#
# PCOD9217705 Si02
#       6
#     8   8   8   8   8   8
#     4  12  23  37  62  93 121 167 212 259 312 368
#     4  11  23  45  64  90 132 166 209 259 319 373
#     4  12  21  37  61  88 124 169 215 264 302 356
#     4  11  20  41  66  90 127 164 209 258 315 372
#     4  10  23  44  69  96 127 162 202 254 320 392
#     4  11  23  40  60  88 126 174 213 261 308 365
#
# _framework density 21.329201000000001
#
# number of rings (size 3 to 8) (size 9 to 14) (size 15 to 20)
#    0.000    0.833    5.000    3.500    0.000    1.333 
#    0.000    0.833    0.000    3.000    0.000    0.000 
#    0.000    0.000    0.000    0.000    0.000    0.000 
#
# Total GULP energy -134312.317591 kJ/mol
# GULP energy per Si atom -5596.346566 kJ/mol
# Density = 2.128065 g / cm^3
# Si number density = 21.329201 Si / 1000 Ang^3
#
#
#
# Elastic Constant Matrix: (Units=GPa)
#
#
# Indices 1 2 3 4 5 6 
#
# 1 44.7836 17.7780 18.3740 0.0000 -7.7550 0.0000
# 2 17.7780 101.4013 53.6193 0.0000 -12.0658 0.0000
# 3 18.3740 53.6193 135.2690 0.0000 -17.1343 0.0000
# 4 0.0000 0.0000 0.0000 16.2845 0.0000 0.2611
# 5 -7.7550 -12.0658 -17.1343 0.0000 32.0936 0.0000
# 6 0.0000 0.0000 0.0000 0.2611 0.0000 19.1018
#
#
#
# Elastic Compliance Matrix: (Units=1/GPa)
#
#
# Indices 1 2 3 4 5 6 
#
# 1 0.024904 -0.002998 -0.001689 0.000000 0.003989 0.000000
# 2 -0.002998 0.012984 -0.004519 0.000000 0.001745 0.000000
# 3 -0.001689 -0.004519 0.009810 0.000000 0.003130 0.000000
# 4 0.000000 0.000000 0.000000 0.061421 0.000000 -0.000840
# 5 0.003989 0.001745 0.003130 0.000000 0.034450 0.000000
# 6 0.000000 0.000000 0.000000 -0.000840 0.000000 0.052363
#
#
# Mechanical properties :
#
#
# Convention : Reuss Voigt Hill
#
# Bulk Modulus (GPa) = 34.14640 51.22187 42.68414
# Shear Modulus (GPa) = 22.31090 26.27481 24.29286
#
# Velocity S-wave (km/s) = 3.23774 3.51361 3.37849
# Velocity P-wave (km/s) = 5.47917 6.36613 5.93923
#
# Compressibility (1/GPa) = 0.02928566
#
# Stress axis : x y z
#
# Youngs Moduli (GPa) = 40.15492 77.01502 101.93940
#
# Poissons Ratio (x) = 0.23093 0.17217
# Poissons Ratio (y) = 0.12040 0.46063
# Poissons Ratio (z) = 0.06782 0.34800
#
# Static dielectric constant tensor:
#      x y z
#    x 1.801630 0.000000 0.002380 
#    y 0.000000 1.741860 0.000000 
#    z 0.002380 0.000000 1.812520 
# 
# From -- ./inp_files/260238.got.cif
#   From: 2010.05.17/outbox.cif.g08.bks.cpg/sg12_131_cif.got.tgz:260238.got - 2010.06.03 13:09:07.
