data_PCOD9217289
_publ_section_title
;
Structure prediction by ZEFSAII (Michael W. Deem and Ramdas Pophale) SiO2 
 PCOD9217289
Probable space group: C 2/M
;
_chemical_formula_sum "Si O2"
_cell_formula_units_Z 40
_cell_length_a 14.541966
_cell_length_b 16.134284
_cell_length_c 13.751536
_cell_angle_alpha 90.000000
_cell_angle_beta 33.186955
_cell_angle_gamma 90.000000
_cell_volume 1766.066948
_symmetry_space_group_name_H-M "C 2/M"
_symmetry_group_IT_number 12
_symmetry_cell_setting 'monoclinic'
loop_
_space_group_symop_operation_xyz
x,y,z
-x,y,-z
-x,-y,-z
x,-y,z
1/2+x,1/2+y,z
1/2-x,1/2+y,-z
1/2-x,1/2-y,-z
1/2+x,1/2-y,z
loop_
_atom_site_type_symbol
_atom_site_label
_atom_site_fract_x
_atom_site_fract_y
_atom_site_fract_z
Si Si1 0.631652 0.840653 0.000609
Si Si2 0.177145 0.842772 0.555821
Si Si3 0.641306 0.000000 0.515649
Si Si4 0.750946 0.500000 0.800605
Si Si5 0.745056 0.903192 0.706658
Si Si6 0.360369 0.651979 0.978978
O O1 0.751613 0.881178 0.814068
O O2 0.701154 0.852303 0.047168
O O3 0.447055 0.878324 0.151334
O O4 0.631086 0.742546 0.981494
O O5 0.250000 0.750000 0.500000
O O6 0.302079 0.916909 0.478172
O O7 0.142991 0.856515 0.471602
O O8 0.019175 0.853240 0.766602
O O9 0.442976 0.000000 0.670186
O O10 0.734113 0.000000 0.328687
O O11 0.659692 0.580250 0.925150
O O12 0.772626 0.000000 0.670578
#
# Coordination Sequence:
#
# PCOD9217289 Si02
#       6
#     8   8   4   4   8   8
#     4  10  23  42  66 101 133 175 229 271 339 401
#     4  12  25  44  70  99 142 176 226 283 342 406
#     4  11  27  49  68 103 132 185 231 284 346 407
#     4  11  27  45  74  95 140 179 231 280 338 411
#     4  11  23  43  71  98 132 180 222 282 340 404
#     4  11  25  42  67 103 135 180 221 282 332 407
#
# _framework density 22.649197000000001
#
# number of rings (size 3 to 8) (size 9 to 14) (size 15 to 20)
#    0.000    1.000    3.000    3.000    8.400    2.400 
#    0.000    1.000    0.000    0.000    0.000    0.000 
#    0.000    0.000    0.000    0.000    0.000    0.000 
#
# Total GULP energy -111969.283927 kJ/mol
# GULP energy per Si atom -5598.464196 kJ/mol
# Density = 2.259765 g / cm^3
# Si number density = 22.649197 Si / 1000 Ang^3
#
#
#
# Elastic Constant Matrix: (Units=GPa)
#
#
# Indices 1 2 3 4 5 6 
#
# 1 41.2416 9.0662 -5.0116 0.0034 0.6018 -0.0093
# 2 9.0662 145.7864 35.0458 0.0050 24.2738 -0.0123
# 3 -5.0116 35.0458 119.6073 0.0065 13.2455 -0.0162
# 4 0.0034 0.0050 0.0065 77.5133 -0.0030 -67.9267
# 5 0.6018 24.2738 13.2455 -0.0030 44.2172 0.0077
# 6 -0.0093 -0.0123 -0.0162 -67.9267 0.0077 194.3149
#
#
#
# Elastic Compliance Matrix: (Units=1/GPa)
#
#
# Indices 1 2 3 4 5 6 
#
# 1 0.024871 -0.001974 0.001591 0.000000 0.000269 0.000001
# 2 -0.001974 0.008106 -0.002036 0.000000 -0.003813 0.000000
# 3 0.001591 -0.002036 0.009208 0.000000 -0.001662 0.000001
# 4 0.000000 0.000000 0.000000 0.018598 0.000000 0.006501
# 5 0.000269 -0.003813 -0.001662 0.000000 0.025203 -0.000001
# 6 0.000001 0.000000 0.000001 0.006501 -0.000001 0.007419
#
#
# Mechanical properties :
#
#
# Convention : Reuss Voigt Hill
#
# Bulk Modulus (GPa) = 26.77551 42.75956 34.76753
# Shear Modulus (GPa) = 45.17025 81.04474 63.10749
#
# Velocity S-wave (km/s) = 4.47065 5.98835 5.28427
# Velocity P-wave (km/s) = 6.20455 8.16907 7.25363
#
# Compressibility (1/GPa) = 0.03734756
#
# Stress axis : x y z
#
# Youngs Moduli (GPa) = 40.20803 123.35937 108.60244
#
# Poissons Ratio (x) = 0.24348 -0.17275
# Poissons Ratio (y) = 0.07936 0.22107
# Poissons Ratio (z) = -0.06396 0.25111
#
# Static dielectric constant tensor:
#      x y z
#    x 1.909290 0.000000 -0.029150 
#    y 0.000000 1.777820 0.000000 
#    z -0.029150 0.000000 1.845000 
# 
# From -- ./inp_files/225570.got.cif
#   From: 2010.05.17/outbox.cif.g08.bks.cpg/sg12_113_cif.got.tgz:225570.got - 2010.06.03 13:09:07.
