data_PCOD9217206
_publ_section_title
;
Structure prediction by ZEFSAII (Michael W. Deem and Ramdas Pophale) SiO2 
 PCOD9217206
Probable space group: C 2/M
;
_chemical_formula_sum "Si O2"
_cell_formula_units_Z 44
_cell_length_a 8.353255
_cell_length_b 20.609615
_cell_length_c 17.982446
_cell_angle_alpha 90.000000
_cell_angle_beta 45.617288
_cell_angle_gamma 90.000000
_cell_volume 2212.525556
_symmetry_space_group_name_H-M "C 2/M"
_symmetry_group_IT_number 12
_symmetry_cell_setting 'monoclinic'
loop_
_space_group_symop_operation_xyz
x,y,z
-x,y,-z
-x,-y,-z
x,-y,z
1/2+x,1/2+y,z
1/2-x,1/2+y,-z
1/2-x,1/2-y,-z
1/2+x,1/2-y,z
loop_
_atom_site_type_symbol
_atom_site_label
_atom_site_fract_x
_atom_site_fract_y
_atom_site_fract_z
Si Si1 0.618862 0.572624 0.040375
Si Si2 0.610958 0.076812 0.542858
Si Si3 0.750304 0.150283 0.251164
Si Si4 0.573997 0.190223 0.060351
Si Si5 0.374266 0.776876 0.278877
Si Si6 0.500000 0.653897 0.500000
O O1 0.666969 0.500000 0.053229
O O2 0.453744 0.614119 0.145842
O O3 0.500000 0.566400 0.000000
O O4 0.826649 0.619159 0.958413
O O5 0.500000 0.096872 0.500000
O O6 0.417597 0.096338 0.663380
O O7 0.834504 0.112572 0.499984
O O8 0.652187 0.000000 0.526937
O O9 0.595186 0.194306 0.247104
O O10 0.845353 0.199319 0.282681
O O11 0.403287 0.202432 0.183195
O O12 0.500000 0.189008 0.000000
O O13 0.750000 0.250000 0.000000
O O14 0.162723 0.804468 0.393357
#
# Coordination Sequence:
#
# PCOD9217206 Si02
#       6
#     8   8   8   8   8   4
#     4  11  23  41  63  90 126 166 209 264 326 389
#     4  10  23  42  64  90 126 173 219 265 325 392
#     4  11  23  39  64  93 126 162 216 263 327 390
#     4  12  23  40  66  96 129 166 218 267 327 391
#     4  11  24  39  63  97 123 171 211 267 328 377
#     4  10  25  42  64  94 133 168 220 272 324 382
#
# _framework density 19.886776000000001
#
# number of rings (size 3 to 8) (size 9 to 14) (size 15 to 20)
#    0.000    1.091    3.636    2.455    3.818    1.818 
#    0.000    0.909    0.000    0.000    0.000    0.000 
#    0.000    0.000    0.000    0.000    0.000    0.000 
#
# Total GULP energy -122726.681114 kJ/mol
# GULP energy per Si atom -5578.485505 kJ/mol
# Density = 1.984151 g / cm^3
# Si number density = 19.886776 Si / 1000 Ang^3
#
#
#
# Elastic Constant Matrix: (Units=GPa)
#
#
# Indices 1 2 3 4 5 6 
#
# 1 70.8694 34.0212 23.1242 -0.0001 14.0046 0.0001
# 2 34.0212 124.9945 49.8139 0.0000 -9.6933 0.0000
# 3 23.1242 49.8139 128.3655 -0.0003 -5.9311 0.0002
# 4 -0.0001 0.0000 -0.0003 -399.2487 0.0002 326.2881
# 5 14.0046 -9.6933 -5.9311 0.0002 27.1374 -0.0001
# 6 0.0001 0.0000 0.0002 326.2881 -0.0001 -222.6847
#
#
#
# Elastic Compliance Matrix: (Units=1/GPa)
#
#
# Indices 1 2 3 4 5 6 
#
# 1 0.019991 -0.005632 -0.002006 0.000000 -0.012767 0.000000
# 2 -0.005632 0.011236 -0.003057 0.000000 0.006252 0.000000
# 3 -0.002006 -0.003057 0.009430 0.000000 0.002004 0.000000
# 4 0.000000 0.000000 0.000000 0.012683 0.000000 0.018584
# 5 -0.012767 0.006252 0.002004 0.000000 0.046109 0.000000
# 6 0.000000 0.000000 0.000000 0.018584 0.000000 0.022740
#
#
# Mechanical properties :
#
#
# Convention : Reuss Voigt Hill
#
# Bulk Modulus (GPa) = 51.89689 59.79423 55.84556
# Shear Modulus (GPa) = 33.33268 -104.47453 -35.57093
#
# Velocity S-wave (km/s) = 4.09849 -7.25594 -4.23386
# Velocity P-wave (km/s) = 6.96776 6.32975 2.05961
#
# Compressibility (1/GPa) = 0.01926898
#
# Stress axis : x y z
#
# Youngs Moduli (GPa) = 50.02133 88.99617 106.03939
#
# Poissons Ratio (x) = 0.50123 0.21267
# Poissons Ratio (y) = 0.28172 0.32416
# Poissons Ratio (z) = 0.10032 0.27206
#
# Static dielectric constant tensor:
#      x y z
#    x 1.728940 0.000000 -0.004480 
#    y 0.000000 0.201190 0.000000 
#    z -0.004480 0.000000 1.708030 
# 
# From -- ./inp_files/120626.got.cif
#   From: 2010.05.17/outbox.cif.g08.bks.cpg/sg12_61_cif.got.tgz:120626.got - 2010.06.03 13:09:07.
