data_PCOD9217968
_publ_section_title
;
Structure prediction by ZEFSAII (Michael W. Deem and Ramdas Pophale) SiO2 
 PCOD9217968
Probable space group: C 2/M
;
_chemical_formula_sum "Si O2"
_cell_formula_units_Z 56
_cell_length_a 18.601108
_cell_length_b 26.859054
_cell_length_c 8.039768
_cell_angle_alpha 90.000000
_cell_angle_beta 37.777435
_cell_angle_gamma 90.000000
_cell_volume 2460.634280
_symmetry_space_group_name_H-M "C 2/M"
_symmetry_group_IT_number 12
_symmetry_cell_setting 'monoclinic'
loop_
_space_group_symop_operation_xyz
x,y,z
-x,y,-z
-x,-y,-z
x,-y,z
1/2+x,1/2+y,z
1/2-x,1/2+y,-z
1/2-x,1/2-y,-z
1/2+x,1/2-y,z
loop_
_atom_site_type_symbol
_atom_site_label
_atom_site_fract_x
_atom_site_fract_y
_atom_site_fract_z
Si Si1 0.155775 0.370536 0.883100
Si Si2 0.808121 0.803558 0.404422
Si Si3 0.783092 0.846386 0.991603
Si Si4 0.399379 0.560316 0.944445
Si Si5 0.476560 0.711444 0.786542
Si Si6 0.657608 0.441321 0.565567
Si Si7 0.049047 0.325289 0.594510
O O1 0.200657 0.339257 0.643347
O O2 0.222167 0.421977 0.731150
O O3 0.215610 0.348329 0.940821
O O4 0.017837 0.365157 0.167368
O O5 0.750000 0.750000 0.500000
O O6 0.897319 0.810357 0.396692
O O7 0.894447 0.805490 0.090610
O O8 0.830362 0.901518 0.952997
O O9 0.687452 0.829105 0.305860
O O10 0.893457 0.808445 0.790989
O O11 0.386539 0.500000 0.936841
O O12 0.357901 0.571132 0.210300
O O13 0.537839 0.574216 0.690241
O O14 0.502196 0.770544 0.732868
O O15 0.655023 0.500000 0.563495
O O16 0.000000 0.334402 0.500000
#
# Coordination Sequence:
#
# PCOD9217968 Si02
#       7
#     8   8   8   8   8   8   8
#     4  11  23  39  61  87 123 161 200 260 306 364
#     4  11  22  38  56  84 115 154 204 241 305 355
#     4  11  24  40  60  90 120 163 210 251 311 369
#     4   9  19  40  66  92 123 156 193 250 312 371
#     4  11  23  38  60  81 117 159 203 257 296 357
#     4   9  19  38  66  94 121 154 196 247 311 375
#     4  10  24  40  57  80 121 167 207 246 305 360
#
# _framework density 22.75836
#
# number of rings (size 3 to 8) (size 9 to 14) (size 15 to 20)
#    0.000    1.714    1.429    3.429    2.000    5.714 
#    0.000    2.143    0.000    4.286    0.000    0.000 
#    0.000    0.000    0.000    0.000    0.000    0.000 
#
# Total GULP energy -156332.563985 kJ/mol
# GULP energy per Si atom -5583.305857 kJ/mol
# Density = 2.270656 g / cm^3
# Si number density = 22.758360 Si / 1000 Ang^3
#
#
#
# Elastic Constant Matrix: (Units=GPa)
#
#
# Indices 1 2 3 4 5 6 
#
# 1 61.9317 2.5173 30.8296 0.0000 -12.4033 0.0000
# 2 2.5173 72.2107 32.6224 0.0000 -10.9146 0.0000
# 3 30.8296 32.6224 148.7723 0.0000 -20.1585 0.0000
# 4 0.0000 0.0000 0.0000 -72.3881 0.0000 -125.5896
# 5 -12.4033 -10.9146 -20.1585 0.0000 40.7358 0.0000
# 6 0.0000 0.0000 0.0000 -125.5896 0.0000 -110.5171
#
#
#
# Elastic Compliance Matrix: (Units=1/GPa)
#
#
# Indices 1 2 3 4 5 6 
#
# 1 0.018775 0.001658 -0.003665 0.000000 0.004347 0.000000
# 2 0.001658 0.015784 -0.003391 0.000000 0.003056 0.000000
# 3 -0.003665 -0.003391 0.008522 0.000000 0.002193 0.000000
# 4 0.000000 0.000000 0.000000 0.014219 0.000000 -0.016158
# 5 0.004347 0.003056 0.002193 0.000000 0.027776 0.000000
# 6 0.000000 0.000000 0.000000 -0.016158 0.000000 0.009313
#
#
# Mechanical properties :
#
#
# Convention : Reuss Voigt Hill
#
# Bulk Modulus (GPa) = 30.97351 46.09481 38.53416
# Shear Modulus (GPa) = 43.12371 -13.97086 14.57642
#
# Velocity S-wave (km/s) = 4.35771 -2.48034 2.53353
# Velocity P-wave (km/s) = 6.24170 3.47781 5.05242
#
# Compressibility (1/GPa) = 0.03228565
#
# Stress axis : x y z
#
# Youngs Moduli (GPa) = 53.26358 63.35411 117.34601
#
# Poissons Ratio (x) = -0.10507 0.43010
# Poissons Ratio (y) = -0.08833 0.39788
# Poissons Ratio (z) = 0.19522 0.21481
#
# Static dielectric constant tensor:
#      x y z
#    x 1.801270 0.000000 -0.026200 
#    y 0.000000 1.861480 0.000000 
#    z -0.026200 0.000000 1.890700 
# 
# From -- ./inp_files/91548.got.cif
#   From: 2010.05.17/outbox.cif.g08.bks.cpg/sg12_46_cif.got.tgz:91548.got - 2010.06.03 13:09:07.
