data_PCOD9217464
_publ_section_title
;
Structure prediction by ZEFSAII (Michael W. Deem and Ramdas Pophale) SiO2 
 PCOD9217464
Probable space group: C 2/M
;
_chemical_formula_sum "Si O2"
_cell_formula_units_Z 58
_cell_length_a 18.280515
_cell_length_b 20.237277
_cell_length_c 12.897276
_cell_angle_alpha 90.000000
_cell_angle_beta 146.924352
_cell_angle_gamma 90.000000
_cell_volume 2603.927860
_symmetry_space_group_name_H-M "C 2/M"
_symmetry_group_IT_number 12
_symmetry_cell_setting 'monoclinic'
loop_
_space_group_symop_operation_xyz
x,y,z
-x,y,-z
-x,-y,-z
x,-y,z
1/2+x,1/2+y,z
1/2-x,1/2+y,-z
1/2-x,1/2-y,-z
1/2+x,1/2-y,z
loop_
_atom_site_type_symbol
_atom_site_label
_atom_site_fract_x
_atom_site_fract_y
_atom_site_fract_z
Si Si1 0.569381 0.324759 0.193571
Si Si2 0.157867 0.358635 0.158508
Si Si3 0.754216 0.922151 0.484122
Si Si4 0.728716 0.076530 0.027222
Si Si5 0.041031 0.611850 0.404084
Si Si6 0.173606 0.194299 0.973721
Si Si7 0.800552 0.276987 0.335093
Si Si8 0.500000 0.000000 0.500000
O O1 0.615445 0.388610 0.310882
O O2 0.470900 0.285006 0.152436
O O3 0.702185 0.287140 0.316542
O O4 0.500000 0.339144 0.000000
O O5 0.218642 0.396478 0.328355
O O6 0.261139 0.297753 0.261138
O O7 0.170596 0.402352 0.070054
O O8 0.000000 0.341368 0.000000
O O9 0.632737 0.899768 0.413433
O O10 0.765566 0.000000 0.497435
O O11 0.605327 0.087539 0.801913
O O12 0.770324 0.000000 0.076283
O O13 0.834180 0.129618 0.107815
O O14 0.062737 0.687314 0.467440
O O15 0.085350 0.558832 0.542061
O O16 0.250000 0.250000 0.000000
O O17 0.252994 0.183501 0.176119
#
# Coordination Sequence:
#
# PCOD9217464 Si02
#       8
#     8   8   8   8   8   8   8   2
#     4   9  22  43  67  97 133 176 229 287 344 412
#     4  12  24  42  70  99 140 184 233 289 340 420
#     4  11  23  42  67  99 135 181 237 284 340 418
#     4  12  25  42  66 102 141 184 227 286 359 416
#     4  11  23  40  65 100 138 175 223 288 352 412
#     4  11  22  42  68  95 136 182 231 286 345 422
#     4  10  23  43  66 101 132 177 227 284 350 406
#     4  12  20  40  68 102 150 172 218 304 358 420
#
# _framework density 22.274041
#
# number of rings (size 3 to 8) (size 9 to 14) (size 15 to 20)
#    0.000    1.103    4.138    2.483    0.000    4.690 
#    0.000    0.690    0.000    1.655    0.000    0.000 
#    0.000    0.000    0.000    0.000    0.000    0.000 
#
# Total GULP energy -161552.417015 kJ/mol
# GULP energy per Si atom -5570.773001 kJ/mol
# Density = 2.222334 g / cm^3
# Si number density = 22.274041 Si / 1000 Ang^3
#
#
#
# Elastic Constant Matrix: (Units=GPa)
#
#
# Indices 1 2 3 4 5 6 
#
# 1 142.8384 33.2936 15.1189 0.0000 -21.3623 0.0000
# 2 33.2936 96.0723 15.8575 0.0000 -12.5321 0.0000
# 3 15.1189 15.8575 33.0397 0.0000 -12.6890 0.0000
# 4 0.0000 0.0000 0.0000 33.4670 0.0000 -7.4782
# 5 -21.3623 -12.5321 -12.6890 0.0000 30.4020 0.0000
# 6 0.0000 0.0000 0.0000 -7.4782 0.0000 32.6657
#
#
#
# Elastic Compliance Matrix: (Units=1/GPa)
#
#
# Indices 1 2 3 4 5 6 
#
# 1 0.008277 -0.002108 -0.001043 0.000000 0.004512 0.000000
# 2 -0.002108 0.012053 -0.004145 0.000000 0.001757 0.000000
# 3 -0.001043 -0.004145 0.037865 0.000000 0.013362 0.000000
# 4 0.000000 0.000000 0.000000 0.031491 0.000000 0.007209
# 5 0.004512 0.001757 0.013362 0.000000 0.042364 0.000000
# 6 0.000000 0.000000 0.000000 0.007209 0.000000 0.032264
#
#
# Mechanical properties :
#
#
# Convention : Reuss Voigt Hill
#
# Bulk Modulus (GPa) = 22.93436 44.49891 33.71663
# Shear Modulus (GPa) = 25.84757 33.15228 29.49993
#
# Velocity S-wave (km/s) = 3.41021 3.86214 3.64319
# Velocity P-wave (km/s) = 5.08182 6.31739 5.73299
#
# Compressibility (1/GPa) = 0.04360271
#
# Stress axis : x y z
#
# Youngs Moduli (GPa) = 120.81060 82.96894 26.40929
#
# Poissons Ratio (x) = 0.17488 0.02755
# Poissons Ratio (y) = 0.25464 0.10948
# Poissons Ratio (z) = 0.12604 0.34394
#
# Static dielectric constant tensor:
#      x y z
#    x 1.814140 0.000000 0.080020 
#    y 0.000000 1.848560 0.000000 
#    z 0.080020 0.000000 1.889290 
# 
# From -- ./inp_files/159777.got.cif
#   From: 2010.05.17/outbox.cif.g08.bks.cpg/sg12_80_cif.got.tgz:159777.got - 2010.06.03 13:09:07.
