data_PCOD9217723
_publ_section_title
;
Structure prediction by ZEFSAII (Michael W. Deem and Ramdas Pophale) SiO2 
 PCOD9217723
Probable space group: C 2/M
;
_chemical_formula_sum "Si O2"
_cell_formula_units_Z 56
_cell_length_a 11.259424
_cell_length_b 31.363436
_cell_length_c 15.844486
_cell_angle_alpha 90.000000
_cell_angle_beta 30.303672
_cell_angle_gamma 90.000000
_cell_volume 2823.257831
_symmetry_space_group_name_H-M "C 2/M"
_symmetry_group_IT_number 12
_symmetry_cell_setting 'monoclinic'
loop_
_space_group_symop_operation_xyz
x,y,z
-x,y,-z
-x,-y,-z
x,-y,z
1/2+x,1/2+y,z
1/2-x,1/2+y,-z
1/2-x,1/2-y,-z
1/2+x,1/2-y,z
loop_
_atom_site_type_symbol
_atom_site_label
_atom_site_fract_x
_atom_site_fract_y
_atom_site_fract_z
Si Si1 0.018137 0.655811 0.745191
Si Si2 0.727917 0.277129 0.300354
Si Si3 0.582592 0.587009 0.537509
Si Si4 0.658039 0.817243 0.319643
Si Si5 0.722026 0.347301 0.180392
Si Si6 0.946849 0.879436 0.890338
Si Si7 0.260961 0.550715 0.376706
O O1 0.993248 0.680562 0.672191
O O2 0.077943 0.692270 0.776816
O O3 0.229615 0.622707 0.604951
O O4 0.791467 0.628040 0.911801
O O5 0.500000 0.277371 0.500000
O O6 0.788199 0.228133 0.247841
O O7 0.660508 0.301700 0.256747
O O8 0.500000 0.564599 0.500000
O O9 0.364063 0.614251 0.707448
O O10 0.691264 0.563008 0.553473
O O11 0.500000 0.823666 0.500000
O O12 0.840107 0.855360 0.196535
O O13 0.593719 0.354032 0.171539
O O14 0.000000 0.350489 0.000000
O O15 0.042552 0.925254 0.800891
O O16 0.281202 0.500000 0.356558
O O17 0.000000 0.562973 0.500000
#
# Coordination Sequence:
#
# PCOD9217723 Si02
#       7
#     8   8   8   8   8   8   8
#     4  12  22  41  61  88 127 168 212 257 317 371
#     4  11  23  38  57  86 121 168 215 255 303 361
#     4  11  20  38  67  94 128 165 213 257 318 383
#     4  11  26  38  58  86 122 169 215 271 304 364
#     4  11  19  36  59  87 118 162 207 249 308 368
#     4  11  23  39  63  89 122 163 208 259 315 373
#     4  10  23  44  70  96 127 165 207 259 323 391
#
# _framework density 19.835242000000001
#
# number of rings (size 3 to 8) (size 9 to 14) (size 15 to 20)
#    0.000    1.000    4.286    3.429    2.000    3.143 
#    0.000    0.714    0.000   18.000    0.000    0.000 
#    0.000    0.000    0.000    0.000    0.000    0.000 
#
# Total GULP energy -156245.296364 kJ/mol
# GULP energy per Si atom -5580.189156 kJ/mol
# Density = 1.979010 g / cm^3
# Si number density = 19.835242 Si / 1000 Ang^3
#
#
#
# Elastic Constant Matrix: (Units=GPa)
#
#
# Indices 1 2 3 4 5 6 
#
# 1 98.1473 34.2207 22.1386 0.0000 17.2136 0.0000
# 2 34.2207 88.3618 23.9280 0.0000 2.4296 0.0000
# 3 22.1386 23.9280 78.1957 0.0000 7.8978 0.0000
# 4 0.0000 0.0000 0.0000 13.3496 0.0000 -7.3094
# 5 17.2136 2.4296 7.8978 0.0000 25.9504 0.0000
# 6 0.0000 0.0000 0.0000 -7.3094 0.0000 22.2692
#
#
#
# Elastic Compliance Matrix: (Units=1/GPa)
#
#
# Indices 1 2 3 4 5 6 
#
# 1 0.013574 -0.004596 -0.001621 0.000000 -0.008080 0.000000
# 2 -0.004596 0.013896 -0.003227 0.000000 0.002730 0.000000
# 3 -0.001621 -0.003227 0.014543 0.000000 -0.003049 0.000000
# 4 0.000000 0.000000 0.000000 0.091320 0.000000 0.029974
# 5 -0.008080 0.002730 -0.003049 0.000000 0.044567 0.000000
# 6 0.000000 0.000000 0.000000 0.029974 0.000000 0.054743
#
#
# Mechanical properties :
#
#
# Convention : Reuss Voigt Hill
#
# Bulk Modulus (GPa) = 43.24125 47.25326 45.24725
# Shear Modulus (GPa) = 19.28729 24.60834 21.94781
#
# Velocity S-wave (km/s) = 3.12168 3.52609 3.33003
# Velocity P-wave (km/s) = 5.90260 6.36022 6.13568
#
# Compressibility (1/GPa) = 0.02312607
#
# Stress axis : x y z
#
# Youngs Moduli (GPa) = 73.67064 71.96470 68.76388
#
# Poissons Ratio (x) = 0.33074 0.11143
# Poissons Ratio (y) = 0.33858 0.22187
# Poissons Ratio (z) = 0.11939 0.23220
#
# Static dielectric constant tensor:
#      x y z
#    x 1.842800 0.000000 0.002620 
#    y 0.000000 1.668890 0.000000 
#    z 0.002620 0.000000 1.716310 
# 
# From -- ./inp_files/210001.got.cif
#   From: 2010.05.17/outbox.cif.g08.bks.cpg/sg12_106_cif.got.tgz:210001.got - 2010.06.03 13:09:07.
