data_PCOD9217921
_publ_section_title
;
Structure prediction by ZEFSAII (Michael W. Deem and Ramdas Pophale) SiO2 
 PCOD9217921
Probable space group: C 2/M
;
_chemical_formula_sum "Si O2"
_cell_formula_units_Z 36
_cell_length_a 8.615396
_cell_length_b 20.262097
_cell_length_c 15.067575
_cell_angle_alpha 90.000000
_cell_angle_beta 43.744798
_cell_angle_gamma 90.000000
_cell_volume 1818.704691
_symmetry_space_group_name_H-M "C 2/M"
_symmetry_group_IT_number 12
_symmetry_cell_setting 'monoclinic'
loop_
_space_group_symop_operation_xyz
x,y,z
-x,y,-z
-x,-y,-z
x,-y,z
1/2+x,1/2+y,z
1/2-x,1/2+y,-z
1/2-x,1/2-y,-z
1/2+x,1/2-y,z
loop_
_atom_site_type_symbol
_atom_site_label
_atom_site_fract_x
_atom_site_fract_y
_atom_site_fract_z
Si Si1 0.255927 0.792191 0.405787
Si Si2 0.052885 0.573658 0.624935
Si Si3 0.619486 0.428091 0.677411
Si Si4 0.500000 0.718193 0.000000
Si Si5 0.050379 0.196382 0.175386
O O1 0.250000 0.750000 0.500000
O O2 0.409107 0.857805 0.340184
O O3 0.346289 0.742373 0.293677
O O4 0.000000 0.813271 0.500000
O O5 0.065275 0.500000 0.662400
O O6 0.249684 0.576066 0.469490
O O7 0.818870 0.576707 0.668107
O O8 0.512969 0.500000 0.728371
O O9 0.454760 0.368408 0.762594
O O10 0.720839 0.763747 0.906531
O O11 0.483027 0.679686 0.914381
#
# Coordination Sequence:
#
# PCOD9217921 Si02
#       5
#     8   8   8   4   8
#     4  12  22  33  58  89 113 142 177 232 284 332
#     4   9  18  32  51  85 120 145 170 212 283 346
#     4   9  17  32  57  81 112 146 176 220 276 336
#     4  10  24  38  56  74 106 154 186 238 260 314
#     4  11  21  38  56  80 111 142 194 223 275 320
#
# _framework density 19.794308000000001
#
# number of rings (size 3 to 8) (size 9 to 14) (size 15 to 20)
#    0.000    1.778    2.222    5.333    0.000    0.444 
#    0.000    1.111    0.000    5.333    0.000    0.000 
#    0.000    0.000    0.000    0.000    0.000    0.000 
#
# Total GULP energy -100442.010155 kJ/mol
# GULP energy per Si atom -5580.111675 kJ/mol
# Density = 1.974925 g / cm^3
# Si number density = 19.794308 Si / 1000 Ang^3
#
#
#
# Elastic Constant Matrix: (Units=GPa)
#
#
# Indices 1 2 3 4 5 6 
#
# 1 20.5478 -17.7816 -9.7381 -0.0001 2.5028 0.0000
# 2 -17.7816 101.6799 3.9669 0.0000 7.3532 0.0000
# 3 -9.7381 3.9669 54.9899 -0.0002 0.1290 0.0001
# 4 -0.0001 0.0000 -0.0002 18.0024 0.0001 2.8965
# 5 2.5028 7.3532 0.1290 0.0001 23.6129 -0.0001
# 6 0.0000 0.0000 0.0001 2.8965 -0.0001 -0.6630
#
#
#
# Elastic Compliance Matrix: (Units=1/GPa)
#
#
# Indices 1 2 3 4 5 6 
#
# 1 0.065219 0.011756 0.010726 0.000000 -0.010632 0.000006
# 2 0.011756 0.012209 0.001213 0.000000 -0.005055 0.000001
# 3 0.010726 0.001213 0.020001 0.000000 -0.001624 0.000004
# 4 0.000000 0.000000 0.000000 0.032620 0.000001 0.142506
# 5 -0.010632 -0.005055 -0.001624 0.000001 0.045060 -0.000007
# 6 0.000006 0.000001 0.000004 0.142506 -0.000007 -0.885707
#
#
# Mechanical properties :
#
#
# Convention : Reuss Voigt Hill
#
# Bulk Modulus (GPa) = 6.90517 14.45688 10.68102
# Shear Modulus (GPa) = -7.04507 21.57516 7.26505
#
# Velocity S-wave (km/s) = -1.88861 3.30505 1.91787
# Velocity P-wave (km/s) = 1.12240 4.67802 3.21124
#
# Compressibility (1/GPa) = 0.14481897
#
# Stress axis : x y z
#
# Youngs Moduli (GPa) = 15.33300 81.90793 49.99749
#
# Poissons Ratio (x) = -0.96289 -0.53629
# Poissons Ratio (y) = -0.18025 -0.06064
# Poissons Ratio (z) = -0.16447 -0.09935
#
# Static dielectric constant tensor:
#      x y z
#    x 1.736590 0.000000 0.026090 
#    y 0.000000 1.723040 0.000000 
#    z 0.026090 0.000000 1.676000 
# 
# From -- ./inp_files/78145.got.cif
#   From: 2010.05.17/outbox.cif.g08.bks.cpg/sg12_40_cif.got.tgz:78145.got - 2010.06.03 13:09:07.
