data_PCOD9217131
_publ_section_title
;
Structure prediction by ZEFSAII (Michael W. Deem and Ramdas Pophale) SiO2 
 PCOD9217131
Probable space group: C 2/M
;
_chemical_formula_sum "Si O2"
_cell_formula_units_Z 56
_cell_length_a 20.410350
_cell_length_b 8.833571
_cell_length_c 19.898010
_cell_angle_alpha 90.000000
_cell_angle_beta 59.052580
_cell_angle_gamma 90.000000
_cell_volume 3076.813837
_symmetry_space_group_name_H-M "C 2/M"
_symmetry_group_IT_number 12
_symmetry_cell_setting 'monoclinic'
loop_
_space_group_symop_operation_xyz
x,y,z
-x,y,-z
-x,-y,-z
x,-y,z
1/2+x,1/2+y,z
1/2-x,1/2+y,-z
1/2-x,1/2-y,-z
1/2+x,1/2-y,z
loop_
_atom_site_type_symbol
_atom_site_label
_atom_site_fract_x
_atom_site_fract_y
_atom_site_fract_z
Si Si1 0.940581 0.180383 0.324598
Si Si2 0.196417 0.319171 0.328568
Si Si3 0.967423 0.818292 0.589928
Si Si4 0.774500 0.319630 0.416233
Si Si5 0.076572 0.825398 0.005934
Si Si6 0.990440 0.320782 0.167379
Si Si7 0.845353 0.182648 0.166043
O O1 0.860372 0.264210 0.357194
O O2 0.995229 0.237813 0.236318
O O3 0.974434 0.214317 0.380142
O O4 0.928973 0.000000 0.324957
O O5 0.195626 0.500000 0.336914
O O6 0.113232 0.259818 0.353599
O O7 0.221030 0.243049 0.385519
O O8 0.262824 0.281344 0.239842
O O9 0.000000 0.770771 0.500000
O O10 0.956482 0.000000 0.593501
O O11 0.770260 0.500000 0.420725
O O12 0.750000 0.250000 0.500000
O O13 0.057449 0.726227 0.080639
O O14 0.088513 0.000000 0.019849
O O15 0.141882 0.777056 0.918956
O O16 0.000000 0.821978 0.000000
O O17 0.987532 0.500000 0.177573
O O18 0.911630 0.262499 0.174343
O O19 0.857355 0.000000 0.164945
#
# Coordination Sequence:
#
# PCOD9217131 Si02
#       7
#     8   8   8   8   8   8   8
#     4  11  22  38  59  82 113 151 189 234 286 342
#     4  11  22  37  60  86 115 149 186 232 282 341
#     4  10  23  42  61  81 109 148 192 237 287 342
#     4  12  24  38  58  85 114 145 184 234 286 337
#     4   8  15  29  49  74 109 150 184 223 275 338
#     4  11  20  30  50  82 115 148 186 234 280 330
#     4   9  18  33  53  79 113 150 186 224 280 341
#
# _framework density 18.200645999999999
#
# number of rings (size 3 to 8) (size 9 to 14) (size 15 to 20)
#    0.000    1.714    1.429    5.143    0.000    5.714 
#    0.000    0.000    0.000    0.857    0.000    0.000 
#    0.000    0.000    0.000    0.000    0.000    0.000 
#
# Total GULP energy -156367.789726 kJ/mol
# GULP energy per Si atom -5584.563919 kJ/mol
# Density = 1.815922 g / cm^3
# Si number density = 18.200646 Si / 1000 Ang^3
#
#
#
# Elastic Constant Matrix: (Units=GPa)
#
#
# Indices 1 2 3 4 5 6 
#
# 1 22.7959 9.0221 -14.0206 -0.0001 0.3800 0.0001
# 2 9.0221 43.9723 8.1510 0.0000 3.1329 0.0000
# 3 -14.0206 8.1510 82.4614 0.0000 -1.1235 0.0001
# 4 -0.0001 0.0000 0.0000 23.6459 0.0000 -4.6913
# 5 0.3800 3.1329 -1.1235 0.0000 22.5304 0.0000
# 6 0.0001 0.0000 0.0001 -4.6913 0.0000 24.1040
#
#
#
# Elastic Compliance Matrix: (Units=1/GPa)
#
#
# Indices 1 2 3 4 5 6 
#
# 1 0.055907 -0.013592 0.010869 0.000000 0.001489 0.000000
# 2 -0.013592 0.026724 -0.005003 0.000000 -0.003736 0.000000
# 3 0.010869 -0.005003 0.014486 0.000000 0.001235 0.000000
# 4 0.000000 0.000000 0.000000 0.043989 0.000000 0.008561
# 5 0.001489 -0.003736 0.001235 0.000000 0.044941 0.000000
# 6 0.000000 0.000000 0.000000 0.008561 0.000000 0.043153
#
#
# Mechanical properties :
#
#
# Convention : Reuss Voigt Hill
#
# Bulk Modulus (GPa) = 12.24497 17.28164 14.76330
# Shear Modulus (GPa) = 18.39086 23.79454 21.09270
#
# Velocity S-wave (km/s) = 3.18221 3.61965 3.40795
# Velocity P-wave (km/s) = 4.49937 5.19469 4.85948
#
# Compressibility (1/GPa) = 0.08166619
#
# Stress axis : x y z
#
# Youngs Moduli (GPa) = 17.88672 37.41959 69.03040
#
# Poissons Ratio (x) = 0.50860 -0.75033
# Poissons Ratio (y) = 0.24311 0.34539
# Poissons Ratio (z) = -0.19442 0.18723
#
# Static dielectric constant tensor:
#      x y z
#    x 1.599080 0.000000 -0.020820 
#    y 0.000000 1.604100 0.000000 
#    z -0.020820 0.000000 1.670420 
# 
# From -- ./inp_files/275154.got.cif
#   From: 2010.05.17/outbox.cif.g08.bks.cpg/sg12_138_cif.got.tgz:275154.got - 2010.06.03 13:09:07.
