data_PCOD9217143
_publ_section_title
;
Structure prediction by ZEFSAII (Michael W. Deem and Ramdas Pophale) SiO2 
 PCOD9217143
Probable space group: C 2/M
;
_chemical_formula_sum "Si O2"
_cell_formula_units_Z 40
_cell_length_a 9.897030
_cell_length_b 9.792728
_cell_length_c 21.381158
_cell_angle_alpha 90.000000
_cell_angle_beta 90.598221
_cell_angle_gamma 90.000000
_cell_volume 2072.125852
_symmetry_space_group_name_H-M "C 2/M"
_symmetry_group_IT_number 12
_symmetry_cell_setting 'monoclinic'
loop_
_space_group_symop_operation_xyz
x,y,z
-x,y,-z
-x,-y,-z
x,-y,z
1/2+x,1/2+y,z
1/2-x,1/2+y,-z
1/2-x,1/2-y,-z
1/2+x,1/2-y,z
loop_
_atom_site_type_symbol
_atom_site_label
_atom_site_fract_x
_atom_site_fract_y
_atom_site_fract_z
Si Si1 0.287391 0.275025 0.347337
Si Si2 0.360730 0.000000 0.418146
Si Si3 0.520638 0.659153 0.874518
Si Si4 0.317595 0.000000 0.560262
Si Si5 0.949487 0.842801 0.730320
Si Si6 0.198405 0.661643 0.058448
O O1 0.243273 0.371843 0.403601
O O2 0.418241 0.329311 0.311963
O O3 0.165396 0.254789 0.297894
O O4 0.320732 0.131093 0.378521
O O5 0.291696 0.000000 0.486148
O O6 0.521355 0.000000 0.429579
O O7 0.482417 0.500000 0.888116
O O8 0.489295 0.687192 0.801897
O O9 0.679033 0.670718 0.890935
O O10 0.434008 0.763979 0.915420
O O11 0.901431 0.000000 0.727893
O O12 0.177369 0.500000 0.044323
O O13 0.250000 0.750000 0.000000
#
# Coordination Sequence:
#
# PCOD9217143 Si02
#       6
#     8   4   8   4   8   8
#     4  12  22  42  63  91 119 167 203 255 314 367
#     4  11  24  41  61  95 123 159 208 258 311 370
#     4  10  23  42  61  91 124 166 203 254 304 359
#     4  11  24  41  63  89 129 159 202 262 311 370
#     4  11  23  40  64  89 126 158 208 253 306 368
#     4  11  23  41  65  94 127 163 206 251 305 362
#
# _framework density 19.303846
#
# number of rings (size 3 to 8) (size 9 to 14) (size 15 to 20)
#    0.000    1.000    4.000    3.000    0.000    4.000 
#    3.600    1.000    0.000    0.000    0.000    0.000 
#    0.000    0.000    0.000    0.000    0.000    0.000 
#
# Total GULP energy -111790.205692 kJ/mol
# GULP energy per Si atom -5589.510285 kJ/mol
# Density = 1.925991 g / cm^3
# Si number density = 19.303846 Si / 1000 Ang^3
#
#
#
# Elastic Constant Matrix: (Units=GPa)
#
#
# Indices 1 2 3 4 5 6 
#
# 1 45.1710 1.8446 -18.4270 0.0000 4.6072 0.0000
# 2 1.8446 93.8543 10.7745 0.0000 -7.5423 0.0000
# 3 -18.4270 10.7745 55.7203 0.0000 2.9159 0.0000
# 4 0.0000 0.0000 0.0000 24.7349 0.0000 -7.7348
# 5 4.6072 -7.5423 2.9159 0.0000 30.3139 0.0000
# 6 0.0000 0.0000 0.0000 -7.7348 0.0000 27.9628
#
#
#
# Elastic Compliance Matrix: (Units=1/GPa)
#
#
# Indices 1 2 3 4 5 6 
#
# 1 0.026656 -0.002054 0.009499 0.000000 -0.005476 0.000000
# 2 -0.002054 0.011320 -0.003047 0.000000 0.003422 0.000000
# 3 0.009499 -0.003047 0.021903 0.000000 -0.004309 0.000000
# 4 0.000000 0.000000 0.000000 0.044257 0.000000 0.012242
# 5 -0.005476 0.003422 -0.004309 0.000000 0.035086 0.000000
# 6 0.000000 0.000000 0.000000 0.012242 0.000000 0.039148
#
#
# Mechanical properties :
#
#
# Convention : Reuss Voigt Hill
#
# Bulk Modulus (GPa) = 14.56184 20.34775 17.45479
# Shear Modulus (GPa) = 25.97859 29.97256 27.97557
#
# Velocity S-wave (km/s) = 3.67246 3.94467 3.81100
# Velocity P-wave (km/s) = 5.05395 5.59562 5.33167
#
# Compressibility (1/GPa) = 0.06867266
#
# Stress axis : x y z
#
# Youngs Moduli (GPa) = 37.51568 88.33904 45.65608
#
# Poissons Ratio (x) = 0.18149 -0.43368
# Poissons Ratio (y) = 0.07707 0.13913
# Poissons Ratio (z) = -0.35636 0.26920
#
# Static dielectric constant tensor:
#      x y z
#    x 1.645880 0.000000 0.018760 
#    y 0.000000 1.701060 0.000000 
#    z 0.018760 0.000000 1.653550 
# 
# From -- ./inp_files/331761.got.cif
#   From: 2010.05.17/outbox.cif.g08.bks.cpg/sg12_166_cif.got.tgz:331761.got - 2010.06.03 13:09:07.
