data_PCOD9217588
_publ_section_title
;
Structure prediction by ZEFSAII (Michael W. Deem and Ramdas Pophale) SiO2 
 PCOD9217588
Probable space group: C 2/M
;
_chemical_formula_sum "Si O2"
_cell_formula_units_Z 40
_cell_length_a 8.874434
_cell_length_b 17.986103
_cell_length_c 11.038558
_cell_angle_alpha 90.000000
_cell_angle_beta 87.435100
_cell_angle_gamma 90.000000
_cell_volume 1760.170660
_symmetry_space_group_name_H-M "C 2/M"
_symmetry_group_IT_number 12
_symmetry_cell_setting 'monoclinic'
loop_
_space_group_symop_operation_xyz
x,y,z
-x,y,-z
-x,-y,-z
x,-y,z
1/2+x,1/2+y,z
1/2-x,1/2+y,-z
1/2-x,1/2-y,-z
1/2+x,1/2-y,z
loop_
_atom_site_type_symbol
_atom_site_label
_atom_site_fract_x
_atom_site_fract_y
_atom_site_fract_z
Si Si1 0.506367 0.230269 0.735702
Si Si2 0.851970 0.000000 0.738569
Si Si3 0.651454 0.129233 0.062414
Si Si4 0.000000 0.632770 0.500000
Si Si5 0.234591 0.500000 0.493691
Si Si6 0.190419 0.000000 0.792935
Si Si7 0.798863 0.840813 0.813954
O O1 0.416385 0.192400 0.849336
O O2 0.467809 0.186968 0.614155
O O3 0.680214 0.213543 0.753900
O O4 0.458928 0.315816 0.752866
O O5 0.861515 0.000000 0.592768
O O6 0.766343 0.074422 0.779477
O O7 0.009568 0.000000 0.804186
O O8 0.735241 0.069712 0.142049
O O9 0.500000 0.099093 0.000000
O O10 0.767400 0.160245 0.958076
O O11 0.863649 0.575026 0.481276
O O12 0.274024 0.500000 0.351124
#
# Coordination Sequence:
#
# PCOD9217588 Si02
#       7
#     8   4   8   4   4   4   8
#     4  11  24  45  70 107 139 192 234 301 353 426
#     4  12  27  48  68 106 145 186 235 309 350 424
#     4  10  23  43  71 106 142 189 235 293 353 431
#     4  11  22  42  78  99 138 186 252 287 354 424
#     4  11  23  45  72 102 143 191 238 294 352 434
#     4  12  24  43  73 105 146 186 243 287 368 417
#     4  11  26  46  72 101 151 183 241 289 363 421
#
# _framework density 22.725071
#
# number of rings (size 3 to 8) (size 9 to 14) (size 15 to 20)
#    0.000    1.000    4.000    1.800    2.800    4.800 
#    3.600    0.000    0.000    0.000    0.000    0.000 
#    0.000    0.000    0.000    0.000    0.000    0.000 
#
# Total GULP energy -111807.570011 kJ/mol
# GULP energy per Si atom -5590.378501 kJ/mol
# Density = 2.267335 g / cm^3
# Si number density = 22.725071 Si / 1000 Ang^3
#
#
#
# Elastic Constant Matrix: (Units=GPa)
#
#
# Indices 1 2 3 4 5 6 
#
# 1 65.3372 14.6537 20.6417 0.0000 11.6452 0.0000
# 2 14.6537 65.1293 28.4269 0.0000 -2.5104 0.0000
# 3 20.6417 28.4269 136.5960 0.0000 -5.2520 0.0000
# 4 0.0000 0.0000 0.0000 39.2942 0.0000 -0.2289
# 5 11.6452 -2.5104 -5.2520 0.0000 42.3544 0.0000
# 6 0.0000 0.0000 0.0000 -0.2289 0.0000 21.4558
#
#
#
# Elastic Compliance Matrix: (Units=1/GPa)
#
#
# Indices 1 2 3 4 5 6 
#
# 1 0.017673 -0.003219 -0.002205 0.000000 -0.005323 0.000000
# 2 -0.003219 0.017488 -0.003094 0.000000 0.001538 0.000000
# 3 -0.002205 -0.003094 0.008354 0.000000 0.001459 0.000000
# 4 0.000000 0.000000 0.000000 0.025451 0.000000 0.000271
# 5 -0.005323 0.001538 0.001459 0.000000 0.025346 0.000000
# 6 0.000000 0.000000 0.000000 0.000271 0.000000 0.046610
#
#
# Mechanical properties :
#
#
# Convention : Reuss Voigt Hill
#
# Bulk Modulus (GPa) = 37.76652 43.83412 40.80032
# Shear Modulus (GPa) = 29.97888 34.17688 32.07788
#
# Velocity S-wave (km/s) = 3.63602 3.88226 3.76115
# Velocity P-wave (km/s) = 5.85512 6.27907 6.07080
#
# Compressibility (1/GPa) = 0.02647848
#
# Stress axis : x y z
#
# Youngs Moduli (GPa) = 56.58458 57.18223 119.70196
#
# Poissons Ratio (x) = 0.18406 0.26399
# Poissons Ratio (y) = 0.18214 0.37034
# Poissons Ratio (z) = 0.12479 0.17691
#
# Static dielectric constant tensor:
#      x y z
#    x 1.895510 0.000000 0.025080 
#    y 0.000000 1.916320 0.000000 
#    z 0.025080 0.000000 1.818340 
# 
# From -- ./inp_files/119193.got.cif
#   From: 2010.05.17/outbox.cif.g08.bks.cpg/sg12_60_cif.got.tgz:119193.got - 2010.06.03 13:09:07.
