data_PCOD9217905
_publ_section_title
;
Structure prediction by ZEFSAII (Michael W. Deem and Ramdas Pophale) SiO2 
 PCOD9217905
Probable space group: C 2/M
;
_chemical_formula_sum "Si O2"
_cell_formula_units_Z 40
_cell_length_a 21.667143
_cell_length_b 11.261437
_cell_length_c 9.317405
_cell_angle_alpha 90.000000
_cell_angle_beta 106.269529
_cell_angle_gamma 90.000000
_cell_volume 2182.433640
_symmetry_space_group_name_H-M "C 2/M"
_symmetry_group_IT_number 12
_symmetry_cell_setting 'monoclinic'
loop_
_space_group_symop_operation_xyz
x,y,z
-x,y,-z
-x,-y,-z
x,-y,z
1/2+x,1/2+y,z
1/2-x,1/2+y,-z
1/2-x,1/2-y,-z
1/2+x,1/2-y,z
loop_
_atom_site_type_symbol
_atom_site_label
_atom_site_fract_x
_atom_site_fract_y
_atom_site_fract_z
Si Si1 0.360765 0.500000 0.287204
Si Si2 0.500000 0.295847 0.000000
Si Si3 0.311963 0.753251 0.141763
Si Si4 0.359015 0.500000 0.623748
Si Si5 0.122641 0.639988 0.080053
Si Si6 0.776946 0.782652 0.672414
Si Si7 0.989871 0.000000 0.220586
O O1 0.334184 0.620148 0.196591
O O2 0.343233 0.500000 0.443797
O O3 0.437545 0.500000 0.311909
O O4 0.440379 0.213645 0.917283
O O5 0.520548 0.384314 0.885552
O O6 0.284462 0.812939 0.268021
O O7 0.250000 0.750000 0.000000
O O8 0.362448 0.822603 0.075575
O O9 0.327102 0.388322 0.681363
O O10 0.435755 0.500000 0.687029
O O11 0.113401 0.500000 0.084567
O O12 0.182409 0.680524 0.219443
O O13 0.750000 0.750000 0.500000
#
# Coordination Sequence:
#
# PCOD9217905 Si02
#       7
#     4   4   8   4   8   8   4
#     4  12  22  43  64  91 129 163 206 263 317 373
#     4  11  21  40  64  90 119 161 214 260 310 367
#     4  10  24  36  60  91 123 160 202 255 305 367
#     4  12  24  41  68  91 125 171 206 257 320 374
#     4  11  24  41  62  87 124 168 206 254 312 369
#     4  11  24  40  61  93 127 162 207 252 309 380
#     4  11  23  40  64  96 125 157 214 267 308 371
#
# _framework density 18.328163
#
# number of rings (size 3 to 8) (size 9 to 14) (size 15 to 20)
#    0.000    1.000    6.000    0.600    8.400    2.400 
#    0.000    0.000    0.000    0.000    0.000    5.600 
#    0.000    0.000    0.000    0.000    0.000    0.000 
#
# Total GULP energy -111600.945008 kJ/mol
# GULP energy per Si atom -5580.047250 kJ/mol
# Density = 1.828645 g / cm^3
# Si number density = 18.328163 Si / 1000 Ang^3
#
#
#
# Elastic Constant Matrix: (Units=GPa)
#
#
# Indices 1 2 3 4 5 6 
#
# 1 88.1585 40.6323 15.7184 0.0000 -7.9087 0.0000
# 2 40.6323 133.3966 33.8553 0.0000 -0.4764 0.0000
# 3 15.7184 33.8553 87.7176 0.0000 -11.0507 0.0000
# 4 0.0000 0.0000 0.0000 25.8880 0.0000 2.5066
# 5 -7.9087 -0.4764 -11.0507 0.0000 38.6655 0.0000
# 6 0.0000 0.0000 0.0000 2.5066 0.0000 23.4430
#
#
#
# Elastic Compliance Matrix: (Units=1/GPa)
#
#
# Indices 1 2 3 4 5 6 
#
# 1 0.013498 -0.003958 -0.000570 0.000000 0.002549 0.000000
# 2 -0.003958 0.009498 -0.003157 0.000000 -0.001595 0.000000
# 3 -0.000570 -0.003157 0.013176 0.000000 0.003610 0.000000
# 4 0.000000 0.000000 0.000000 0.039032 0.000000 -0.004173
# 5 0.002549 -0.001595 0.003610 0.000000 0.027396 0.000000
# 6 0.000000 0.000000 0.000000 -0.004173 0.000000 0.043103
#
#
# Mechanical properties :
#
#
# Convention : Reuss Voigt Hill
#
# Bulk Modulus (GPa) = 48.07493 54.40939 51.24216
# Shear Modulus (GPa) = 29.76084 32.20374 30.98229
#
# Velocity S-wave (km/s) = 4.03398 4.19628 4.11593
# Velocity P-wave (km/s) = 6.92708 7.29582 7.11384
#
# Compressibility (1/GPa) = 0.02080086
#
# Stress axis : x y z
#
# Youngs Moduli (GPa) = 74.08744 105.29052 75.89660
#
# Poissons Ratio (x) = 0.41669 0.04327
# Poissons Ratio (y) = 0.29320 0.23964
# Poissons Ratio (z) = 0.04224 0.33244
#
# Static dielectric constant tensor:
#      x y z
#    x 0.086800 0.000000 1.007640 
#    y 0.000000 1.598110 0.000000 
#    z 1.007640 0.000000 0.957820 
# 
# From -- ./inp_files/83708.got.cif
#   From: 2010.05.17/outbox.cif.g08.bks.cpg/sg12_42_cif.got.tgz:83708.got - 2010.06.03 13:09:07.
