data_PCOD9217835
_publ_section_title
;
Structure prediction by ZEFSAII (Michael W. Deem and Ramdas Pophale) SiO2 
 PCOD9217835
Probable space group: C 2/M
;
_chemical_formula_sum "Si O2"
_cell_formula_units_Z 40
_cell_length_a 27.122912
_cell_length_b 15.261515
_cell_length_c 19.051431
_cell_angle_alpha 90.000000
_cell_angle_beta 167.114634
_cell_angle_gamma 90.000000
_cell_volume 1758.606423
_symmetry_space_group_name_H-M "C 2/M"
_symmetry_group_IT_number 12
_symmetry_cell_setting 'monoclinic'
loop_
_space_group_symop_operation_xyz
x,y,z
-x,y,-z
-x,-y,-z
x,-y,z
1/2+x,1/2+y,z
1/2-x,1/2+y,-z
1/2-x,1/2-y,-z
1/2+x,1/2-y,z
loop_
_atom_site_type_symbol
_atom_site_label
_atom_site_fract_x
_atom_site_fract_y
_atom_site_fract_z
Si Si1 0.321754 0.902245 0.927787
Si Si2 0.139050 0.344828 0.261040
Si Si3 0.631513 0.400601 0.949320
Si Si4 0.783216 0.225910 0.806501
Si Si5 0.613039 0.161615 0.823826
O O1 0.558348 0.899016 0.216510
O O2 0.199643 0.822293 0.717312
O O3 0.230515 0.000000 0.792723
O O4 0.351126 0.875651 0.049143
O O5 0.394707 0.357420 0.602466
O O6 0.035845 0.249058 0.135609
O O7 0.000000 0.374693 0.000000
O O8 0.597719 0.500000 0.926162
O O9 0.726715 0.339724 0.142574
O O10 0.789925 0.400153 0.102045
O O11 0.638173 0.187118 0.543163
O O12 0.750000 0.250000 0.000000
#
# Coordination Sequence:
#
# PCOD9217835 Si02
#       5
#     8   8   8   8   8
#     4  10  24  44  72 101 138 184 237 291 348 424
#     4  10  23  46  71 100 137 187 235 295 352 420
#     4  12  25  42  71 106 143 185 237 294 358 427
#     4  10  25  43  72  97 142 187 234 288 353 424
#     4  12  23  45  68 101 142 187 232 292 355 424
#
# _framework density 22.745282
#
# number of rings (size 3 to 8) (size 9 to 14) (size 15 to 20)
#    1.200    0.000    2.000    3.600    0.000    4.000 
#    0.000    2.000    0.000    3.000    0.000    0.000 
#    0.000    0.000    0.000    0.000    0.000    0.000 
#
# Total GULP energy -111705.883976 kJ/mol
# GULP energy per Si atom -5585.294199 kJ/mol
# Density = 2.269351 g / cm^3
# Si number density = 22.745282 Si / 1000 Ang^3
#
#
#
# Elastic Constant Matrix: (Units=GPa)
#
#
# Indices 1 2 3 4 5 6 
#
# 1 125.8548 39.8417 12.4383 0.0036 13.4100 -0.0027
# 2 39.8417 85.6650 25.0740 0.0078 16.0849 -0.0110
# 3 12.4383 25.0740 72.6137 0.0148 9.2679 0.0023
# 4 0.0036 0.0078 0.0148 0.5200 0.0056 16.0660
# 5 13.4100 16.0849 9.2679 0.0056 21.3639 0.0054
# 6 -0.0027 -0.0110 0.0023 16.0660 0.0054 4.4418
#
#
#
# Elastic Compliance Matrix: (Units=1/GPa)
#
#
# Indices 1 2 3 4 5 6 
#
# 1 0.009488 -0.003862 0.000103 0.000000 -0.003092 0.000001
# 2 -0.003862 0.016111 -0.003878 0.000014 -0.008024 -0.000001
# 3 0.000103 -0.003878 0.015592 0.000000 -0.003909 -0.000011
# 4 0.000000 0.000014 0.000000 -0.017364 -0.000021 0.062805
# 5 -0.003092 -0.008024 -0.003909 -0.000021 0.056486 -0.000011
# 6 0.000001 -0.000001 -0.000011 0.062805 -0.000011 -0.002033
#
#
# Mechanical properties :
#
#
# Convention : Reuss Voigt Hill
#
# Bulk Modulus (GPa) = 38.58442 48.76017 43.67229
# Shear Modulus (GPa) = 48.92756 19.05044 33.98900
#
# Velocity S-wave (km/s) = 4.64304 2.89720 3.86985
# Velocity P-wave (km/s) = 6.76345 5.71626 6.26179
#
# Compressibility (1/GPa) = 0.02591720
#
# Stress axis : x y z
#
# Youngs Moduli (GPa) = 105.40092 62.06886 64.13646
#
# Poissons Ratio (x) = 0.23972 -0.00661
# Poissons Ratio (y) = 0.40707 0.24870
# Poissons Ratio (z) = -0.01087 0.24068
#
# Static dielectric constant tensor:
#      x y z
#    x 1.850550 0.000000 0.035040 
#    y 0.000000 1.883600 0.000000 
#    z 0.035040 0.000000 1.868510 
# 
# From -- ./inp_files/290370.got.cif
#   From: 2010.05.17/outbox.cif.g08.bks.cpg/sg12_146_cif.got.tgz:290370.got - 2010.06.03 13:09:07.
