data_PCOD9217326
_publ_section_title
;
Structure prediction by ZEFSAII (Michael W. Deem and Ramdas Pophale) SiO2 
 PCOD9217326
Probable space group: C 2/M
;
_chemical_formula_sum "Si O2"
_cell_formula_units_Z 40
_cell_length_a 19.321065
_cell_length_b 18.551840
_cell_length_c 4.844422
_cell_angle_alpha 90.000000
_cell_angle_beta 68.846863
_cell_angle_gamma 90.000000
_cell_volume 1619.438287
_symmetry_space_group_name_H-M "C 2/M"
_symmetry_group_IT_number 12
_symmetry_cell_setting 'monoclinic'
loop_
_space_group_symop_operation_xyz
x,y,z
-x,y,-z
-x,-y,-z
x,-y,z
1/2+x,1/2+y,z
1/2-x,1/2+y,-z
1/2-x,1/2-y,-z
1/2+x,1/2-y,z
loop_
_atom_site_type_symbol
_atom_site_label
_atom_site_fract_x
_atom_site_fract_y
_atom_site_fract_z
Si Si1 0.921746 0.637455 0.268087
Si Si2 0.662475 0.082589 0.136545
Si Si3 0.629485 0.715926 0.383760
Si Si4 0.073336 0.921324 0.712212
Si Si5 0.299099 0.339583 0.227806
O O1 0.906094 0.585402 0.549415
O O2 0.909867 0.715499 0.428096
O O3 0.862689 0.615750 0.117281
O O4 0.000000 0.633972 0.000000
O O5 0.725515 0.131070 0.193197
O O6 0.687063 0.000000 0.062954
O O7 0.578628 0.645579 0.498028
O O8 0.700733 0.696027 0.470870
O O9 0.657467 0.716001 0.033336
O O10 0.145106 0.906906 0.802159
O O11 0.077955 0.000000 0.573558
O O12 0.000000 0.917214 0.000000
#
# Coordination Sequence:
#
# PCOD9217326 Si02
#       5
#     8   8   8   8   8
#     4  12  27  47  71 102 136 180 233 289 349 405
#     4  12  27  46  72 101 137 181 230 290 349 405
#     4  10  23  42  69  96 138 175 225 273 335 407
#     4   9  20  39  63  96 137 181 226 275 328 398
#     4  10  23  42  67  98 137 173 227 269 337 406
#
# _framework density 24.699922000000001
#
# number of rings (size 3 to 8) (size 9 to 14) (size 15 to 20)
#    1.200    0.200    0.000    4.800    0.000    9.600 
#    0.000    2.000    0.000    0.000    0.000    0.000 
#    0.000    0.000    0.000    0.000    0.000    0.000 
#
# Total GULP energy -111831.958891 kJ/mol
# GULP energy per Si atom -5591.597945 kJ/mol
# Density = 2.464370 g / cm^3
# Si number density = 24.699922 Si / 1000 Ang^3
#
#
#
# Elastic Constant Matrix: (Units=GPa)
#
#
# Indices 1 2 3 4 5 6 
#
# 1 68.9058 -14.7784 -6.7488 0.0000 3.7389 0.0000
# 2 -14.7784 85.6487 -0.9082 0.0000 4.2828 0.0000
# 3 -6.7488 -0.9082 104.6166 0.0000 11.4526 0.0000
# 4 0.0000 0.0000 0.0000 70.3392 0.0000 -1.4084
# 5 3.7389 4.2828 11.4526 0.0000 39.7657 0.0000
# 6 0.0000 0.0000 0.0000 -1.4084 0.0000 10.5067
#
#
#
# Elastic Compliance Matrix: (Units=1/GPa)
#
#
# Indices 1 2 3 4 5 6 
#
# 1 0.015341 0.002765 0.001243 0.000000 -0.002098 0.000000
# 2 0.002765 0.012243 0.000472 0.000000 -0.001715 0.000000
# 3 0.001243 0.000472 0.009976 0.000000 -0.003041 0.000000
# 4 0.000000 0.000000 0.000000 0.014255 0.000000 0.001911
# 5 -0.002098 -0.001715 -0.003041 0.000000 0.026405 0.000000
# 6 0.000000 0.000000 0.000000 0.001911 0.000000 0.095433
#
#
# Mechanical properties :
#
#
# Convention : Reuss Voigt Hill
#
# Bulk Modulus (GPa) = 21.49494 23.81114 22.65304
# Shear Modulus (GPa) = 27.74699 42.89609 35.32154
#
# Velocity S-wave (km/s) = 3.35530 4.17188 3.78567
# Velocity P-wave (km/s) = 4.87155 5.73299 5.31974
#
# Compressibility (1/GPa) = 0.04652257
#
# Stress axis : x y z
#
# Youngs Moduli (GPa) = 65.18363 81.67616 100.24146
#
# Poissons Ratio (x) = -0.22585 -0.12464
# Poissons Ratio (y) = -0.18025 -0.04735
# Poissons Ratio (z) = -0.08105 -0.03858
#
# Static dielectric constant tensor:
#      x y z
#    x 1.993120 0.000000 -0.023550 
#    y 0.000000 1.966700 0.000000 
#    z -0.023550 0.000000 1.889730 
# 
# From -- ./inp_files/15750.got.cif
#   From: 2010.05.17/outbox.cif.g08.bks.cpg/sg12_8_cif.got.tgz:15750.got - 2010.06.03 13:09:07.
