data_PCOD9217658
_publ_section_title
;
Structure prediction by ZEFSAII (Michael W. Deem and Ramdas Pophale) SiO2 
 PCOD9217658
Probable space group: C 2/M
;
_chemical_formula_sum "Si O2"
_cell_formula_units_Z 48
_cell_length_a 25.313074
_cell_length_b 10.473045
_cell_length_c 25.211906
_cell_angle_alpha 90.000000
_cell_angle_beta 157.974246
_cell_angle_gamma 90.000000
_cell_volume 2506.581377
_symmetry_space_group_name_H-M "C 2/M"
_symmetry_group_IT_number 12
_symmetry_cell_setting 'monoclinic'
loop_
_space_group_symop_operation_xyz
x,y,z
-x,y,-z
-x,-y,-z
x,-y,z
1/2+x,1/2+y,z
1/2-x,1/2+y,-z
1/2-x,1/2-y,-z
1/2+x,1/2-y,z
loop_
_atom_site_type_symbol
_atom_site_label
_atom_site_fract_x
_atom_site_fract_y
_atom_site_fract_z
Si Si1 0.224221 0.344556 0.927083
Si Si2 0.296901 0.224697 0.256408
Si Si3 0.234080 0.647649 0.654080
Si Si4 0.449801 0.724673 0.046831
Si Si5 0.485255 0.145315 0.626716
Si Si6 0.948713 0.500000 0.891096
Si Si7 0.154441 0.000000 0.669399
O O1 0.223159 0.500000 0.936319
O O2 0.076821 0.305389 0.761110
O O3 0.250000 0.250000 0.000000
O O4 0.346415 0.313936 0.998067
O O5 0.313571 0.204434 0.334247
O O6 0.406204 0.149719 0.321902
O O7 0.323615 0.375089 0.274447
O O8 0.140361 0.193355 0.090054
O O9 0.193049 0.500000 0.617617
O O10 0.401479 0.656803 0.808286
O O11 0.154642 0.706369 0.529087
O O12 0.492452 0.873688 0.081957
O O13 0.451594 0.000000 0.610433
O O14 0.778911 0.500000 0.740657
O O15 0.000000 0.500000 0.000000
O O16 0.000000 0.000000 0.500000
#
# Coordination Sequence:
#
# PCOD9217658 Si02
#       7
#     8   8   8   8   8   4   4
#     4  10  23  44  68  89 114 153 208 268 318 368
#     4  11  20  33  51  80 120 163 196 232 282 358
#     4  11  20  32  54  84 119 156 192 236 291 365
#     4  11  22  36  58  84 120 159 203 246 305 359
#     4   9  20  37  56  83 116 153 192 242 302 359
#     4  12  20  38  54  86 130 168 202 246 300 364
#     4  12  22  32  50  80 122 168 200 240 280 350
#
# _framework density 19.149588000000001
#
# number of rings (size 3 to 8) (size 9 to 14) (size 15 to 20)
#    0.000    1.333    3.333    3.000    1.167    4.000 
#    1.500    0.833    0.000    0.000    0.000    0.000 
#    0.000    0.000    0.000    0.000    0.000    0.000 
#
# Total GULP energy -133800.923955 kJ/mol
# GULP energy per Si atom -5575.038498 kJ/mol
# Density = 1.910600 g / cm^3
# Si number density = 19.149588 Si / 1000 Ang^3
#
#
#
# Elastic Constant Matrix: (Units=GPa)
#
#
# Indices 1 2 3 4 5 6 
#
# 1 50.3736 23.1138 29.5501 0.0001 -25.9304 0.0000
# 2 23.1138 80.4977 16.3858 -0.0001 -12.7612 -0.0001
# 3 29.5501 16.3858 163.9771 0.0001 -25.1682 -0.0001
# 4 0.0001 -0.0001 0.0001 29.0645 0.0000 0.6009
# 5 -25.9304 -12.7612 -25.1682 0.0000 33.5367 -0.0001
# 6 0.0000 -0.0001 -0.0001 0.6009 -0.0001 28.3203
#
#
#
# Elastic Compliance Matrix: (Units=1/GPa)
#
#
# Indices 1 2 3 4 5 6 
#
# 1 0.036421 -0.006176 -0.002243 0.000000 0.024127 0.000000
# 2 -0.006176 0.014324 -0.000243 0.000000 0.000493 0.000000
# 3 -0.002243 -0.000243 0.007060 0.000000 0.003471 0.000000
# 4 0.000000 0.000000 0.000000 0.034421 0.000000 -0.000730
# 5 0.024127 0.000493 0.003471 0.000000 0.051266 0.000000
# 6 0.000000 0.000000 0.000000 -0.000730 0.000000 0.035326
#
#
# Mechanical properties :
#
#
# Convention : Reuss Voigt Hill
#
# Bulk Modulus (GPa) = 24.70334 48.10531 36.40432
# Shear Modulus (GPa) = 23.85094 33.23754 28.54424
#
# Velocity S-wave (km/s) = 3.53300 4.17067 3.86501
# Velocity P-wave (km/s) = 5.43792 6.95471 6.24255
#
# Compressibility (1/GPa) = 0.04048036
#
# Stress axis : x y z
#
# Youngs Moduli (GPa) = 27.45649 69.81443 141.64913
#
# Poissons Ratio (x) = 0.43120 0.31773
# Poissons Ratio (y) = 0.16958 0.03437
# Poissons Ratio (z) = 0.06159 0.01694
#
# Static dielectric constant tensor:
#      x y z
#    x 1.634550 0.000000 -0.023270 
#    y 0.000000 1.703350 0.000000 
#    z -0.023270 0.000000 1.750900 
# 
# From -- ./inp_files/369311.got.cif
#   From: 2010.05.17/outbox.cif.g08.bks.cpg/sg12_185_cif.got.tgz:369311.got - 2010.06.03 13:09:07.
