data_PCOD9217276
_publ_section_title
;
Structure prediction by ZEFSAII (Michael W. Deem and Ramdas Pophale) SiO2 
 PCOD9217276
Probable space group: C 2/M
;
_chemical_formula_sum "Si O2"
_cell_formula_units_Z 56
_cell_length_a 18.591435
_cell_length_b 26.920062
_cell_length_c 8.872834
_cell_angle_alpha 90.000000
_cell_angle_beta 37.674142
_cell_angle_gamma 90.000000
_cell_volume 2714.021458
_symmetry_space_group_name_H-M "C 2/M"
_symmetry_group_IT_number 12
_symmetry_cell_setting 'monoclinic'
loop_
_space_group_symop_operation_xyz
x,y,z
-x,y,-z
-x,-y,-z
x,-y,z
1/2+x,1/2+y,z
1/2-x,1/2+y,-z
1/2-x,1/2-y,-z
1/2+x,1/2-y,z
loop_
_atom_site_type_symbol
_atom_site_label
_atom_site_fract_x
_atom_site_fract_y
_atom_site_fract_z
Si Si1 0.308870 0.144412 0.423767
Si Si2 0.503962 0.500000 0.170175
Si Si3 0.079823 0.276284 0.998709
Si Si4 0.135647 0.000000 0.210590
Si Si5 0.085214 0.109970 0.631356
Si Si6 0.488823 0.134836 0.700762
Si Si7 0.225084 0.109191 0.118182
Si Si8 0.350456 0.672734 0.042300
O O1 0.351849 0.183074 0.221737
O O2 0.204958 0.111352 0.527881
O O3 0.411344 0.115405 0.347175
O O4 0.237636 0.172376 0.671521
O O5 0.630549 0.500000 0.037405
O O6 0.451638 0.552538 0.309497
O O7 0.500000 0.500000 0.000000
O O8 0.134589 0.231533 0.002377
O O9 0.013424 0.308652 0.234464
O O10 0.000000 0.251615 0.000000
O O11 0.197053 0.051060 0.150221
O O12 0.000000 0.000000 0.500000
O O13 0.128141 0.128354 0.397068
O O14 0.974859 0.143921 0.863773
O O15 0.500000 0.130389 0.500000
O O16 0.359045 0.114106 0.948953
O O17 0.207612 0.141376 0.996616
#
# Coordination Sequence:
#
# PCOD9217276 Si02
#       8
#     8   4   8   4   8   8   8   8
#     4  11  23  43  67  90 139 180 225 281 340 406
#     4  12  24  40  69 104 142 171 218 275 356 410
#     4  10  23  42  65  95 133 183 225 280 348 400
#     4  12  22  46  70 100 141 176 210 277 363 402
#     4  12  24  42  68 104 136 173 224 288 348 406
#     4  11  24  46  65  91 131 186 230 275 329 404
#     4  12  24  44  70  98 135 179 227 278 341 413
#     4  12  23  39  67 101 132 171 227 282 342 408
#
# _framework density 20.633589000000001
#
# number of rings (size 3 to 8) (size 9 to 14) (size 15 to 20)
#    0.000    0.571    5.714    3.000    0.000    2.857 
#    0.000    1.071    0.000    1.714    0.000    0.000 
#    0.000    0.000    0.000    0.000    0.000    0.000 
#
# Total GULP energy -155868.372285 kJ/mol
# GULP energy per Si atom -5566.727582 kJ/mol
# Density = 2.058663 g / cm^3
# Si number density = 20.633589 Si / 1000 Ang^3
#
#
#
# Elastic Constant Matrix: (Units=GPa)
#
#
# Indices 1 2 3 4 5 6 
#
# 1 113.0026 36.6208 29.0616 0.0000 -22.6830 0.0000
# 2 36.6208 59.7353 19.8717 0.0000 -7.7694 0.0000
# 3 29.0616 19.8717 96.9289 0.0000 -2.4311 0.0000
# 4 0.0000 0.0000 0.0000 7.5496 0.0000 6.4982
# 5 -22.6830 -7.7694 -2.4311 0.0000 39.6820 0.0000
# 6 0.0000 0.0000 0.0000 6.4982 0.0000 20.8390
#
#
#
# Elastic Compliance Matrix: (Units=1/GPa)
#
#
# Indices 1 2 3 4 5 6 
#
# 1 0.012647 -0.006200 -0.002374 0.000000 0.005870 0.000000
# 2 -0.006200 0.021447 -0.002525 0.000000 0.000500 0.000000
# 3 -0.002374 -0.002525 0.011517 0.000000 -0.001146 0.000000
# 4 0.000000 0.000000 0.000000 0.181052 0.000000 -0.056457
# 5 0.005870 0.000500 -0.001146 0.000000 0.028584 0.000000
# 6 0.000000 0.000000 0.000000 -0.056457 0.000000 0.065592
#
#
# Mechanical properties :
#
#
# Convention : Reuss Voigt Hill
#
# Bulk Modulus (GPa) = 42.71115 48.97499 45.84307
# Shear Modulus (GPa) = 14.25141 25.88831 20.06986
#
# Velocity S-wave (km/s) = 2.63095 3.54597 3.12216
# Velocity P-wave (km/s) = 5.47485 6.36807 5.93828
#
# Compressibility (1/GPa) = 0.02341309
#
# Stress axis : x y z
#
# Youngs Moduli (GPa) = 79.06710 46.62697 86.82444
#
# Poissons Ratio (x) = 0.28911 0.20609
# Poissons Ratio (y) = 0.49025 0.21926
# Poissons Ratio (z) = 0.18767 0.11775
#
# Static dielectric constant tensor:
#      x y z
#    x 1.836290 0.000000 0.001460 
#    y 0.000000 1.694500 0.000000 
#    z 0.001460 0.000000 1.797610 
# 
# From -- ./inp_files/80042.got.cif
#   From: 2010.05.17/outbox.cif.g08.bks.cpg/sg12_41_cif.got.tgz:80042.got - 2010.06.03 13:09:07.
