data_PCOD9217324
_publ_section_title
;
Structure prediction by ZEFSAII (Michael W. Deem and Ramdas Pophale) SiO2 
 PCOD9217324
Probable space group: C 2/M
;
_chemical_formula_sum "Si O2"
_cell_formula_units_Z 56
_cell_length_a 8.724829
_cell_length_b 29.063288
_cell_length_c 13.477145
_cell_angle_alpha 90.000000
_cell_angle_beta 56.339746
_cell_angle_gamma 90.000000
_cell_volume 2844.459268
_symmetry_space_group_name_H-M "C 2/M"
_symmetry_group_IT_number 12
_symmetry_cell_setting 'monoclinic'
loop_
_space_group_symop_operation_xyz
x,y,z
-x,y,-z
-x,-y,-z
x,-y,z
1/2+x,1/2+y,z
1/2-x,1/2+y,-z
1/2-x,1/2-y,-z
1/2+x,1/2-y,z
loop_
_atom_site_type_symbol
_atom_site_label
_atom_site_fract_x
_atom_site_fract_y
_atom_site_fract_z
Si Si1 0.625068 0.204475 0.051827
Si Si2 0.667041 0.315875 0.693615
Si Si3 0.283442 0.448407 0.614509
Si Si4 0.582331 0.373586 0.072810
Si Si5 0.796774 0.553613 0.119997
Si Si6 0.519561 0.778362 0.681680
Si Si7 0.199727 0.854810 0.480518
O O1 0.514196 0.207497 0.192792
O O2 0.500000 0.203408 0.000000
O O3 0.750000 0.250000 0.000000
O O4 0.746101 0.159062 0.012536
O O5 0.558747 0.339185 0.822229
O O6 0.553487 0.275983 0.677621
O O7 0.694992 0.354731 0.601003
O O8 0.848551 0.292003 0.673214
O O9 0.500000 0.448829 0.500000
O O10 0.213957 0.500000 0.613380
O O11 0.238320 0.442199 0.748336
O O12 0.207977 0.402090 0.590615
O O13 0.650933 0.413519 0.119620
O O14 0.500000 0.391669 0.000000
O O15 0.766349 0.500000 0.107085
O O16 0.000000 0.564934 0.000000
O O17 0.689366 0.808768 0.585072
O O18 0.000000 0.852086 0.500000
#
# Coordination Sequence:
#
# PCOD9217324 Si02
#       7
#     8   8   8   8   8   8   8
#     4  12  24  39  62  91 124 167 212 263 315 380
#     4  12  25  42  61  89 129 168 218 265 317 382
#     4   9  19  39  66  96 125 160 211 264 318 382
#     4  12  24  40  62  94 128 168 212 259 327 383
#     4  10  23  42  67  98 131 169 216 270 326 390
#     4  12  25  42  62  88 130 171 211 265 316 380
#     4  11  24  40  65  94 122 167 214 262 323 379
#
# _framework density 19.687398999999999
#
# number of rings (size 3 to 8) (size 9 to 14) (size 15 to 20)
#    0.000    0.857    2.857    5.143    6.000    0.286 
#    0.000    0.000    0.000    2.571    0.000    0.000 
#    0.000    0.000    0.000    0.000    0.000    0.000 
#
# Total GULP energy -156335.127924 kJ/mol
# GULP energy per Si atom -5583.397426 kJ/mol
# Density = 1.964259 g / cm^3
# Si number density = 19.687399 Si / 1000 Ang^3
#
#
#
# Elastic Constant Matrix: (Units=GPa)
#
#
# Indices 1 2 3 4 5 6 
#
# 1 83.8342 26.6828 14.0221 0.0000 9.9823 0.0000
# 2 26.6828 88.7920 19.0899 0.0000 11.1556 0.0000
# 3 14.0221 19.0899 106.0502 0.0000 2.7406 0.0000
# 4 0.0000 0.0000 0.0000 35.9265 0.0000 6.6339
# 5 9.9823 11.1556 2.7406 0.0000 25.1929 0.0000
# 6 0.0000 0.0000 0.0000 6.6339 0.0000 11.6925
#
#
#
# Elastic Compliance Matrix: (Units=1/GPa)
#
#
# Indices 1 2 3 4 5 6 
#
# 1 0.013641 -0.003388 -0.001096 0.000000 -0.003785 0.000000
# 2 -0.003388 0.013213 -0.001819 0.000000 -0.004311 0.000000
# 3 -0.001096 -0.001819 0.009898 0.000000 0.000163 0.000000
# 4 0.000000 0.000000 0.000000 0.031092 0.000000 -0.017641
# 5 -0.003785 -0.004311 0.000163 0.000000 0.043085 0.000000
# 6 0.000000 0.000000 0.000000 -0.017641 0.000000 0.095533
#
#
# Mechanical properties :
#
#
# Convention : Reuss Voigt Hill
#
# Bulk Modulus (GPa) = 41.41566 44.25179 42.83372
# Shear Modulus (GPa) = 22.01522 29.15449 25.58486
#
# Velocity S-wave (km/s) = 3.34764 3.85238 3.60884
# Velocity P-wave (km/s) = 6.00204 6.50491 6.25853
#
# Compressibility (1/GPa) = 0.02414546
#
# Stress axis : x y z
#
# Youngs Moduli (GPa) = 73.31020 75.68282 101.03419
#
# Poissons Ratio (x) = 0.25641 0.11072
# Poissons Ratio (y) = 0.24837 0.18379
# Poissons Ratio (z) = 0.08034 0.13768
#
# Static dielectric constant tensor:
#      x y z
#    x 1.681090 0.000000 -0.026410 
#    y 0.000000 1.692210 0.000000 
#    z -0.026410 0.000000 1.739680 
# 
# From -- ./inp_files/125618.got.cif
#   From: 2010.05.17/outbox.cif.g08.bks.cpg/sg12_63_cif.got.tgz:125618.got - 2010.06.03 13:09:07.
