data_PCOD9217377
_publ_section_title
;
Structure prediction by ZEFSAII (Michael W. Deem and Ramdas Pophale) SiO2 
 PCOD9217377
Probable space group: C 2/M
;
_chemical_formula_sum "Si O2"
_cell_formula_units_Z 40
_cell_length_a 20.589374
_cell_length_b 16.156590
_cell_length_c 11.886098
_cell_angle_alpha 90.000000
_cell_angle_beta 154.692270
_cell_angle_gamma 90.000000
_cell_volume 1690.237700
_symmetry_space_group_name_H-M "C 2/M"
_symmetry_group_IT_number 12
_symmetry_cell_setting 'monoclinic'
loop_
_space_group_symop_operation_xyz
x,y,z
-x,y,-z
-x,-y,-z
x,-y,z
1/2+x,1/2+y,z
1/2-x,1/2+y,-z
1/2-x,1/2-y,-z
1/2+x,1/2-y,z
loop_
_atom_site_type_symbol
_atom_site_label
_atom_site_fract_x
_atom_site_fract_y
_atom_site_fract_z
Si Si1 0.056456 0.096818 0.473951
Si Si2 0.617052 0.406743 0.022066
Si Si3 0.106710 0.405923 0.004684
Si Si4 0.581283 0.249705 0.282993
Si Si5 0.041831 0.655375 0.435366
O O1 0.000000 0.137869 0.500000
O O2 0.926138 0.095131 0.177292
O O3 0.090635 0.000000 0.554065
O O4 0.224708 0.121309 0.697822
O O5 0.580132 0.500000 0.004819
O O6 0.513683 0.330278 0.901483
O O7 0.793988 0.388443 0.316726
O O8 0.074276 0.500000 0.987012
O O9 0.991585 0.337288 0.868322
O O10 0.082751 0.396497 0.831130
O O11 0.750000 0.250000 0.500000
O O12 0.560096 0.237360 0.386140
O O13 0.000000 0.665862 0.500000
#
# Coordination Sequence:
#
# PCOD9217377 Si02
#       5
#     8   8   8   8   8
#     4   9  18  35  61  94 135 173 211 268 340 406
#     4  11  24  42  67 100 136 178 228 286 344 401
#     4   9  20  39  65  98 136 181 225 275 344 410
#     4  10  26  45  65  95 140 179 226 281 341 404
#     4  10  23  42  72 101 137 175 230 287 347 400
#
# _framework density 23.665309000000001
#
# number of rings (size 3 to 8) (size 9 to 14) (size 15 to 20)
#    1.200    1.000    0.000    1.800    2.800    6.400 
#    0.000    1.000    0.000    3.600    0.000    0.000 
#    0.000    0.000    0.000    0.000    0.000    0.000 
#
# Total GULP energy -111544.223394 kJ/mol
# GULP energy per Si atom -5577.211170 kJ/mol
# Density = 2.361145 g / cm^3
# Si number density = 23.665309 Si / 1000 Ang^3
#
#
#
# Elastic Constant Matrix: (Units=GPa)
#
#
# Indices 1 2 3 4 5 6 
#
# 1 112.2538 10.6277 -15.1890 0.0000 -12.6166 0.0000
# 2 10.6277 178.7215 22.0104 0.0000 9.1375 0.0000
# 3 -15.1890 22.0104 61.8921 0.0000 -7.4364 0.0000
# 4 0.0000 0.0000 0.0000 61.9640 0.0000 -55.0014
# 5 -12.6166 9.1375 -7.4364 0.0000 37.8120 0.0000
# 6 0.0000 0.0000 0.0000 -55.0014 0.0000 145.7495
#
#
#
# Elastic Compliance Matrix: (Units=1/GPa)
#
#
# Indices 1 2 3 4 5 6 
#
# 1 0.009967 -0.001231 0.003399 0.000000 0.004292 0.000000
# 2 -0.001231 0.006135 -0.002777 0.000000 -0.002439 0.000000
# 3 0.003399 -0.002777 0.018636 0.000000 0.005471 0.000000
# 4 0.000000 0.000000 0.000000 0.024267 0.000000 0.009158
# 5 0.004292 -0.002439 0.005471 0.000000 0.029544 0.000000
# 6 0.000000 0.000000 0.000000 0.009158 0.000000 0.010317
#
#
# Mechanical properties :
#
#
# Convention : Reuss Voigt Hill
#
# Bulk Modulus (GPa) = 29.83113 43.08508 36.45810
# Shear Modulus (GPa) = 44.94083 71.46631 58.20357
#
# Velocity S-wave (km/s) = 4.36250 5.50130 4.96466
# Velocity P-wave (km/s) = 6.16506 7.65493 6.95003
#
# Compressibility (1/GPa) = 0.03352203
#
# Stress axis : x y z
#
# Youngs Moduli (GPa) = 100.32856 162.99364 53.65883
#
# Poissons Ratio (x) = 0.20061 -0.18241
# Poissons Ratio (y) = 0.12348 0.14901
# Poissons Ratio (z) = -0.34106 0.45263
#
# Static dielectric constant tensor:
#      x y z
#    x 2.040830 0.000000 0.051810 
#    y 0.000000 2.014940 0.000000 
#    z 0.051810 0.000000 1.949010 
# 
# From -- ./inp_files/241328.got.cif
#   From: 2010.05.17/outbox.cif.g08.bks.cpg/sg12_121_cif.got.tgz:241328.got - 2010.06.03 13:09:07.
