data_PCOD9217148
_publ_section_title
;
Structure prediction by ZEFSAII (Michael W. Deem and Ramdas Pophale) SiO2 
 PCOD9217148
Probable space group: C 2/M
;
_chemical_formula_sum "Si O2"
_cell_formula_units_Z 44
_cell_length_a 11.061164
_cell_length_b 19.195589
_cell_length_c 9.919595
_cell_angle_alpha 90.000000
_cell_angle_beta 108.269957
_cell_angle_gamma 90.000000
_cell_volume 2000.010808
_symmetry_space_group_name_H-M "C 2/M"
_symmetry_group_IT_number 12
_symmetry_cell_setting 'monoclinic'
loop_
_space_group_symop_operation_xyz
x,y,z
-x,y,-z
-x,-y,-z
x,-y,z
1/2+x,1/2+y,z
1/2-x,1/2+y,-z
1/2-x,1/2-y,-z
1/2+x,1/2-y,z
loop_
_atom_site_type_symbol
_atom_site_label
_atom_site_fract_x
_atom_site_fract_y
_atom_site_fract_z
Si Si1 0.467609 0.000000 0.331746
Si Si2 0.744575 0.644845 0.892604
Si Si3 0.802258 0.364146 0.212669
Si Si4 0.373242 0.000000 0.863176
Si Si5 0.028162 0.079890 0.211897
Si Si6 0.500000 0.615063 0.500000
Si Si7 0.204125 0.768825 0.633726
O O1 0.500000 0.000000 0.500000
O O2 0.387169 0.067806 0.263155
O O3 0.591065 0.000000 0.281021
O O4 0.796112 0.569200 0.868590
O O5 0.592747 0.630047 0.859244
O O6 0.782781 0.700257 0.789736
O O7 0.802552 0.661036 0.058605
O O8 0.658255 0.386280 0.203012
O O9 0.850906 0.302424 0.325224
O O10 0.500000 0.000000 0.000000
O O11 0.036256 0.075782 0.377256
O O12 0.011435 0.000000 0.156731
O O13 0.387470 0.666669 0.421560
O O14 0.250000 0.750000 0.500000
#
# Coordination Sequence:
#
# PCOD9217148 Si02
#       7
#     4   8   8   4   8   4   8
#     4  12  30  43  71 103 139 187 228 290 347 414
#     4  11  25  45  73 101 136 183 225 288 342 409
#     4  12  24  46  69 103 140 175 236 281 347 412
#     4  12  24  49  69 103 137 177 232 277 345 418
#     4  11  22  40  73 102 134 170 228 286 346 395
#     4  10  23  42  62 101 134 182 224 280 336 405
#     4  11  25  44  67  98 138 183 226 280 340 402
#
# _framework density 21.999881999999999
#
# number of rings (size 3 to 8) (size 9 to 14) (size 15 to 20)
#    0.000    0.727    5.455    1.364    3.818    0.727 
#    0.000    0.000    0.000    0.000    0.000    0.000 
#    0.000    0.000    0.000    0.000    0.000    0.000 
#
# Total GULP energy -122894.528538 kJ/mol
# GULP energy per Si atom -5586.114934 kJ/mol
# Density = 2.194981 g / cm^3
# Si number density = 21.999882 Si / 1000 Ang^3
#
#
#
# Elastic Constant Matrix: (Units=GPa)
#
#
# Indices 1 2 3 4 5 6 
#
# 1 47.7822 -8.8503 10.0352 0.0000 -15.1234 0.0000
# 2 -8.8503 101.1176 26.9634 0.0000 -12.7171 0.0000
# 3 10.0352 26.9634 183.5111 0.0000 -30.2870 0.0000
# 4 0.0000 0.0000 0.0000 33.3377 0.0000 9.4307
# 5 -15.1234 -12.7171 -30.2870 0.0000 33.7167 0.0000
# 6 0.0000 0.0000 0.0000 9.4307 0.0000 36.0375
#
#
#
# Elastic Compliance Matrix: (Units=1/GPa)
#
#
# Indices 1 2 3 4 5 6 
#
# 1 0.025780 0.003863 0.000201 0.000000 0.013201 0.000000
# 2 0.003863 0.011130 -0.001019 0.000000 0.005015 0.000000
# 3 0.000201 -0.001019 0.006504 0.000000 0.005548 0.000000
# 4 0.000000 0.000000 0.000000 0.032394 0.000000 -0.008477
# 5 0.013201 0.005015 0.005548 0.000000 0.042456 0.000000
# 6 0.000000 0.000000 0.000000 -0.008477 0.000000 0.029967
#
#
# Mechanical properties :
#
#
# Convention : Reuss Voigt Hill
#
# Bulk Modulus (GPa) = 20.20020 43.18973 31.69497
# Shear Modulus (GPa) = 31.51770 40.90256 36.21013
#
# Velocity S-wave (km/s) = 3.78912 4.31654 4.06140
# Velocity P-wave (km/s) = 5.32401 6.67217 6.03585
#
# Compressibility (1/GPa) = 0.04950447
#
# Stress axis : x y z
#
# Youngs Moduli (GPa) = 38.79006 89.84716 153.76056
#
# Poissons Ratio (x) = -0.34707 -0.03097
# Poissons Ratio (y) = -0.14984 0.15666
# Poissons Ratio (z) = -0.00781 0.09154
#
# Static dielectric constant tensor:
#      x y z
#    x 1.738270 0.000000 -0.030020 
#    y 0.000000 1.796830 0.000000 
#    z -0.030020 0.000000 1.878150 
# 
# From -- ./inp_files/49424.got.cif
#   From: 2010.05.17/outbox.cif.g08.bks.cpg/sg12_25_cif.got.tgz:49424.got - 2010.06.03 13:09:07.
