data_PCOD9217560
_publ_section_title
;
Structure prediction by ZEFSAII (Michael W. Deem and Ramdas Pophale) SiO2 
 PCOD9217560
Probable space group: C 2/M
;
_chemical_formula_sum "Si O2"
_cell_formula_units_Z 56
_cell_length_a 11.769648
_cell_length_b 16.055709
_cell_length_c 14.001536
_cell_angle_alpha 90.000000
_cell_angle_beta 94.008297
_cell_angle_gamma 90.000000
_cell_volume 2639.398901
_symmetry_space_group_name_H-M "C 2/M"
_symmetry_group_IT_number 12
_symmetry_cell_setting 'monoclinic'
loop_
_space_group_symop_operation_xyz
x,y,z
-x,y,-z
-x,-y,-z
x,-y,z
1/2+x,1/2+y,z
1/2-x,1/2+y,-z
1/2-x,1/2-y,-z
1/2+x,1/2-y,z
loop_
_atom_site_type_symbol
_atom_site_label
_atom_site_fract_x
_atom_site_fract_y
_atom_site_fract_z
Si Si1 0.761652 0.258067 0.388464
Si Si2 0.443215 0.904700 0.392369
Si Si3 0.985326 0.651304 0.197826
Si Si4 0.698971 0.096889 0.094254
Si Si5 0.151200 0.092668 0.707833
Si Si6 0.063534 0.824676 0.246409
Si Si7 0.260639 0.401295 0.890699
O O1 0.750000 0.250000 0.500000
O O2 0.848805 0.333693 0.374840
O O3 0.805564 0.169820 0.351917
O O4 0.645163 0.284198 0.330536
O O5 0.500000 0.893479 0.500000
O O6 0.519829 0.890464 0.301885
O O7 0.400211 0.000000 0.386511
O O8 0.082388 0.635912 0.125285
O O9 0.980046 0.750378 0.209489
O O10 0.864453 0.613769 0.161030
O O11 0.787949 0.100768 0.185868
O O12 0.672599 0.000000 0.073644
O O13 0.751102 0.130301 0.999080
O O14 0.016433 0.104046 0.716139
O O15 0.177189 0.000000 0.671241
O O16 0.144459 0.855279 0.166171
O O17 0.285936 0.500000 0.891291
#
# Coordination Sequence:
#
# PCOD9217560 Si02
#       7
#     8   8   8   8   8   8   8
#     4  12  26  46  71  99 139 180 228 284 344 412
#     4  11  24  42  71 105 134 175 228 283 347 408
#     4  12  22  42  68 100 139 175 228 291 342 404
#     4  10  23  43  68  99 135 180 233 287 342 410
#     4  11  25  47  70 101 141 186 230 280 347 414
#     4  12  24  44  67 100 139 182 226 286 342 410
#     4  11  24  44  68  97 134 183 235 284 343 409
#
# _framework density 21.216951000000002
#
# number of rings (size 3 to 8) (size 9 to 14) (size 15 to 20)
#    0.000    0.714    4.286    3.000    0.000    3.429 
#    2.571    2.857    0.000    0.000    0.000    0.000 
#    0.000    0.000    0.000    0.000    0.000    0.000 
#
# Total GULP energy -156591.221416 kJ/mol
# GULP energy per Si atom -5592.543622 kJ/mol
# Density = 2.116866 g / cm^3
# Si number density = 21.216951 Si / 1000 Ang^3
#
#
#
# Elastic Constant Matrix: (Units=GPa)
#
#
# Indices 1 2 3 4 5 6 
#
# 1 56.7299 22.0675 11.7853 0.0000 -6.5752 0.0000
# 2 22.0675 115.1433 36.5025 0.0000 7.4132 0.0000
# 3 11.7853 36.5025 121.3220 0.0000 -20.4233 0.0000
# 4 0.0000 0.0000 0.0000 31.0684 0.0000 -6.4450
# 5 -6.5752 7.4132 -20.4233 0.0000 13.0571 0.0000
# 6 0.0000 0.0000 0.0000 -6.4450 0.0000 30.4248
#
#
#
# Elastic Compliance Matrix: (Units=1/GPa)
#
#
# Indices 1 2 3 4 5 6 
#
# 1 0.021716 -0.006381 0.003070 0.000000 0.019360 0.000000
# 2 -0.006381 0.013633 -0.007229 0.000000 -0.022262 0.000000
# 3 0.003070 -0.007229 0.015027 0.000000 0.029156 0.000000
# 4 0.000000 0.000000 0.000000 0.033666 0.000000 0.007132
# 5 0.019360 -0.022262 0.029156 0.000000 0.144578 0.000000
# 6 0.000000 0.000000 0.000000 0.007132 0.000000 0.034379
#
#
# Mechanical properties :
#
#
# Convention : Reuss Voigt Hill
#
# Bulk Modulus (GPa) = 34.13693 48.21174 41.17434
# Shear Modulus (GPa) = 17.01566 29.76606 23.39086
#
# Velocity S-wave (km/s) = 2.83500 3.74964 3.32393
# Velocity P-wave (km/s) = 5.18080 6.44352 5.84635
#
# Compressibility (1/GPa) = 0.02929379
#
# Stress axis : x y z
#
# Youngs Moduli (GPa) = 46.04918 73.35168 66.54467
#
# Poissons Ratio (x) = 0.46809 -0.20426
# Poissons Ratio (y) = 0.29386 0.48108
# Poissons Ratio (z) = -0.14135 0.53029
#
# Static dielectric constant tensor:
#      x y z
#    x 1.761480 0.000000 -0.025210 
#    y 0.000000 1.758650 0.000000 
#    z -0.025210 0.000000 1.789800 
# 
# From -- ./inp_files/205015.got.cif
#   From: 2010.05.17/outbox.cif.g08.bks.cpg/sg12_103_cif.got.tgz:205015.got - 2010.06.03 13:09:07.
