data_PCOD9217691
_publ_section_title
;
Structure prediction by ZEFSAII (Michael W. Deem and Ramdas Pophale) SiO2 
 PCOD9217691
Probable space group: C 2/M
;
_chemical_formula_sum "Si O2"
_cell_formula_units_Z 44
_cell_length_a 11.838378
_cell_length_b 27.650585
_cell_length_c 5.674689
_cell_angle_alpha 90.000000
_cell_angle_beta 93.550056
_cell_angle_gamma 90.000000
_cell_volume 1853.977317
_symmetry_space_group_name_H-M "C 2/M"
_symmetry_group_IT_number 12
_symmetry_cell_setting 'monoclinic'
loop_
_space_group_symop_operation_xyz
x,y,z
-x,y,-z
-x,-y,-z
x,-y,z
1/2+x,1/2+y,z
1/2-x,1/2+y,-z
1/2-x,1/2-y,-z
1/2+x,1/2-y,z
loop_
_atom_site_type_symbol
_atom_site_label
_atom_site_fract_x
_atom_site_fract_y
_atom_site_fract_z
Si Si1 0.667499 0.136559 0.548461
Si Si2 0.682264 0.760414 0.740858
Si Si3 0.595359 0.945491 0.214524
Si Si4 0.500000 0.411357 0.000000
Si Si5 0.225291 0.947800 0.138648
Si Si6 0.898156 0.161876 0.317053
O O1 0.635650 0.185074 0.692570
O O2 0.590928 0.103913 0.364623
O O3 0.714997 0.096171 0.727872
O O4 0.776175 0.153540 0.411455
O O5 0.750000 0.750000 0.500000
O O6 0.588922 0.718326 0.739323
O O7 0.750000 0.750000 0.000000
O O8 0.579081 0.000000 0.313825
O O9 0.500000 0.941641 0.000000
O O10 0.721130 0.946787 0.115961
O O11 0.590228 0.443667 0.147640
O O12 0.413081 0.374032 0.105582
O O13 0.260467 0.000000 0.241755
O O14 0.000000 0.147693 0.500000
#
# Coordination Sequence:
#
# PCOD9217691 Si02
#       6
#     8   8   8   4   8   8
#     4  11  22  43  68  98 138 186 242 299 370 434
#     4  10  24  43  68  96 135 185 240 295 352 429
#     4  10  23  44  68  98 140 190 247 309 369 431
#     4  12  21  40  68 100 146 182 235 276 376 434
#     4  11  23  39  66 102 141 184 237 294 360 442
#     4  11  23  41  66 100 137 189 226 294 360 442
#
# _framework density 23.732759999999999
#
# number of rings (size 3 to 8) (size 9 to 14) (size 15 to 20)
#    0.000    1.273    3.636    1.909    5.091    0.727 
#    3.273    3.636    0.000    0.000    0.000    0.000 
#    0.000    0.000    0.000    0.000    0.000    0.000 
#
# Total GULP energy -122550.048990 kJ/mol
# GULP energy per Si atom -5570.456772 kJ/mol
# Density = 2.367874 g / cm^3
# Si number density = 23.732760 Si / 1000 Ang^3
#
#
#
# Elastic Constant Matrix: (Units=GPa)
#
#
# Indices 1 2 3 4 5 6 
#
# 1 66.2705 20.8051 10.8959 0.0000 -8.3094 0.0000
# 2 20.8051 244.4209 53.2856 0.0000 5.5635 0.0000
# 3 10.8959 53.2856 85.1116 0.0000 8.9243 0.0000
# 4 0.0000 0.0000 0.0000 47.1384 0.0000 9.0947
# 5 -8.3094 5.5635 8.9243 0.0000 35.4876 0.0000
# 6 0.0000 0.0000 0.0000 9.0947 0.0000 27.1228
#
#
#
# Elastic Compliance Matrix: (Units=1/GPa)
#
#
# Indices 1 2 3 4 5 6 
#
# 1 0.016296 -0.001079 -0.001878 0.000000 0.004457 0.000000
# 2 -0.001079 0.004809 -0.002842 0.000000 -0.000292 0.000000
# 3 -0.001878 -0.002842 0.014141 0.000000 -0.003550 0.000000
# 4 0.000000 0.000000 0.000000 0.022681 0.000000 -0.007605
# 5 0.004457 -0.000292 -0.003550 0.000000 0.030161 0.000000
# 6 0.000000 0.000000 0.000000 -0.007605 0.000000 0.039420
#
#
# Mechanical properties :
#
#
# Convention : Reuss Voigt Hill
#
# Bulk Modulus (GPa) = 42.28650 62.86402 52.57526
# Shear Modulus (GPa) = 34.01578 42.67085 38.34332
#
# Velocity S-wave (km/s) = 3.78998 4.24485 4.02385
# Velocity P-wave (km/s) = 6.08345 7.11132 6.61737
#
# Compressibility (1/GPa) = 0.02364821
#
# Stress axis : x y z
#
# Youngs Moduli (GPa) = 61.36441 207.92425 70.71428
#
# Poissons Ratio (x) = 0.22439 0.13280
# Poissons Ratio (y) = 0.06622 0.20099
# Poissons Ratio (z) = 0.11524 0.59098
#
# Static dielectric constant tensor:
#      x y z
#    x 1.928580 0.000000 -0.055100 
#    y 0.000000 1.912370 0.000000 
#    z -0.055100 0.000000 2.064350 
# 
# From -- ./inp_files/8460.got.cif
#   From: 2010.05.17/outbox.cif.g08.bks.cpg/sg12_5_cif.got.tgz:8460.got - 2010.06.03 13:09:07.
