data_PCOD9217445
_publ_section_title
;
Structure prediction by ZEFSAII (Michael W. Deem and Ramdas Pophale) SiO2 
 PCOD9217445
Probable space group: C 2/M
;
_chemical_formula_sum "Si O2"
_cell_formula_units_Z 52
_cell_length_a 31.215432
_cell_length_b 9.744011
_cell_length_c 21.541249
_cell_angle_alpha 90.000000
_cell_angle_beta 24.631784
_cell_angle_gamma 90.000000
_cell_volume 2730.801891
_symmetry_space_group_name_H-M "C 2/M"
_symmetry_group_IT_number 12
_symmetry_cell_setting 'monoclinic'
loop_
_space_group_symop_operation_xyz
x,y,z
-x,y,-z
-x,-y,-z
x,-y,z
1/2+x,1/2+y,z
1/2-x,1/2+y,-z
1/2-x,1/2-y,-z
1/2+x,1/2-y,z
loop_
_atom_site_type_symbol
_atom_site_label
_atom_site_fract_x
_atom_site_fract_y
_atom_site_fract_z
Si Si1 0.186835 0.265461 0.003675
Si Si2 0.528182 0.839490 0.650203
Si Si3 0.286264 0.500000 0.946288
Si Si4 0.952433 0.842341 0.497107
Si Si5 0.877737 0.844307 0.156098
Si Si6 0.291921 0.841911 0.161484
Si Si7 0.729375 0.837388 0.465733
O O1 0.208150 0.120958 0.007558
O O2 0.078238 0.320189 0.173348
O O3 0.270244 0.378443 0.914554
O O4 0.183284 0.263283 0.934502
O O5 0.522978 0.750236 0.594635
O O6 0.624538 0.798991 0.566911
O O7 0.541027 0.000000 0.617415
O O8 0.830161 0.842401 0.666880
O O9 0.000000 0.796448 0.500000
O O10 0.987114 0.000000 0.439253
O O11 0.841571 0.734989 0.153799
O O12 0.821992 0.817752 0.294954
O O13 0.846609 0.000000 0.178496
O O14 0.000000 0.840417 0.000000
O O15 0.326797 0.000000 0.110219
O O16 0.750000 0.750000 0.500000
O O17 0.722484 0.000000 0.489742
#
# Coordination Sequence:
#
# PCOD9217445 Si02
#       7
#     8   8   4   8   8   8   8
#     4  11  24  41  64  94 125 169 214 259 308 368
#     4  11  23  42  63  93 127 163 205 261 313 371
#     4  10  24  42  62  90 132 168 212 262 306 362
#     4  10  24  39  61  89 127 168 208 251 309 369
#     4  10  23  44  66  90 124 161 209 260 315 382
#     4  11  23  41  62  94 128 165 210 261 309 376
#     4  10  23  43  65  92 126 159 202 261 314 378
#
# _framework density 19.042026
#
# number of rings (size 3 to 8) (size 9 to 14) (size 15 to 20)
#    0.000    1.538    3.077    0.000    8.615    1.846 
#    0.000    0.000    0.000    0.000    0.000    0.000 
#    0.000    0.000    0.000    0.000    0.000    0.000 
#
# Total GULP energy -144777.259191 kJ/mol
# GULP energy per Si atom -5568.356123 kJ/mol
# Density = 1.899869 g / cm^3
# Si number density = 19.042026 Si / 1000 Ang^3
#
#
#
# Elastic Constant Matrix: (Units=GPa)
#
#
# Indices 1 2 3 4 5 6 
#
# 1 115.6194 57.5912 22.2211 0.0001 14.2172 0.0000
# 2 57.5912 79.0186 1.1972 0.0014 0.6273 -0.0001
# 3 22.2211 1.1972 48.5200 0.0016 4.8612 0.0000
# 4 0.0001 0.0014 0.0016 4.6616 -0.0002 1.9328
# 5 14.2172 0.6273 4.8612 -0.0002 27.3719 0.0000
# 6 0.0000 -0.0001 0.0000 1.9328 0.0000 22.3293
#
#
#
# Elastic Compliance Matrix: (Units=1/GPa)
#
#
# Indices 1 2 3 4 5 6 
#
# 1 0.016886 -0.012147 -0.006702 0.000006 -0.007302 -0.000001
# 2 -0.012147 0.021400 0.004533 -0.000008 0.005014 0.000001
# 3 -0.006702 0.004533 0.023650 -0.000010 -0.000823 0.000001
# 4 0.000006 -0.000008 -0.000010 0.222505 0.000001 -0.019260
# 5 -0.007302 0.005014 -0.000823 0.000001 0.040358 0.000000
# 6 -0.000001 0.000001 0.000001 -0.019260 0.000000 0.046451
#
#
# Mechanical properties :
#
#
# Convention : Reuss Voigt Hill
#
# Bulk Modulus (GPa) = 30.02742 45.01967 37.52355
# Shear Modulus (GPa) = 12.16592 21.68247 16.92419
#
# Velocity S-wave (km/s) = 2.53039 3.37807 2.98448
# Velocity P-wave (km/s) = 4.93360 6.23769 5.62357
#
# Compressibility (1/GPa) = 0.03330289
#
# Stress axis : x y z
#
# Youngs Moduli (GPa) = 59.22156 46.72864 42.28328
#
# Poissons Ratio (x) = 0.56763 0.28338
# Poissons Ratio (y) = 0.71939 -0.19166
# Poissons Ratio (z) = 0.39690 -0.21181
#
# Static dielectric constant tensor:
#      x y z
#    x 1.632050 0.000000 -0.028070 
#    y 0.000000 1.648480 0.000000 
#    z -0.028070 0.000000 1.681710 
# 
# From -- ./inp_files/329260.got.cif
#   From: 2010.05.17/outbox.cif.g08.bks.cpg/sg12_165_cif.got.tgz:329260.got - 2010.06.03 13:09:07.
