data_PCOD9217779
_publ_section_title
;
Structure prediction by ZEFSAII (Michael W. Deem and Ramdas Pophale) SiO2 
 PCOD9217779
Probable space group: C 2/M
;
_chemical_formula_sum "Si O2"
_cell_formula_units_Z 58
_cell_length_a 27.731531
_cell_length_b 8.167334
_cell_length_c 24.490527
_cell_angle_alpha 90.000000
_cell_angle_beta 148.440605
_cell_angle_gamma 90.000000
_cell_volume 2903.161604
_symmetry_space_group_name_H-M "C 2/M"
_symmetry_group_IT_number 12
_symmetry_cell_setting 'monoclinic'
loop_
_space_group_symop_operation_xyz
x,y,z
-x,y,-z
-x,-y,-z
x,-y,z
1/2+x,1/2+y,z
1/2-x,1/2+y,-z
1/2-x,1/2-y,-z
1/2+x,1/2-y,z
loop_
_atom_site_type_symbol
_atom_site_label
_atom_site_fract_x
_atom_site_fract_y
_atom_site_fract_z
Si Si1 0.789450 0.307757 0.595660
Si Si2 0.560862 0.691310 0.742495
Si Si3 0.918500 0.800768 0.000437
Si Si4 0.801437 0.311238 0.215987
Si Si5 0.500000 0.000000 0.000000
Si Si6 0.107008 0.823408 0.589509
Si Si7 0.382408 0.180725 0.512384
Si Si8 0.499030 0.304068 0.800214
O O1 0.778876 0.500000 0.590487
O O2 0.750000 0.250000 0.500000
O O3 0.721290 0.224672 0.572409
O O4 0.895545 0.262357 0.702597
O O5 0.583862 0.500000 0.767411
O O6 0.639113 0.772435 0.780584
O O7 0.461722 0.709558 0.616432
O O8 0.548760 0.756604 0.792695
O O9 0.807636 0.787205 0.894265
O O10 0.959432 0.652490 0.002128
O O11 0.939111 0.000000 0.006933
O O12 0.953245 0.772246 0.095900
O O13 0.819042 0.500000 0.246847
O O14 0.838791 0.208270 0.302924
O O15 0.114958 0.692164 0.549947
O O16 0.000000 0.830164 0.500000
O O17 0.136109 0.000000 0.594050
O O18 0.404201 0.000000 0.553772
O O19 0.492608 0.500000 0.787624
#
# Coordination Sequence:
#
# PCOD9217779 Si02
#       8
#     8   8   8   8   2   8   8   8
#     4  12  24  39  63  94 133 176 227 280 335 406
#     4  11  22  38  67  99 137 179 222 273 339 408
#     4  10  26  50  75 106 141 178 232 290 345 408
#     4  11  24  43  68  99 137 179 222 284 343 406
#     4  12  26  48  84 102 134 188 234 286 352 408
#     4  11  23  39  63  92 130 174 225 279 332 403
#     4  12  24  39  61  92 130 178 223 272 342 406
#     4  10  23  45  69  97 138 180 223 287 344 403
#
# _framework density 19.97822
#
# number of rings (size 3 to 8) (size 9 to 14) (size 15 to 20)
#    0.000    0.966    2.759    3.931    2.897    2.759 
#    0.000    1.379    0.000    0.000    0.000    0.000 
#    0.000    0.000    0.000    0.000    0.000    0.000 
#
# Total GULP energy -161575.882581 kJ/mol
# GULP energy per Si atom -5571.582158 kJ/mol
# Density = 1.993275 g / cm^3
# Si number density = 19.978220 Si / 1000 Ang^3
#
#
#
# Elastic Constant Matrix: (Units=GPa)
#
#
# Indices 1 2 3 4 5 6 
#
# 1 116.8770 37.5307 20.0473 0.0000 -2.1178 0.0000
# 2 37.5307 74.0389 52.4217 0.0000 -17.3875 0.0000
# 3 20.0473 52.4217 6.5717 0.0002 30.7899 0.0000
# 4 0.0000 0.0000 0.0002 -305.2080 -0.0001 1.9364
# 5 -2.1178 -17.3875 30.7899 -0.0001 -6.4097 0.0000
# 6 0.0000 0.0000 0.0000 1.9364 0.0000 34.0287
#
#
#
# Elastic Compliance Matrix: (Units=1/GPa)
#
#
# Indices 1 2 3 4 5 6 
#
# 1 0.010089 -0.003973 -0.001445 0.000000 0.000504 0.000000
# 2 -0.003973 0.010264 0.002321 0.000000 -0.015384 0.000000
# 3 -0.001445 0.002321 0.007033 0.000000 0.027967 0.000000
# 4 0.000000 0.000000 0.000000 -0.003275 0.000000 0.000186
# 5 0.000504 -0.015384 0.027967 0.000000 0.019896 0.000000
# 6 0.000000 0.000000 0.000000 0.000186 0.000000 0.029376
#
#
# Mechanical properties :
#
#
# Convention : Reuss Voigt Hill
#
# Bulk Modulus (GPa) = 47.18746 46.38746 46.78746
# Shear Modulus (GPa) = 57.70940 -49.68528 4.01206
#
# Velocity S-wave (km/s) = 5.38041 -4.99237 1.41865
# Velocity P-wave (km/s) = 7.89108 3.15629 5.11405
#
# Compressibility (1/GPa) = 0.02119207
#
# Stress axis : x y z
#
# Youngs Moduli (GPa) = 99.12125 97.42455 142.18444
#
# Poissons Ratio (x) = 0.38705 0.20542
# Poissons Ratio (y) = 0.39379 -0.32994
# Poissons Ratio (z) = 0.14321 -0.22608
#
# Static dielectric constant tensor:
#      x y z
#    x 1.700200 0.000000 -0.036790 
#    y 0.000000 2.032930 0.000000 
#    z -0.036790 0.000000 1.761810 
# 
# From -- ./inp_files/351475.got.cif
#   From: 2010.05.17/outbox.cif.g08.bks.cpg/sg12_176_cif.got.tgz:351475.got - 2010.06.03 13:09:07.
