data_PCOD9217057
_publ_section_title
;
Structure prediction by ZEFSAII (Michael W. Deem and Ramdas Pophale) SiO2 
 PCOD9217057
Probable space group: C 2/M
;
_chemical_formula_sum "Si O2"
_cell_formula_units_Z 40
_cell_length_a 11.463861
_cell_length_b 16.952476
_cell_length_c 9.471082
_cell_angle_alpha 90.000000
_cell_angle_beta 72.105064
_cell_angle_gamma 90.000000
_cell_volume 1751.571709
_symmetry_space_group_name_H-M "C 2/M"
_symmetry_group_IT_number 12
_symmetry_cell_setting 'monoclinic'
loop_
_space_group_symop_operation_xyz
x,y,z
-x,y,-z
-x,-y,-z
x,-y,z
1/2+x,1/2+y,z
1/2-x,1/2+y,-z
1/2-x,1/2-y,-z
1/2+x,1/2-y,z
loop_
_atom_site_type_symbol
_atom_site_label
_atom_site_fract_x
_atom_site_fract_y
_atom_site_fract_z
Si Si1 0.617814 0.644168 0.359987
Si Si2 0.454044 0.587624 0.176807
Si Si3 0.553342 0.907444 0.132052
Si Si4 0.155722 0.587678 0.555067
Si Si5 0.782700 0.686439 0.731187
O O1 0.500000 0.665057 0.500000
O O2 0.564296 0.599111 0.245204
O O3 0.712538 0.594998 0.418686
O O4 0.690685 0.721569 0.283223
O O5 0.398335 0.500000 0.221152
O O6 0.356319 0.657299 0.233721
O O7 0.500000 0.590667 0.000000
O O8 0.445372 0.899965 0.287258
O O9 0.662556 0.853883 0.149299
O O10 0.589905 0.000000 0.110981
O O11 0.500000 0.884368 0.000000
O O12 0.139628 0.500000 0.501473
O O13 0.150796 0.649424 0.430720
#
# Coordination Sequence:
#
# PCOD9217057 Si02
#       5
#     8   8   8   8   8
#     4  12  26  43  70 102 140 176 229 285 344 400
#     4  11  27  48  71 101 139 183 229 280 341 409
#     4  10  23  41  65  97 133 174 224 281 339 403
#     4  11  23  42  69  97 133 182 233 280 336 407
#     4  12  25  43  71  98 136 178 229 281 340 405
#
# _framework density 22.836631000000001
#
# number of rings (size 3 to 8) (size 9 to 14) (size 15 to 20)
#    0.000    0.800    2.000    4.800    5.600    4.000 
#    0.000    0.000    0.000    0.000    0.000    0.000 
#    0.000    0.000    0.000    0.000    0.000    0.000 
#
# Total GULP energy -112059.189709 kJ/mol
# GULP energy per Si atom -5602.959485 kJ/mol
# Density = 2.278465 g / cm^3
# Si number density = 22.836631 Si / 1000 Ang^3
#
#
#
# Elastic Constant Matrix: (Units=GPa)
#
#
# Indices 1 2 3 4 5 6 
#
# 1 85.1543 17.7756 2.4754 0.0000 21.6046 0.0000
# 2 17.7756 79.0066 13.9022 0.0000 4.5844 0.0000
# 3 2.4754 13.9022 89.8826 0.0000 27.7713 0.0000
# 4 0.0000 0.0000 0.0000 8.5372 0.0000 1.8501
# 5 21.6046 4.5844 27.7713 0.0000 45.5067 0.0000
# 6 0.0000 0.0000 0.0000 1.8501 0.0000 38.0905
#
#
#
# Elastic Compliance Matrix: (Units=1/GPa)
#
#
# Indices 1 2 3 4 5 6 
#
# 1 0.014396 -0.003227 0.002605 0.000000 -0.008100 0.000000
# 2 -0.003227 0.013735 -0.002565 0.000000 0.001714 0.000000
# 3 0.002605 -0.002565 0.014484 0.000000 -0.009818 0.000000
# 4 0.000000 0.000000 0.000000 0.118381 0.000000 -0.005750
# 5 -0.008100 0.001714 -0.009818 0.000000 0.031639 0.000000
# 6 0.000000 0.000000 0.000000 -0.005750 0.000000 0.026533
#
#
# Mechanical properties :
#
#
# Convention : Reuss Voigt Hill
#
# Bulk Modulus (GPa) = 27.59316 35.81666 31.70491
# Shear Modulus (GPa) = 21.04175 33.08622 27.06399
#
# Velocity S-wave (km/s) = 3.03876 3.81047 3.44628
# Velocity P-wave (km/s) = 4.94177 5.92262 5.45429
#
# Compressibility (1/GPa) = 0.03624086
#
# Stress axis : x y z
#
# Youngs Moduli (GPa) = 69.46224 72.80547 69.04180
#
# Poissons Ratio (x) = 0.23498 -0.17987
# Poissons Ratio (y) = 0.22419 0.17710
# Poissons Ratio (z) = -0.18097 0.18675
#
# Static dielectric constant tensor:
#      x y z
#    x 1.843400 0.000000 -0.020130 
#    y 0.000000 1.807450 0.000000 
#    z -0.020130 0.000000 1.818230 
# 
# From -- ./inp_files/46933.got.cif
#   From: 2010.05.17/outbox.cif.g08.bks.cpg/sg12_24_cif.got.tgz:46933.got - 2010.06.03 13:09:07.
