data_PCOD9217486
_publ_section_title
;
Structure prediction by ZEFSAII (Michael W. Deem and Ramdas Pophale) SiO2 
 PCOD9217486
Probable space group: C 2/M
;
_chemical_formula_sum "Si O2"
_cell_formula_units_Z 50
_cell_length_a 23.116406
_cell_length_b 13.468373
_cell_length_c 11.389918
_cell_angle_alpha 90.000000
_cell_angle_beta 138.843136
_cell_angle_gamma 90.000000
_cell_volume 2333.796517
_symmetry_space_group_name_H-M "C 2/M"
_symmetry_group_IT_number 12
_symmetry_cell_setting 'monoclinic'
loop_
_space_group_symop_operation_xyz
x,y,z
-x,y,-z
-x,-y,-z
x,-y,z
1/2+x,1/2+y,z
1/2-x,1/2+y,-z
1/2-x,1/2-y,-z
1/2+x,1/2-y,z
loop_
_atom_site_type_symbol
_atom_site_label
_atom_site_fract_x
_atom_site_fract_y
_atom_site_fract_z
Si Si1 0.613667 0.750291 0.406102
Si Si2 0.757614 0.883379 0.250498
Si Si3 0.444249 0.387635 0.128751
Si Si4 0.500000 0.500000 0.000000
Si Si5 0.093389 0.618856 0.596298
Si Si6 0.770218 0.119760 0.999886
Si Si7 0.895980 0.614150 0.824768
O O1 0.686862 0.676849 0.569523
O O2 0.523340 0.687876 0.269255
O O3 0.607124 0.839185 0.488567
O O4 0.631648 0.801794 0.309499
O O5 0.775694 0.852013 0.144750
O O6 0.656160 0.872502 0.133256
O O7 0.780203 0.000000 0.293980
O O8 0.464900 0.500000 0.211277
O O9 0.353375 0.351447 0.046424
O O10 0.445639 0.414269 0.992495
O O11 0.089761 0.500000 0.588064
O O12 0.000000 0.657305 0.500000
O O13 0.175882 0.647429 0.802936
O O14 0.771602 0.000000 0.999994
O O15 0.876084 0.500000 0.754529
O O16 0.000000 0.621158 0.000000
#
# Coordination Sequence:
#
# PCOD9217486 Si02
#       7
#     8   8   8   2   8   8   8
#     4  12  24  39  65  98 131 169 219 276 323 398
#     4  10  23  43  66  95 132 168 216 275 338 389
#     4   9  21  41  67  99 126 169 211 266 332 386
#     4   8  20  44  64  94 136 172 208 260 328 400
#     4  10  24  43  63  93 131 176 220 270 323 384
#     4   9  20  43  69  94 126 171 214 266 329 396
#     4  10  24  44  64  90 127 180 226 273 323 389
#
# _framework density 21.424319000000001
#
# number of rings (size 3 to 8) (size 9 to 14) (size 15 to 20)
#    0.480    1.600    0.000    1.440    5.600    1.920 
#    2.880    2.400    0.000    0.000    0.000    0.000 
#    0.000    0.000    0.000    0.000    0.000    0.000 
#
# Total GULP energy -139279.701508 kJ/mol
# GULP energy per Si atom -5571.188060 kJ/mol
# Density = 2.137556 g / cm^3
# Si number density = 21.424319 Si / 1000 Ang^3
#
#
#
# Elastic Constant Matrix: (Units=GPa)
#
#
# Indices 1 2 3 4 5 6 
#
# 1 168.0142 49.7935 54.0099 0.0000 9.2490 0.0000
# 2 49.7935 70.5544 24.5144 0.0000 2.3528 0.0000
# 3 54.0099 24.5144 52.3210 0.0000 11.7998 0.0000
# 4 0.0000 0.0000 0.0000 47.3414 0.0000 -7.2113
# 5 9.2490 2.3528 11.7998 0.0000 33.6923 0.0000
# 6 0.0000 0.0000 0.0000 -7.2113 0.0000 17.9708
#
#
#
# Elastic Compliance Matrix: (Units=1/GPa)
#
#
# Indices 1 2 3 4 5 6 
#
# 1 0.009802 -0.004036 -0.008343 0.000000 0.000513 0.000000
# 2 -0.004036 0.018685 -0.004934 0.000000 0.001531 0.000000
# 3 -0.008343 -0.004934 0.031967 0.000000 -0.008561 0.000000
# 4 0.000000 0.000000 0.000000 0.022498 0.000000 0.009028
# 5 0.000513 0.001531 -0.008561 0.000000 0.032431 0.000000
# 6 0.000000 0.000000 0.000000 0.009028 0.000000 0.059269
#
#
# Mechanical properties :
#
#
# Convention : Reuss Voigt Hill
#
# Bulk Modulus (GPa) = 38.71618 60.83614 49.77616
# Shear Modulus (GPa) = 22.94781 30.63902 26.79341
#
# Velocity S-wave (km/s) = 3.27633 3.78577 3.54023
# Velocity P-wave (km/s) = 5.69411 6.89688 6.32415
#
# Compressibility (1/GPa) = 0.02582900
#
# Stress axis : x y z
#
# Youngs Moduli (GPa) = 102.02462 53.51901 31.28212
#
# Poissons Ratio (x) = 0.21599 0.26098
# Poissons Ratio (y) = 0.41175 0.15434
# Poissons Ratio (z) = 0.85116 0.26405
#
# Static dielectric constant tensor:
#      x y z
#    x 1.762210 0.000000 -0.003280 
#    y 0.000000 1.815250 0.000000 
#    z -0.003280 0.000000 1.758670 
# 
# From -- ./inp_files/176498.got.cif
#   From: 2010.05.17/outbox.cif.g08.bks.cpg/sg12_89_cif.got.tgz:176498.got - 2010.06.03 13:09:07.
