data_PCOD9217646
_publ_section_title
;
Structure prediction by ZEFSAII (Michael W. Deem and Ramdas Pophale) SiO2 
 PCOD9217646
Probable space group: C 2/M
;
_chemical_formula_sum "Si O2"
_cell_formula_units_Z 44
_cell_length_a 10.948981
_cell_length_b 24.079076
_cell_length_c 10.739611
_cell_angle_alpha 90.000000
_cell_angle_beta 133.731292
_cell_angle_gamma 90.000000
_cell_volume 2045.944487
_symmetry_space_group_name_H-M "C 2/M"
_symmetry_group_IT_number 12
_symmetry_cell_setting 'monoclinic'
loop_
_space_group_symop_operation_xyz
x,y,z
-x,y,-z
-x,-y,-z
x,-y,z
1/2+x,1/2+y,z
1/2-x,1/2+y,-z
1/2-x,1/2-y,-z
1/2+x,1/2-y,z
loop_
_atom_site_type_symbol
_atom_site_label
_atom_site_fract_x
_atom_site_fract_y
_atom_site_fract_z
Si Si1 0.668235 0.000000 0.038473
Si Si2 0.194248 0.771941 0.596788
Si Si3 0.800243 0.500000 0.324401
Si Si4 0.225569 0.887360 0.505729
Si Si5 0.328855 0.668970 0.807694
Si Si6 0.617279 0.091516 0.798667
Si Si7 0.949212 0.000000 0.622454
O O1 0.656568 0.057503 0.951000
O O2 0.500000 0.000000 0.000000
O O3 0.849968 0.000000 0.230330
O O4 0.250000 0.750000 0.500000
O O5 0.217150 0.837867 0.600245
O O6 0.307839 0.734577 0.767281
O O7 0.000000 0.760722 0.500000
O O8 0.783059 0.554034 0.229796
O O9 0.652630 0.500000 0.318806
O O10 0.000000 0.500000 0.500000
O O11 0.182088 0.861249 0.337320
O O12 0.417609 0.909189 0.635004
O O13 0.115792 0.940201 0.470076
O O14 0.182417 0.651442 0.802774
O O15 0.500000 0.655441 0.000000
#
# Coordination Sequence:
#
# PCOD9217646 Si02
#       7
#     4   8   4   8   8   8   4
#     4  11  28  44  58 102 152 186 222 276 350 413
#     4  10  23  44  67  94 132 178 233 285 342 410
#     4  11  17  32  65 107 129 160 222 279 334 402
#     4  11  22  40  67 103 134 177 222 282 339 417
#     4  11  21  38  67 105 133 167 226 293 346 394
#     4  11  21  38  68  96 139 180 218 278 343 412
#     4  12  21  39  66  97 137 169 224 278 333 403
#
# _framework density 21.505959000000001
#
# number of rings (size 3 to 8) (size 9 to 14) (size 15 to 20)
#    0.000    1.091    3.636    4.364    0.000    2.182 
#    0.000   12.273    0.000    0.000    0.000    0.000 
#    0.000    0.000    0.000    0.000    0.000    0.000 
#
# Total GULP energy -122611.544064 kJ/mol
# GULP energy per Si atom -5573.252003 kJ/mol
# Density = 2.145701 g / cm^3
# Si number density = 21.505959 Si / 1000 Ang^3
#
#
#
# Elastic Constant Matrix: (Units=GPa)
#
#
# Indices 1 2 3 4 5 6 
#
# 1 132.9421 33.0798 27.3719 0.0000 15.5804 0.0000
# 2 33.0798 156.5761 47.4836 0.0000 -3.0562 0.0000
# 3 27.3719 47.4836 85.5937 0.0000 22.1531 0.0000
# 4 0.0000 0.0000 0.0000 28.5223 0.0000 -16.3180
# 5 15.5804 -3.0562 22.1531 0.0000 27.1515 0.0000
# 6 0.0000 0.0000 0.0000 -16.3180 0.0000 22.9635
#
#
#
# Elastic Compliance Matrix: (Units=1/GPa)
#
#
# Indices 1 2 3 4 5 6 
#
# 1 0.008621 -0.001734 -0.000588 0.000000 -0.004662 0.000000
# 2 -0.001734 0.008735 -0.006089 0.000000 0.006947 0.000000
# 3 -0.000588 -0.006089 0.019446 0.000000 -0.016214 0.000000
# 4 0.000000 0.000000 0.000000 0.059078 0.000000 0.041981
# 5 -0.004662 0.006947 -0.016214 0.000000 0.053517 0.000000
# 6 0.000000 0.000000 0.000000 0.041981 0.000000 0.073379
#
#
# Mechanical properties :
#
#
# Convention : Reuss Voigt Hill
#
# Bulk Modulus (GPa) = 50.05307 65.66473 57.85890
# Shear Modulus (GPa) = 20.30382 33.53924 26.92153
#
# Velocity S-wave (km/s) = 3.07596 3.95338 3.54194
# Velocity P-wave (km/s) = 5.99499 7.17206 6.60978
#
# Compressibility (1/GPa) = 0.01997879
#
# Stress axis : x y z
#
# Youngs Moduli (GPa) = 115.99504 114.47855 51.42511
#
# Poissons Ratio (x) = 0.19850 0.03026
# Poissons Ratio (y) = 0.20113 0.31315
# Poissons Ratio (z) = 0.06825 0.69710
#
# Static dielectric constant tensor:
#      x y z
#    x 1.787440 0.000000 -0.060950 
#    y 0.000000 2.211870 0.000000 
#    z -0.060950 0.000000 1.770930 
# 
# From -- ./inp_files/136101.got.cif
#   From: 2010.05.17/outbox.cif.g08.bks.cpg/sg12_69_cif.got.tgz:136101.got - 2010.06.03 13:09:07.
