data_PCOD9217776
_publ_section_title
;
Structure prediction by ZEFSAII (Michael W. Deem and Ramdas Pophale) SiO2 
 PCOD9217776
Probable space group: C 2/M
;
_chemical_formula_sum "Si O2"
_cell_formula_units_Z 48
_cell_length_a 22.961617
_cell_length_b 22.426599
_cell_length_c 7.297889
_cell_angle_alpha 90.000000
_cell_angle_beta 33.706829
_cell_angle_gamma 90.000000
_cell_volume 2085.508545
_symmetry_space_group_name_H-M "C 2/M"
_symmetry_group_IT_number 12
_symmetry_cell_setting 'monoclinic'
loop_
_space_group_symop_operation_xyz
x,y,z
-x,y,-z
-x,-y,-z
x,-y,z
1/2+x,1/2+y,z
1/2-x,1/2+y,-z
1/2-x,1/2-y,-z
1/2+x,1/2-y,z
loop_
_atom_site_type_symbol
_atom_site_label
_atom_site_fract_x
_atom_site_fract_y
_atom_site_fract_z
Si Si1 0.895549 0.853915 0.780159
Si Si2 0.120831 0.853335 0.747825
Si Si3 0.141809 0.756974 0.395870
Si Si4 0.683915 0.931868 0.713913
Si Si5 0.517577 0.856108 0.653716
Si Si6 0.292224 0.934135 0.788764
O O1 0.920527 0.799215 0.581193
O O2 0.000000 0.893913 0.500000
O O3 0.871720 0.840718 0.053792
O O4 0.799428 0.887488 0.938622
O O5 0.154652 0.794893 0.546330
O O6 0.207138 0.905357 0.492026
O O7 0.000000 0.866862 0.000000
O O8 0.080028 0.695793 0.597209
O O9 0.250000 0.750000 0.000000
O O10 0.695091 0.935412 0.464675
O O11 0.662189 0.000000 0.833467
O O12 0.589446 0.885195 0.995246
O O13 0.500000 0.829241 0.500000
O O14 0.599625 0.910020 0.415375
O O15 0.266611 0.000000 0.920285
#
# Coordination Sequence:
#
# PCOD9217776 Si02
#       6
#     8   8   8   8   8   8
#     4  11  23  45  67 100 141 176 233 290 342 419
#     4  11  25  45  71 103 137 189 235 279 362 414
#     4  12  25  47  68 100 145 183 233 292 345 419
#     4  10  24  47  71 101 138 179 235 292 344 417
#     4  12  25  42  66 103 138 181 229 286 353 411
#     4  10  23  45  69  96 135 181 231 287 350 412
#
# _framework density 23.015968999999998
#
# number of rings (size 3 to 8) (size 9 to 14) (size 15 to 20)
#    0.000    1.000    3.333    2.500    0.000    5.333 
#    0.000    0.000    0.000    0.000    0.000    0.000 
#    0.000    0.000    0.000    0.000    0.000    0.000 
#
# Total GULP energy -134101.049211 kJ/mol
# GULP energy per Si atom -5587.543717 kJ/mol
# Density = 2.296358 g / cm^3
# Si number density = 23.015969 Si / 1000 Ang^3
#
#
#
# Elastic Constant Matrix: (Units=GPa)
#
#
# Indices 1 2 3 4 5 6 
#
# 1 67.3058 16.0660 7.4747 0.0000 7.6556 0.0000
# 2 16.0660 138.0632 46.9552 0.0000 -2.2297 0.0000
# 3 7.4747 46.9552 109.7210 0.0000 -24.1749 0.0000
# 4 0.0000 0.0000 0.0000 13.9626 0.0000 -3.8328
# 5 7.6556 -2.2297 -24.1749 0.0000 46.7085 0.0000
# 6 0.0000 0.0000 0.0000 -3.8328 0.0000 19.6132
#
#
#
# Elastic Compliance Matrix: (Units=1/GPa)
#
#
# Indices 1 2 3 4 5 6 
#
# 1 0.015709 -0.001491 -0.001146 0.000000 -0.003239 0.000000
# 2 -0.001491 0.008734 -0.003940 0.000000 -0.001378 0.000000
# 3 -0.001146 -0.003940 0.012278 0.000000 0.006355 0.000000
# 4 0.000000 0.000000 0.000000 0.075680 0.000000 0.014789
# 5 -0.003239 -0.001378 0.006355 0.000000 0.025163 0.000000
# 6 0.000000 0.000000 0.000000 0.014789 0.000000 0.053876
#
#
# Mechanical properties :
#
#
# Convention : Reuss Voigt Hill
#
# Bulk Modulus (GPa) = 42.42904 50.67577 46.55241
# Shear Modulus (GPa) = 23.53496 32.36313 27.94905
#
# Velocity S-wave (km/s) = 3.20120 3.75389 3.48851
# Velocity P-wave (km/s) = 5.66906 6.39174 6.04122
#
# Compressibility (1/GPa) = 0.02356876
#
# Stress axis : x y z
#
# Youngs Moduli (GPa) = 63.65765 114.49238 81.44469
#
# Poissons Ratio (x) = 0.17066 0.09333
# Poissons Ratio (y) = 0.09489 0.32088
# Poissons Ratio (z) = 0.07295 0.45108
#
# Static dielectric constant tensor:
#      x y z
#    x 1.903790 0.000000 -0.024300 
#    y 0.000000 1.883510 0.000000 
#    z -0.024300 0.000000 1.935670 
# 
# From -- ./inp_files/106491.got.cif
#   From: 2010.05.17/outbox.cif.g08.bks.cpg/sg12_54_cif.got.tgz:106491.got - 2010.06.03 13:09:07.
