data_PCOD9217920
_publ_section_title
;
Structure prediction by ZEFSAII (Michael W. Deem and Ramdas Pophale) SiO2 
 PCOD9217920
Probable space group: C 2/M
;
_chemical_formula_sum "Si O2"
_cell_formula_units_Z 64
_cell_length_a 8.929329
_cell_length_b 18.730599
_cell_length_c 22.928017
_cell_angle_alpha 90.000000
_cell_angle_beta 121.696679
_cell_angle_gamma 90.000000
_cell_volume 3262.764167
_symmetry_space_group_name_H-M "C 2/M"
_symmetry_group_IT_number 12
_symmetry_cell_setting 'monoclinic'
loop_
_space_group_symop_operation_xyz
x,y,z
-x,y,-z
-x,-y,-z
x,-y,z
1/2+x,1/2+y,z
1/2-x,1/2+y,-z
1/2-x,1/2-y,-z
1/2+x,1/2-y,z
loop_
_atom_site_type_symbol
_atom_site_label
_atom_site_fract_x
_atom_site_fract_y
_atom_site_fract_z
Si Si1 0.804779 0.798273 0.933106
Si Si2 0.806742 0.644071 0.971119
Si Si3 0.470064 0.256399 0.322976
Si Si4 0.794522 0.584625 0.403184
Si Si5 0.867148 0.155531 0.736410
Si Si6 0.307004 0.084999 0.534395
Si Si7 0.067442 0.916347 0.128154
Si Si8 0.358138 0.305047 0.422905
O O1 0.769577 0.713106 0.920996
O O2 0.818364 0.857242 0.884882
O O3 0.683885 0.825544 0.960987
O O4 0.000000 0.798782 0.000000
O O5 0.637074 0.593817 0.932182
O O6 0.000000 0.612834 0.000000
O O7 0.316524 0.196962 0.288456
O O8 0.491984 0.289843 0.262854
O O9 0.414659 0.303829 0.367337
O O10 0.668701 0.234055 0.381733
O O11 0.810807 0.500000 0.411127
O O12 0.666762 0.605574 0.326133
O O13 0.743131 0.608683 0.457314
O O14 0.989711 0.610419 0.425015
O O15 0.919051 0.109393 0.802423
O O16 0.193454 0.118444 0.561855
O O17 0.304319 0.000000 0.538281
O O18 0.118053 0.000000 0.130818
O O19 0.500000 0.275631 0.500000
#
# Coordination Sequence:
#
# PCOD9217920 Si02
#       8
#     8   8   8   8   8   8   8   8
#     4   8  17  36  62  94 124 161 199 235 285 355
#     4   9  18  37  64  96 128 158 195 243 298 342
#     4  10  24  38  55  80 110 155 192 236 310 355
#     4   9  17  33  56  77 106 145 187 235 290 362
#     4  11  22  41  56  81 114 154 199 241 290 358
#     4   9  18  32  54  81 104 141 187 234 302 361
#     4  11  24  38  62  93 123 165 207 246 292 350
#     4  11  20  36  56  83 108 136 187 253 304 361
#
# _framework density 19.615269000000001
#
# number of rings (size 3 to 8) (size 9 to 14) (size 15 to 20)
#    0.000    2.250    1.250    3.000    1.750    3.750 
#    0.000    1.250    0.000    0.000    0.000    0.000 
#    0.000    0.000    0.000    0.000    0.000    0.000 
#
# Total GULP energy -178185.539707 kJ/mol
# GULP energy per Si atom -5568.298116 kJ/mol
# Density = 1.957062 g / cm^3
# Si number density = 19.615269 Si / 1000 Ang^3
#
#
#
# Elastic Constant Matrix: (Units=GPa)
#
#
# Indices 1 2 3 4 5 6 
#
# 1 79.9149 17.9811 3.6089 0.0000 -9.6952 0.0000
# 2 17.9811 72.1098 19.6516 0.0000 -13.5110 0.0000
# 3 3.6089 19.6516 55.7149 0.0000 -15.8882 0.0000
# 4 0.0000 0.0000 0.0000 27.0220 0.0000 -4.0843
# 5 -9.6952 -13.5110 -15.8882 0.0000 23.3035 0.0000
# 6 0.0000 0.0000 0.0000 -4.0843 0.0000 27.6928
#
#
#
# Elastic Compliance Matrix: (Units=1/GPa)
#
#
# Indices 1 2 3 4 5 6 
#
# 1 0.013713 -0.002895 0.001590 0.000000 0.005111 0.000000
# 2 -0.002895 0.016780 -0.004097 0.000000 0.005731 0.000000
# 3 0.001590 -0.004097 0.023340 0.000000 0.014199 0.000000
# 4 0.000000 0.000000 0.000000 0.037851 0.000000 0.005582
# 5 0.005111 0.005731 0.014199 0.000000 0.058042 0.000000
# 6 0.000000 0.000000 0.000000 0.005582 0.000000 0.036934
#
#
# Mechanical properties :
#
#
# Convention : Reuss Voigt Hill
#
# Bulk Modulus (GPa) = 23.23988 32.24700 27.74344
# Shear Modulus (GPa) = 23.60659 26.70354 25.15507
#
# Velocity S-wave (km/s) = 3.47288 3.69367 3.58498
# Velocity P-wave (km/s) = 5.28723 5.88782 5.59559
#
# Compressibility (1/GPa) = 0.04302947
#
# Stress axis : x y z
#
# Youngs Moduli (GPa) = 72.92365 59.59487 42.84555
#
# Poissons Ratio (x) = 0.17254 -0.06814
# Poissons Ratio (y) = 0.21113 0.17553
# Poissons Ratio (z) = -0.11598 0.24414
#
# Static dielectric constant tensor:
#      x y z
#    x 1.747370 0.000000 0.005870 
#    y 0.000000 1.746380 0.000000 
#    z 0.005870 0.000000 1.696610 
# 
# From -- ./inp_files/301759.got.cif
#   From: 2010.05.17/outbox.cif.g08.bks.cpg/sg12_151_cif.got.tgz:301759.got - 2010.06.03 13:09:07.
