data_PCOD9217635
_publ_section_title
;
Structure prediction by ZEFSAII (Michael W. Deem and Ramdas Pophale) SiO2 
 PCOD9217635
Probable space group: C 2/M
;
_chemical_formula_sum "Si O2"
_cell_formula_units_Z 48
_cell_length_a 13.732868
_cell_length_b 14.218114
_cell_length_c 26.992587
_cell_angle_alpha 90.000000
_cell_angle_beta 150.303302
_cell_angle_gamma 90.000000
_cell_volume 2611.026597
_symmetry_space_group_name_H-M "C 2/M"
_symmetry_group_IT_number 12
_symmetry_cell_setting 'monoclinic'
loop_
_space_group_symop_operation_xyz
x,y,z
-x,y,-z
-x,-y,-z
x,-y,z
1/2+x,1/2+y,z
1/2-x,1/2+y,-z
1/2-x,1/2-y,-z
1/2+x,1/2-y,z
loop_
_atom_site_type_symbol
_atom_site_label
_atom_site_fract_x
_atom_site_fract_y
_atom_site_fract_z
Si Si1 0.727091 0.393818 0.110198
Si Si2 0.325482 0.611614 0.272358
Si Si3 0.280880 0.104683 0.919096
Si Si4 0.028659 0.758990 0.743799
Si Si5 0.870048 0.345145 0.063803
Si Si6 0.808621 0.890985 0.381188
O O1 0.759273 0.500000 0.140812
O O2 0.803589 0.320696 0.183983
O O3 0.828599 0.378864 0.101393
O O4 0.500000 0.378864 0.000000
O O5 0.331622 0.500000 0.263698
O O6 0.472092 0.673965 0.304112
O O7 0.360537 0.620498 0.346353
O O8 0.106226 0.650843 0.163983
O O9 0.110884 0.173320 0.824152
O O10 0.257136 0.000000 0.887209
O O11 0.500000 0.139268 0.000000
O O12 0.288008 0.096830 0.981245
O O13 0.839638 0.694116 0.670871
O O14 0.750000 0.250000 0.000000
O O15 0.000000 0.885004 0.500000
O O16 0.730201 0.000000 0.351773
#
# Coordination Sequence:
#
# PCOD9217635 Si02
#       6
#     8   8   8   8   8   8
#     4  11  22  34  50  78 118 160 198 241 289 343
#     4  11  22  38  62  89 117 156 201 246 298 359
#     4  11  21  33  53  84 121 159 197 236 281 347
#     4  12  21  35  60  89 118 152 203 248 293 353
#     4  12  20  34  54  81 120 163 205 238 286 346
#     4  10  23  44  67  89 115 152 201 256 312 365
#
# _framework density 18.383573999999999
#
# number of rings (size 3 to 8) (size 9 to 14) (size 15 to 20)
#    0.000    0.833    5.000    4.000    0.000    0.667 
#    0.000    0.000    0.000    5.000    0.000    0.000 
#    0.000    0.000    0.000    0.000    0.000    0.000 
#
# Total GULP energy -133801.979504 kJ/mol
# GULP energy per Si atom -5575.082479 kJ/mol
# Density = 1.834173 g / cm^3
# Si number density = 18.383574 Si / 1000 Ang^3
#
#
#
# Elastic Constant Matrix: (Units=GPa)
#
#
# Indices 1 2 3 4 5 6 
#
# 1 74.7135 39.6929 23.9414 0.0002 -9.4242 0.0001
# 2 39.6929 128.6588 38.7592 0.0001 -3.3851 0.0002
# 3 23.9414 38.7592 91.6480 0.0004 -14.8100 0.0005
# 4 0.0002 0.0001 0.0004 43.7445 0.0002 14.5609
# 5 -9.4242 -3.3851 -14.8100 0.0002 21.1889 0.0002
# 6 0.0001 0.0002 0.0005 14.5609 0.0002 41.0364
#
#
#
# Elastic Compliance Matrix: (Units=1/GPa)
#
#
# Indices 1 2 3 4 5 6 
#
# 1 0.017081 -0.004646 -0.001566 0.000000 0.005760 0.000000
# 2 -0.004646 0.010206 -0.003577 0.000000 -0.002936 0.000000
# 3 -0.001566 -0.003577 0.014236 0.000000 0.008682 0.000000
# 4 0.000000 0.000000 0.000000 0.025922 0.000000 -0.009198
# 5 0.005760 -0.002936 0.008682 0.000000 0.055356 0.000000
# 6 0.000000 0.000000 0.000000 -0.009198 0.000000 0.027632
#
#
# Mechanical properties :
#
#
# Convention : Reuss Voigt Hill
#
# Bulk Modulus (GPa) = 45.56975 55.53413 50.55194
# Shear Modulus (GPa) = 28.19627 34.03575 31.11601
#
# Velocity S-wave (km/s) = 3.92059 4.30748 4.11858
# Velocity P-wave (km/s) = 6.73326 7.41710 7.08344
#
# Compressibility (1/GPa) = 0.02194438
#
# Stress axis : x y z
#
# Youngs Moduli (GPa) = 58.54295 97.97836 70.24280
#
# Poissons Ratio (x) = 0.45525 0.11003
# Poissons Ratio (y) = 0.27201 0.25126
# Poissons Ratio (z) = 0.09170 0.35048
#
# Static dielectric constant tensor:
#      x y z
#    x 1.675370 0.000000 -0.000840 
#    y 0.000000 1.697480 0.000000 
#    z -0.000840 0.000000 1.617630 
# 
# From -- ./inp_files/361291.got.cif
#   From: 2010.05.17/outbox.cif.g08.bks.cpg/sg12_181_cif.got.tgz:361291.got - 2010.06.03 13:09:07.
