data_PCOD9217506
_publ_section_title
;
Structure prediction by ZEFSAII (Michael W. Deem and Ramdas Pophale) SiO2 
 PCOD9217506
Probable space group: C 2/M
;
_chemical_formula_sum "Si O2"
_cell_formula_units_Z 40
_cell_length_a 23.830872
_cell_length_b 8.984109
_cell_length_c 13.106306
_cell_angle_alpha 90.000000
_cell_angle_beta 135.726634
_cell_angle_gamma 90.000000
_cell_volume 1958.853753
_symmetry_space_group_name_H-M "C 2/M"
_symmetry_group_IT_number 12
_symmetry_cell_setting 'monoclinic'
loop_
_space_group_symop_operation_xyz
x,y,z
-x,y,-z
-x,-y,-z
x,-y,z
1/2+x,1/2+y,z
1/2-x,1/2+y,-z
1/2-x,1/2-y,-z
1/2+x,1/2-y,z
loop_
_atom_site_type_symbol
_atom_site_label
_atom_site_fract_x
_atom_site_fract_y
_atom_site_fract_z
Si Si1 0.887524 0.174679 0.929220
Si Si2 0.732434 0.176229 0.868078
Si Si3 0.336980 0.322670 0.629794
Si Si4 0.994979 0.676870 0.766921
Si Si5 0.073140 0.170967 0.673736
O O1 0.807085 0.200615 0.890503
O O2 0.865495 0.202864 0.783547
O O3 0.910372 0.000000 0.969265
O O4 0.957874 0.271803 0.069912
O O5 0.650513 0.252321 0.724894
O O6 0.720848 0.000000 0.864479
O O7 0.750000 0.250000 0.000000
O O8 0.332988 0.500000 0.607243
O O9 0.250000 0.250000 0.500000
O O10 0.406634 0.249466 0.652176
O O11 0.989671 0.500000 0.754429
O O12 0.046349 0.741228 0.739679
O O13 0.000000 0.172139 0.500000
O O14 0.092083 0.000000 0.726504
#
# Coordination Sequence:
#
# PCOD9217506 Si02
#       5
#     8   8   8   8   8
#     4  10  23  43  67  93 128 170 212 260 316 376
#     4  11  22  39  65  97 130 166 209 258 313 378
#     4  11  25  45  67  95 129 168 212 265 321 376
#     4  12  25  42  67  96 127 168 215 263 317 379
#     4  11  25  43  64  94 131 171 212 261 318 377
#
# _framework density 20.420106000000001
#
# number of rings (size 3 to 8) (size 9 to 14) (size 15 to 20)
#    0.000    1.000    2.000    4.200    2.800    6.400 
#    0.000    0.000    0.000    0.000    0.000    0.000 
#    0.000    0.000    0.000    0.000    0.000    0.000 
#
# Total GULP energy -111951.824495 kJ/mol
# GULP energy per Si atom -5597.591225 kJ/mol
# Density = 2.037363 g / cm^3
# Si number density = 20.420106 Si / 1000 Ang^3
#
#
#
# Elastic Constant Matrix: (Units=GPa)
#
#
# Indices 1 2 3 4 5 6 
#
# 1 72.8040 53.6219 16.8138 0.0000 19.0118 0.0000
# 2 53.6219 130.9345 62.0306 0.0000 22.5192 0.0000
# 3 16.8138 62.0306 83.0837 0.0000 27.5802 0.0000
# 4 0.0000 0.0000 0.0000 37.4977 0.0000 8.6682
# 5 19.0118 22.5192 27.5802 0.0000 40.0196 0.0000
# 6 0.0000 0.0000 0.0000 8.6682 0.0000 25.8620
#
#
#
# Elastic Compliance Matrix: (Units=1/GPa)
#
#
# Indices 1 2 3 4 5 6 
#
# 1 0.022520 -0.010721 0.006478 0.000000 -0.009130 0.000000
# 2 -0.010721 0.016938 -0.011674 0.000000 0.003607 0.000000
# 3 0.006478 -0.011674 0.023705 0.000000 -0.012845 0.000000
# 4 0.000000 0.000000 0.000000 0.028908 0.000000 -0.009689
# 5 -0.009130 0.003607 -0.012845 0.000000 0.036147 0.000000
# 6 0.000000 0.000000 0.000000 -0.009689 0.000000 0.041914
#
#
# Mechanical properties :
#
#
# Convention : Reuss Voigt Hill
#
# Bulk Modulus (GPa) = 31.91986 61.30610 46.61298
# Shear Modulus (GPa) = 23.53923 30.96625 27.25274
#
# Velocity S-wave (km/s) = 3.39890 3.89840 3.65719
# Velocity P-wave (km/s) = 5.57394 7.09584 6.38043
#
# Compressibility (1/GPa) = 0.03132846
#
# Stress axis : x y z
#
# Youngs Moduli (GPa) = 44.40457 59.03758 42.18523
#
# Poissons Ratio (x) = 0.63297 -0.27327
# Poissons Ratio (y) = 0.47608 0.49247
# Poissons Ratio (z) = -0.28765 0.68921
#
# Static dielectric constant tensor:
#      x y z
#    x 1.717600 0.000000 0.004430 
#    y 0.000000 1.688580 0.000000 
#    z 0.004430 0.000000 1.735100 
# 
# From -- ./inp_files/221217.got.cif
#   From: 2010.05.17/outbox.cif.g08.bks.cpg/sg12_111_cif.got.tgz:221217.got - 2010.06.03 13:09:07.
