data_PCOD9217516
_publ_section_title
;
Structure prediction by ZEFSAII (Michael W. Deem and Ramdas Pophale) SiO2 
 PCOD9217516
Probable space group: C 2/M
;
_chemical_formula_sum "Si O2"
_cell_formula_units_Z 56
_cell_length_a 8.881649
_cell_length_b 23.782169
_cell_length_c 13.413174
_cell_angle_alpha 90.000000
_cell_angle_beta 117.703945
_cell_angle_gamma 90.000000
_cell_volume 2508.403025
_symmetry_space_group_name_H-M "C 2/M"
_symmetry_group_IT_number 12
_symmetry_cell_setting 'monoclinic'
loop_
_space_group_symop_operation_xyz
x,y,z
-x,y,-z
-x,-y,-z
x,-y,z
1/2+x,1/2+y,z
1/2-x,1/2+y,-z
1/2-x,1/2-y,-z
1/2+x,1/2-y,z
loop_
_atom_site_type_symbol
_atom_site_label
_atom_site_fract_x
_atom_site_fract_y
_atom_site_fract_z
Si Si1 0.621098 0.678971 0.957788
Si Si2 0.227752 0.202952 0.770130
Si Si3 0.679901 0.608028 0.604066
Si Si4 0.095568 0.317211 0.791351
Si Si5 0.696044 0.189920 0.527697
Si Si6 0.370414 0.000000 0.619218
Si Si7 0.747984 0.000000 0.647688
Si Si8 0.832357 0.880465 0.745047
O O1 0.702324 0.699428 0.880470
O O2 0.482766 0.634270 0.869984
O O3 0.500000 0.712204 0.000000
O O4 0.784044 0.670353 0.076696
O O5 0.151675 0.148653 0.690062
O O6 0.147510 0.264874 0.734638
O O7 0.417039 0.200000 0.783965
O O8 0.500000 0.591824 0.500000
O O9 0.777054 0.646581 0.553911
O O10 0.796725 0.553899 0.654478
O O11 0.148604 0.371391 0.742391
O O12 0.500000 0.190264 0.500000
O O13 0.750000 0.250000 0.500000
O O14 0.816206 0.165334 0.651751
O O15 0.570311 0.000000 0.655018
O O16 0.290036 0.000000 0.482141
O O17 0.844215 0.057229 0.705804
#
# Coordination Sequence:
#
# PCOD9217516 Si02
#       8
#     8   8   8   8   8   4   4   8
#     4  10  23  43  67  95 130 168 222 281 335 397
#     4  12  24  42  68  98 137 182 225 279 341 411
#     4  12  26  43  66 101 142 180 229 279 339 409
#     4  11  23  42  65  97 135 178 229 280 341 404
#     4  12  24  41  62  94 138 182 221 271 334 412
#     4  11  23  44  70 101 137 183 230 282 330 403
#     4  11  22  42  75  99 133 182 236 279 335 403
#     4  11  23  42  67  99 132 178 226 279 337 399
#
# _framework density 22.324960999999998
#
# number of rings (size 3 to 8) (size 9 to 14) (size 15 to 20)
#    0.000    0.714    1.429    7.500    0.000    3.429 
#    0.000    3.214    0.000    0.000    0.000   10.000 
#    0.000    0.000    0.000    0.000    0.000    0.000 
#
# Total GULP energy -156190.305502 kJ/mol
# GULP energy per Si atom -5578.225197 kJ/mol
# Density = 2.227415 g / cm^3
# Si number density = 22.324961 Si / 1000 Ang^3
#
#
#
# Elastic Constant Matrix: (Units=GPa)
#
#
# Indices 1 2 3 4 5 6 
#
# 1 155.2518 27.1063 18.0989 0.0000 2.3644 0.0000
# 2 27.1063 121.2860 24.0976 0.0000 -1.7170 0.0000
# 3 18.0989 24.0976 93.7719 0.0000 -0.0911 0.0000
# 4 0.0000 0.0000 0.0000 17.4916 0.0000 1.9485
# 5 2.3644 -1.7170 -0.0911 0.0000 47.0040 0.0000
# 6 0.0000 0.0000 0.0000 1.9485 0.0000 19.3722
#
#
#
# Elastic Compliance Matrix: (Units=1/GPa)
#
#
# Indices 1 2 3 4 5 6 
#
# 1 0.006793 -0.001331 -0.000969 0.000000 -0.000392 0.000000
# 2 -0.001331 0.008954 -0.002044 0.000000 0.000390 0.000000
# 3 -0.000969 -0.002044 0.011376 0.000000 -0.000004 0.000000
# 4 0.000000 0.000000 0.000000 0.057818 0.000000 -0.005816
# 5 -0.000392 0.000390 -0.000004 0.000000 0.021309 0.000000
# 6 0.000000 0.000000 0.000000 -0.005816 0.000000 0.052205
#
#
# Mechanical properties :
#
#
# Convention : Reuss Voigt Hill
#
# Bulk Modulus (GPa) = 54.24528 56.54615 55.39571
# Shear Modulus (GPa) = 28.85362 36.84068 32.84715
#
# Velocity S-wave (km/s) = 3.59895 4.06667 3.83994
# Velocity P-wave (km/s) = 6.45141 6.88724 6.67289
#
# Compressibility (1/GPa) = 0.01843478
#
# Stress axis : x y z
#
# Youngs Moduli (GPa) = 147.22084 111.68158 87.90073
#
# Poissons Ratio (x) = 0.14865 0.08521
# Poissons Ratio (y) = 0.19595 0.17965
# Poissons Ratio (z) = 0.14271 0.22825
#
# Static dielectric constant tensor:
#      x y z
#    x 1.889800 0.000000 0.027910 
#    y 0.000000 1.882520 0.000000 
#    z 0.027910 0.000000 1.921090 
# 
# From -- ./inp_files/199014.got.cif
#   From: 2010.05.17/outbox.cif.g08.bks.cpg/sg12_100_cif.got.tgz:199014.got - 2010.06.03 13:09:07.
