data_PCOD9217214
_publ_section_title
;
Structure prediction by ZEFSAII (Michael W. Deem and Ramdas Pophale) SiO2 
 PCOD9217214
Probable space group: C 2/M
;
_chemical_formula_sum "Si O2"
_cell_formula_units_Z 48
_cell_length_a 19.079552
_cell_length_b 8.821896
_cell_length_c 16.299305
_cell_angle_alpha 90.000000
_cell_angle_beta 64.710085
_cell_angle_gamma 90.000000
_cell_volume 2480.523844
_symmetry_space_group_name_H-M "C 2/M"
_symmetry_group_IT_number 12
_symmetry_cell_setting 'monoclinic'
loop_
_space_group_symop_operation_xyz
x,y,z
-x,y,-z
-x,-y,-z
x,-y,z
1/2+x,1/2+y,z
1/2-x,1/2+y,-z
1/2-x,1/2-y,-z
1/2+x,1/2-y,z
loop_
_atom_site_type_symbol
_atom_site_label
_atom_site_fract_x
_atom_site_fract_y
_atom_site_fract_z
Si Si1 0.009526 0.677153 0.092991
Si Si2 0.176833 0.317524 0.085700
Si Si3 0.827380 0.327034 0.429374
Si Si4 0.201036 0.818770 0.253393
Si Si5 0.641184 0.321350 0.756084
Si Si6 0.414949 0.824536 0.556314
O O1 0.997635 0.500000 0.122127
O O2 0.095420 0.720197 0.081211
O O3 0.941137 0.775404 0.165572
O O4 0.000000 0.687997 0.000000
O O5 0.183367 0.500000 0.084601
O O6 0.178304 0.252109 0.177030
O O7 0.250000 0.250000 0.000000
O O8 0.813408 0.500000 0.408902
O O9 0.750000 0.250000 0.500000
O O10 0.858844 0.232335 0.337895
O O11 0.880485 0.329435 0.482569
O O12 0.287017 0.762118 0.235288
O O13 0.141266 0.761909 0.353190
O O14 0.200344 0.000000 0.248779
O O15 0.654819 0.500000 0.755021
O O16 0.500000 0.757425 0.500000
O O17 0.422044 0.000000 0.582395
#
# Coordination Sequence:
#
# PCOD9217214 Si02
#       6
#     8   8   8   8   8   8
#     4  10  23  44  69  97 128 165 209 260 318 381
#     4  11  24  43  69  98 133 169 209 259 317 381
#     4  11  22  39  64  93 128 169 213 263 317 377
#     4  12  25  42  65  93 129 171 218 266 319 380
#     4  12  25  41  65  95 130 169 215 268 320 378
#     4  10  23  42  64  91 126 169 216 265 319 377
#
# _framework density 19.350750999999999
#
# number of rings (size 3 to 8) (size 9 to 14) (size 15 to 20)
#    0.000    1.000    1.667    5.000    2.333    4.000 
#    0.000    0.000    0.000    0.000    0.000    0.000 
#    0.000    0.000    0.000    0.000    0.000    0.000 
#
# Total GULP energy -134185.747851 kJ/mol
# GULP energy per Si atom -5591.072827 kJ/mol
# Density = 1.930671 g / cm^3
# Si number density = 19.350751 Si / 1000 Ang^3
#
#
#
# Elastic Constant Matrix: (Units=GPa)
#
#
# Indices 1 2 3 4 5 6 
#
# 1 141.1999 60.6100 65.9213 0.0000 -9.7708 0.0000
# 2 60.6100 119.9747 57.2753 0.0000 -8.8554 0.0000
# 3 65.9213 57.2753 90.5122 0.0000 0.1452 0.0000
# 4 0.0000 0.0000 0.0000 37.8657 0.0000 -0.2263
# 5 -9.7708 -8.8554 0.1452 0.0000 36.6232 0.0000
# 6 0.0000 0.0000 0.0000 -0.2263 0.0000 26.9726
#
#
#
# Elastic Compliance Matrix: (Units=1/GPa)
#
#
# Indices 1 2 3 4 5 6 
#
# 1 0.011469 -0.002318 -0.006890 0.000000 0.002527 0.000000
# 2 -0.002318 0.012732 -0.006372 0.000000 0.002485 0.000000
# 3 -0.006890 -0.006372 0.020104 0.000000 -0.003459 0.000000
# 4 0.000000 0.000000 0.000000 0.026410 0.000000 0.000222
# 5 0.002527 0.002485 -0.003459 0.000000 0.028594 0.000000
# 6 0.000000 0.000000 0.000000 0.000222 0.000000 0.037076
#
#
# Mechanical properties :
#
#
# Convention : Reuss Voigt Hill
#
# Bulk Modulus (GPa) = 76.08065 79.92223 78.00144
# Shear Modulus (GPa) = 29.08210 31.48432 30.28321
#
# Velocity S-wave (km/s) = 3.88092 4.03803 3.96025
# Velocity P-wave (km/s) = 7.71259 7.94559 7.82996
#
# Compressibility (1/GPa) = 0.01314395
#
# Stress axis : x y z
#
# Youngs Moduli (GPa) = 87.19338 78.54434 49.74117
#
# Poissons Ratio (x) = 0.18208 0.34272
# Poissons Ratio (y) = 0.20213 0.31696
# Poissons Ratio (z) = 0.60076 0.50049
#
# Static dielectric constant tensor:
#      x y z
#    x 1.494000 0.000000 0.050510 
#    y 0.000000 1.653130 0.000000 
#    z 0.050510 0.000000 1.611820 
# 
# From -- ./inp_files/274113.got.cif
#   From: 2010.05.17/outbox.cif.g08.bks.cpg/sg12_138_cif.got.tgz:274113.got - 2010.06.03 13:09:07.
