data_PCOD9217818
_publ_section_title
;
Structure prediction by ZEFSAII (Michael W. Deem and Ramdas Pophale) SiO2 
 PCOD9217818
Probable space group: C 2/M
;
_chemical_formula_sum "Si O2"
_cell_formula_units_Z 40
_cell_length_a 7.458949
_cell_length_b 23.502978
_cell_length_c 12.883053
_cell_angle_alpha 90.000000
_cell_angle_beta 137.844552
_cell_angle_gamma 90.000000
_cell_volume 1515.776833
_symmetry_space_group_name_H-M "C 2/M"
_symmetry_group_IT_number 12
_symmetry_cell_setting 'monoclinic'
loop_
_space_group_symop_operation_xyz
x,y,z
-x,y,-z
-x,-y,-z
x,-y,z
1/2+x,1/2+y,z
1/2-x,1/2+y,-z
1/2-x,1/2-y,-z
1/2+x,1/2-y,z
loop_
_atom_site_type_symbol
_atom_site_label
_atom_site_fract_x
_atom_site_fract_y
_atom_site_fract_z
Si Si1 0.152116 0.066628 0.256535
Si Si2 0.216425 0.562629 0.398003
Si Si3 0.223380 0.185364 0.320727
Si Si4 0.107432 0.410474 0.932911
Si Si5 0.362075 0.212497 0.145266
O O1 0.460176 0.080464 0.356763
O O2 0.090830 0.124400 0.295592
O O3 0.148286 0.000000 0.285990
O O4 0.917729 0.072047 0.070720
O O5 0.500000 0.593499 0.500000
O O6 0.286777 0.500000 0.469140
O O7 0.072491 0.557891 0.226430
O O8 0.500000 0.188666 0.500000
O O9 0.226855 0.188826 0.194357
O O10 0.065400 0.242302 0.281664
O O11 0.062831 0.344914 0.881715
O O12 0.000000 0.422408 0.000000
O O13 0.250000 0.250000 0.000000
#
# Coordination Sequence:
#
# PCOD9217818 Si02
#       5
#     8   8   8   8   8
#     4  11  25  48  79 112 156 209 264 323 390 474
#     4  10  23  45  73 105 149 201 255 319 391 462
#     4  12  27  48  76 115 155 205 261 324 397 468
#     4  12  25  44  75 111 150 203 264 323 384 465
#     4  12  25  48  76 108 152 202 259 320 388 467
#
# _framework density 26.389109999999999
#
# number of rings (size 3 to 8) (size 9 to 14) (size 15 to 20)
#    0.000    0.600    4.000    3.600    0.000    6.000 
#    0.000    2.000    0.000    0.000    0.000    0.000 
#    0.000    0.000    0.000    0.000    0.000    0.000 
#
# Total GULP energy -111485.682603 kJ/mol
# GULP energy per Si atom -5574.284130 kJ/mol
# Density = 2.632905 g / cm^3
# Si number density = 26.389110 Si / 1000 Ang^3
#
#
#
# Elastic Constant Matrix: (Units=GPa)
#
#
# Indices 1 2 3 4 5 6 
#
# 1 94.8609 13.5179 51.0445 0.0000 -13.0974 0.0000
# 2 13.5179 205.8025 48.9255 0.0000 6.6521 0.0000
# 3 51.0445 48.9255 177.2387 0.0000 20.6146 0.0000
# 4 0.0000 0.0000 0.0000 -24.5327 0.0000 36.6665
# 5 -13.0974 6.6521 20.6146 0.0000 57.6739 0.0000
# 6 0.0000 0.0000 0.0000 36.6665 0.0000 -3.4357
#
#
#
# Elastic Compliance Matrix: (Units=1/GPa)
#
#
# Indices 1 2 3 4 5 6 
#
# 1 0.013586 0.000017 -0.004462 0.000000 0.004678 0.000000
# 2 0.000017 0.005201 -0.001431 0.000000 -0.000085 0.000000
# 3 -0.004462 -0.001431 0.007742 0.000000 -0.003616 0.000000
# 4 0.000000 0.000000 0.000000 0.002726 0.000000 0.029097
# 5 0.004678 -0.000085 -0.003616 0.000000 0.019703 0.000000
# 6 0.000000 0.000000 0.000000 0.029097 0.000000 0.019468
#
#
# Mechanical properties :
#
#
# Convention : Reuss Voigt Hill
#
# Bulk Modulus (GPa) = 67.66435 78.31974 72.99204
# Shear Modulus (GPa) = 58.75179 30.23539 44.49359
#
# Velocity S-wave (km/s) = 4.72356 3.38857 4.11062
# Velocity P-wave (km/s) = 7.44621 6.71216 7.08869
#
# Compressibility (1/GPa) = 0.01477883
#
# Stress axis : x y z
#
# Youngs Moduli (GPa) = 73.60544 192.27941 129.15735
#
# Poissons Ratio (x) = -0.00328 0.57624
# Poissons Ratio (y) = -0.00126 0.18479
# Poissons Ratio (z) = 0.32839 0.27510
#
# Static dielectric constant tensor:
#      x y z
#    x 2.266360 0.000000 0.072640 
#    y 0.000000 2.478480 0.000000 
#    z 0.072640 0.000000 2.089150 
# 
# From -- ./inp_files/198680.got.cif
#   From: 2010.05.17/outbox.cif.g08.bks.cpg/sg12_100_cif.got.tgz:198680.got - 2010.06.03 13:09:07.
