data_PCOD9217328
_publ_section_title
;
Structure prediction by ZEFSAII (Michael W. Deem and Ramdas Pophale) SiO2 
 PCOD9217328
Probable space group: C 2/M
;
_chemical_formula_sum "Si O2"
_cell_formula_units_Z 56
_cell_length_a 8.220763
_cell_length_b 26.317581
_cell_length_c 13.475563
_cell_angle_alpha 90.000000
_cell_angle_beta 108.032306
_cell_angle_gamma 90.000000
_cell_volume 2772.245578
_symmetry_space_group_name_H-M "C 2/M"
_symmetry_group_IT_number 12
_symmetry_cell_setting 'monoclinic'
loop_
_space_group_symop_operation_xyz
x,y,z
-x,y,-z
-x,-y,-z
x,-y,z
1/2+x,1/2+y,z
1/2-x,1/2+y,-z
1/2-x,1/2-y,-z
1/2+x,1/2-y,z
loop_
_atom_site_type_symbol
_atom_site_label
_atom_site_fract_x
_atom_site_fract_y
_atom_site_fract_z
Si Si1 0.621355 0.354725 0.612291
Si Si2 0.432899 0.939230 0.882320
Si Si3 0.549182 0.439478 0.747836
Si Si4 0.776840 0.396895 0.203542
Si Si5 0.990886 0.665939 0.615034
Si Si6 0.851972 0.203923 0.893027
Si Si7 0.568592 0.733412 0.755596
O O1 0.500000 0.337496 0.500000
O O2 0.541001 0.404645 0.648082
O O3 0.634367 0.310409 0.696470
O O4 0.812043 0.361119 0.607159
O O5 0.236309 0.923789 0.826127
O O6 0.568673 0.925894 0.822100
O O7 0.427965 0.000000 0.888251
O O8 0.500000 0.918404 0.000000
O O9 0.549563 0.500000 0.728454
O O10 0.391821 0.426717 0.792042
O O11 0.859183 0.369840 0.315288
O O12 0.722320 0.352607 0.116498
O O13 0.006766 0.718739 0.678872
O O14 0.000000 0.675543 0.500000
O O15 0.704081 0.245762 0.861721
O O16 0.921698 0.209122 0.794004
O O17 0.000000 0.211683 0.000000
#
# Coordination Sequence:
#
# PCOD9217328 Si02
#       7
#     8   8   8   8   8   8   8
#     4  12  24  41  68  95 131 172 218 277 335 396
#     4  10  23  42  67  99 133 176 226 276 330 385
#     4  11  24  44  68  97 137 176 221 274 330 393
#     4  11  23  42  67  99 133 177 221 272 328 393
#     4  11  24  42  65  96 128 169 219 275 332 396
#     4  11  24  40  63  97 135 175 217 263 327 394
#     4  11  23  42  63  93 132 170 218 268 326 389
#
# _framework density 20.200232
#
# number of rings (size 3 to 8) (size 9 to 14) (size 15 to 20)
#    0.000    1.000    4.286    2.143    4.000    1.429 
#    0.000    4.286    0.000    2.143    0.000    0.000 
#    0.000    0.000    0.000    0.000    0.000    0.000 
#
# Total GULP energy -156350.574360 kJ/mol
# GULP energy per Si atom -5583.949084 kJ/mol
# Density = 2.015426 g / cm^3
# Si number density = 20.200232 Si / 1000 Ang^3
#
#
#
# Elastic Constant Matrix: (Units=GPa)
#
#
# Indices 1 2 3 4 5 6 
#
# 1 132.1955 17.0391 23.4532 0.0000 0.7344 0.0000
# 2 17.0391 56.7939 12.1947 0.0000 4.4149 0.0000
# 3 23.4532 12.1947 84.2444 0.0000 3.7257 0.0000
# 4 0.0000 0.0000 0.0000 -20.1675 0.0000 6.1571
# 5 0.7344 4.4149 3.7257 0.0000 29.2742 0.0000
# 6 0.0000 0.0000 0.0000 6.1571 0.0000 35.3588
#
#
#
# Elastic Compliance Matrix: (Units=1/GPa)
#
#
# Indices 1 2 3 4 5 6 
#
# 1 0.008181 -0.002054 -0.001996 0.000000 0.000359 0.000000
# 2 -0.002054 0.018860 -0.002046 0.000000 -0.002532 0.000000
# 3 -0.001996 -0.002046 0.012778 0.000000 -0.001268 0.000000
# 4 0.000000 0.000000 0.000000 -0.047082 0.000000 0.008198
# 5 0.000359 -0.002532 -0.001268 0.000000 0.034694 0.000000
# 6 0.000000 0.000000 0.000000 0.008198 0.000000 0.026854
#
#
# Mechanical properties :
#
#
# Convention : Reuss Voigt Hill
#
# Bulk Modulus (GPa) = 36.19653 42.06753 39.13203
# Shear Modulus (GPa) = 66.06112 23.59621 44.82866
#
# Velocity S-wave (km/s) = 5.72487 3.42148 4.71597
# Velocity P-wave (km/s) = 7.85217 6.03980 7.00485
#
# Compressibility (1/GPa) = 0.02762695
#
# Stress axis : x y z
#
# Youngs Moduli (GPa) = 122.22780 53.02243 78.25805
#
# Poissons Ratio (x) = 0.10890 0.15622
# Poissons Ratio (y) = 0.25103 0.16014
# Poissons Ratio (z) = 0.24400 0.10850
#
# Static dielectric constant tensor:
#      x y z
#    x 1.785640 0.000000 0.012960 
#    y 0.000000 1.749590 0.000000 
#    z 0.012960 0.000000 1.713150 
# 
# From -- ./inp_files/124340.got.cif
#   From: 2010.05.17/outbox.cif.g08.bks.cpg/sg12_63_cif.got.tgz:124340.got - 2010.06.03 13:09:07.
