data_PCOD9217170
_publ_section_title
;
Structure prediction by ZEFSAII (Michael W. Deem and Ramdas Pophale) SiO2 
 PCOD9217170
Probable space group: C 2/M
;
_chemical_formula_sum "Si O2"
_cell_formula_units_Z 48
_cell_length_a 29.467957
_cell_length_b 9.075847
_cell_length_c 14.701709
_cell_angle_alpha 90.000000
_cell_angle_beta 38.607346
_cell_angle_gamma 90.000000
_cell_volume 2453.440559
_symmetry_space_group_name_H-M "C 2/M"
_symmetry_group_IT_number 12
_symmetry_cell_setting 'monoclinic'
loop_
_space_group_symop_operation_xyz
x,y,z
-x,y,-z
-x,-y,-z
x,-y,z
1/2+x,1/2+y,z
1/2-x,1/2+y,-z
1/2-x,1/2-y,-z
1/2+x,1/2-y,z
loop_
_atom_site_type_symbol
_atom_site_label
_atom_site_fract_x
_atom_site_fract_y
_atom_site_fract_z
Si Si1 0.648082 0.672616 0.918146
Si Si2 0.246340 0.672674 0.408976
Si Si3 0.501528 0.175658 0.104401
Si Si4 0.396710 0.672897 0.408696
Si Si5 0.725286 0.177282 0.133372
Si Si6 0.074192 0.824848 0.432234
O O1 0.628489 0.500000 0.962069
O O2 0.682569 0.689338 0.763841
O O3 0.711436 0.708837 0.891187
O O4 0.576831 0.771654 0.031757
O O5 0.232012 0.500000 0.442750
O O6 0.250000 0.750000 0.500000
O O7 0.180417 0.748683 0.459864
O O8 0.438209 0.253349 0.260249
O O9 0.493831 0.000000 0.122006
O O10 0.500000 0.217596 0.000000
O O11 0.386803 0.500000 0.406578
O O12 0.436337 0.691606 0.442949
O O13 0.647067 0.241772 0.286140
O O14 0.720250 0.000000 0.133352
O O15 0.750000 0.250000 0.000000
O O16 0.000000 0.775718 0.500000
O O17 0.084504 0.000000 0.397482
#
# Coordination Sequence:
#
# PCOD9217170 Si02
#       6
#     8   8   8   8   8   8
#     4  10  23  42  63  88 125 165 205 254 310 371
#     4  11  22  39  63  92 124 161 206 256 311 372
#     4  11  25  42  62  91 127 167 212 260 309 368
#     4  11  23  40  64  92 126 166 207 256 313 370
#     4  11  24  43  66  95 127 164 208 257 313 373
#     4  10  23  43  66  94 127 164 207 256 312 375
#
# _framework density 19.564363
#
# number of rings (size 3 to 8) (size 9 to 14) (size 15 to 20)
#    0.000    1.333    1.667    3.000    2.333    7.667 
#    0.000    0.000    0.000    0.000    0.000    0.000 
#    0.000    0.000    0.000    0.000    0.000    0.000 
#
# Total GULP energy -134151.211734 kJ/mol
# GULP energy per Si atom -5589.633822 kJ/mol
# Density = 1.951983 g / cm^3
# Si number density = 19.564363 Si / 1000 Ang^3
#
#
#
# Elastic Constant Matrix: (Units=GPa)
#
#
# Indices 1 2 3 4 5 6 
#
# 1 56.1432 9.3355 4.5995 0.0000 -1.9197 0.0000
# 2 9.3355 51.8219 37.8322 0.0003 2.9332 -0.0001
# 3 4.5995 37.8322 77.1437 0.0002 5.5699 0.0000
# 4 0.0000 0.0003 0.0002 33.8440 0.0000 -5.7184
# 5 -1.9197 2.9332 5.5699 0.0000 32.9227 0.0000
# 6 0.0000 -0.0001 0.0000 -5.7184 0.0000 30.6484
#
#
#
# Elastic Compliance Matrix: (Units=1/GPa)
#
#
# Indices 1 2 3 4 5 6 
#
# 1 0.018450 -0.003934 0.000735 0.000000 0.001302 0.000000
# 2 -0.003934 0.030898 -0.014885 0.000000 -0.000464 0.000000
# 3 0.000735 -0.014885 0.020369 0.000000 -0.002077 0.000000
# 4 0.000000 0.000000 0.000000 0.030509 0.000000 0.005692
# 5 0.001302 -0.000464 -0.002077 0.000000 0.030843 0.000000
# 6 0.000000 0.000000 0.000000 0.005692 0.000000 0.033690
#
#
# Mechanical properties :
#
#
# Convention : Reuss Voigt Hill
#
# Bulk Modulus (GPa) = 29.80659 32.07146 30.93902
# Shear Modulus (GPa) = 23.57265 28.37246 25.97255
#
# Velocity S-wave (km/s) = 3.47490 3.81230 3.64750
# Velocity P-wave (km/s) = 5.60072 5.98385 5.79546
#
# Compressibility (1/GPa) = 0.03354963
#
# Stress axis : x y z
#
# Youngs Moduli (GPa) = 54.20039 32.36404 49.09498
#
# Poissons Ratio (x) = 0.12733 -0.03610
# Poissons Ratio (y) = 0.21324 0.73077
# Poissons Ratio (z) = -0.03986 0.48174
#
# Static dielectric constant tensor:
#      x y z
#    x 1.716170 0.000000 0.030090 
#    y 0.000000 1.652200 0.000000 
#    z 0.030090 0.000000 1.649900 
# 
# From -- ./inp_files/248809.got.cif
#   From: 2010.05.17/outbox.cif.g08.bks.cpg/sg12_125_cif.got.tgz:248809.got - 2010.06.03 13:09:07.
