data_PCOD9217314
_publ_section_title
;
Structure prediction by ZEFSAII (Michael W. Deem and Ramdas Pophale) SiO2 
 PCOD9217314
Probable space group: C 2/M
;
_chemical_formula_sum "Si O2"
_cell_formula_units_Z 52
_cell_length_a 20.130432
_cell_length_b 22.300015
_cell_length_c 6.031851
_cell_angle_alpha 90.000000
_cell_angle_beta 118.683594
_cell_angle_gamma 90.000000
_cell_volume 2375.466350
_symmetry_space_group_name_H-M "C 2/M"
_symmetry_group_IT_number 12
_symmetry_cell_setting 'monoclinic'
loop_
_space_group_symop_operation_xyz
x,y,z
-x,y,-z
-x,-y,-z
x,-y,z
1/2+x,1/2+y,z
1/2-x,1/2+y,-z
1/2-x,1/2-y,-z
1/2+x,1/2-y,z
loop_
_atom_site_type_symbol
_atom_site_label
_atom_site_fract_x
_atom_site_fract_y
_atom_site_fract_z
Si Si1 0.811557 0.331071 0.951780
Si Si2 0.663058 0.321921 0.430660
Si Si3 0.086799 0.931250 0.570841
Si Si4 0.791695 0.898655 0.878698
Si Si5 0.079740 0.721251 0.529023
Si Si6 0.193315 0.500000 0.520564
Si Si7 0.079906 0.606949 0.229667
O O1 0.741008 0.309978 0.689294
O O2 0.871811 0.361412 0.886732
O O3 0.773767 0.380644 0.052602
O O4 0.856533 0.284537 0.178117
O O5 0.619957 0.380359 0.461756
O O6 0.684054 0.339549 0.215618
O O7 0.609713 0.265655 0.387987
O O8 0.000000 0.920107 0.500000
O O9 0.092856 0.000000 0.496256
O O10 0.138991 0.924906 0.871903
O O11 0.757717 0.947239 0.658619
O O12 0.068405 0.656044 0.403316
O O13 0.000000 0.742371 0.500000
O O14 0.128558 0.551957 0.391281
O O15 0.000000 0.588569 0.000000
#
# Coordination Sequence:
#
# PCOD9217314 Si02
#       7
#     8   8   8   8   8   4   8
#     4  11  23  45  68  99 138 178 233 290 344 414
#     4  11  25  43  70 101 138 187 237 287 350 417
#     4  10  23  42  66  99 139 180 233 296 355 412
#     4  11  24  42  70 102 138 183 236 280 350 420
#     4  12  25  46  70 100 141 183 237 290 353 417
#     4  12  23  46  72 106 140 185 237 286 355 427
#     4  12  26  46  71 105 143 185 230 295 354 420
#
# _framework density 21.890439000000001
#
# number of rings (size 3 to 8) (size 9 to 14) (size 15 to 20)
#    0.000    0.769    5.385    1.154    1.077    6.154 
#    2.769    2.692    0.000    0.000    0.000    0.000 
#    0.000    0.000    0.000    0.000    0.000    0.000 
#
# Total GULP energy -144983.380187 kJ/mol
# GULP energy per Si atom -5576.283853 kJ/mol
# Density = 2.184061 g / cm^3
# Si number density = 21.890439 Si / 1000 Ang^3
#
#
#
# Elastic Constant Matrix: (Units=GPa)
#
#
# Indices 1 2 3 4 5 6 
#
# 1 116.2455 14.0244 25.7812 0.0000 22.9210 0.0000
# 2 14.0244 76.3405 11.4042 0.0000 7.2000 0.0000
# 3 25.7812 11.4042 33.2600 0.0000 18.1235 0.0000
# 4 0.0000 0.0000 0.0000 8.4295 0.0000 9.3785
# 5 22.9210 7.2000 18.1235 0.0000 40.9401 0.0000
# 6 0.0000 0.0000 0.0000 9.3785 0.0000 20.9600
#
#
#
# Elastic Compliance Matrix: (Units=1/GPa)
#
#
# Indices 1 2 3 4 5 6 
#
# 1 0.010707 -0.000725 -0.006397 0.000000 -0.003035 0.000000
# 2 -0.000725 0.013861 -0.004064 0.000000 -0.000233 0.000000
# 3 -0.006397 -0.004064 0.044910 0.000000 -0.015585 0.000000
# 4 0.000000 0.000000 0.000000 0.236233 0.000000 -0.105701
# 5 -0.003035 -0.000233 -0.015585 0.000000 0.033065 0.000000
# 6 0.000000 0.000000 0.000000 -0.105701 0.000000 0.095005
#
#
# Mechanical properties :
#
#
# Convention : Reuss Voigt Hill
#
# Bulk Modulus (GPa) = 21.22831 36.47396 28.85113
# Shear Modulus (GPa) = 10.59643 25.70833 18.15238
#
# Velocity S-wave (km/s) = 2.20254 3.43068 2.88277
# Velocity P-wave (km/s) = 4.02328 5.69131 4.92838
#
# Compressibility (1/GPa) = 0.04710691
#
# Stress axis : x y z
#
# Youngs Moduli (GPa) = 93.39511 72.14247 22.26655
#
# Poissons Ratio (x) = 0.05231 0.14244
# Poissons Ratio (y) = 0.06772 0.09049
# Poissons Ratio (z) = 0.59746 0.29318
#
# Static dielectric constant tensor:
#      x y z
#    x 1.762110 0.000000 -0.019090 
#    y 0.000000 1.778330 0.000000 
#    z -0.019090 0.000000 1.805610 
# 
# From -- ./inp_files/21963.got.cif
#   From: 2010.05.17/outbox.cif.g08.bks.cpg/sg12_11_cif.got.tgz:21963.got - 2010.06.03 13:09:07.
