data_PCOD9217185
_publ_section_title
;
Structure prediction by ZEFSAII (Michael W. Deem and Ramdas Pophale) SiO2 
 PCOD9217185
Probable space group: C 2/M
;
_chemical_formula_sum "Si O2"
_cell_formula_units_Z 64
_cell_length_a 14.390691
_cell_length_b 25.647459
_cell_length_c 8.853942
_cell_angle_alpha 90.000000
_cell_angle_beta 90.163473
_cell_angle_gamma 90.000000
_cell_volume 3267.840849
_symmetry_space_group_name_H-M "C 2/M"
_symmetry_group_IT_number 12
_symmetry_cell_setting 'monoclinic'
loop_
_space_group_symop_operation_xyz
x,y,z
-x,y,-z
-x,-y,-z
x,-y,z
1/2+x,1/2+y,z
1/2-x,1/2+y,-z
1/2-x,1/2-y,-z
1/2+x,1/2-y,z
loop_
_atom_site_type_symbol
_atom_site_label
_atom_site_fract_x
_atom_site_fract_y
_atom_site_fract_z
Si Si1 0.094853 0.636084 0.712142
Si Si2 0.742198 0.802420 0.906302
Si Si3 0.112753 0.339205 0.365064
Si Si4 0.164608 0.225338 0.403107
Si Si5 0.616484 0.390019 0.378193
Si Si6 0.740897 0.609237 0.867765
Si Si7 0.072809 0.061080 0.687378
Si Si8 0.274956 0.940601 0.172331
O O1 0.144910 0.674622 0.835515
O O2 0.129560 0.645670 0.540242
O O3 0.128323 0.579060 0.759093
O O4 0.985027 0.641439 0.700511
O O5 0.799349 0.790666 0.759024
O O6 0.750000 0.750000 0.000000
O O7 0.785111 0.843961 0.020450
O O8 0.102348 0.276262 0.375168
O O9 0.192302 0.364076 0.258246
O O10 0.250000 0.250000 0.500000
O O11 0.124304 0.168693 0.450583
O O12 0.517975 0.402234 0.298449
O O13 0.612810 0.429562 0.519198
O O14 0.698454 0.405629 0.262753
O O15 0.653513 0.581021 0.795722
O O16 0.782291 0.569731 0.992821
O O17 0.050453 0.000000 0.709922
O O18 0.252622 0.000000 0.201789
#
# Coordination Sequence:
#
# PCOD9217185 Si02
#       8
#     8   8   8   8   8   8   8   8
#     4  10  23  42  63  94 123 168 210 255 315 369
#     4  11  22  38  62  93 129 163 206 252 316 381
#     4  11  23  41  67  91 131 163 211 261 307 381
#     4  12  21  40  65  93 126 171 205 252 314 378
#     4  11  23  40  64  96 126 165 219 263 311 381
#     4  11  23  40  63  94 127 167 211 263 316 384
#     4  11  24  42  64  93 129 172 219 269 317 364
#     4  11  22  42  65  88 125 166 208 265 323 370
#
# _framework density 19.584795
#
# number of rings (size 3 to 8) (size 9 to 14) (size 15 to 20)
#    0.000    1.000    5.000    3.375    0.000    5.500 
#    0.000    6.250    0.000    0.000    0.000    0.000 
#    0.000    0.000    0.000    0.000    0.000    0.000 
#
# Total GULP energy -178189.548606 kJ/mol
# GULP energy per Si atom -5568.423394 kJ/mol
# Density = 1.954022 g / cm^3
# Si number density = 19.584795 Si / 1000 Ang^3
#
#
#
# Elastic Constant Matrix: (Units=GPa)
#
#
# Indices 1 2 3 4 5 6 
#
# 1 62.1535 31.5534 32.0976 0.0000 13.3104 0.0000
# 2 31.5534 128.9455 29.1428 0.0000 9.7660 0.0000
# 3 32.0976 29.1428 68.8159 0.0000 14.4316 0.0000
# 4 0.0000 0.0000 0.0000 20.0585 0.0000 -7.6333
# 5 13.3104 9.7660 14.4316 0.0000 19.9270 0.0000
# 6 0.0000 0.0000 0.0000 -7.6333 0.0000 18.9744
#
#
#
# Elastic Compliance Matrix: (Units=1/GPa)
#
#
# Indices 1 2 3 4 5 6 
#
# 1 0.023663 -0.003379 -0.007828 0.000000 -0.008481 0.000000
# 2 -0.003379 0.009117 -0.002147 0.000000 -0.000656 0.000000
# 3 -0.007828 -0.002147 0.020958 0.000000 -0.008897 0.000000
# 4 0.000000 0.000000 0.000000 0.058866 0.000000 0.023681
# 5 -0.008481 -0.000656 -0.008897 0.000000 0.062613 0.000000
# 6 0.000000 0.000000 0.000000 0.023681 0.000000 0.062229
#
#
# Mechanical properties :
#
#
# Convention : Reuss Voigt Hill
#
# Bulk Modulus (GPa) = 36.99569 49.50028 43.24799
# Shear Modulus (GPa) = 18.30396 22.93339 20.61867
#
# Velocity S-wave (km/s) = 3.06044 3.42567 3.24819
# Velocity P-wave (km/s) = 5.60530 6.40130 6.01648
#
# Compressibility (1/GPa) = 0.02703017
#
# Stress axis : x y z
#
# Youngs Moduli (GPa) = 42.25963 109.68429 47.71502
#
# Poissons Ratio (x) = 0.37063 0.37349
# Poissons Ratio (y) = 0.14280 0.10246
# Poissons Ratio (z) = 0.33079 0.23553
#
# Static dielectric constant tensor:
#      x y z
#    x 1.712480 0.000000 0.025000 
#    y 0.000000 1.905740 0.000000 
#    z 0.025000 0.000000 1.682980 
# 
# From -- ./inp_files/65858.got.cif
#   From: 2010.05.17/outbox.cif.g08.bks.cpg/sg12_33_cif.got.tgz:65858.got - 2010.06.03 13:09:07.
