data_PCOD9217546
_publ_section_title
;
Structure prediction by ZEFSAII (Michael W. Deem and Ramdas Pophale) SiO2 
 PCOD9217546
Probable space group: C 2/M
;
_chemical_formula_sum "Si O2"
_cell_formula_units_Z 36
_cell_length_a 9.799148
_cell_length_b 7.545339
_cell_length_c 19.174044
_cell_angle_alpha 90.000000
_cell_angle_beta 76.352808
_cell_angle_gamma 90.000000
_cell_volume 1377.662820
_symmetry_space_group_name_H-M "C 2/M"
_symmetry_group_IT_number 12
_symmetry_cell_setting 'monoclinic'
loop_
_space_group_symop_operation_xyz
x,y,z
-x,y,-z
-x,-y,-z
x,-y,z
1/2+x,1/2+y,z
1/2-x,1/2+y,-z
1/2-x,1/2-y,-z
1/2+x,1/2-y,z
loop_
_atom_site_type_symbol
_atom_site_label
_atom_site_fract_x
_atom_site_fract_y
_atom_site_fract_z
Si Si1 0.821807 0.500000 0.369301
Si Si2 0.970615 0.784848 0.924596
Si Si3 0.493574 0.306066 0.700863
Si Si4 0.133340 0.711231 0.434816
Si Si5 0.262932 0.203737 0.836883
O O1 0.892340 0.653789 0.311154
O O2 0.762915 0.343158 0.430015
O O3 0.104928 0.728171 0.862146
O O4 0.830724 0.713622 0.905854
O O5 0.965284 0.000000 0.924137
O O6 0.000000 0.728703 0.000000
O O7 0.559116 0.500000 0.695029
O O8 0.416092 0.277814 0.636150
O O9 0.373205 0.296763 0.773344
O O10 0.157629 0.500000 0.428800
O O11 0.000000 0.744147 0.500000
O O12 0.256679 0.000000 0.814842
#
# Coordination Sequence:
#
# PCOD9217546 Si02
#       5
#     4   8   8   8   8
#     4  12  25  46  73  98 140 186 236 290 364 416
#     4  10  23  43  68 101 140 182 232 292 357 426
#     4  12  26  45  69 103 138 185 238 292 356 426
#     4  11  25  48  71 102 143 183 235 299 357 425
#     4  11  24  42  68 100 140 184 239 293 353 429
#
# _framework density 26.131215999999998
#
# number of rings (size 3 to 8) (size 9 to 14) (size 15 to 20)
#    0.000    0.889    3.333    2.333    3.111    3.111 
#    0.000    0.000    0.000    0.000    0.000    0.000 
#    0.000    0.000    0.000    0.000    0.000    0.000 
#
# Total GULP energy -100433.510078 kJ/mol
# GULP energy per Si atom -5579.639449 kJ/mol
# Density = 2.607174 g / cm^3
# Si number density = 26.131216 Si / 1000 Ang^3
#
#
#
# Elastic Constant Matrix: (Units=GPa)
#
#
# Indices 1 2 3 4 5 6 
#
# 1 91.0145 4.5304 5.1630 0.0000 -6.3931 0.0000
# 2 4.5304 207.6658 21.6740 0.0000 -29.8752 0.0000
# 3 5.1630 21.6740 98.6391 0.0000 -14.4821 0.0000
# 4 0.0000 0.0000 0.0000 36.9056 0.0000 -7.1348
# 5 -6.3931 -29.8752 -14.4821 0.0000 53.2778 0.0000
# 6 0.0000 0.0000 0.0000 -7.1348 0.0000 9.5532
#
#
#
# Elastic Compliance Matrix: (Units=1/GPa)
#
#
# Indices 1 2 3 4 5 6 
#
# 1 0.011096 -0.000027 -0.000397 0.000000 0.001208 0.000000
# 2 -0.000027 0.005292 -0.000756 0.000000 0.002759 0.000000
# 3 -0.000397 -0.000756 0.010682 0.000000 0.002432 0.000000
# 4 0.000000 0.000000 0.000000 0.031669 0.000000 0.023652
# 5 0.001208 0.002759 0.002432 0.000000 0.021122 0.000000
# 6 0.000000 0.000000 0.000000 0.023652 0.000000 0.122342
#
#
# Mechanical properties :
#
#
# Convention : Reuss Voigt Hill
#
# Bulk Modulus (GPa) = 40.47169 51.11714 45.79442
# Shear Modulus (GPa) = 23.49624 44.34411 33.92018
#
# Velocity S-wave (km/s) = 3.00186 4.12391 3.60678
# Velocity P-wave (km/s) = 5.24751 6.50228 5.90830
#
# Compressibility (1/GPa) = 0.02470863
#
# Stress axis : x y z
#
# Youngs Moduli (GPa) = 90.12238 188.97144 93.61547
#
# Poissons Ratio (x) = 0.00505 0.03721
# Poissons Ratio (y) = 0.00241 0.07081
# Poissons Ratio (z) = 0.03582 0.14293
#
# Static dielectric constant tensor:
#      x y z
#    x 2.232770 0.000000 0.126610 
#    y 0.000000 1.948590 0.000000 
#    z 0.126610 0.000000 2.099170 
# 
# From -- ./inp_files/260898.got.cif
#   From: 2010.05.17/outbox.cif.g08.bks.cpg/sg12_131_cif.got.tgz:260898.got - 2010.06.03 13:09:07.
