data_PCOD9217491
_publ_section_title
;
Structure prediction by ZEFSAII (Michael W. Deem and Ramdas Pophale) SiO2 
 PCOD9217491
Probable space group: C 2/M
;
_chemical_formula_sum "Si O2"
_cell_formula_units_Z 32
_cell_length_a 8.120183
_cell_length_b 19.171800
_cell_length_c 10.836167
_cell_angle_alpha 90.000000
_cell_angle_beta 122.223962
_cell_angle_gamma 90.000000
_cell_volume 1427.116669
_symmetry_space_group_name_H-M "C 2/M"
_symmetry_group_IT_number 12
_symmetry_cell_setting 'monoclinic'
loop_
_space_group_symop_operation_xyz
x,y,z
-x,y,-z
-x,-y,-z
x,-y,z
1/2+x,1/2+y,z
1/2-x,1/2+y,-z
1/2-x,1/2-y,-z
1/2+x,1/2-y,z
loop_
_atom_site_type_symbol
_atom_site_label
_atom_site_fract_x
_atom_site_fract_y
_atom_site_fract_z
Si Si1 0.893174 0.155664 0.247991
Si Si2 0.689631 0.782582 0.655098
Si Si3 0.729680 0.354891 0.063923
Si Si4 0.133573 0.000000 0.672225
Si Si5 0.438713 0.000000 0.120105
O O1 0.802735 0.198692 0.325322
O O2 0.111860 0.185124 0.318346
O O3 0.900221 0.072453 0.268652
O O4 0.762660 0.170547 0.074309
O O5 0.500000 0.800659 0.500000
O O6 0.673354 0.810956 0.788623
O O7 0.818600 0.431490 0.101253
O O8 0.500000 0.357355 0.000000
O O9 0.000000 0.000000 0.500000
O O10 0.359623 0.000000 0.726319
O O11 0.500000 0.000000 0.000000
#
# Coordination Sequence:
#
# PCOD9217491 Si02
#       5
#     8   8   8   4   4
#     4  11  24  46  67  98 136 175 223 274 328 400
#     4  11  25  41  70  98 136 173 222 277 336 387
#     4  10  23  43  67 100 132 174 222 277 327 397
#     4  12  28  44  69 100 138 173 223 277 332 393
#     4  12  23  42  72  95 133 178 226 269 332 395
#
# _framework density 22.422834000000002
#
# number of rings (size 3 to 8) (size 9 to 14) (size 15 to 20)
#    0.000    1.000    2.500    2.625    7.000    3.000 
#    0.000    1.250    0.000    0.000    0.000    0.000 
#    0.000    0.000    0.000    0.000    0.000    0.000 
#
# Total GULP energy -89543.035542 kJ/mol
# GULP energy per Si atom -5596.439721 kJ/mol
# Density = 2.237180 g / cm^3
# Si number density = 22.422834 Si / 1000 Ang^3
#
#
#
# Elastic Constant Matrix: (Units=GPa)
#
#
# Indices 1 2 3 4 5 6 
#
# 1 49.2559 35.9798 36.0355 0.0000 20.0369 0.0000
# 2 35.9798 159.2719 45.4892 0.0000 2.1611 0.0000
# 3 36.0355 45.4892 184.2382 0.0000 24.2409 0.0000
# 4 0.0000 0.0000 0.0000 23.0310 0.0000 -6.2054
# 5 20.0369 2.1611 24.2409 0.0000 34.5284 0.0000
# 6 0.0000 0.0000 0.0000 -6.2054 0.0000 33.8569
#
#
#
# Elastic Compliance Matrix: (Units=1/GPa)
#
#
# Indices 1 2 3 4 5 6 
#
# 1 0.034407 -0.006750 -0.002745 0.000000 -0.017617 0.000000
# 2 -0.006750 0.008100 -0.001243 0.000000 0.004283 0.000000
# 3 -0.002745 -0.001243 0.006668 0.000000 -0.003010 0.000000
# 4 0.000000 0.000000 0.000000 0.045675 0.000000 0.008372
# 5 -0.017617 0.004283 -0.003010 0.000000 0.041030 0.000000
# 6 0.000000 0.000000 0.000000 0.008372 0.000000 0.031070
#
#
# Mechanical properties :
#
#
# Convention : Reuss Voigt Hill
#
# Bulk Modulus (GPa) = 36.10257 69.75278 52.92768
# Shear Modulus (GPa) = 25.29588 36.63403 30.96496
#
# Velocity S-wave (km/s) = 3.36241 4.04639 3.72015
# Velocity P-wave (km/s) = 5.58661 7.28056 6.48909
#
# Compressibility (1/GPa) = 0.02769886
#
# Stress axis : x y z
#
# Youngs Moduli (GPa) = 29.06355 123.45226 149.97495
#
# Poissons Ratio (x) = 0.83325 0.41174
# Poissons Ratio (y) = 0.19617 0.18647
# Poissons Ratio (z) = 0.07979 0.15349
#
# Static dielectric constant tensor:
#      x y z
#    x 1.827330 0.000000 -0.037550 
#    y 0.000000 1.835340 0.000000 
#    z -0.037550 0.000000 1.853800 
# 
# From -- ./inp_files/118705.got.cif
#   From: 2010.05.17/outbox.cif.g08.bks.cpg/sg12_60_cif.got.tgz:118705.got - 2010.06.03 13:09:07.
