data_PCOD9217493
_publ_section_title
;
Structure prediction by ZEFSAII (Michael W. Deem and Ramdas Pophale) SiO2 
 PCOD9217493
Probable space group: C 2/M
;
_chemical_formula_sum "Si O2"
_cell_formula_units_Z 40
_cell_length_a 11.083624
_cell_length_b 17.848591
_cell_length_c 9.902568
_cell_angle_alpha 90.000000
_cell_angle_beta 56.036772
_cell_angle_gamma 90.000000
_cell_volume 1624.784033
_symmetry_space_group_name_H-M "C 2/M"
_symmetry_group_IT_number 12
_symmetry_cell_setting 'monoclinic'
loop_
_space_group_symop_operation_xyz
x,y,z
-x,y,-z
-x,-y,-z
x,-y,z
1/2+x,1/2+y,z
1/2-x,1/2+y,-z
1/2-x,1/2-y,-z
1/2+x,1/2-y,z
loop_
_atom_site_type_symbol
_atom_site_label
_atom_site_fract_x
_atom_site_fract_y
_atom_site_fract_z
Si Si1 0.527340 0.288161 0.334310
Si Si2 0.620627 0.586001 0.730844
Si Si3 0.660392 0.811928 0.887070
Si Si4 0.385960 0.869304 0.373611
Si Si5 0.696604 0.915862 0.122482
O O1 0.500000 0.320498 0.500000
O O2 0.492337 0.351778 0.247905
O O3 0.695188 0.262803 0.219936
O O4 0.421719 0.217493 0.385493
O O5 0.570267 0.500000 0.749522
O O6 0.759005 0.598814 0.544931
O O7 0.678811 0.597648 0.845625
O O8 0.655210 0.865754 0.759103
O O9 0.500000 0.776087 0.000000
O O10 0.684004 0.859397 0.006831
O O11 0.539282 0.910694 0.294194
O O12 0.714783 0.000000 0.058469
#
# Coordination Sequence:
#
# PCOD9217493 Si02
#       5
#     8   8   8   8   8
#     4  12  25  44  72 104 141 180 233 293 344 406
#     4  11  24  43  70 104 139 183 234 284 345 413
#     4  10  25  45  65 102 138 184 223 280 352 406
#     4  11  23  43  73 101 136 183 234 286 344 413
#     4  10  23  43  67 100 141 182 228 286 347 411
#
# _framework density 24.618656999999999
#
# number of rings (size 3 to 8) (size 9 to 14) (size 15 to 20)
#    0.000    1.200    2.000    3.000    2.800   11.200 
#    3.600    2.000    0.000    0.000    0.000    0.000 
#    0.000    0.000    0.000    0.000    0.000    0.000 
#
# Total GULP energy -112099.411475 kJ/mol
# GULP energy per Si atom -5604.970574 kJ/mol
# Density = 2.456262 g / cm^3
# Si number density = 24.618657 Si / 1000 Ang^3
#
#
#
# Elastic Constant Matrix: (Units=GPa)
#
#
# Indices 1 2 3 4 5 6 
#
# 1 112.2370 43.1879 45.6312 0.0000 -3.4570 0.0000
# 2 43.1879 110.3229 2.2916 0.0000 6.6775 0.0000
# 3 45.6312 2.2916 84.0197 0.0000 -5.5794 0.0000
# 4 0.0000 0.0000 0.0000 1.8886 0.0000 -7.7141
# 5 -3.4570 6.6775 -5.5794 0.0000 62.1385 0.0000
# 6 0.0000 0.0000 0.0000 -7.7141 0.0000 14.5442
#
#
#
# Elastic Compliance Matrix: (Units=1/GPa)
#
#
# Indices 1 2 3 4 5 6 
#
# 1 0.014015 -0.005374 -0.007419 0.000000 0.000691 0.000000
# 2 -0.005374 0.011193 0.002529 0.000000 -0.001275 0.000000
# 3 -0.007419 0.002529 0.015912 0.000000 0.000744 0.000000
# 4 0.000000 0.000000 0.000000 -0.453968 0.000000 -0.240778
# 5 0.000691 -0.001275 0.000744 0.000000 0.016335 0.000000
# 6 0.000000 0.000000 0.000000 -0.240778 0.000000 -0.058950
#
#
# Mechanical properties :
#
#
# Convention : Reuss Voigt Hill
#
# Bulk Modulus (GPa) = 48.56595 54.31121 51.43858
# Shear Modulus (GPa) = -11.68034 30.07888 9.19927
#
# Velocity S-wave (km/s) = -2.18055 3.49921 1.93515
# Velocity P-wave (km/s) = 3.66475 6.19958 5.09241
#
# Compressibility (1/GPa) = 0.02059056
#
# Stress axis : x y z
#
# Youngs Moduli (GPa) = 71.35013 89.34322 62.84624
#
# Poissons Ratio (x) = 0.48016 0.46628
# Poissons Ratio (y) = 0.38346 -0.15893
# Poissons Ratio (z) = 0.52937 -0.22594
#
# Static dielectric constant tensor:
#      x y z
#    x 1.954210 0.000000 -0.029360 
#    y 0.000000 1.896510 0.000000 
#    z -0.029360 0.000000 1.970090 
# 
# From -- ./inp_files/130855.got.cif
#   From: 2010.05.17/outbox.cif.g08.bks.cpg/sg12_66_cif.got.tgz:130855.got - 2010.06.03 13:09:07.
