data_PCOD9217436
_publ_section_title
;
Structure prediction by ZEFSAII (Michael W. Deem and Ramdas Pophale) SiO2 
 PCOD9217436
Probable space group: C 2/M
;
_chemical_formula_sum "Si O2"
_cell_formula_units_Z 48
_cell_length_a 28.017969
_cell_length_b 14.455171
_cell_length_c 12.345250
_cell_angle_alpha 90.000000
_cell_angle_beta 28.207922
_cell_angle_gamma 90.000000
_cell_volume 2363.307393
_symmetry_space_group_name_H-M "C 2/M"
_symmetry_group_IT_number 12
_symmetry_cell_setting 'monoclinic'
loop_
_space_group_symop_operation_xyz
x,y,z
-x,y,-z
-x,-y,-z
x,-y,z
1/2+x,1/2+y,z
1/2-x,1/2+y,-z
1/2-x,1/2-y,-z
1/2+x,1/2-y,z
loop_
_atom_site_type_symbol
_atom_site_label
_atom_site_fract_x
_atom_site_fract_y
_atom_site_fract_z
Si Si1 0.597488 0.685482 0.950469
Si Si2 0.633139 0.216381 0.332322
Si Si3 0.788589 0.896755 0.703258
Si Si4 0.288582 0.896755 0.642402
Si Si5 0.366857 0.283617 0.364885
Si Si6 0.097489 0.314523 0.159578
O O1 0.674184 0.603874 0.826818
O O2 0.637989 0.722986 0.754406
O O3 0.478137 0.676261 0.171179
O O4 0.608339 0.750003 0.033321
O O5 0.652021 0.317347 0.347446
O O6 0.706547 0.143855 0.245307
O O7 0.521861 0.176253 0.583733
O O8 0.637984 0.222986 0.193649
O O9 0.793454 0.856146 0.571493
O O10 0.830799 0.000000 0.625428
O O11 0.674192 0.896126 0.976437
O O12 0.347972 0.817349 0.455543
O O13 0.330791 0.000000 0.551395
#
# Coordination Sequence:
#
# PCOD9217436 Si02
#       6
#     8   8   8   8   8   8
#     4  11  21  42  67  88 123 173 206 252 318 372
#     4  10  23  43  65  89 131 165 205 262 316 370
#     4  11  23  39  64  95 123 161 212 260 309 369
#     4  11  23  39  64  95 123 161 212 260 309 369
#     4  10  23  43  65  89 131 165 205 262 316 370
#     4  11  21  42  67  88 123 173 206 252 318 372
#
# _framework density 20.310518999999999
#
# number of rings (size 3 to 8) (size 9 to 14) (size 15 to 20)
#    0.000    1.333    6.667    1.000    0.000    2.667 
#    0.000    6.667    0.000    0.000    0.000    0.000 
#    0.000    0.000    0.000    0.000    0.000    0.000 
#
# Total GULP energy -133655.128182 kJ/mol
# GULP energy per Si atom -5568.963674 kJ/mol
# Density = 2.026429 g / cm^3
# Si number density = 20.310519 Si / 1000 Ang^3
#
#
#
# Elastic Constant Matrix: (Units=GPa)
#
#
# Indices 1 2 3 4 5 6 
#
# 1 136.7855 39.7629 34.7089 0.0000 18.5096 0.0000
# 2 39.7629 121.0791 30.4428 0.0000 7.2630 0.0000
# 3 34.7089 30.4428 106.1445 0.0000 5.3688 0.0000
# 4 0.0000 0.0000 0.0000 11.5824 0.0000 -4.5985
# 5 18.5096 7.2630 5.3688 0.0000 49.4029 0.0000
# 6 0.0000 0.0000 0.0000 -4.5985 0.0000 5.6803
#
#
#
# Elastic Compliance Matrix: (Units=1/GPa)
#
#
# Indices 1 2 3 4 5 6 
#
# 1 0.008867 -0.002212 -0.002125 0.000000 -0.002766 0.000000
# 2 -0.002212 0.009506 -0.001985 0.000000 -0.000353 0.000000
# 3 -0.002125 -0.001985 0.010689 0.000000 -0.000074 0.000000
# 4 0.000000 0.000000 0.000000 0.127232 0.000000 0.103001
# 5 -0.002766 -0.000353 -0.000074 0.000000 0.021338 0.000000
# 6 0.000000 0.000000 0.000000 0.103001 0.000000 0.259431
#
#
# Mechanical properties :
#
#
# Convention : Reuss Voigt Hill
#
# Bulk Modulus (GPa) = 60.91010 63.75980 62.33495
# Shear Modulus (GPa) = 10.98467 30.60610 20.79539
#
# Velocity S-wave (km/s) = 2.32811 3.88610 3.20327
# Velocity P-wave (km/s) = 6.10585 7.18306 6.66625
#
# Compressibility (1/GPa) = 0.01641764
#
# Stress axis : x y z
#
# Youngs Moduli (GPa) = 112.77441 105.19970 93.55265
#
# Poissons Ratio (x) = 0.23268 0.19883
# Poissons Ratio (y) = 0.24943 0.18572
# Poissons Ratio (z) = 0.23968 0.20884
#
# Static dielectric constant tensor:
#      x y z
#    x 1.771640 0.000000 -0.050550 
#    y 0.000000 1.653900 0.000000 
#    z -0.050550 0.000000 1.836510 
# 
# From -- ./inp_files/183665.got.cif
#   From: 2010.05.17/outbox.cif.g08.bks.cpg/sg12_92_cif.got.tgz:183665.got - 2010.06.03 13:09:07.
