data_PCOD9217229
_publ_section_title
;
Structure prediction by ZEFSAII (Michael W. Deem and Ramdas Pophale) SiO2 
 PCOD9217229
Probable space group: C 2/M
;
_chemical_formula_sum "Si O2"
_cell_formula_units_Z 48
_cell_length_a 7.966232
_cell_length_b 22.289035
_cell_length_c 20.961888
_cell_angle_alpha 90.000000
_cell_angle_beta 138.903210
_cell_angle_gamma 90.000000
_cell_volume 2446.583630
_symmetry_space_group_name_H-M "C 2/M"
_symmetry_group_IT_number 12
_symmetry_cell_setting 'monoclinic'
loop_
_space_group_symop_operation_xyz
x,y,z
-x,y,-z
-x,-y,-z
x,-y,z
1/2+x,1/2+y,z
1/2-x,1/2+y,-z
1/2-x,1/2-y,-z
1/2+x,1/2-y,z
loop_
_atom_site_type_symbol
_atom_site_label
_atom_site_fract_x
_atom_site_fract_y
_atom_site_fract_z
Si Si1 0.357157 0.848168 0.900017
Si Si2 0.955593 0.871082 0.559729
Si Si3 0.298850 0.227172 0.099120
Si Si4 0.979383 0.929479 0.287324
Si Si5 0.380382 0.163054 0.377872
Si Si6 0.590489 0.779472 0.311886
O O1 0.536514 0.804390 0.908653
O O2 0.180279 0.799533 0.886577
O O3 0.225987 0.893380 0.813901
O O4 0.500000 0.879409 0.000000
O O5 0.030120 0.913637 0.639957
O O6 0.664608 0.848493 0.485852
O O7 0.000000 0.896023 0.500000
O O8 0.143896 0.814589 0.615795
O O9 0.423546 0.207926 0.201573
O O10 0.000000 0.213289 0.000000
O O11 0.245144 0.901068 0.338958
O O12 0.960586 0.000000 0.272599
O O13 0.435777 0.193530 0.326032
O O14 0.173431 0.210401 0.346741
#
# Coordination Sequence:
#
# PCOD9217229 Si02
#       6
#     8   8   8   8   8   8
#     4  11  23  40  66  97 130 160 201 256 318 382
#     4  10  23  42  64  94 128 164 207 264 319 375
#     4  11  21  36  67 100 127 157 195 256 326 380
#     4  12  26  44  64  88 124 174 220 259 303 366
#     4  11  23  37  64  93 130 164 207 255 316 381
#     4  11  20  38  64  99 130 159 198 261 331 383
#
# _framework density 19.619195000000001
#
# number of rings (size 3 to 8) (size 9 to 14) (size 15 to 20)
#    0.000    1.000    3.333    5.000    2.333    4.667 
#    0.000    2.500    0.000    0.500    0.000    0.000 
#    0.000    0.000    0.000    0.000    0.000    0.000 
#
# Total GULP energy -133922.028324 kJ/mol
# GULP energy per Si atom -5580.084514 kJ/mol
# Density = 1.957454 g / cm^3
# Si number density = 19.619195 Si / 1000 Ang^3
#
#
#
# Elastic Constant Matrix: (Units=GPa)
#
#
# Indices 1 2 3 4 5 6 
#
# 1 90.8127 47.9453 61.8253 0.0000 -12.6299 0.0000
# 2 47.9453 120.3094 63.8242 0.0000 -8.3289 0.0000
# 3 61.8253 63.8242 177.8373 0.0000 -18.5909 0.0000
# 4 0.0000 0.0000 0.0000 13.5646 0.0000 -3.9903
# 5 -12.6299 -8.3289 -18.5909 0.0000 40.8358 0.0000
# 6 0.0000 0.0000 0.0000 -3.9903 0.0000 16.6047
#
#
#
# Elastic Compliance Matrix: (Units=1/GPa)
#
#
# Indices 1 2 3 4 5 6 
#
# 1 0.016217 -0.004248 -0.003864 0.000000 0.002390 0.000000
# 2 -0.004248 0.011387 -0.002630 0.000000 -0.000188 0.000000
# 3 -0.003864 -0.002630 0.008115 0.000000 0.001963 0.000000
# 4 0.000000 0.000000 0.000000 0.079329 0.000000 0.019064
# 5 0.002390 -0.000188 0.001963 0.000000 0.026083 0.000000
# 6 0.000000 0.000000 0.000000 0.019064 0.000000 0.064805
#
#
# Mechanical properties :
#
#
# Convention : Reuss Voigt Hill
#
# Bulk Modulus (GPa) = 70.23764 81.79435 76.01599
# Shear Modulus (GPa) = 21.53655 28.55865 25.04760
#
# Velocity S-wave (km/s) = 3.31679 3.81944 3.57695
# Velocity P-wave (km/s) = 7.10959 7.82510 7.47591
#
# Compressibility (1/GPa) = 0.01423738
#
# Stress axis : x y z
#
# Youngs Moduli (GPa) = 61.66365 87.82257 123.22503
#
# Poissons Ratio (x) = 0.37304 0.47608
# Poissons Ratio (y) = 0.26193 0.32403
# Poissons Ratio (z) = 0.23824 0.23093
#
# Static dielectric constant tensor:
#      x y z
#    x 1.767180 0.000000 -0.018470 
#    y 0.000000 1.641830 0.000000 
#    z -0.018470 0.000000 1.783000 
# 
# From -- ./inp_files/301843.got.cif
#   From: 2010.05.17/outbox.cif.g08.bks.cpg/sg12_151_cif.got.tgz:301843.got - 2010.06.03 13:09:07.
