data_PCOD9217627
_publ_section_title
;
Structure prediction by ZEFSAII (Michael W. Deem and Ramdas Pophale) SiO2 
 PCOD9217627
Probable space group: C 2/M
;
_chemical_formula_sum "Si O2"
_cell_formula_units_Z 52
_cell_length_a 28.854861
_cell_length_b 9.544454
_cell_length_c 29.340949
_cell_angle_alpha 90.000000
_cell_angle_beta 161.182537
_cell_angle_gamma 90.000000
_cell_volume 2606.435261
_symmetry_space_group_name_H-M "C 2/M"
_symmetry_group_IT_number 12
_symmetry_cell_setting 'monoclinic'
loop_
_space_group_symop_operation_xyz
x,y,z
-x,y,-z
-x,-y,-z
x,-y,z
1/2+x,1/2+y,z
1/2-x,1/2+y,-z
1/2-x,1/2-y,-z
1/2+x,1/2-y,z
loop_
_atom_site_type_symbol
_atom_site_label
_atom_site_fract_x
_atom_site_fract_y
_atom_site_fract_z
Si Si1 0.720355 0.000000 0.956734
Si Si2 0.510791 0.160048 0.927004
Si Si3 0.271682 0.333449 0.566507
Si Si4 0.083023 0.743640 0.892665
Si Si5 0.967495 0.339042 0.581110
Si Si6 0.735094 0.837500 0.696048
Si Si7 0.695694 0.337358 0.748018
O O1 0.812810 0.123725 0.016228
O O2 0.635854 0.122305 0.907956
O O3 0.575616 0.189186 0.937507
O O4 0.384632 0.268049 0.820234
O O5 0.454474 0.000000 0.876273
O O6 0.639033 0.171965 0.082659
O O7 0.274685 0.500000 0.560887
O O8 0.250000 0.250000 0.500000
O O9 0.421484 0.289318 0.728630
O O10 0.138083 0.304651 0.475625
O O11 0.018160 0.500000 0.633967
O O12 0.871618 0.332240 0.446173
O O13 0.097312 0.233062 0.695048
O O14 0.676944 0.749948 0.684479
O O15 0.753122 0.000000 0.725806
O O16 0.658363 0.500000 0.707116
#
# Coordination Sequence:
#
# PCOD9217627 Si02
#       7
#     4   8   8   8   8   8   8
#     4  10  24  38  70  94 128 166 222 268 324 380
#     4  11  24  42  67  95 136 172 213 267 330 388
#     4  11  25  45  68  96 133 172 219 268 323 391
#     4  11  22  46  65  97 129 174 215 271 325 395
#     4  10  23  44  66  93 131 174 217 266 322 384
#     4  11  23  42  71  96 129 172 218 271 327 388
#     4  11  25  43  62  99 134 169 218 272 323 385
#
# _framework density 19.950620000000001
#
# number of rings (size 3 to 8) (size 9 to 14) (size 15 to 20)
#    0.000    1.231    3.077    1.846    2.154    9.231 
#    2.769    0.000    0.000    0.000    0.000    0.000 
#    0.000    0.000    0.000    0.000    0.000    0.000 
#
# Total GULP energy -144885.353295 kJ/mol
# GULP energy per Si atom -5572.513588 kJ/mol
# Density = 1.990521 g / cm^3
# Si number density = 19.950620 Si / 1000 Ang^3
#
#
#
# Elastic Constant Matrix: (Units=GPa)
#
#
# Indices 1 2 3 4 5 6 
#
# 1 75.8713 29.7173 13.6431 -0.0022 9.3929 -0.0009
# 2 29.7173 121.3133 27.9051 -0.0012 21.8564 -0.0033
# 3 13.6431 27.9051 27.2545 -0.0109 7.1845 -0.0068
# 4 -0.0022 -0.0012 -0.0109 21.2264 -0.0057 6.6025
# 5 9.3929 21.8564 7.1845 -0.0057 27.9486 -0.0011
# 6 -0.0009 -0.0033 -0.0068 6.6025 -0.0011 33.4307
#
#
#
# Elastic Compliance Matrix: (Units=1/GPa)
#
#
# Indices 1 2 3 4 5 6 
#
# 1 0.015174 -0.002244 -0.004738 -0.000001 -0.002127 -0.000001
# 2 -0.002244 0.012142 -0.009659 -0.000006 -0.006258 0.000000
# 3 -0.004738 -0.009659 0.049924 0.000022 -0.003688 0.000005
# 4 -0.000001 -0.000006 0.000022 0.050195 0.000010 -0.009913
# 5 -0.002127 -0.006258 -0.003688 0.000010 0.042337 -0.000002
# 6 -0.000001 0.000000 0.000005 -0.009913 -0.000002 0.031870
#
#
# Mechanical properties :
#
#
# Convention : Reuss Voigt Hill
#
# Bulk Modulus (GPa) = 22.74818 40.77447 31.76132
# Shear Modulus (GPa) = 20.03387 26.73273 23.38330
#
# Velocity S-wave (km/s) = 3.17231 3.66450 3.42725
# Velocity P-wave (km/s) = 4.98448 6.19571 5.62280
#
# Compressibility (1/GPa) = 0.04395957
#
# Stress axis : x y z
#
# Youngs Moduli (GPa) = 65.90024 82.35765 20.03034
#
# Poissons Ratio (x) = 0.18483 0.09490
# Poissons Ratio (y) = 0.14790 0.19347
# Poissons Ratio (z) = 0.31221 0.79548
#
# Static dielectric constant tensor:
#      x y z
#    x 1.692680 0.000000 -0.004100 
#    y 0.000000 1.670170 0.000000 
#    z -0.004100 0.000000 1.701930 
# 
# From -- ./inp_files/384860.got.cif
#   From: 2010.05.17/outbox.cif.g08.bks.cpg/sg12_193_cif.got.tgz:384860.got - 2010.06.03 13:09:07.
