data_PCOD9217947
_publ_section_title
;
Structure prediction by ZEFSAII (Michael W. Deem and Ramdas Pophale) SiO2 
 PCOD9217947
Probable space group: C 2/M
;
_chemical_formula_sum "Si O2"
_cell_formula_units_Z 52
_cell_length_a 29.298697
_cell_length_b 9.612630
_cell_length_c 15.478803
_cell_angle_alpha 90.000000
_cell_angle_beta 141.670875
_cell_angle_gamma 90.000000
_cell_volume 2703.610809
_symmetry_space_group_name_H-M "C 2/M"
_symmetry_group_IT_number 12
_symmetry_cell_setting 'monoclinic'
loop_
_space_group_symop_operation_xyz
x,y,z
-x,y,-z
-x,-y,-z
x,-y,z
1/2+x,1/2+y,z
1/2-x,1/2+y,-z
1/2-x,1/2-y,-z
1/2+x,1/2-y,z
loop_
_atom_site_type_symbol
_atom_site_label
_atom_site_fract_x
_atom_site_fract_y
_atom_site_fract_z
Si Si1 0.581795 0.664035 0.868020
Si Si2 0.182426 0.833562 0.439823
Si Si3 0.753719 0.283042 0.129086
Si Si4 0.845386 0.343716 0.436373
Si Si5 0.522081 0.331776 0.128037
Si Si6 0.511450 0.839699 0.615785
Si Si7 0.738320 0.000000 0.011567
O O1 0.567734 0.500000 0.833007
O O2 0.531294 0.714628 0.872992
O O3 0.562642 0.746637 0.752348
O O4 0.667413 0.683156 0.015778
O O5 0.250000 0.750000 0.500000
O O6 0.171984 0.774167 0.520256
O O7 0.106419 0.800982 0.276436
O O8 0.193239 0.000000 0.454401
O O9 0.799518 0.320133 0.281622
O O10 0.778888 0.379521 0.087427
O O11 0.759759 0.123159 0.112210
O O12 0.828934 0.500000 0.445972
O O13 0.931299 0.338561 0.540297
O O14 0.514859 0.500000 0.115712
O O15 0.500000 0.279899 0.000000
O O16 0.500000 0.792701 0.500000
O O17 0.538634 0.000000 0.654233
#
# Coordination Sequence:
#
# PCOD9217947 Si02
#       7
#     8   8   8   8   8   8   4
#     4  11  22  40  63  95 124 161 210 261 312 377
#     4  11  24  43  68  95 127 163 210 265 326 392
#     4  11  24  40  65  93 126 173 216 267 312 373
#     4  11  23  42  63  94 131 172 214 262 320 388
#     4   9  20  40  65  92 124 158 200 255 315 379
#     4  10  24  39  61  88 129 174 210 253 318 377
#     4  10  24  42  60  92 132 168 220 266 314 366
#
# _framework density 19.233536000000001
#
# number of rings (size 3 to 8) (size 9 to 14) (size 15 to 20)
#    0.000    1.538    3.077    0.462    8.615    0.308 
#    0.000    0.000    0.000    2.308    0.000    0.000 
#    0.000    0.000    0.000    0.000    0.000    0.000 
#
# Total GULP energy -144737.959411 kJ/mol
# GULP energy per Si atom -5566.844593 kJ/mol
# Density = 1.918976 g / cm^3
# Si number density = 19.233536 Si / 1000 Ang^3
#
#
#
# Elastic Constant Matrix: (Units=GPa)
#
#
# Indices 1 2 3 4 5 6 
#
# 1 42.9528 27.2372 -0.1398 0.0000 13.3374 0.0000
# 2 27.2372 108.7363 26.2418 0.0000 -2.1143 0.0000
# 3 -0.1398 26.2418 80.1309 0.0000 8.8887 0.0000
# 4 0.0000 0.0000 0.0000 16.0092 0.0000 -15.2502
# 5 13.3374 -2.1143 8.8887 0.0000 23.5125 0.0000
# 6 0.0000 0.0000 0.0000 -15.2502 0.0000 18.6173
#
#
#
# Elastic Compliance Matrix: (Units=1/GPa)
#
#
# Indices 1 2 3 4 5 6 
#
# 1 0.038776 -0.011850 0.006791 0.000000 -0.025629 0.000000
# 2 -0.011850 0.013720 -0.005633 0.000000 0.010085 0.000000
# 3 0.006791 -0.005633 0.015468 0.000000 -0.010207 0.000000
# 4 0.000000 0.000000 0.000000 0.284315 0.000000 0.232893
# 5 -0.025629 0.010085 -0.010207 0.000000 0.061834 0.000000
# 6 0.000000 0.000000 0.000000 0.232893 0.000000 0.244485
#
#
# Mechanical properties :
#
#
# Convention : Reuss Voigt Hill
#
# Bulk Modulus (GPa) = 21.46778 37.61093 29.53935
# Shear Modulus (GPa) = 7.18899 23.52653 15.35776
#
# Velocity S-wave (km/s) = 1.93542 3.50123 2.82882
# Velocity P-wave (km/s) = 4.02248 5.99517 5.10502
#
# Compressibility (1/GPa) = 0.04658144
#
# Stress axis : x y z
#
# Youngs Moduli (GPa) = 25.78921 72.88442 64.64873
#
# Poissons Ratio (x) = 0.86370 -0.43905
# Poissons Ratio (y) = 0.30561 0.36414
# Poissons Ratio (z) = -0.17514 0.41053
#
# Static dielectric constant tensor:
#      x y z
#    x 1.705070 0.000000 0.031340 
#    y 0.000000 1.661390 0.000000 
#    z 0.031340 0.000000 1.658440 
# 
# From -- ./inp_files/250166.got.cif
#   From: 2010.05.17/outbox.cif.g08.bks.cpg/sg12_126_cif.got.tgz:250166.got - 2010.06.03 13:09:07.
