data_PCOD9217702
_publ_section_title
;
Structure prediction by ZEFSAII (Michael W. Deem and Ramdas Pophale) SiO2 
 PCOD9217702
Probable space group: C 2/M
;
_chemical_formula_sum "Si O2"
_cell_formula_units_Z 56
_cell_length_a 31.785319
_cell_length_b 8.641951
_cell_length_c 12.080651
_cell_angle_alpha 90.000000
_cell_angle_beta 56.017972
_cell_angle_gamma 90.000000
_cell_volume 2751.660057
_symmetry_space_group_name_H-M "C 2/M"
_symmetry_group_IT_number 12
_symmetry_cell_setting 'monoclinic'
loop_
_space_group_symop_operation_xyz
x,y,z
-x,y,-z
-x,-y,-z
x,-y,z
1/2+x,1/2+y,z
1/2-x,1/2+y,-z
1/2-x,1/2-y,-z
1/2+x,1/2-y,z
loop_
_atom_site_type_symbol
_atom_site_label
_atom_site_fract_x
_atom_site_fract_y
_atom_site_fract_z
Si Si1 0.884941 0.314992 0.161617
Si Si2 0.089518 0.315385 0.628879
Si Si3 0.228108 0.814771 0.647529
Si Si4 0.693369 0.815883 0.095350
Si Si5 0.494917 0.313722 0.635707
Si Si6 0.680910 0.684249 0.349315
Si Si7 0.394244 0.316043 0.916394
O O1 0.886264 0.500000 0.148028
O O2 0.910115 0.273093 0.241933
O O3 0.826934 0.257510 0.253111
O O4 0.908378 0.237761 0.018684
O O5 0.097333 0.500000 0.609764
O O6 0.136124 0.233273 0.497914
O O7 0.038137 0.266381 0.644479
O O8 0.250000 0.750000 0.500000
O O9 0.267420 0.762337 0.683730
O O10 0.224861 0.000000 0.648188
O O11 0.670322 0.744438 0.241671
O O12 0.657125 0.765608 0.048398
O O13 0.695483 0.000000 0.099993
O O14 0.750000 0.750000 0.000000
O O15 0.500000 0.268754 0.500000
O O16 0.501762 0.500000 0.632499
O O17 0.439765 0.276816 0.765885
O O18 0.686524 0.500000 0.340588
O O19 0.386199 0.500000 0.926611
#
# Coordination Sequence:
#
# PCOD9217702 Si02
#       7
#     8   8   8   8   8   8   8
#     4  11  24  42  63  92 132 173 216 265 322 386
#     4  11  24  41  65  95 127 165 215 269 319 381
#     4  12  23  38  61  92 129 171 215 262 318 379
#     4  12  25  43  66  94 130 169 214 264 319 386
#     4  10  23  44  69  95 126 165 211 267 328 390
#     4  12  24  40  64  93 129 170 214 268 324 381
#     4  11  24  43  67  96 130 170 216 267 325 386
#
# _framework density 20.35135
#
# number of rings (size 3 to 8) (size 9 to 14) (size 15 to 20)
#    0.000    0.714    1.429    6.857    0.000    4.857 
#    0.000    2.857    0.000    0.000    0.000    0.000 
#    0.000    0.000    0.000    0.000    0.000    0.000 
#
# Total GULP energy -156793.267701 kJ/mol
# GULP energy per Si atom -5599.759561 kJ/mol
# Density = 2.030503 g / cm^3
# Si number density = 20.351350 Si / 1000 Ang^3
#
#
#
# Elastic Constant Matrix: (Units=GPa)
#
#
# Indices 1 2 3 4 5 6 
#
# 1 91.4335 5.2120 22.9610 0.0000 12.0290 0.0000
# 2 5.2120 37.1598 21.9103 0.0000 -1.1966 0.0000
# 3 22.9610 21.9103 121.3442 0.0000 16.1496 0.0000
# 4 0.0000 0.0000 0.0000 32.7607 0.0000 4.2413
# 5 12.0290 -1.1966 16.1496 0.0000 32.6981 0.0000
# 6 0.0000 0.0000 0.0000 4.2413 0.0000 31.4823
#
#
#
# Elastic Compliance Matrix: (Units=1/GPa)
#
#
# Indices 1 2 3 4 5 6 
#
# 1 0.011863 -0.000826 -0.001617 0.000000 -0.003596 0.000000
# 2 -0.000826 0.030685 -0.005966 0.000000 0.004374 0.000000
# 3 -0.001617 -0.005966 0.010248 0.000000 -0.004685 0.000000
# 4 0.000000 0.000000 0.000000 0.031066 0.000000 -0.004185
# 5 -0.003596 0.004374 -0.004685 0.000000 0.034380 0.000000
# 6 0.000000 0.000000 0.000000 -0.004185 0.000000 0.032328
#
#
# Mechanical properties :
#
#
# Convention : Reuss Voigt Hill
#
# Bulk Modulus (GPa) = 27.79552 38.90046 33.34799
# Shear Modulus (GPa) = 27.87352 32.71182 30.29267
#
# Velocity S-wave (km/s) = 3.70485 4.01353 3.86227
# Velocity P-wave (km/s) = 5.65585 6.37447 6.02588
#
# Compressibility (1/GPa) = 0.03597702
#
# Stress axis : x y z
#
# Youngs Moduli (GPa) = 84.29472 32.58871 97.58181
#
# Poissons Ratio (x) = 0.02693 0.15779
# Poissons Ratio (y) = 0.06965 0.58221
# Poissons Ratio (z) = 0.13631 0.19444
#
# Static dielectric constant tensor:
#      x y z
#    x 1.697600 0.000000 0.029120 
#    y 0.000000 1.718640 0.000000 
#    z 0.029120 0.000000 1.654450 
# 
# From -- ./inp_files/187208.got.cif
#   From: 2010.05.17/outbox.cif.g08.bks.cpg/sg12_94_cif.got.tgz:187208.got - 2010.06.03 13:09:07.
