data_PCOD9217083
_publ_section_title
;
Structure prediction by ZEFSAII (Michael W. Deem and Ramdas Pophale) SiO2 
 PCOD9217083
Probable space group: C 2/M
;
_chemical_formula_sum "Si O2"
_cell_formula_units_Z 42
_cell_length_a 17.705336
_cell_length_b 19.659096
_cell_length_c 5.755868
_cell_angle_alpha 90.000000
_cell_angle_beta 109.408599
_cell_angle_gamma 90.000000
_cell_volume 1889.599686
_symmetry_space_group_name_H-M "C 2/M"
_symmetry_group_IT_number 12
_symmetry_cell_setting 'monoclinic'
loop_
_space_group_symop_operation_xyz
x,y,z
-x,y,-z
-x,-y,-z
x,-y,z
1/2+x,1/2+y,z
1/2-x,1/2+y,-z
1/2-x,1/2-y,-z
1/2+x,1/2-y,z
loop_
_atom_site_type_symbol
_atom_site_label
_atom_site_fract_x
_atom_site_fract_y
_atom_site_fract_z
Si Si1 0.791005 0.695810 0.205150
Si Si2 0.959605 0.896252 0.710862
Si Si3 0.565759 0.761436 0.373672
Si Si4 0.724503 0.422046 0.427540
Si Si5 0.500000 0.000000 0.000000
Si Si6 0.375168 0.878212 0.897202
O O1 0.844058 0.740277 0.433051
O O2 0.732601 0.639513 0.251646
O O3 0.750000 0.750000 0.000000
O O4 0.853180 0.650903 0.123681
O O5 0.957862 0.813972 0.725406
O O6 0.868071 0.921010 0.595421
O O7 0.000000 0.912850 0.500000
O O8 0.000000 0.919454 0.000000
O O9 0.500000 0.781556 0.500000
O O10 0.579281 0.818729 0.195543
O O11 0.743514 0.500000 0.369072
O O12 0.792084 0.400223 0.684658
O O13 0.432030 0.058376 0.967723
#
# Coordination Sequence:
#
# PCOD9217083 Si02
#       6
#     8   8   8   8   2   8
#     4  11  24  42  73 104 138 195 245 306 367 451
#     4  11  27  46  76 110 145 192 253 319 380 445
#     4  10  23  41  67 103 141 185 244 310 364 433
#     4  11  26  47  68 104 147 190 247 306 384 450
#     4  12  24  40  70 104 144 196 234 300 378 464
#     4  11  24  43  68 104 144 195 242 302 369 460
#
# _framework density 22.226929999999999
#
# number of rings (size 3 to 8) (size 9 to 14) (size 15 to 20)
#    0.000    1.143    0.952    3.429   16.000    3.810 
#    0.000    2.381    0.000    0.000    0.000    0.000 
#    0.000    0.000    0.000    0.000    0.000    0.000 
#
# Total GULP energy -117044.914829 kJ/mol
# GULP energy per Si atom -5573.567373 kJ/mol
# Density = 2.217634 g / cm^3
# Si number density = 22.226930 Si / 1000 Ang^3
#
#
#
# Elastic Constant Matrix: (Units=GPa)
#
#
# Indices 1 2 3 4 5 6 
#
# 1 133.6920 40.5372 36.6669 0.0000 4.2930 0.0000
# 2 40.5372 109.6523 33.7897 0.0000 -0.5660 0.0000
# 3 36.6669 33.7897 71.8128 0.0000 8.4491 0.0000
# 4 0.0000 0.0000 0.0000 -12.2259 0.0000 19.7279
# 5 4.2930 -0.5660 8.4491 0.0000 34.8763 0.0000
# 6 0.0000 0.0000 0.0000 19.7279 0.0000 36.2652
#
#
#
# Elastic Compliance Matrix: (Units=1/GPa)
#
#
# Indices 1 2 3 4 5 6 
#
# 1 0.009162 -0.002290 -0.003565 0.000000 -0.000301 0.000000
# 2 -0.002290 0.011308 -0.004330 0.000000 0.001514 0.000000
# 3 -0.003565 -0.004330 0.018260 0.000000 -0.004055 0.000000
# 4 0.000000 0.000000 0.000000 -0.043558 0.000000 0.023695
# 5 -0.000301 0.001514 -0.004055 0.000000 0.029717 0.000000
# 6 0.000000 0.000000 0.000000 0.023695 0.000000 0.014685
#
#
# Mechanical properties :
#
#
# Convention : Reuss Voigt Hill
#
# Bulk Modulus (GPa) = 54.46528 59.68273 57.07400
# Shear Modulus (GPa) = 75.68640 25.39401 50.54020
#
# Velocity S-wave (km/s) = 5.84171 3.38374 4.77364
# Velocity P-wave (km/s) = 8.37008 6.49431 7.49114
#
# Compressibility (1/GPa) = 0.01836032
#
# Stress axis : x y z
#
# Youngs Moduli (GPa) = 109.15097 88.43012 54.76553
#
# Poissons Ratio (x) = 0.20250 0.19523
# Poissons Ratio (y) = 0.24995 0.23712
# Poissons Ratio (z) = 0.38911 0.38288
#
# Static dielectric constant tensor:
#      x y z
#    x 1.806850 0.000000 -0.001720 
#    y 0.000000 1.765470 0.000000 
#    z -0.001720 0.000000 1.888690 
# 
# From -- ./inp_files/16017.got.cif
#   From: 2010.05.17/outbox.cif.g08.bks.cpg/sg12_9_cif.got.tgz:16017.got - 2010.06.03 13:09:07.
