data_PCOD9217336
_publ_section_title
;
Structure prediction by ZEFSAII (Michael W. Deem and Ramdas Pophale) SiO2 
 PCOD9217336
Probable space group: C 2/M
;
_chemical_formula_sum "Si O2"
_cell_formula_units_Z 40
_cell_length_a 11.648785
_cell_length_b 21.054499
_cell_length_c 11.952576
_cell_angle_alpha 90.000000
_cell_angle_beta 35.616401
_cell_angle_gamma 90.000000
_cell_volume 1707.164550
_symmetry_space_group_name_H-M "C 2/M"
_symmetry_group_IT_number 12
_symmetry_cell_setting 'monoclinic'
loop_
_space_group_symop_operation_xyz
x,y,z
-x,y,-z
-x,-y,-z
x,-y,z
1/2+x,1/2+y,z
1/2-x,1/2+y,-z
1/2-x,1/2-y,-z
1/2+x,1/2-y,z
loop_
_atom_site_type_symbol
_atom_site_label
_atom_site_fract_x
_atom_site_fract_y
_atom_site_fract_z
Si Si1 0.765773 0.429061 0.206954
Si Si2 0.049492 0.199439 0.329748
Si Si3 0.877273 0.139672 0.270877
Si Si4 0.204874 0.664940 0.172010
Si Si5 0.641207 0.930150 0.615169
O O1 0.696009 0.500000 0.228472
O O2 0.668488 0.367170 0.231298
O O3 0.745891 0.422938 0.356797
O O4 0.000000 0.427171 0.000000
O O5 0.169018 0.259956 0.190942
O O6 0.000000 0.209509 0.500000
O O7 0.875653 0.188129 0.377507
O O8 0.736192 0.154569 0.279470
O O9 0.796568 0.076347 0.391935
O O10 0.095442 0.143147 0.047199
O O11 0.024793 0.623118 0.269488
O O12 0.547891 0.000000 0.690429
#
# Coordination Sequence:
#
# PCOD9217336 Si02
#       5
#     8   8   8   8   8
#     4  10  23  42  68 102 139 181 227 283 349 412
#     4  12  24  41  71 100 138 183 225 293 342 410
#     4  11  25  45  65 101 137 184 232 279 344 408
#     4  11  27  43  67 103 142 183 234 282 343 413
#     4  11  24  46  72  99 140 185 233 286 341 414
#
# _framework density 23.430665999999999
#
# number of rings (size 3 to 8) (size 9 to 14) (size 15 to 20)
#    0.000    1.000    2.000    3.600    5.600    5.200 
#    0.000    2.000    0.000    0.000    0.000    0.000 
#    0.000    0.000    0.000    0.000    0.000    0.000 
#
# Total GULP energy -111870.263091 kJ/mol
# GULP energy per Si atom -5593.513155 kJ/mol
# Density = 2.337734 g / cm^3
# Si number density = 23.430666 Si / 1000 Ang^3
#
#
#
# Elastic Constant Matrix: (Units=GPa)
#
#
# Indices 1 2 3 4 5 6 
#
# 1 86.9408 43.1746 9.3393 0.0033 18.9925 0.0003
# 2 43.1746 185.4863 38.0128 0.0007 -15.4365 0.0002
# 3 9.3393 38.0128 85.7401 0.0047 0.1676 0.0013
# 4 0.0033 0.0007 0.0047 26.7318 -0.0024 -10.7396
# 5 18.9925 -15.4365 0.1676 -0.0024 44.9833 0.0000
# 6 0.0003 0.0002 0.0013 -10.7396 0.0000 -1.7144
#
#
#
# Elastic Compliance Matrix: (Units=1/GPa)
#
#
# Indices 1 2 3 4 5 6 
#
# 1 0.015338 -0.004281 0.000243 0.000000 -0.007946 0.000005
# 2 -0.004281 0.007319 -0.002787 0.000000 0.004330 -0.000003
# 3 0.000243 -0.002787 0.012875 0.000000 -0.001107 0.000007
# 4 0.000000 0.000000 0.000000 0.010637 0.000001 -0.066636
# 5 -0.007946 0.004330 -0.001107 0.000001 0.027075 -0.000007
# 6 0.000005 -0.000003 0.000007 -0.066636 -0.000007 -0.165863
#
#
# Mechanical properties :
#
#
# Convention : Reuss Voigt Hill
#
# Bulk Modulus (GPa) = 45.70214 59.91341 52.80777
# Shear Modulus (GPa) = -69.75947 31.84283 -18.95832
#
# Velocity S-wave (km/s) = -5.46236 3.69049 -2.84760
# Velocity P-wave (km/s) = 4.49839 6.61707 3.43148
#
# Compressibility (1/GPa) = 0.02188081
#
# Stress axis : x y z
#
# Youngs Moduli (GPa) = 65.19844 136.62651 77.67284
#
# Poissons Ratio (x) = 0.58492 -0.01887
# Poissons Ratio (y) = 0.27912 0.21648
# Poissons Ratio (z) = -0.01584 0.38079
#
# Static dielectric constant tensor:
#      x y z
#    x 1.889290 0.000000 0.011100 
#    y 0.000000 1.894270 0.000000 
#    z 0.011100 0.000000 1.926440 
# 
# From -- ./inp_files/133635.got.cif
#   From: 2010.05.17/outbox.cif.g08.bks.cpg/sg12_67_cif.got.tgz:133635.got - 2010.06.03 13:09:07.
