data_PCOD9217649
_publ_section_title
;
Structure prediction by ZEFSAII (Michael W. Deem and Ramdas Pophale) SiO2 
 PCOD9217649
Probable space group: C 2/M
;
_chemical_formula_sum "Si O2"
_cell_formula_units_Z 56
_cell_length_a 12.440481
_cell_length_b 16.071667
_cell_length_c 16.176748
_cell_angle_alpha 90.000000
_cell_angle_beta 56.745897
_cell_angle_gamma 90.000000
_cell_volume 2704.729473
_symmetry_space_group_name_H-M "C 2/M"
_symmetry_group_IT_number 12
_symmetry_cell_setting 'monoclinic'
loop_
_space_group_symop_operation_xyz
x,y,z
-x,y,-z
-x,-y,-z
x,-y,z
1/2+x,1/2+y,z
1/2-x,1/2+y,-z
1/2-x,1/2-y,-z
1/2+x,1/2-y,z
loop_
_atom_site_type_symbol
_atom_site_label
_atom_site_fract_x
_atom_site_fract_y
_atom_site_fract_z
Si Si1 0.356143 0.741840 0.386070
Si Si2 0.524977 0.902641 0.752915
Si Si3 0.666058 0.325998 0.071436
Si Si4 0.287657 0.863285 0.188038
Si Si5 0.765795 0.905950 0.117302
Si Si6 0.629577 0.689003 0.789779
Si Si7 0.527543 0.595739 0.390046
O O1 0.250000 0.750000 0.500000
O O2 0.404601 0.833068 0.334287
O O3 0.301527 0.699261 0.326274
O O4 0.457233 0.674128 0.377589
O O5 0.586433 0.899691 0.819528
O O6 0.378534 0.870379 0.818016
O O7 0.534770 0.000000 0.720459
O O8 0.740261 0.375092 0.113712
O O9 0.522728 0.303031 0.160923
O O10 0.750000 0.250000 0.000000
O O11 0.649371 0.377062 0.994600
O O12 0.317518 0.764811 0.177570
O O13 0.174221 0.892026 0.297776
O O14 0.835597 0.891537 0.174071
O O15 0.737784 0.000000 0.113062
O O16 0.500000 0.601180 0.500000
O O17 0.489713 0.500000 0.381623
#
# Coordination Sequence:
#
# PCOD9217649 Si02
#       7
#     8   8   8   8   8   8   8
#     4  11  23  41  68 100 130 175 220 271 336 410
#     4  10  23  44  67  95 135 175 224 281 333 393
#     4  12  23  40  65  94 131 172 226 277 329 400
#     4  11  22  39  66  93 129 170 221 274 336 391
#     4  11  25  42  63  92 131 179 225 273 331 398
#     4  11  23  41  63  92 131 173 217 272 331 399
#     4  11  23  41  66 100 136 171 218 281 338 395
#
# _framework density 20.704473
#
# number of rings (size 3 to 8) (size 9 to 14) (size 15 to 20)
#    0.000    1.000    2.857    5.143    0.000    6.286 
#    0.000    1.429    0.000    2.143    0.000    0.000 
#    0.000    0.000    0.000    0.000    0.000    0.000 
#
# Total GULP energy -156021.053460 kJ/mol
# GULP energy per Si atom -5572.180481 kJ/mol
# Density = 2.065735 g / cm^3
# Si number density = 20.704473 Si / 1000 Ang^3
#
#
#
# Elastic Constant Matrix: (Units=GPa)
#
#
# Indices 1 2 3 4 5 6 
#
# 1 75.7741 18.2503 24.5556 0.0000 5.6103 0.0000
# 2 18.2503 66.2399 19.7240 0.0000 1.7664 0.0000
# 3 24.5556 19.7240 119.8224 0.0000 11.5564 0.0000
# 4 0.0000 0.0000 0.0000 20.4866 0.0000 0.3317
# 5 5.6103 1.7664 11.5564 0.0000 28.3657 0.0000
# 6 0.0000 0.0000 0.0000 0.3317 0.0000 18.6916
#
#
#
# Elastic Compliance Matrix: (Units=1/GPa)
#
#
# Indices 1 2 3 4 5 6 
#
# 1 0.014893 -0.003363 -0.002326 0.000000 -0.001789 0.000000
# 2 -0.003363 0.016634 -0.002096 0.000000 0.000483 0.000000
# 3 -0.002326 -0.002096 0.009483 0.000000 -0.003273 0.000000
# 4 0.000000 0.000000 0.000000 0.048826 0.000000 -0.000866
# 5 -0.001789 0.000483 -0.003273 0.000000 0.036911 0.000000
# 6 0.000000 0.000000 0.000000 -0.000866 0.000000 0.053515
#
#
# Mechanical properties :
#
#
# Convention : Reuss Voigt Hill
#
# Bulk Modulus (GPa) = 39.30618 42.98847 41.14732
# Shear Modulus (GPa) = 24.47224 26.79588 25.63406
#
# Velocity S-wave (km/s) = 3.44172 3.60141 3.52247
# Velocity P-wave (km/s) = 5.90081 6.17264 6.03826
#
# Compressibility (1/GPa) = 0.02544129
#
# Stress axis : x y z
#
# Youngs Moduli (GPa) = 67.14412 60.11660 105.45220
#
# Poissons Ratio (x) = 0.20218 0.24529
# Poissons Ratio (y) = 0.22581 0.22098
# Poissons Ratio (z) = 0.15618 0.12598
#
# Static dielectric constant tensor:
#      x y z
#    x 1.897570 0.000000 -0.107910 
#    y 0.000000 1.775470 0.000000 
#    z -0.107910 0.000000 1.851480 
# 
# From -- ./inp_files/206574.got.cif
#   From: 2010.05.17/outbox.cif.g08.bks.cpg/sg12_104_cif.got.tgz:206574.got - 2010.06.03 13:09:07.
