data_PCOD9217664
_publ_section_title
;
Structure prediction by ZEFSAII (Michael W. Deem and Ramdas Pophale) SiO2 
 PCOD9217664
Probable space group: C 2/M
;
_chemical_formula_sum "Si O2"
_cell_formula_units_Z 32
_cell_length_a 24.123034
_cell_length_b 8.676872
_cell_length_c 25.222070
_cell_angle_alpha 90.000000
_cell_angle_beta 18.171906
_cell_angle_gamma 90.000000
_cell_volume 1646.448548
_symmetry_space_group_name_H-M "C 2/M"
_symmetry_group_IT_number 12
_symmetry_cell_setting 'monoclinic'
loop_
_space_group_symop_operation_xyz
x,y,z
-x,y,-z
-x,-y,-z
x,-y,z
1/2+x,1/2+y,z
1/2-x,1/2+y,-z
1/2-x,1/2-y,-z
1/2+x,1/2-y,z
loop_
_atom_site_type_symbol
_atom_site_label
_atom_site_fract_x
_atom_site_fract_y
_atom_site_fract_z
Si Si1 0.467215 0.815438 0.664960
Si Si2 0.561162 0.315631 0.191543
Si Si3 0.829203 0.682752 0.308323
Si Si4 0.934877 0.185035 0.000254
O O1 0.476987 0.752257 0.715951
O O2 0.627956 0.741547 0.486318
O O3 0.485871 0.000000 0.648402
O O4 0.272261 0.776775 0.819798
O O5 0.568919 0.500000 0.186801
O O6 0.414859 0.262651 0.282153
O O7 0.750000 0.250000 0.000000
O O8 0.833731 0.500000 0.311340
O O9 0.947498 0.731780 0.150812
O O10 0.953588 0.000000 0.975587
O O11 0.000000 0.222979 0.000000
#
# Coordination Sequence:
#
# PCOD9217664 Si02
#       4
#     8   8   8   8
#     4  11  23  41  66  94 128 167 210 259 313 375
#     4  12  23  39  64  95 130 165 206 254 315 380
#     4  12  25  41  64  94 130 168 209 259 315 375
#     4  10  23  44  68  92 122 165 216 266 315 371
#
# _framework density 19.435772
#
# number of rings (size 3 to 8) (size 9 to 14) (size 15 to 20)
#    0.000    0.750    2.500    6.000    0.000    2.500 
#    0.000    5.000    0.000    0.000    0.000    0.000 
#    0.000    0.000    0.000    0.000    0.000    0.000 
#
# Total GULP energy -89569.083365 kJ/mol
# GULP energy per Si atom -5598.067710 kJ/mol
# Density = 1.939154 g / cm^3
# Si number density = 19.435772 Si / 1000 Ang^3
#
#
#
# Elastic Constant Matrix: (Units=GPa)
#
#
# Indices 1 2 3 4 5 6 
#
# 1 95.7585 17.2310 26.3036 0.0000 -15.3578 0.0005
# 2 17.2310 48.4735 20.5131 -0.0042 -17.9679 0.0003
# 3 26.3036 20.5131 117.1833 -0.0018 -33.8661 0.0000
# 4 0.0000 -0.0042 -0.0018 37.6784 -0.0004 7.2677
# 5 -15.3578 -17.9679 -33.8661 -0.0004 1.8318 0.0006
# 6 0.0005 0.0003 0.0000 7.2677 0.0006 21.6763
#
#
#
# Elastic Compliance Matrix: (Units=1/GPa)
#
#
# Indices 1 2 3 4 5 6 
#
# 1 0.011363 -0.004387 -0.003065 -0.000001 -0.004438 0.000000
# 2 -0.004387 0.017541 -0.008522 0.000001 -0.022269 0.000000
# 3 -0.003065 -0.008522 0.004805 -0.000001 -0.020443 0.000001
# 4 -0.000001 0.000001 -0.000001 0.028376 -0.000005 -0.009514
# 5 -0.004438 -0.022269 -0.020443 -0.000005 -0.087671 0.000004
# 6 0.000000 0.000000 0.000001 -0.009514 0.000004 0.049323
#
#
# Mechanical properties :
#
#
# Convention : Reuss Voigt Hill
#
# Bulk Modulus (GPa) = 567.71822 43.27895 305.49859
# Shear Modulus (GPa) = 88.85454 25.39512 57.12483
#
# Velocity S-wave (km/s) = 6.76877 3.61864 5.42728
# Velocity P-wave (km/s) = 18.81016 6.30677 14.02850
#
# Compressibility (1/GPa) = 0.00176144
#
# Stress axis : x y z
#
# Youngs Moduli (GPa) = 88.00866 57.00912 208.09763
#
# Poissons Ratio (x) = 0.25010 0.63786
# Poissons Ratio (y) = 0.38610 1.77330
# Poissons Ratio (z) = 0.26976 0.48580
#
# Static dielectric constant tensor:
#      x y z
#    x 1.652060 0.000000 -0.015370 
#    y 0.000000 1.648150 0.000000 
#    z -0.015370 0.000000 1.681230 
# 
# From -- ./inp_files/30272.got.cif
#   From: 2010.05.17/outbox.cif.g08.bks.cpg/sg12_16_cif.got.tgz:30272.got - 2010.06.03 13:09:07.
