data_PCOD9217856
_publ_section_title
;
Structure prediction by ZEFSAII (Michael W. Deem and Ramdas Pophale) SiO2 
 PCOD9217856
Probable space group: C 2/M
;
_chemical_formula_sum "Si O2"
_cell_formula_units_Z 24
_cell_length_a 8.676165
_cell_length_b 15.672944
_cell_length_c 6.954556
_cell_angle_alpha 90.000000
_cell_angle_beta 76.136105
_cell_angle_gamma 90.000000
_cell_volume 918.137724
_symmetry_space_group_name_H-M "C 2/M"
_symmetry_group_IT_number 12
_symmetry_cell_setting 'monoclinic'
loop_
_space_group_symop_operation_xyz
x,y,z
-x,y,-z
-x,-y,-z
x,-y,z
1/2+x,1/2+y,z
1/2-x,1/2+y,-z
1/2-x,1/2-y,-z
1/2+x,1/2-y,z
loop_
_atom_site_type_symbol
_atom_site_label
_atom_site_fract_x
_atom_site_fract_y
_atom_site_fract_z
Si Si1 0.420024 0.254384 0.344439
Si Si2 0.326358 0.500000 0.451067
Si Si3 0.274443 0.857933 0.826981
Si Si4 0.682798 0.000000 0.894925
O O1 0.500000 0.305783 0.500000
O O2 0.250000 0.250000 0.500000
O O3 0.547656 0.178337 0.266049
O O4 0.356154 0.284510 0.156404
O O5 0.500000 0.500000 0.500000
O O6 0.283110 0.420787 0.327118
O O7 0.791863 0.500000 0.335853
O O8 0.252722 0.914156 0.024088
O O9 0.500000 0.000000 0.000000
#
# Coordination Sequence:
#
# PCOD9217856 Si02
#       4
#     8   4   8   4
#     4   9  19  37  72 103 143 196 241 296 374 433
#     4  11  26  49  82 105 152 202 249 307 380 452
#     4  10  23  46  75 109 148 196 250 311 374 443
#     4  11  28  45  76 111 149 193 260 306 375 447
#
# _framework density 26.139869999999998
#
# number of rings (size 3 to 8) (size 9 to 14) (size 15 to 20)
#    0.000    2.000    0.000    1.000   14.000    4.000 
#    0.000    5.000    0.000    0.000    0.000    0.000 
#    0.000    0.000    0.000    0.000    0.000    0.000 
#
# Total GULP energy -66894.907017 kJ/mol
# GULP energy per Si atom -5574.575585 kJ/mol
# Density = 2.608037 g / cm^3
# Si number density = 26.139870 Si / 1000 Ang^3
#
#
#
# Elastic Constant Matrix: (Units=GPa)
#
#
# Indices 1 2 3 4 5 6 
#
# 1 169.6868 41.2430 -6.3864 0.0000 -6.4273 0.0000
# 2 41.2430 84.2464 -20.1475 0.0000 -4.3132 0.0000
# 3 -6.3864 -20.1475 74.6616 0.0000 -19.4211 0.0000
# 4 0.0000 0.0000 0.0000 -3.2442 0.0000 13.3087
# 5 -6.4273 -4.3132 -19.4211 0.0000 50.0060 0.0000
# 6 0.0000 0.0000 0.0000 13.3087 0.0000 55.6313
#
#
#
# Elastic Compliance Matrix: (Units=1/GPa)
#
#
# Indices 1 2 3 4 5 6 
#
# 1 0.006708 -0.003303 -0.000186 0.000000 0.000505 0.000000
# 2 -0.003303 0.014650 0.004326 0.000000 0.002519 0.000000
# 3 -0.000186 0.004326 0.016281 0.000000 0.006672 0.000000
# 4 0.000000 0.000000 0.000000 -0.155568 0.000000 0.037217
# 5 0.000505 0.002519 0.006672 0.000000 0.022871 0.000000
# 6 0.000000 0.000000 0.000000 0.037217 0.000000 0.009072
#
#
# Mechanical properties :
#
#
# Convention : Reuss Voigt Hill
#
# Bulk Modulus (GPa) = 25.43582 39.77923 32.60753
# Shear Modulus (GPa) = -67.06387 41.40434 -12.82976
#
# Velocity S-wave (km/s) = -5.07065 3.98421 -2.21783
# Velocity P-wave (km/s) = 4.95279 6.03458 2.43782
#
# Compressibility (1/GPa) = 0.03931463
#
# Stress axis : x y z
#
# Youngs Moduli (GPa) = 149.07483 68.25779 61.42159
#
# Poissons Ratio (x) = 0.22543 0.01143
# Poissons Ratio (y) = 0.49233 -0.26573
# Poissons Ratio (z) = 0.02773 -0.29530
#
# Static dielectric constant tensor:
#      x y z
#    x 2.084580 0.000000 0.082070 
#    y 0.000000 2.406030 0.000000 
#    z 0.082070 0.000000 2.055530 
# 
# From -- ./inp_files/36337.got.cif
#   From: 2010.05.17/outbox.cif.g08.bks.cpg/sg12_19_cif.got.tgz:36337.got - 2010.06.03 13:09:07.
