data_PCOD9217672
_publ_section_title
;
Structure prediction by ZEFSAII (Michael W. Deem and Ramdas Pophale) SiO2 
 PCOD9217672
Probable space group: C 2/M
;
_chemical_formula_sum "Si O2"
_cell_formula_units_Z 40
_cell_length_a 19.483234
_cell_length_b 8.752393
_cell_length_c 11.912488
_cell_angle_alpha 90.000000
_cell_angle_beta 104.844824
_cell_angle_gamma 90.000000
_cell_volume 1963.575344
_symmetry_space_group_name_H-M "C 2/M"
_symmetry_group_IT_number 12
_symmetry_cell_setting 'monoclinic'
loop_
_space_group_symop_operation_xyz
x,y,z
-x,y,-z
-x,-y,-z
x,-y,z
1/2+x,1/2+y,z
1/2-x,1/2+y,-z
1/2-x,1/2-y,-z
1/2+x,1/2-y,z
loop_
_atom_site_type_symbol
_atom_site_label
_atom_site_fract_x
_atom_site_fract_y
_atom_site_fract_z
Si Si1 0.433570 0.820720 0.888071
Si Si2 0.113979 0.817007 0.713239
Si Si3 0.172090 0.182947 0.982686
Si Si4 0.681063 0.181113 0.531601
Si Si5 0.046853 0.182059 0.346466
O O1 0.445472 0.724370 0.781042
O O2 0.426381 0.000000 0.856628
O O3 0.500000 0.803130 0.000000
O O4 0.366119 0.760857 0.928371
O O5 0.129578 0.782571 0.849760
O O6 0.169815 0.738732 0.654033
O O7 0.032924 0.771280 0.651521
O O8 0.119167 0.000000 0.700979
O O9 0.173580 0.000000 0.997433
O O10 0.250000 0.250000 0.000000
O O11 0.750000 0.250000 0.500000
O O12 0.610218 0.236766 0.438234
O O13 0.686246 0.000000 0.531269
O O14 0.052858 0.000000 0.365364
#
# Coordination Sequence:
#
# PCOD9217672 Si02
#       5
#     8   8   8   8   8
#     4  11  23  40  65  98 134 169 213 264 315 380
#     4  10  23  44  68  94 128 170 216 263 318 384
#     4  11  24  42  65  95 133 174 216 264 319 381
#     4  12  27  45  67  95 129 168 214 267 323 383
#     4  11  23  43  70  96 128 170 214 264 321 383
#
# _framework density 20.371005
#
# number of rings (size 3 to 8) (size 9 to 14) (size 15 to 20)
#    0.000    1.000    2.000    4.200    2.800    6.400 
#    0.000    0.000    0.000    0.000    0.000    0.000 
#    0.000    0.000    0.000    0.000    0.000    0.000 
#
# Total GULP energy -111939.733402 kJ/mol
# GULP energy per Si atom -5596.986670 kJ/mol
# Density = 2.032464 g / cm^3
# Si number density = 20.371005 Si / 1000 Ang^3
#
#
#
# Elastic Constant Matrix: (Units=GPa)
#
#
# Indices 1 2 3 4 5 6 
#
# 1 128.6127 26.2799 9.7605 0.0000 -20.4022 0.0000
# 2 26.2799 43.6358 12.7671 0.0000 -3.3576 0.0000
# 3 9.7605 12.7671 45.6046 0.0000 -14.0521 0.0000
# 4 0.0000 0.0000 0.0000 37.5580 0.0000 -1.4439
# 5 -20.4022 -3.3576 -14.0521 0.0000 41.2414 0.0000
# 6 0.0000 0.0000 0.0000 -1.4439 0.0000 34.1881
#
#
#
# Elastic Compliance Matrix: (Units=1/GPa)
#
#
# Indices 1 2 3 4 5 6 
#
# 1 0.009600 -0.005709 0.000965 0.000000 0.004613 0.000000
# 2 -0.005709 0.028362 -0.007684 0.000000 -0.003133 0.000000
# 3 0.000965 -0.007684 0.026621 0.000000 0.008923 0.000000
# 4 0.000000 0.000000 0.000000 0.026669 0.000000 0.001126
# 5 0.004613 -0.003133 0.008923 0.000000 0.029315 0.000000
# 6 0.000000 0.000000 0.000000 0.001126 0.000000 0.029298
#
#
# Mechanical properties :
#
#
# Convention : Reuss Voigt Hill
#
# Bulk Modulus (GPa) = 25.17081 35.05202 30.11142
# Shear Modulus (GPa) = 26.60081 33.86722 30.23401
#
# Velocity S-wave (km/s) = 3.61753 4.08183 3.85667
# Velocity P-wave (km/s) = 5.46184 6.28166 5.88604
#
# Compressibility (1/GPa) = 0.03972855
#
# Stress axis : x y z
#
# Youngs Moduli (GPa) = 104.16139 35.25782 37.56373
#
# Poissons Ratio (x) = 0.20130 -0.03625
# Poissons Ratio (y) = 0.59469 0.28863
# Poissons Ratio (z) = -0.10053 0.27091
#
# Static dielectric constant tensor:
#      x y z
#    x 1.714950 0.000000 0.004620 
#    y 0.000000 1.681060 0.000000 
#    z 0.004620 0.000000 1.733810 
# 
# From -- ./inp_files/151637.got.cif
#   From: 2010.05.17/outbox.cif.g08.bks.cpg/sg12_76_cif.got.tgz:151637.got - 2010.06.03 13:09:07.
