data_PCOD9217023
_publ_section_title
;
Structure prediction by ZEFSAII (Michael W. Deem and Ramdas Pophale) SiO2 
 PCOD9217023
Probable space group: C 2/M
;
_chemical_formula_sum "Si O2"
_cell_formula_units_Z 50
_cell_length_a 18.693105
_cell_length_b 15.394566
_cell_length_c 9.402939
_cell_angle_alpha 90.000000
_cell_angle_beta 56.444669
_cell_angle_gamma 90.000000
_cell_volume 2254.972327
_symmetry_space_group_name_H-M "C 2/M"
_symmetry_group_IT_number 12
_symmetry_cell_setting 'monoclinic'
loop_
_space_group_symop_operation_xyz
x,y,z
-x,y,-z
-x,-y,-z
x,-y,z
1/2+x,1/2+y,z
1/2-x,1/2+y,-z
1/2-x,1/2-y,-z
1/2+x,1/2-y,z
loop_
_atom_site_type_symbol
_atom_site_label
_atom_site_fract_x
_atom_site_fract_y
_atom_site_fract_z
Si Si1 0.494411 0.649681 0.843850
Si Si2 0.825877 0.359641 0.482566
Si Si3 0.000000 0.500000 0.000000
Si Si4 0.014654 0.645562 0.192551
Si Si5 0.162914 0.846773 0.491374
Si Si6 0.170999 0.896759 0.158399
Si Si7 0.668206 0.102332 0.199177
O O1 0.492603 0.755249 0.848233
O O2 0.577606 0.620031 0.663279
O O3 0.409120 0.620830 0.856293
O O4 0.500000 0.618845 0.000000
O O5 0.832850 0.255312 0.476366
O O6 0.749918 0.386780 0.460686
O O7 0.806837 0.385103 0.664852
O O8 0.920127 0.391413 0.333679
O O9 0.951200 0.577947 0.961498
O O10 0.077894 0.645181 0.257760
O O11 0.158262 0.856786 0.327749
O O12 0.178992 0.000000 0.168818
O O13 0.257163 0.864025 0.986364
O O14 0.658010 0.000000 0.188127
#
# Coordination Sequence:
#
# PCOD9217023 Si02
#       7
#     8   8   2   8   8   8   8
#     4  11  23  43  68  94 124 166 212 265 320 376
#     4  10  23  41  64  94 127 168 209 259 314 380
#     4  12  24  40  62 104 130 174 206 256 308 396
#     4  11  24  39  67  94 134 167 211 253 316 381
#     4  10  23  42  65  92 125 163 214 260 317 379
#     4  11  26  43  65  92 126 167 218 269 319 376
#     4  11  24  40  60  92 129 167 208 259 316 373
#
# _framework density 22.173221999999999
#
# number of rings (size 3 to 8) (size 9 to 14) (size 15 to 20)
#    0.000    1.280    1.600    2.880    3.360    9.280 
#    0.000    0.000    0.000    0.000    0.000    0.000 
#    0.000    0.000    0.000    0.000    0.000    0.000 
#
# Total GULP energy -139586.677972 kJ/mol
# GULP energy per Si atom -5583.467119 kJ/mol
# Density = 2.212275 g / cm^3
# Si number density = 22.173222 Si / 1000 Ang^3
#
#
#
# Elastic Constant Matrix: (Units=GPa)
#
#
# Indices 1 2 3 4 5 6 
#
# 1 159.2731 -13.9213 51.5613 0.0000 3.0377 0.0000
# 2 -13.9213 27.1280 -24.9730 0.0000 -10.3950 0.0000
# 3 51.5613 -24.9730 103.7303 0.0000 -1.1525 0.0000
# 4 0.0000 0.0000 0.0000 -363.5402 0.0000 -249.8895
# 5 3.0377 -10.3950 -1.1525 0.0000 44.4279 0.0000
# 6 0.0000 0.0000 0.0000 -249.8895 0.0000 -144.0126
#
#
#
# Elastic Compliance Matrix: (Units=1/GPa)
#
#
# Indices 1 2 3 4 5 6 
#
# 1 0.007500 0.000259 -0.003672 0.000000 -0.000547 0.000000
# 2 0.000259 0.053914 0.012995 0.000000 0.012934 0.000000
# 3 -0.003672 0.012995 0.014635 0.000000 0.003671 0.000000
# 4 0.000000 0.000000 0.000000 0.014272 0.000000 -0.024765
# 5 -0.000547 0.012934 0.003671 0.000000 0.025667 0.000000
# 6 0.000000 0.000000 0.000000 -0.024765 0.000000 0.036028
#
#
# Mechanical properties :
#
#
# Convention : Reuss Voigt Hill
#
# Bulk Modulus (GPa) = 10.50287 35.05172 22.77729
# Shear Modulus (GPa) = 30.37840 -74.12736 -21.87448
#
# Velocity S-wave (km/s) = 3.70543 -5.78823 -3.14431
# Velocity P-wave (km/s) = 4.80146 5.36927 1.69927
#
# Compressibility (1/GPa) = 0.09521207
#
# Stress axis : x y z
#
# Youngs Moduli (GPa) = 133.32783 18.54818 68.33011
#
# Poissons Ratio (x) = -0.00480 0.25090
# Poissons Ratio (y) = -0.03452 -0.88793
# Poissons Ratio (z) = 0.48957 -0.24103
#
# Static dielectric constant tensor:
#      x y z
#    x 1.825640 0.000000 -0.013260 
#    y 0.000000 1.819490 0.000000 
#    z -0.013260 0.000000 1.845390 
# 
# From -- ./inp_files/75761.got.cif
#   From: 2010.05.17/outbox.cif.g08.bks.cpg/sg12_38_cif.got.tgz:75761.got - 2010.06.03 13:09:07.
