data_PCOD9217611
_publ_section_title
;
Structure prediction by ZEFSAII (Michael W. Deem and Ramdas Pophale) SiO2 
 PCOD9217611
Probable space group: C 2/M
;
_chemical_formula_sum "Si O2"
_cell_formula_units_Z 54
_cell_length_a 30.171653
_cell_length_b 14.885911
_cell_length_c 5.441622
_cell_angle_alpha 90.000000
_cell_angle_beta 101.194192
_cell_angle_gamma 90.000000
_cell_volume 2397.511844
_symmetry_space_group_name_H-M "C 2/M"
_symmetry_group_IT_number 12
_symmetry_cell_setting 'monoclinic'
loop_
_space_group_symop_operation_xyz
x,y,z
-x,y,-z
-x,-y,-z
x,-y,z
1/2+x,1/2+y,z
1/2-x,1/2+y,-z
1/2-x,1/2-y,-z
1/2+x,1/2-y,z
loop_
_atom_site_type_symbol
_atom_site_label
_atom_site_fract_x
_atom_site_fract_y
_atom_site_fract_z
Si Si1 0.705076 0.609841 0.626792
Si Si2 0.160519 0.601727 0.036580
Si Si3 0.133531 0.245482 0.348855
Si Si4 0.425028 0.855086 0.340740
Si Si5 0.245953 0.393203 0.819387
Si Si6 0.500000 0.000000 0.500000
Si Si7 0.029227 0.000000 0.776618
Si Si8 0.549605 0.687403 0.931381
O O1 0.698715 0.500000 0.620666
O O2 0.660893 0.667816 0.516552
O O3 0.724723 0.638738 0.913494
O O4 0.738607 0.634504 0.435361
O O5 0.171992 0.500000 0.145496
O O6 0.108314 0.601061 0.896486
O O7 0.164018 0.688729 0.213457
O O8 0.194194 0.619105 0.844566
O O9 0.108436 0.314350 0.498400
O O10 0.092523 0.201194 0.152424
O O11 0.450187 0.771125 0.248707
O O12 0.460839 0.923039 0.484229
O O13 0.253266 0.500000 0.825345
O O14 0.056398 0.907853 0.807941
O O15 0.000000 0.000000 0.500000
O O16 0.000000 0.000000 0.000000
O O17 0.500000 0.686559 0.000000
#
# Coordination Sequence:
#
# PCOD9217611 Si02
#       8
#     8   8   8   8   8   2   4   8
#     4  10  23  44  69 105 145 189 232 280 358 423
#     4  10  23  44  65 100 140 180 237 296 357 414
#     4  11  26  41  68 102 139 180 235 297 346 430
#     4  11  25  44  67 104 132 183 236 297 357 426
#     4   9  21  42  71 101 143 192 233 285 347 432
#     4  12  24  44  78  94 136 190 238 304 370 426
#     4  10  24  42  72 100 130 176 219 274 338 404
#     4  10  24  46  67  98 139 176 234 286 350 422
#
# _framework density 22.523351000000002
#
# number of rings (size 3 to 8) (size 9 to 14) (size 15 to 20)
#    0.000    1.778    0.741    0.889   13.481    1.185 
#    1.333    1.852    0.000    0.000    0.000    0.000 
#    0.000    0.000    0.000    0.000    0.000    0.000 
#
# Total GULP energy -150567.853941 kJ/mol
# GULP energy per Si atom -5576.587183 kJ/mol
# Density = 2.247209 g / cm^3
# Si number density = 22.523351 Si / 1000 Ang^3
#
#
#
# Elastic Constant Matrix: (Units=GPa)
#
#
# Indices 1 2 3 4 5 6 
#
# 1 89.5896 45.1697 16.8999 0.0000 11.3850 0.0000
# 2 45.1697 138.4218 29.0022 0.0000 16.7035 0.0000
# 3 16.8999 29.0022 69.7084 0.0000 12.2159 0.0000
# 4 0.0000 0.0000 0.0000 15.0598 0.0000 -15.3714
# 5 11.3850 16.7035 12.2159 0.0000 25.4910 0.0000
# 6 0.0000 0.0000 0.0000 -15.3714 0.0000 46.0194
#
#
#
# Elastic Compliance Matrix: (Units=1/GPa)
#
#
# Indices 1 2 3 4 5 6 
#
# 1 0.013718 -0.003862 -0.001189 0.000000 -0.003026 0.000000
# 2 -0.003862 0.009381 -0.002393 0.000000 -0.003276 0.000000
# 3 -0.001189 -0.002393 0.016660 0.000000 -0.005885 0.000000
# 4 0.000000 0.000000 0.000000 0.100751 0.000000 0.033653
# 5 -0.003026 -0.003276 -0.005885 0.000000 0.045548 0.000000
# 6 0.000000 0.000000 0.000000 0.033653 0.000000 0.032971
#
#
# Mechanical properties :
#
#
# Convention : Reuss Voigt Hill
#
# Bulk Modulus (GPa) = 40.20443 53.31816 46.76130
# Shear Modulus (GPa) = 20.64350 31.09060 25.86705
#
# Velocity S-wave (km/s) = 3.03072 3.71937 3.39256
# Velocity P-wave (km/s) = 5.48962 6.49374 6.01268
#
# Compressibility (1/GPa) = 0.02487288
#
# Stress axis : x y z
#
# Youngs Moduli (GPa) = 72.89635 106.59612 60.02234
#
# Poissons Ratio (x) = 0.41170 0.07134
# Poissons Ratio (y) = 0.28154 0.14361
# Poissons Ratio (z) = 0.08664 0.25505
#
# Static dielectric constant tensor:
#      x y z
#    x 2.525280 0.000000 -0.276270 
#    y 0.000000 1.841520 0.000000 
#    z -0.276270 0.000000 2.065710 
# 
# From -- ./inp_files/31539.got.cif
#   From: 2010.05.17/outbox.cif.g08.bks.cpg/sg12_16_cif.got.tgz:31539.got - 2010.06.03 13:09:07.
