data_PCOD9217636
_publ_section_title
;
Structure prediction by ZEFSAII (Michael W. Deem and Ramdas Pophale) SiO2 
 PCOD9217636
Probable space group: C 2/M
;
_chemical_formula_sum "Si O2"
_cell_formula_units_Z 40
_cell_length_a 20.877558
_cell_length_b 8.181528
_cell_length_c 16.158958
_cell_angle_alpha 90.000000
_cell_angle_beta 44.910371
_cell_angle_gamma 90.000000
_cell_volume 1948.641890
_symmetry_space_group_name_H-M "C 2/M"
_symmetry_group_IT_number 12
_symmetry_cell_setting 'monoclinic'
loop_
_space_group_symop_operation_xyz
x,y,z
-x,y,-z
-x,-y,-z
x,-y,z
1/2+x,1/2+y,z
1/2-x,1/2+y,-z
1/2-x,1/2-y,-z
1/2+x,1/2-y,z
loop_
_atom_site_type_symbol
_atom_site_label
_atom_site_fract_x
_atom_site_fract_y
_atom_site_fract_z
Si Si1 0.520680 0.317383 0.739449
Si Si2 0.917788 0.306228 0.140046
Si Si3 0.046650 0.303152 0.373042
Si Si4 0.740361 0.307549 0.811664
Si Si5 0.340545 0.185569 0.957009
O O1 0.557990 0.500000 0.703176
O O2 0.560608 0.222849 0.782329
O O3 0.511201 0.249302 0.654646
O O4 0.415811 0.311721 0.861640
O O5 0.910015 0.500000 0.135028
O O6 0.821005 0.217667 0.213167
O O7 0.000000 0.250353 0.000000
O O8 0.046528 0.500000 0.373743
O O9 0.154007 0.256283 0.278142
O O10 0.000000 0.243461 0.500000
O O11 0.737390 0.500000 0.837158
O O12 0.680765 0.197837 0.927707
O O13 0.364322 0.000000 0.910535
O O14 0.250000 0.250000 0.000000
#
# Coordination Sequence:
#
# PCOD9217636 Si02
#       5
#     8   8   8   8   8
#     4  12  24  38  61  91 125 161 203 253 304 365
#     4  11  23  38  59  89 129 167 200 243 303 372
#     4  10  23  44  67  89 119 161 208 258 309 360
#     4  11  22  37  61  91 124 159 201 250 304 366
#     4  12  22  34  55  88 125 160 198 245 306 366
#
# _framework density 20.527117000000001
#
# number of rings (size 3 to 8) (size 9 to 14) (size 15 to 20)
#    0.000    0.800    4.000    4.800    0.000    2.000 
#    0.000    1.000    0.000    0.000    0.000    0.000 
#    0.000    0.000    0.000    0.000    0.000    0.000 
#
# Total GULP energy -111411.226846 kJ/mol
# GULP energy per Si atom -5570.561342 kJ/mol
# Density = 2.048040 g / cm^3
# Si number density = 20.527117 Si / 1000 Ang^3
#
#
#
# Elastic Constant Matrix: (Units=GPa)
#
#
# Indices 1 2 3 4 5 6 
#
# 1 112.3345 7.9626 19.9552 0.0000 30.5406 0.0001
# 2 7.9626 68.3316 9.6555 -0.0003 5.2256 0.0008
# 3 19.9552 9.6555 80.0604 0.0001 30.4726 0.0000
# 4 0.0000 -0.0003 0.0001 16.3732 0.0000 10.7453
# 5 30.5406 5.2256 30.4726 0.0000 28.1637 -0.0001
# 6 0.0001 0.0008 0.0000 10.7453 -0.0001 26.2106
#
#
#
# Elastic Compliance Matrix: (Units=1/GPa)
#
#
# Indices 1 2 3 4 5 6 
#
# 1 0.013262 -0.000674 0.003744 0.000000 -0.018306 0.000000
# 2 -0.000674 0.014955 -0.001458 0.000001 -0.000466 -0.000001
# 3 0.003744 -0.001458 0.022401 0.000000 -0.028026 0.000000
# 4 0.000000 0.000001 0.000000 0.083555 0.000000 -0.034254
# 5 -0.018306 -0.000466 -0.028026 0.000000 0.085768 0.000000
# 6 0.000000 -0.000001 0.000000 -0.034254 0.000000 0.052195
#
#
# Mechanical properties :
#
#
# Convention : Reuss Voigt Hill
#
# Bulk Modulus (GPa) = 18.57397 37.31924 27.94660
# Shear Modulus (GPa) = 17.43010 29.02640 23.22825
#
# Velocity S-wave (km/s) = 2.91714 3.76447 3.36756
# Velocity P-wave (km/s) = 4.51823 6.09220 5.36327
#
# Compressibility (1/GPa) = 0.05383879
#
# Stress axis : x y z
#
# Youngs Moduli (GPa) = 75.40497 66.86831 44.64178
#
# Poissons Ratio (x) = 0.04510 -0.16712
# Poissons Ratio (y) = 0.05085 0.06510
# Poissons Ratio (z) = -0.28228 0.09751
#
# Static dielectric constant tensor:
#      x y z
#    x 1.869530 0.000000 0.032850 
#    y 0.000000 1.602930 0.000000 
#    z 0.032850 0.000000 1.740230 
# 
# From -- ./inp_files/229655.got.cif
#   From: 2010.05.17/outbox.cif.g08.bks.cpg/sg12_115_cif.got.tgz:229655.got - 2010.06.03 13:09:07.
