data_PCOD9217182
_publ_section_title
;
Structure prediction by ZEFSAII (Michael W. Deem and Ramdas Pophale) SiO2 
 PCOD9217182
Probable space group: C 2/M
;
_chemical_formula_sum "Si O2"
_cell_formula_units_Z 42
_cell_length_a 13.500247
_cell_length_b 12.763274
_cell_length_c 11.236763
_cell_angle_alpha 90.000000
_cell_angle_beta 78.005482
_cell_angle_gamma 90.000000
_cell_volume 1893.905269
_symmetry_space_group_name_H-M "C 2/M"
_symmetry_group_IT_number 12
_symmetry_cell_setting 'monoclinic'
loop_
_space_group_symop_operation_xyz
x,y,z
-x,y,-z
-x,-y,-z
x,-y,z
1/2+x,1/2+y,z
1/2-x,1/2+y,-z
1/2-x,1/2-y,-z
1/2+x,1/2-y,z
loop_
_atom_site_type_symbol
_atom_site_label
_atom_site_fract_x
_atom_site_fract_y
_atom_site_fract_z
Si Si1 0.050230 0.379360 0.806266
Si Si2 0.850813 0.248998 0.813616
Si Si3 0.640290 0.311090 0.920154
Si Si4 0.386751 0.331207 0.560556
Si Si5 0.000000 0.000000 0.000000
Si Si6 0.170504 0.613255 0.529408
O O1 0.041289 0.500000 0.846400
O O2 0.094091 0.300779 0.893950
O O3 0.124104 0.376051 0.673459
O O4 0.944342 0.328149 0.794781
O O5 0.747084 0.313623 0.826050
O O6 0.867366 0.164383 0.706076
O O7 0.842164 0.190420 0.942325
O O8 0.566049 0.406895 0.915461
O O9 0.500000 0.366074 0.500000
O O10 0.292245 0.379535 0.513136
O O11 0.374468 0.207824 0.534224
O O12 0.141647 0.500000 0.487964
#
# Coordination Sequence:
#
# PCOD9217182 Si02
#       6
#     8   8   8   8   2   8
#     4  11  22  43  68  94 132 170 218 271 325 388
#     4  11  23  43  64  98 128 171 219 266 328 392
#     4  11  25  45  64  96 136 172 216 265 333 391
#     4  11  22  41  67  91 132 167 216 274 319 391
#     4  12  24  48  66  92 142 172 208 274 320 392
#     4  10  23  42  63  93 130 172 214 270 327 380
#
# _framework density 22.176397999999999
#
# number of rings (size 3 to 8) (size 9 to 14) (size 15 to 20)
#    0.000    1.143    5.714    0.000    1.333    3.048 
#    6.857    0.000    0.000    0.000    0.000    0.000 
#    0.000    0.000    0.000    0.000    0.000    0.000 
#
# Total GULP energy -117126.408313 kJ/mol
# GULP energy per Si atom -5577.448015 kJ/mol
# Density = 2.212592 g / cm^3
# Si number density = 22.176398 Si / 1000 Ang^3
#
#
#
# Elastic Constant Matrix: (Units=GPa)
#
#
# Indices 1 2 3 4 5 6 
#
# 1 132.0137 -15.4688 -3.7756 0.0000 -33.8093 0.0000
# 2 -15.4688 69.6423 -18.9611 0.0000 6.7558 0.0000
# 3 -3.7756 -18.9611 51.7339 0.0000 -4.8325 0.0000
# 4 0.0000 0.0000 0.0000 14.7893 0.0000 -9.2851
# 5 -33.8093 6.7558 -4.8325 0.0000 37.5588 0.0000
# 6 0.0000 0.0000 0.0000 -9.2851 0.0000 -11.0073
#
#
#
# Elastic Compliance Matrix: (Units=1/GPa)
#
#
# Indices 1 2 3 4 5 6 
#
# 1 0.010218 0.002020 0.002340 0.000000 0.009136 0.000000
# 2 0.002020 0.016522 0.006170 0.000000 -0.000359 0.000000
# 3 0.002340 0.006170 0.022121 0.000000 0.003843 0.000000
# 4 0.000000 0.000000 0.000000 0.044205 0.000000 -0.037289
# 5 0.009136 -0.000359 0.003843 0.000000 0.035408 0.000000
# 6 0.000000 0.000000 0.000000 -0.037289 0.000000 -0.059394
#
#
# Mechanical properties :
#
#
# Convention : Reuss Voigt Hill
#
# Bulk Modulus (GPa) = 14.30189 19.66432 16.98311
# Shear Modulus (GPa) = 70.09826 27.70785 48.90306
#
# Velocity S-wave (km/s) = 5.62832 3.53856 4.70103
# Velocity P-wave (km/s) = 6.97858 5.05784 6.09435
#
# Compressibility (1/GPa) = 0.06992081
#
# Stress axis : x y z
#
# Youngs Moduli (GPa) = 97.86294 60.52362 45.20672
#
# Poissons Ratio (x) = -0.12228 -0.10577
# Poissons Ratio (y) = -0.19773 -0.27891
# Poissons Ratio (z) = -0.22897 -0.37341
#
# Static dielectric constant tensor:
#      x y z
#    x 1.867180 0.000000 -0.012210 
#    y 0.000000 1.775300 0.000000 
#    z -0.012210 0.000000 1.858980 
# 
# From -- ./inp_files/140925.got.cif
#   From: 2010.05.17/outbox.cif.g08.bks.cpg/sg12_71_cif.got.tgz:140925.got - 2010.06.03 13:09:07.
