data_PCOD9217012
_publ_section_title
;
Structure prediction by ZEFSAII (Michael W. Deem and Ramdas Pophale) SiO2 
 PCOD9217012
Probable space group: C 2/M
;
_chemical_formula_sum "Si O2"
_cell_formula_units_Z 48
_cell_length_a 33.052282
_cell_length_b 13.090990
_cell_length_c 11.997043
_cell_angle_alpha 90.000000
_cell_angle_beta 30.712571
_cell_angle_gamma 90.000000
_cell_volume 2651.190000
_symmetry_space_group_name_H-M "C 2/M"
_symmetry_group_IT_number 12
_symmetry_cell_setting 'monoclinic'
loop_
_space_group_symop_operation_xyz
x,y,z
-x,y,-z
-x,-y,-z
x,-y,z
1/2+x,1/2+y,z
1/2-x,1/2+y,-z
1/2-x,1/2-y,-z
1/2+x,1/2-y,z
loop_
_atom_site_type_symbol
_atom_site_label
_atom_site_fract_x
_atom_site_fract_y
_atom_site_fract_z
Si Si1 0.221963 0.879723 0.363589
Si Si2 0.467771 0.881527 0.449249
Si Si3 0.908440 0.887422 0.749323
Si Si4 0.171534 0.216826 0.250540
Si Si5 0.080984 0.881486 0.875979
Si Si6 0.387340 0.770384 0.995637
O O1 0.191213 0.820055 0.327471
O O2 0.155353 0.872100 0.616539
O O3 0.305075 0.830124 0.203555
O O4 0.233390 0.000000 0.310543
O O5 0.500000 0.870715 0.500000
O O6 0.393969 0.806676 0.601699
O O7 0.446337 0.000000 0.483678
O O8 0.540351 0.847321 0.199176
O O9 0.863134 0.875001 0.740878
O O10 0.000000 0.874182 0.500000
O O11 0.896839 0.000000 0.825101
O O12 0.882445 0.801587 0.897705
O O13 0.250000 0.250000 0.000000
O O14 0.092224 0.803305 0.950154
O O15 0.077007 0.000000 0.924385
O O16 0.000000 0.861331 0.000000
#
# Coordination Sequence:
#
# PCOD9217012 Si02
#       6
#     8   8   8   8   8   8
#     4  11  24  40  62  90 120 159 201 244 296 356
#     4  11  22  38  60  87 121 160 201 243 294 357
#     4  11  22  36  58  88 120 157 197 244 298 349
#     4  12  21  39  58  88 124 157 197 242 296 356
#     4  10  23  41  64  90 117 156 202 248 298 352
#     4  12  20  41  62  87 120 158 198 249 294 354
#
# _framework density 18.105077999999999
#
# number of rings (size 3 to 8) (size 9 to 14) (size 15 to 20)
#    0.000    0.833    5.000    3.000    0.000    2.667 
#    0.000    0.000    0.000   11.000    0.000    0.000 
#    0.000    0.000    0.000    0.000    0.000    0.000 
#
# Total GULP energy -134095.127853 kJ/mol
# GULP energy per Si atom -5587.296994 kJ/mol
# Density = 1.806387 g / cm^3
# Si number density = 18.105078 Si / 1000 Ang^3
#
#
#
# Elastic Constant Matrix: (Units=GPa)
#
#
# Indices 1 2 3 4 5 6 
#
# 1 104.4340 51.0647 41.9194 0.0000 -6.0667 0.0000
# 2 51.0647 128.0052 51.9349 0.0000 -5.9004 0.0000
# 3 41.9194 51.9349 116.8150 0.0000 -21.8114 0.0000
# 4 0.0000 0.0000 0.0000 19.9774 0.0000 3.9658
# 5 -6.0667 -5.9004 -21.8114 0.0000 29.9486 0.0000
# 6 0.0000 0.0000 0.0000 3.9658 0.0000 28.8500
#
#
#
# Elastic Compliance Matrix: (Units=1/GPa)
#
#
# Indices 1 2 3 4 5 6 
#
# 1 0.012602 -0.003885 -0.002849 0.000000 -0.000287 0.000000
# 2 -0.003885 0.010780 -0.003645 0.000000 -0.001317 0.000000
# 3 -0.002849 -0.003645 0.012687 0.000000 0.007944 0.000000
# 4 0.000000 0.000000 0.000000 0.051461 0.000000 -0.007074
# 5 -0.000287 -0.001317 0.007944 0.000000 0.038859 0.000000
# 6 0.000000 0.000000 0.000000 -0.007074 0.000000 0.035634
#
#
# Mechanical properties :
#
#
# Convention : Reuss Voigt Hill
#
# Bulk Modulus (GPa) = 65.30755 71.01024 68.15889
# Shear Modulus (GPa) = 26.61248 29.37755 27.99501
#
# Velocity S-wave (km/s) = 3.83807 4.03254 3.93651
# Velocity P-wave (km/s) = 7.46932 7.80949 7.64130
#
# Compressibility (1/GPa) = 0.01531217
#
# Stress axis : x y z
#
# Youngs Moduli (GPa) = 79.35483 92.76587 78.82362
#
# Poissons Ratio (x) = 0.36036 0.22455
# Poissons Ratio (y) = 0.30826 0.28728
# Poissons Ratio (z) = 0.22606 0.33810
#
# Static dielectric constant tensor:
#      x y z
#    x 1.560390 0.000000 0.033240 
#    y 0.000000 1.618600 0.000000 
#    z 0.033240 0.000000 1.560610 
# 
# From -- ./inp_files/189369.got.cif
#   From: 2010.05.17/outbox.cif.g08.bks.cpg/sg12_95_cif.got.tgz:189369.got - 2010.06.03 13:09:07.
