data_PCOD9217554
_publ_section_title
;
Structure prediction by ZEFSAII (Michael W. Deem and Ramdas Pophale) SiO2 
 PCOD9217554
Probable space group: C 2/M
;
_chemical_formula_sum "Si O2"
_cell_formula_units_Z 52
_cell_length_a 13.584306
_cell_length_b 23.650419
_cell_length_c 12.692926
_cell_angle_alpha 90.000000
_cell_angle_beta 139.421163
_cell_angle_gamma 90.000000
_cell_volume 2652.657352
_symmetry_space_group_name_H-M "C 2/M"
_symmetry_group_IT_number 12
_symmetry_cell_setting 'monoclinic'
loop_
_space_group_symop_operation_xyz
x,y,z
-x,y,-z
-x,-y,-z
x,-y,z
1/2+x,1/2+y,z
1/2-x,1/2+y,-z
1/2-x,1/2-y,-z
1/2+x,1/2-y,z
loop_
_atom_site_type_symbol
_atom_site_label
_atom_site_fract_x
_atom_site_fract_y
_atom_site_fract_z
Si Si1 0.265821 0.000000 0.059095
Si Si2 0.877707 0.435548 0.495392
Si Si3 0.678398 0.599182 0.155980
Si Si4 0.068162 0.340139 0.285941
Si Si5 0.868224 0.591132 0.967704
Si Si6 0.675974 0.330040 0.667419
Si Si7 0.614327 0.209835 0.691555
O O1 0.231807 0.049952 0.120262
O O2 0.301840 0.048676 0.998585
O O3 0.885912 0.500000 0.542112
O O4 0.721993 0.421545 0.309431
O O5 0.910480 0.392135 0.614855
O O6 0.000000 0.430897 0.500000
O O7 0.770052 0.657327 0.210799
O O8 0.500000 0.607442 0.000000
O O9 0.226265 0.326534 0.359776
O O10 0.990458 0.291418 0.290551
O O11 0.954890 0.359884 0.102792
O O12 0.742351 0.619553 0.791677
O O13 0.000000 0.565994 0.000000
O O14 0.500000 0.338299 0.500000
O O15 0.692484 0.269918 0.739092
O O16 0.500000 0.201567 0.500000
#
# Coordination Sequence:
#
# PCOD9217554 Si02
#       7
#     4   8   8   8   8   8   8
#     4  12  22  42  64  96 134 174 205 268 323 385
#     4  11  21  38  66  97 131 167 216 263 313 390
#     4  12  24  39  63 102 138 164 208 271 330 380
#     4  11  21  42  69  95 125 174 217 257 329 381
#     4  10  23  43  68  95 128 171 226 264 312 390
#     4  10  26  46  65  95 132 166 221 275 317 381
#     4  11  22  45  69  95 129 170 219 263 316 400
#
# _framework density 19.602985
#
# number of rings (size 3 to 8) (size 9 to 14) (size 15 to 20)
#    0.000    1.077    5.385    0.462    3.231    6.154 
#    4.154    0.385    0.000    0.000    0.000    0.000 
#    0.000    0.000    0.000    0.000    0.000    0.000 
#
# Total GULP energy -144763.862388 kJ/mol
# GULP energy per Si atom -5567.840861 kJ/mol
# Density = 1.955837 g / cm^3
# Si number density = 19.602985 Si / 1000 Ang^3
#
#
#
# Elastic Constant Matrix: (Units=GPa)
#
#
# Indices 1 2 3 4 5 6 
#
# 1 114.9833 45.3430 38.3381 0.0000 -4.5205 0.0000
# 2 45.3430 102.3250 25.8133 0.0000 11.8415 0.0000
# 3 38.3381 25.8133 71.4542 0.0000 9.2454 0.0000
# 4 0.0000 0.0000 0.0000 3.8788 0.0000 -10.3962
# 5 -4.5205 11.8415 9.2454 0.0000 29.1224 0.0000
# 6 0.0000 0.0000 0.0000 -10.3962 0.0000 22.6507
#
#
#
# Elastic Compliance Matrix: (Units=1/GPa)
#
#
# Indices 1 2 3 4 5 6 
#
# 1 0.012801 -0.004867 -0.005864 0.000000 0.005828 0.000000
# 2 -0.004867 0.012911 -0.001330 0.000000 -0.005583 0.000000
# 3 -0.005864 -0.001330 0.018426 0.000000 -0.006219 0.000000
# 4 0.000000 0.000000 0.000000 -1.120082 0.000000 -0.514093
# 5 0.005828 -0.005583 -0.006219 0.000000 0.039487 0.000000
# 6 0.000000 0.000000 0.000000 -0.514093 0.000000 -0.191808
#
#
# Mechanical properties :
#
#
# Convention : Reuss Voigt Hill
#
# Bulk Modulus (GPa) = 49.96156 56.41682 53.18919
# Shear Modulus (GPa) = -4.17547 23.08159 9.45306
#
# Velocity S-wave (km/s) = -1.46104 3.43513 2.19835
# Velocity P-wave (km/s) = 4.76402 6.67650 5.79963
#
# Compressibility (1/GPa) = 0.02001539
#
# Stress axis : x y z
#
# Youngs Moduli (GPa) = 78.12154 77.45098 54.27014
#
# Poissons Ratio (x) = 0.37699 0.31822
# Poissons Ratio (y) = 0.38025 0.07220
# Poissons Ratio (z) = 0.45808 0.10303
#
# Static dielectric constant tensor:
#      x y z
#    x 1.691070 0.000000 0.021580 
#    y 0.000000 1.688860 0.000000 
#    z 0.021580 0.000000 1.720220 
# 
# From -- ./inp_files/136027.got.cif
#   From: 2010.05.17/outbox.cif.g08.bks.cpg/sg12_69_cif.got.tgz:136027.got - 2010.06.03 13:09:07.
