data_PCOD9217963
_publ_section_title
;
Structure prediction by ZEFSAII (Michael W. Deem and Ramdas Pophale) SiO2 
 PCOD9217963
Probable space group: C 2/M
;
_chemical_formula_sum "Si O2"
_cell_formula_units_Z 46
_cell_length_a 9.850073
_cell_length_b 20.045958
_cell_length_c 12.810970
_cell_angle_alpha 90.000000
_cell_angle_beta 119.637969
_cell_angle_gamma 90.000000
_cell_volume 2198.627794
_symmetry_space_group_name_H-M "C 2/M"
_symmetry_group_IT_number 12
_symmetry_cell_setting 'monoclinic'
loop_
_space_group_symop_operation_xyz
x,y,z
-x,y,-z
-x,-y,-z
x,-y,z
1/2+x,1/2+y,z
1/2-x,1/2+y,-z
1/2-x,1/2-y,-z
1/2+x,1/2-y,z
loop_
_atom_site_type_symbol
_atom_site_label
_atom_site_fract_x
_atom_site_fract_y
_atom_site_fract_z
Si Si1 0.902066 0.077636 0.657956
Si Si2 0.000000 0.500000 0.500000
Si Si3 0.393155 0.122165 0.587494
Si Si4 0.202586 0.852257 0.697931
Si Si5 0.838954 0.246201 0.142137
Si Si6 0.500000 0.245318 0.500000
Si Si7 0.899442 0.832486 0.855041
O O1 0.769053 0.111915 0.538265
O O2 0.901814 0.107309 0.774353
O O3 0.067372 0.093321 0.666476
O O4 0.862573 0.000000 0.643816
O O5 0.003591 0.560262 0.411907
O O6 0.349790 0.120203 0.692338
O O7 0.449280 0.194735 0.571740
O O8 0.224824 0.816951 0.817090
O O9 0.129780 0.793825 0.597359
O O10 0.774847 0.310291 0.179795
O O11 0.750000 0.250000 0.000000
O O12 0.015743 0.227444 0.178680
O O13 0.000000 0.843164 0.000000
#
# Coordination Sequence:
#
# PCOD9217963 Si02
#       7
#     8   2   8   8   8   4   8
#     4  11  22  36  55  78 111 155 193 235 283 345
#     4  10  24  40  54  76 120 170 192 234 276 350
#     4  11  22  37  54  80 119 148 196 225 289 351
#     4  11  22  34  58  83 112 151 188 239 292 343
#     4   9  19  35  56  84 115 145 187 241 302 350
#     4  11  22  33  55  86 111 144 180 244 287 346
#     4   9  19  36  57  83 112 146 191 242 296 349
#
# _framework density 20.922139999999999
#
# number of rings (size 3 to 8) (size 9 to 14) (size 15 to 20)
#    0.000    1.739    2.609    1.565    6.087    1.043 
#    0.000    0.000    0.000    0.000    0.000    0.000 
#    0.000   21.913    0.000    0.000    0.000    0.000 
#
# Total GULP energy -128156.413341 kJ/mol
# GULP energy per Si atom -5572.017971 kJ/mol
# Density = 2.087452 g / cm^3
# Si number density = 20.922140 Si / 1000 Ang^3
#
#
#
# Elastic Constant Matrix: (Units=GPa)
#
#
# Indices 1 2 3 4 5 6 
#
# 1 60.9461 13.0205 22.0566 0.0000 -22.1411 0.0000
# 2 13.0205 79.4992 23.7287 0.0000 -5.7560 0.0000
# 3 22.0566 23.7287 96.4226 0.0000 -15.5389 0.0000
# 4 0.0000 0.0000 0.0000 3.1642 0.0000 4.6818
# 5 -22.1411 -5.7560 -15.5389 0.0000 32.1602 0.0000
# 6 0.0000 0.0000 0.0000 4.6818 0.0000 17.1619
#
#
#
# Elastic Compliance Matrix: (Units=1/GPa)
#
#
# Indices 1 2 3 4 5 6 
#
# 1 0.022884 -0.001986 -0.002456 0.000000 0.014213 0.000000
# 2 -0.001986 0.013772 -0.002991 0.000000 -0.000348 0.000000
# 3 -0.002456 -0.002991 0.012265 0.000000 0.003700 0.000000
# 4 0.000000 0.000000 0.000000 0.529940 0.000000 -0.144568
# 5 0.014213 -0.000348 0.003700 0.000000 0.042605 0.000000
# 6 0.000000 0.000000 0.000000 -0.144568 0.000000 0.097707
#
#
# Mechanical properties :
#
#
# Convention : Reuss Voigt Hill
#
# Bulk Modulus (GPa) = 29.36317 39.38662 34.37490
# Shear Modulus (GPa) = 6.70790 22.36805 14.53797
#
# Velocity S-wave (km/s) = 1.79251 3.27327 2.63888
# Velocity P-wave (km/s) = 4.28358 5.75777 5.07450
#
# Compressibility (1/GPa) = 0.03405627
#
# Stress axis : x y z
#
# Youngs Moduli (GPa) = 43.69792 72.61359 81.53263
#
# Poissons Ratio (x) = 0.14421 0.20021
# Poissons Ratio (y) = 0.08679 0.24384
# Poissons Ratio (z) = 0.10730 0.21717
#
# Static dielectric constant tensor:
#      x y z
#    x 1.988890 0.000000 -0.012530 
#    y 0.000000 1.709760 0.000000 
#    z -0.012530 0.000000 1.754750 
# 
# From -- ./inp_files/131269.got.cif
#   From: 2010.05.17/outbox.cif.g08.bks.cpg/sg12_66_cif.got.tgz:131269.got - 2010.06.03 13:09:07.
