data_PCOD9217456
_publ_section_title
;
Structure prediction by ZEFSAII (Michael W. Deem and Ramdas Pophale) SiO2 
 PCOD9217456
Probable space group: C 2/M
;
_chemical_formula_sum "Si O2"
_cell_formula_units_Z 64
_cell_length_a 12.685675
_cell_length_b 19.569492
_cell_length_c 12.700883
_cell_angle_alpha 90.000000
_cell_angle_beta 102.701417
_cell_angle_gamma 90.000000
_cell_volume 3075.865069
_symmetry_space_group_name_H-M "C 2/M"
_symmetry_group_IT_number 12
_symmetry_cell_setting 'monoclinic'
loop_
_space_group_symop_operation_xyz
x,y,z
-x,y,-z
-x,-y,-z
x,-y,z
1/2+x,1/2+y,z
1/2-x,1/2+y,-z
1/2-x,1/2-y,-z
1/2+x,1/2-y,z
loop_
_atom_site_type_symbol
_atom_site_label
_atom_site_fract_x
_atom_site_fract_y
_atom_site_fract_z
Si Si1 0.911481 0.786385 0.289175
Si Si2 0.061640 0.643195 0.620047
Si Si3 0.488625 0.426098 0.373264
Si Si4 0.299001 0.581421 0.722972
Si Si5 0.271294 0.785649 0.895318
Si Si6 0.513807 0.921196 0.825519
Si Si7 0.324477 0.923032 0.957959
Si Si8 0.060347 0.186689 0.119201
O O1 0.942941 0.725693 0.374080
O O2 0.798326 0.762139 0.217622
O O3 0.912329 0.861529 0.337599
O O4 0.985518 0.797513 0.202489
O O5 0.183567 0.611682 0.657955
O O6 0.004153 0.620188 0.716496
O O7 0.000000 0.620702 0.500000
O O8 0.500000 0.430416 0.500000
O O9 0.447493 0.500000 0.323933
O O10 0.606389 0.415332 0.345381
O O11 0.287181 0.500000 0.748067
O O12 0.350195 0.630148 0.825812
O O13 0.243813 0.864504 0.907658
O O14 0.390963 0.761396 0.896149
O O15 0.250000 0.750000 0.000000
O O16 0.413528 0.921267 0.884014
O O17 0.531550 0.000000 0.799094
O O18 0.615665 0.901129 0.921083
O O19 0.284676 0.000000 0.960248
O O20 0.000000 0.163152 0.000000
#
# Coordination Sequence:
#
# PCOD9217456 Si02
#       8
#     8   8   8   8   8   8   8   8
#     4  11  23  40  61  90 125 161 212 260 321 374
#     4  12  24  41  62  95 132 171 212 262 321 380
#     4   9  20  44  69  86 116 165 216 266 313 364
#     4  10  23  43  65  94 129 165 212 262 319 385
#     4  12  22  36  60  90 124 161 208 256 319 381
#     4   9  19  37  59  85 123 165 203 248 311 379
#     4   9  20  37  59  89 122 161 206 257 315 379
#     4  11  23  40  64  94 126 166 209 263 319 387
#
# _framework density 20.807154000000001
#
# number of rings (size 3 to 8) (size 9 to 14) (size 15 to 20)
#    0.000    1.625    2.500    3.000    1.750    1.750 
#    4.500    1.875    0.000    0.000    0.000    0.000 
#    0.000    0.000    0.000    0.000    0.000    0.000 
#
# Total GULP energy -178392.025881 kJ/mol
# GULP energy per Si atom -5574.750809 kJ/mol
# Density = 2.075980 g / cm^3
# Si number density = 20.807154 Si / 1000 Ang^3
#
#
#
# Elastic Constant Matrix: (Units=GPa)
#
#
# Indices 1 2 3 4 5 6 
#
# 1 35.2392 23.2584 21.1716 0.0000 12.5923 0.0000
# 2 23.2584 122.2935 45.9333 0.0000 9.0596 0.0000
# 3 21.1716 45.9333 124.9039 0.0000 13.6322 0.0000
# 4 0.0000 0.0000 0.0000 21.6854 0.0000 7.8931
# 5 12.5923 9.0596 13.6322 0.0000 26.5480 0.0000
# 6 0.0000 0.0000 0.0000 7.8931 0.0000 24.1698
#
#
#
# Elastic Compliance Matrix: (Units=1/GPa)
#
#
# Indices 1 2 3 4 5 6 
#
# 1 0.039046 -0.005149 -0.003067 0.000000 -0.015188 0.000000
# 2 -0.005149 0.010226 -0.002938 0.000000 0.000461 0.000000
# 3 -0.003067 -0.002938 0.009893 0.000000 -0.002622 0.000000
# 4 0.000000 0.000000 0.000000 0.052335 0.000000 -0.017091
# 5 -0.015188 0.000461 -0.002622 0.000000 0.046061 0.000000
# 6 0.000000 0.000000 0.000000 -0.017091 0.000000 0.046955
#
#
# Mechanical properties :
#
#
# Convention : Reuss Voigt Hill
#
# Bulk Modulus (GPa) = 27.13257 51.46257 39.29757
# Shear Modulus (GPa) = 20.91098 27.28551 24.09825
#
# Velocity S-wave (km/s) = 3.17360 3.62519 3.40688
# Velocity P-wave (km/s) = 5.14755 6.50457 5.86544
#
# Compressibility (1/GPa) = 0.03685607
#
# Stress axis : x y z
#
# Youngs Moduli (GPa) = 25.61091 97.79351 101.08401
#
# Poissons Ratio (x) = 0.50351 0.31005
# Poissons Ratio (y) = 0.13186 0.29699
# Poissons Ratio (z) = 0.07856 0.28733
#
# Static dielectric constant tensor:
#      x y z
#    x 1.775640 0.000000 0.005570 
#    y 0.000000 1.812310 0.000000 
#    z 0.005570 0.000000 1.726520 
# 
# From -- ./inp_files/147662.got.cif
#   From: 2010.05.17/outbox.cif.g08.bks.cpg/sg12_74_cif.got.tgz:147662.got - 2010.06.03 13:09:07.
