data_PCOD9217924
_publ_section_title
;
Structure prediction by ZEFSAII (Michael W. Deem and Ramdas Pophale) SiO2 
 PCOD9217924
Probable space group: C 2/M
;
_chemical_formula_sum "Si O2"
_cell_formula_units_Z 36
_cell_length_a 8.095479
_cell_length_b 20.418120
_cell_length_c 10.355205
_cell_angle_alpha 90.000000
_cell_angle_beta 102.959028
_cell_angle_gamma 90.000000
_cell_volume 1668.063265
_symmetry_space_group_name_H-M "C 2/M"
_symmetry_group_IT_number 12
_symmetry_cell_setting 'monoclinic'
loop_
_space_group_symop_operation_xyz
x,y,z
-x,y,-z
-x,-y,-z
x,-y,z
1/2+x,1/2+y,z
1/2-x,1/2+y,-z
1/2-x,1/2-y,-z
1/2+x,1/2-y,z
loop_
_atom_site_type_symbol
_atom_site_label
_atom_site_fract_x
_atom_site_fract_y
_atom_site_fract_z
Si Si1 0.329088 0.706579 0.901707
Si Si2 0.000000 0.716323 0.500000
Si Si3 0.224044 0.307738 0.315762
Si Si4 0.758613 0.928949 0.857044
Si Si5 0.356683 0.429508 0.174069
O O1 0.370686 0.756137 0.794196
O O2 0.209070 0.647292 0.831224
O O3 0.500000 0.679959 0.000000
O O4 0.250000 0.750000 0.000000
O O5 0.890690 0.674809 0.581735
O O6 0.877584 0.765027 0.400030
O O7 0.290558 0.368935 0.245193
O O8 0.941076 0.928827 0.816595
O O9 0.676987 0.000000 0.808755
O O10 0.777765 0.930150 0.016284
O O11 0.314480 0.500000 0.227842
#
# Coordination Sequence:
#
# PCOD9217924 Si02
#       5
#     8   4   8   8   8
#     4  12  20  31  56  88 111 137 171 227 281 329
#     4  10  24  38  58  72 108 156 190 232 258 312
#     4  11  21  39  55  82 111 145 192 224 271 319
#     4   9  16  29  50  84 116 140 168 215 282 338
#     4   9  16  30  54  79 111 141 174 225 275 326
#
# _framework density 21.581914999999999
#
# number of rings (size 3 to 8) (size 9 to 14) (size 15 to 20)
#    0.000    1.778    4.444    4.000    0.000    0.000 
#    0.000    1.111    0.000   12.000    0.000    0.000 
#    0.000    0.000    0.000    0.000    0.000    0.000 
#
# Total GULP energy -100298.203500 kJ/mol
# GULP energy per Si atom -5572.122417 kJ/mol
# Density = 2.153279 g / cm^3
# Si number density = 21.581915 Si / 1000 Ang^3
#
#
#
# Elastic Constant Matrix: (Units=GPa)
#
#
# Indices 1 2 3 4 5 6 
#
# 1 39.2236 22.2031 36.3578 0.0000 -15.4926 0.0000
# 2 22.2031 178.7327 45.8829 0.0000 -21.7105 0.0000
# 3 36.3578 45.8829 81.8542 0.0000 -29.4025 0.0000
# 4 0.0000 0.0000 0.0000 23.6158 0.0000 -13.1600
# 5 -15.4926 -21.7105 -29.4025 0.0000 42.7546 0.0000
# 6 0.0000 0.0000 0.0000 -13.1600 0.0000 21.5355
#
#
#
# Elastic Compliance Matrix: (Units=1/GPa)
#
#
# Indices 1 2 3 4 5 6 
#
# 1 0.043712 -0.000410 -0.018023 0.000000 0.003236 0.000000
# 2 -0.000410 0.006576 -0.003131 0.000000 0.001037 0.000000
# 3 -0.018023 -0.003131 0.025314 0.000000 0.009287 0.000000
# 4 0.000000 0.000000 0.000000 0.064210 0.000000 0.039238
# 5 0.003236 0.001037 0.009287 0.000000 0.031476 0.000000
# 6 0.000000 0.000000 0.000000 0.039238 0.000000 0.070413
#
#
# Mechanical properties :
#
#
# Convention : Reuss Voigt Hill
#
# Bulk Modulus (GPa) = 30.79606 56.52203 43.65904
# Shear Modulus (GPa) = 16.91172 30.60563 23.75867
#
# Velocity S-wave (km/s) = 2.80233 3.76987 3.32152
# Velocity P-wave (km/s) = 4.97706 6.72277 5.91467
#
# Compressibility (1/GPa) = 0.03247168
#
# Stress axis : x y z
#
# Youngs Moduli (GPa) = 22.87705 152.07483 39.50427
#
# Poissons Ratio (x) = 0.06237 0.71200
# Poissons Ratio (y) = 0.00938 0.12370
# Poissons Ratio (z) = 0.41232 0.47619
#
# Static dielectric constant tensor:
#      x y z
#    x 1.870780 0.000000 0.026600 
#    y 0.000000 1.832170 0.000000 
#    z 0.026600 0.000000 1.776440 
# 
# From -- ./inp_files/119695.got.cif
#   From: 2010.05.17/outbox.cif.g08.bks.cpg/sg12_60_cif.got.tgz:119695.got - 2010.06.03 13:09:07.
