data_PCOD9217837
_publ_section_title
;
Structure prediction by ZEFSAII (Michael W. Deem and Ramdas Pophale) SiO2 
 PCOD9217837
Probable space group: C 2/M
;
_chemical_formula_sum "Si O2"
_cell_formula_units_Z 56
_cell_length_a 16.368715
_cell_length_b 19.252389
_cell_length_c 20.746526
_cell_angle_alpha 90.000000
_cell_angle_beta 154.163211
_cell_angle_gamma 90.000000
_cell_volume 2849.317785
_symmetry_space_group_name_H-M "C 2/M"
_symmetry_group_IT_number 12
_symmetry_cell_setting 'monoclinic'
loop_
_space_group_symop_operation_xyz
x,y,z
-x,y,-z
-x,-y,-z
x,-y,z
1/2+x,1/2+y,z
1/2-x,1/2+y,-z
1/2-x,1/2-y,-z
1/2+x,1/2-y,z
loop_
_atom_site_type_symbol
_atom_site_label
_atom_site_fract_x
_atom_site_fract_y
_atom_site_fract_z
Si Si1 0.142525 0.077915 0.507695
Si Si2 0.802316 0.822303 0.570738
Si Si3 0.944378 0.082200 0.884889
Si Si4 0.638699 0.221552 0.154054
Si Si5 0.070213 0.327552 0.620961
Si Si6 0.282651 0.077820 0.743257
Si Si7 0.065210 0.202066 0.878949
O O1 0.144459 0.126641 0.448441
O O2 0.273168 0.098185 0.661005
O O3 0.932322 0.075290 0.386059
O O4 0.197580 0.000000 0.528178
O O5 0.750000 0.750000 0.500000
O O6 0.612075 0.849563 0.469331
O O7 0.963840 0.814196 0.739305
O O8 0.734720 0.115154 0.732662
O O9 0.071140 0.130808 0.926899
O O10 0.949507 0.000000 0.871524
O O11 0.000000 0.088176 0.000000
O O12 0.838028 0.257829 0.283752
O O13 0.630270 0.139285 0.154191
O O14 0.572377 0.251463 0.175152
O O15 0.500000 0.245764 0.000000
O O16 0.000000 0.309512 0.500000
O O17 0.361651 0.000000 0.805839
O O18 0.250000 0.250000 0.000000
#
# Coordination Sequence:
#
# PCOD9217837 Si02
#       7
#     8   8   8   8   8   8   8
#     4   9  20  37  60  88 121 157 194 254 320 370
#     4  12  24  36  63  98 123 160 214 265 314 377
#     4  10  23  46  71  93 126 178 222 262 326 397
#     4  11  23  39  64  87 120 170 211 254 312 379
#     4  11  22  41  62  95 124 164 215 268 321 376
#     4   9  19  39  61  85 120 160 205 252 312 377
#     4  11  25  42  61  94 132 166 203 263 322 376
#
# _framework density 19.653825999999999
#
# number of rings (size 3 to 8) (size 9 to 14) (size 15 to 20)
#    0.000    1.571    2.857    4.286    8.000    1.714 
#    0.000    0.714    0.000    0.000    0.000    0.000 
#    0.000    0.000    0.000    0.000    0.000    0.000 
#
# Total GULP energy -156156.082997 kJ/mol
# GULP energy per Si atom -5577.002964 kJ/mol
# Density = 1.960909 g / cm^3
# Si number density = 19.653826 Si / 1000 Ang^3
#
#
#
# Elastic Constant Matrix: (Units=GPa)
#
#
# Indices 1 2 3 4 5 6 
#
# 1 95.6989 46.5146 40.0583 -0.0209 -9.7884 -0.0142
# 2 46.5146 133.1590 53.9600 0.0415 -18.3410 0.0013
# 3 40.0583 53.9600 107.2482 0.0193 -17.8742 -0.0158
# 4 -0.0209 0.0415 0.0193 23.9061 0.0140 -3.9050
# 5 -9.7884 -18.3410 -17.8742 0.0140 32.2949 -0.0153
# 6 -0.0142 0.0013 -0.0158 -3.9050 -0.0153 27.2652
#
#
#
# Elastic Compliance Matrix: (Units=1/GPa)
#
#
# Indices 1 2 3 4 5 6 
#
# 1 0.013484 -0.003320 -0.003304 0.000021 0.000373 0.000009
# 2 -0.003320 0.010523 -0.003554 -0.000021 0.003003 -0.000006
# 3 -0.003304 -0.003554 0.013047 -0.000009 0.004201 0.000007
# 4 0.000021 -0.000021 -0.000009 0.042832 -0.000026 0.006135
# 5 0.000373 0.003003 0.004201 -0.000026 0.035108 0.000018
# 6 0.000009 -0.000006 0.000007 0.006135 0.000018 0.037555
#
#
# Mechanical properties :
#
#
# Convention : Reuss Voigt Hill
#
# Bulk Modulus (GPa) = 59.88718 68.57464 64.23091
# Shear Modulus (GPa) = 28.01549 29.73146 28.87348
#
# Velocity S-wave (km/s) = 3.77961 3.89364 3.83704
# Velocity P-wave (km/s) = 7.04162 7.42838 7.23758
#
# Compressibility (1/GPa) = 0.01669806
#
# Stress axis : x y z
#
# Youngs Moduli (GPa) = 74.16036 95.02594 76.64870
#
# Poissons Ratio (x) = 0.31549 0.25324
# Poissons Ratio (y) = 0.24622 0.27242
# Poissons Ratio (z) = 0.24502 0.33773
#
# Static dielectric constant tensor:
#      x y z
#    x 1.732230 -0.000090 0.077760 
#    y -0.000090 1.736940 -0.000200 
#    z 0.077760 -0.000200 1.833110 
# 
# From -- ./inp_files/64075.got.cif
#   From: 2010.05.17/outbox.cif.g08.bks.cpg/sg12_33_cif.got.tgz:64075.got - 2010.06.03 13:09:07.
