data_PCOD9217150
_publ_section_title
;
Structure prediction by ZEFSAII (Michael W. Deem and Ramdas Pophale) SiO2 
 PCOD9217150
Probable space group: C 2/M
;
_chemical_formula_sum "Si O2"
_cell_formula_units_Z 48
_cell_length_a 7.341966
_cell_length_b 28.900812
_cell_length_c 10.686473
_cell_angle_alpha 90.000000
_cell_angle_beta 98.975736
_cell_angle_gamma 90.000000
_cell_volume 2239.782379
_symmetry_space_group_name_H-M "C 2/M"
_symmetry_group_IT_number 12
_symmetry_cell_setting 'monoclinic'
loop_
_space_group_symop_operation_xyz
x,y,z
-x,y,-z
-x,-y,-z
x,-y,z
1/2+x,1/2+y,z
1/2-x,1/2+y,-z
1/2-x,1/2-y,-z
1/2+x,1/2-y,z
loop_
_atom_site_type_symbol
_atom_site_label
_atom_site_fract_x
_atom_site_fract_y
_atom_site_fract_z
Si Si1 0.049469 0.447202 0.213090
Si Si2 0.204703 0.908177 0.547847
Si Si3 0.272284 0.614087 0.733529
Si Si4 0.418653 0.447581 0.129887
Si Si5 0.739640 0.193443 0.390521
Si Si6 0.305263 0.790289 0.332951
O O1 0.979974 0.500000 0.196954
O O2 0.167649 0.440413 0.354139
O O3 0.200984 0.439036 0.121306
O O4 0.884733 0.410859 0.201987
O O5 0.280787 0.895306 0.417924
O O6 0.192707 0.858633 0.618740
O O7 0.000000 0.926844 0.500000
O O8 0.462230 0.588403 0.779907
O O9 0.285096 0.669044 0.757201
O O10 0.447596 0.500000 0.180902
O O11 0.500000 0.445683 0.000000
O O12 0.789831 0.205509 0.540160
O O13 0.518010 0.194388 0.361903
O O14 0.802303 0.235413 0.308101
#
# Coordination Sequence:
#
# PCOD9217150 Si02
#       6
#     8   8   8   8   8   8
#     4  11  23  38  58  85 118 156 191 235 293 352
#     4  11  21  34  53  83 124 156 191 230 282 353
#     4  11  21  37  57  85 119 156 189 237 287 351
#     4  10  23  42  62  85 111 147 201 252 294 342
#     4   9  18  29  45  76 113 151 186 228 269 337
#     4   9  18  29  48  75 112 150 189 222 281 329
#
# _framework density 21.430655999999999
#
# number of rings (size 3 to 8) (size 9 to 14) (size 15 to 20)
#    0.000    1.833    3.333    1.000    7.000    3.000 
#    0.000    2.500    0.000    0.000    0.000    4.667 
#    0.000    0.000    0.000    0.000    0.000    0.000 
#
# Total GULP energy -133986.157428 kJ/mol
# GULP energy per Si atom -5582.756559 kJ/mol
# Density = 2.138188 g / cm^3
# Si number density = 21.430656 Si / 1000 Ang^3
#
#
#
# Elastic Constant Matrix: (Units=GPa)
#
#
# Indices 1 2 3 4 5 6 
#
# 1 77.2471 36.0570 5.2046 0.0000 -13.3477 0.0000
# 2 36.0570 126.7378 24.1049 0.0000 -8.8794 0.0000
# 3 5.2046 24.1049 29.6965 0.0000 -14.9947 0.0000
# 4 0.0000 0.0000 0.0000 11.8497 0.0000 -6.4963
# 5 -13.3477 -8.8794 -14.9947 0.0000 23.8670 0.0000
# 6 0.0000 0.0000 0.0000 -6.4963 0.0000 34.6873
#
#
#
# Elastic Compliance Matrix: (Units=1/GPa)
#
#
# Indices 1 2 3 4 5 6 
#
# 1 0.017114 -0.005463 0.007677 0.000000 0.012362 0.000000
# 2 -0.005463 0.011133 -0.011029 0.000000 -0.005843 0.000000
# 3 0.007677 -0.011029 0.060601 0.000000 0.038263 0.000000
# 4 0.000000 0.000000 0.000000 0.094046 0.000000 0.017613
# 5 0.012362 -0.005843 0.038263 0.000000 0.070678 0.000000
# 6 0.000000 0.000000 0.000000 0.017613 0.000000 0.032128
#
#
# Mechanical properties :
#
#
# Convention : Reuss Voigt Hill
#
# Bulk Modulus (GPa) = 14.04152 40.49048 27.26600
# Shear Modulus (GPa) = 15.28721 25.30179 20.29450
#
# Velocity S-wave (km/s) = 2.67373 3.43977 3.08065
# Velocity P-wave (km/s) = 4.01224 5.89158 5.04028
#
# Compressibility (1/GPa) = 0.07121738
#
# Stress axis : x y z
#
# Youngs Moduli (GPa) = 58.43087 89.82375 16.50125
#
# Poissons Ratio (x) = 0.49071 -0.12668
# Poissons Ratio (y) = 0.31921 0.18200
# Poissons Ratio (z) = -0.44856 0.99070
#
# Static dielectric constant tensor:
#      x y z
#    x 1.834600 0.000000 -0.022320 
#    y 0.000000 1.809580 0.000000 
#    z -0.022320 0.000000 1.789190 
# 
# From -- ./inp_files/123127.got.cif
#   From: 2010.05.17/outbox.cif.g08.bks.cpg/sg12_62_cif.got.tgz:123127.got - 2010.06.03 13:09:07.
