data_PCOD9217291
_publ_section_title
;
Structure prediction by ZEFSAII (Michael W. Deem and Ramdas Pophale) SiO2 
 PCOD9217291
Probable space group: C 2/M
;
_chemical_formula_sum "Si O2"
_cell_formula_units_Z 56
_cell_length_a 18.427682
_cell_length_b 14.961996
_cell_length_c 22.290753
_cell_angle_alpha 90.000000
_cell_angle_beta 27.816557
_cell_angle_gamma 90.000000
_cell_volume 2867.933210
_symmetry_space_group_name_H-M "C 2/M"
_symmetry_group_IT_number 12
_symmetry_cell_setting 'monoclinic'
loop_
_space_group_symop_operation_xyz
x,y,z
-x,y,-z
-x,-y,-z
x,-y,z
1/2+x,1/2+y,z
1/2-x,1/2+y,-z
1/2-x,1/2-y,-z
1/2+x,1/2-y,z
loop_
_atom_site_type_symbol
_atom_site_label
_atom_site_fract_x
_atom_site_fract_y
_atom_site_fract_z
Si Si1 0.865683 0.674120 0.674100
Si Si2 0.192863 0.731732 0.403970
Si Si3 0.204342 0.896099 0.482926
Si Si4 0.065049 0.101185 0.712363
Si Si5 0.806067 0.844165 0.982395
Si Si6 0.043249 0.901041 0.899334
Si Si7 0.064012 0.397667 0.255056
O O1 0.812963 0.748912 0.663567
O O2 0.728587 0.605070 0.758245
O O3 0.870755 0.670947 0.742632
O O4 0.047118 0.666353 0.525706
O O5 0.173114 0.822832 0.455169
O O6 0.338655 0.677120 0.323000
O O7 0.091944 0.882372 0.622291
O O8 0.382029 0.882225 0.375861
O O9 0.191801 0.000000 0.472915
O O10 0.890650 0.106911 0.865220
O O11 0.124446 0.000000 0.680697
O O12 0.941432 0.836083 0.933591
O O13 0.750000 0.750000 0.000000
O O14 0.662933 0.889166 0.122016
O O15 0.990948 0.000000 0.919126
O O16 0.000000 0.888270 0.000000
O O17 0.081683 0.500000 0.265270
#
# Coordination Sequence:
#
# PCOD9217291 Si02
#       7
#     8   8   8   8   8   8   8
#     4  11  23  35  59  90 122 162 198 254 320 381
#     4  11  23  39  60  92 128 165 209 261 314 374
#     4  10  23  42  66  90 122 171 220 264 308 367
#     4  11  22  37  61  93 128 164 206 258 313 373
#     4  12  25  37  58  90 127 170 205 252 308 376
#     4  11  22  38  59  85 122 163 204 252 313 384
#     4  11  22  39  62  92 127 164 206 257 320 381
#
# _framework density 19.526257000000001
#
# number of rings (size 3 to 8) (size 9 to 14) (size 15 to 20)
#    0.000    1.000    4.286    3.000    2.000    1.143 
#    0.000    5.000    0.000    0.000    0.000    0.000 
#    0.000   10.857    0.000    0.000    0.000    0.000 
#
# Total GULP energy -155951.919462 kJ/mol
# GULP energy per Si atom -5569.711409 kJ/mol
# Density = 1.948181 g / cm^3
# Si number density = 19.526257 Si / 1000 Ang^3
#
#
#
# Elastic Constant Matrix: (Units=GPa)
#
#
# Indices 1 2 3 4 5 6 
#
# 1 84.8881 56.5243 37.4604 0.0008 18.2924 -0.0008
# 2 56.5243 79.6633 35.5808 0.0021 14.7275 -0.0029
# 3 37.4604 35.5808 107.6537 0.0005 21.5013 -0.0030
# 4 0.0008 0.0021 0.0005 21.4996 -0.0007 -0.8246
# 5 18.2924 14.7275 21.5013 -0.0007 31.0475 0.0017
# 6 -0.0008 -0.0029 -0.0030 -0.8246 0.0017 9.9348
#
#
#
# Elastic Compliance Matrix: (Units=1/GPa)
#
#
# Indices 1 2 3 4 5 6 
#
# 1 0.023905 -0.014934 -0.002303 0.000000 -0.005406 -0.000002
# 2 -0.014934 0.024542 -0.002724 -0.000002 -0.000957 0.000005
# 3 -0.002303 -0.002724 0.012141 0.000000 -0.005759 0.000004
# 4 0.000000 -0.000002 0.000000 0.046661 0.000001 0.003873
# 5 -0.005406 -0.000957 -0.005759 0.000001 0.039836 -0.000009
# 6 -0.000002 0.000005 0.000004 0.003873 -0.000009 0.100978
#
#
# Mechanical properties :
#
#
# Convention : Reuss Voigt Hill
#
# Bulk Modulus (GPa) = 48.38556 59.03738 53.71147
# Shear Modulus (GPa) = 16.95639 22.00567 19.48103
#
# Velocity S-wave (km/s) = 2.95004 3.36069 3.16204
# Velocity P-wave (km/s) = 6.03632 6.73495 6.39518
#
# Compressibility (1/GPa) = 0.02066732
#
# Stress axis : x y z
#
# Youngs Moduli (GPa) = 41.83170 40.74565 82.36621
#
# Poissons Ratio (x) = 0.60849 0.18968
# Poissons Ratio (y) = 0.62471 0.22436
# Poissons Ratio (z) = 0.09633 0.11099
#
# Static dielectric constant tensor:
#      x y z
#    x 1.693050 0.000000 0.031240 
#    y 0.000000 1.685820 0.000000 
#    z 0.031240 0.000000 1.754070 
# 
# From -- ./inp_files/316691.got.cif
#   From: 2010.05.17/outbox.cif.g08.bks.cpg/sg12_159_cif.got.tgz:316691.got - 2010.06.03 13:09:07.
