data_PCOD9217872
_publ_section_title
;
Structure prediction by ZEFSAII (Michael W. Deem and Ramdas Pophale) SiO2 
 PCOD9217872
Probable space group: C 2/M
;
_chemical_formula_sum "Si O2"
_cell_formula_units_Z 40
_cell_length_a 6.977348
_cell_length_b 13.574158
_cell_length_c 14.622007
_cell_angle_alpha 90.000000
_cell_angle_beta 97.188289
_cell_angle_gamma 90.000000
_cell_volume 1373.989335
_symmetry_space_group_name_H-M "C 2/M"
_symmetry_group_IT_number 12
_symmetry_cell_setting 'monoclinic'
loop_
_space_group_symop_operation_xyz
x,y,z
-x,y,-z
-x,-y,-z
x,-y,z
1/2+x,1/2+y,z
1/2-x,1/2+y,-z
1/2-x,1/2-y,-z
1/2+x,1/2-y,z
loop_
_atom_site_type_symbol
_atom_site_label
_atom_site_fract_x
_atom_site_fract_y
_atom_site_fract_z
Si Si1 0.071733 0.115452 0.271150
Si Si2 0.034874 0.698624 0.149474
Si Si3 0.274255 0.384679 0.005844
Si Si4 0.714136 0.381620 0.471082
Si Si5 0.857523 0.614345 0.664424
O O1 0.082464 0.191876 0.188804
O O2 0.209040 0.146978 0.364517
O O3 0.857294 0.122660 0.303843
O O4 0.100675 0.000000 0.247768
O O5 0.202861 0.641171 0.103794
O O6 0.005620 0.649034 0.246177
O O7 0.359475 0.820599 0.069386
O O8 0.234747 0.500000 0.986943
O O9 0.500000 0.368876 0.000000
O O10 0.500000 0.368836 0.500000
O O11 0.743524 0.500000 0.468411
O O12 0.850281 0.342213 0.561115
O O13 0.897383 0.500000 0.653985
#
# Coordination Sequence:
#
# PCOD9217872 Si02
#       5
#     8   8   8   8   8
#     4   9  19  37  64 103 157 208 248 301 372 441
#     4  11  21  40  76 113 144 193 259 317 373 456
#     4  10  23  47  76 110 153 194 240 316 403 465
#     4   7  12  27  55  97 147 201 249 295 362 437
#     4   9  17  34  65 104 148 196 252 310 368 439
#
# _framework density 29.112307000000001
#
# number of rings (size 3 to 8) (size 9 to 14) (size 15 to 20)
#    0.000    2.800    0.000    4.800    0.000    0.800 
#    3.600    6.000    0.000    4.800    0.000    4.200 
#    0.000   33.600    0.000    0.600    0.000    0.000 
#
# Total GULP energy -112153.799406 kJ/mol
# GULP energy per Si atom -5607.689970 kJ/mol
# Density = 2.904605 g / cm^3
# Si number density = 29.112307 Si / 1000 Ang^3
#
#
#
# Elastic Constant Matrix: (Units=GPa)
#
#
# Indices 1 2 3 4 5 6 
#
# 1 127.4944 23.1894 87.9906 0.0000 -1.9347 0.0000
# 2 23.1894 176.3481 72.3489 0.0000 -1.0329 0.0000
# 3 87.9906 72.3489 307.4849 0.0000 22.0176 0.0000
# 4 0.0000 0.0000 0.0000 108.0979 0.0000 -5.7786
# 5 -1.9347 -1.0329 22.0176 0.0000 76.3154 0.0000
# 6 0.0000 0.0000 0.0000 -5.7786 0.0000 32.4635
#
#
#
# Elastic Compliance Matrix: (Units=1/GPa)
#
#
# Indices 1 2 3 4 5 6 
#
# 1 0.009863 -0.000112 -0.002873 0.000000 0.001078 0.000000
# 2 -0.000112 0.006298 -0.001487 0.000000 0.000511 0.000000
# 3 -0.002873 -0.001487 0.004524 0.000000 -0.001398 0.000000
# 4 0.000000 0.000000 0.000000 0.009340 0.000000 0.001663
# 5 0.001078 0.000511 -0.001398 0.000000 0.013541 0.000000
# 6 0.000000 0.000000 0.000000 0.001663 0.000000 0.031100
#
#
# Mechanical properties :
#
#
# Convention : Reuss Voigt Hill
#
# Bulk Modulus (GPa) = 85.16219 108.70948 96.93584
# Shear Modulus (GPa) = 57.12727 71.89524 64.51125
#
# Velocity S-wave (km/s) = 4.43460 4.97488 4.71249
# Velocity P-wave (km/s) = 7.45234 8.39177 7.93597
#
# Compressibility (1/GPa) = 0.01174230
#
# Stress axis : x y z
#
# Youngs Moduli (GPa) = 101.38696 158.77635 221.02794
#
# Poissons Ratio (x) = 0.01776 0.63508
# Poissons Ratio (y) = 0.01134 0.32856
# Poissons Ratio (z) = 0.29132 0.23602
#
# Static dielectric constant tensor:
#      x y z
#    x 2.397310 0.000000 0.068890 
#    y 0.000000 2.243160 0.000000 
#    z 0.068890 0.000000 2.218040 
# 
# From -- ./inp_files/202946.got.cif
#   From: 2010.05.17/outbox.cif.g08.bks.cpg/sg12_102_cif.got.tgz:202946.got - 2010.06.03 13:09:07.
