data_PCOD9217198
_publ_section_title
;
Structure prediction by ZEFSAII (Michael W. Deem and Ramdas Pophale) SiO2 
 PCOD9217198
Probable space group: C 2/M
;
_chemical_formula_sum "Si O2"
_cell_formula_units_Z 48
_cell_length_a 11.172565
_cell_length_b 26.351711
_cell_length_c 9.498086
_cell_angle_alpha 90.000000
_cell_angle_beta 67.150044
_cell_angle_gamma 90.000000
_cell_volume 2576.943485
_symmetry_space_group_name_H-M "C 2/M"
_symmetry_group_IT_number 12
_symmetry_cell_setting 'monoclinic'
loop_
_space_group_symop_operation_xyz
x,y,z
-x,y,-z
-x,-y,-z
x,-y,z
1/2+x,1/2+y,z
1/2-x,1/2+y,-z
1/2-x,1/2-y,-z
1/2+x,1/2-y,z
loop_
_atom_site_type_symbol
_atom_site_label
_atom_site_fract_x
_atom_site_fract_y
_atom_site_fract_z
Si Si1 0.465767 0.000000 0.178634
Si Si2 0.452180 0.442721 0.684515
Si Si3 0.365856 0.000000 0.651698
Si Si4 0.346724 0.198674 0.101849
Si Si5 0.291039 0.397789 0.334722
Si Si6 0.197795 0.602741 0.693290
Si Si7 0.659879 0.686202 0.914758
O O1 0.392631 0.947798 0.258218
O O2 0.598216 0.000000 0.202608
O O3 0.500000 0.000000 0.000000
O O4 0.500000 0.445832 0.500000
O O5 0.438835 0.500000 0.743447
O O6 0.558095 0.412284 0.721441
O O7 0.317525 0.414859 0.734887
O O8 0.500000 0.000000 0.500000
O O9 0.285359 0.050358 0.659706
O O10 0.345523 0.155071 0.219188
O O11 0.314199 0.256877 0.155933
O O12 0.500000 0.201282 0.000000
O O13 0.244974 0.184576 0.021482
O O14 0.241289 0.384851 0.514341
O O15 0.282628 0.355287 0.219378
O O16 0.500000 0.680020 0.000000
#
# Coordination Sequence:
#
# PCOD9217198 Si02
#       7
#     4   8   4   8   8   8   8
#     4  12  26  39  57  88 127 169 200 239 299 377
#     4   9  17  33  56  83 115 154 192 237 298 351
#     4  12  24  41  58  89 133 159 197 249 308 356
#     4  10  23  42  64  87 123 163 204 254 313 370
#     4  11  22  38  64  88 122 159 200 255 302 358
#     4  11  21  38  63  90 121 160 204 250 300 364
#     4  10  23  44  64  88 121 161 205 260 312 362
#
# _framework density 18.626718
#
# number of rings (size 3 to 8) (size 9 to 14) (size 15 to 20)
#    0.000    1.500    3.333    1.500    4.667    0.667 
#    0.000    0.417    0.000    7.000    0.000    0.000 
#    0.000    0.000    0.000    0.000    0.000    0.000 
#
# Total GULP energy -133684.888034 kJ/mol
# GULP energy per Si atom -5570.203668 kJ/mol
# Density = 1.858432 g / cm^3
# Si number density = 18.626718 Si / 1000 Ang^3
#
#
#
# Elastic Constant Matrix: (Units=GPa)
#
#
# Indices 1 2 3 4 5 6 
#
# 1 77.6393 23.8505 11.0128 0.0000 16.8832 0.0000
# 2 23.8505 158.7615 61.7229 0.0000 5.7025 0.0000
# 3 11.0128 61.7229 59.3192 0.0000 11.5853 0.0000
# 4 0.0000 0.0000 0.0000 -83.8381 0.0000 -55.1526
# 5 16.8832 5.7025 11.5853 0.0000 21.2763 0.0000
# 6 0.0000 0.0000 0.0000 -55.1526 0.0000 -47.2173
#
#
#
# Elastic Compliance Matrix: (Units=1/GPa)
#
#
# Indices 1 2 3 4 5 6 
#
# 1 0.016411 -0.003074 0.002836 0.000000 -0.013743 0.000000
# 2 -0.003074 0.011397 -0.012497 0.000000 0.006190 0.000000
# 3 0.002836 -0.012497 0.032585 0.000000 -0.016644 0.000000
# 4 0.000000 0.000000 0.000000 -0.051502 0.000000 0.060157
# 5 -0.013743 0.006190 -0.016644 0.000000 0.065310 0.000000
# 6 0.000000 0.000000 0.000000 0.060157 0.000000 -0.091446
#
#
# Mechanical properties :
#
#
# Convention : Reuss Voigt Hill
#
# Bulk Modulus (GPa) = 28.63446 54.32140 41.47793
# Shear Modulus (GPa) = 251.70810 -8.68023 121.51394
#
# Velocity S-wave (km/s) = 11.63728 -2.16107 8.08567
# Velocity P-wave (km/s) = 13.99909 4.79578 10.46360
#
# Compressibility (1/GPa) = 0.03492295
#
# Stress axis : x y z
#
# Youngs Moduli (GPa) = 60.93610 87.74488 30.68896
#
# Poissons Ratio (x) = 0.26976 -0.08704
# Poissons Ratio (y) = 0.18734 0.38351
# Poissons Ratio (z) = -0.17283 1.09651
#
# Static dielectric constant tensor:
#      x y z
#    x 1.666420 0.000000 -0.011580 
#    y 0.000000 1.741560 0.000000 
#    z -0.011580 0.000000 1.658880 
# 
# From -- ./inp_files/51371.got.cif
#   From: 2010.05.17/outbox.cif.g08.bks.cpg/sg12_26_cif.got.tgz:51371.got - 2010.06.03 13:09:07.
