data_PCOD9217537
_publ_section_title
;
Structure prediction by ZEFSAII (Michael W. Deem and Ramdas Pophale) SiO2 
 PCOD9217537
Probable space group: C 2/M
;
_chemical_formula_sum "Si O2"
_cell_formula_units_Z 56
_cell_length_a 27.148627
_cell_length_b 16.244249
_cell_length_c 5.731267
_cell_angle_alpha 90.000000
_cell_angle_beta 109.041443
_cell_angle_gamma 90.000000
_cell_volume 2389.240807
_symmetry_space_group_name_H-M "C 2/M"
_symmetry_group_IT_number 12
_symmetry_cell_setting 'monoclinic'
loop_
_space_group_symop_operation_xyz
x,y,z
-x,y,-z
-x,-y,-z
x,-y,z
1/2+x,1/2+y,z
1/2-x,1/2+y,-z
1/2-x,1/2-y,-z
1/2+x,1/2-y,z
loop_
_atom_site_type_symbol
_atom_site_label
_atom_site_fract_x
_atom_site_fract_y
_atom_site_fract_z
Si Si1 0.457495 0.409897 0.637595
Si Si2 0.699602 0.669459 0.093438
Si Si3 0.857317 0.670982 0.882243
Si Si4 0.044889 0.277050 0.238792
Si Si5 0.085011 0.591654 0.637449
Si Si6 0.665299 0.405436 0.548925
Si Si7 0.299788 0.907555 0.409122
O O1 0.500000 0.416685 0.500000
O O2 0.459925 0.500000 0.767862
O O3 0.468543 0.318652 0.749127
O O4 0.396345 0.402880 0.484715
O O5 0.672735 0.758051 0.027911
O O6 0.676184 0.632956 0.306392
O O7 0.760645 0.658928 0.243807
O O8 0.691012 0.628842 0.826204
O O9 0.896838 0.719288 0.774147
O O10 0.812706 0.616808 0.693506
O O11 0.898179 0.612611 0.075910
O O12 0.051349 0.335606 0.473389
O O13 0.000000 0.311080 0.000000
O O14 0.063363 0.500000 0.573752
O O15 0.142535 0.593214 0.609448
O O16 0.681384 0.500000 0.551142
O O17 0.278615 0.000000 0.347845
#
# Coordination Sequence:
#
# PCOD9217537 Si02
#       7
#     8   8   8   8   8   8   8
#     4  10  23  43  70 101 138 188 240 291 358 434
#     4  12  25  42  70 103 142 189 236 292 357 428
#     4  11  24  43  68  99 138 182 232 297 360 433
#     4  11  25  43  70 101 136 181 231 298 367 435
#     4  10  24  46  71 100 137 182 239 301 364 432
#     4  11  24  43  66 102 144 184 237 295 349 421
#     4  10  23  43  67  98 136 185 237 292 357 427
#
# _framework density 23.438406000000001
#
# number of rings (size 3 to 8) (size 9 to 14) (size 15 to 20)
#    0.000    1.286    1.429    3.000    8.000    1.714 
#    0.000    0.714    0.000    0.000    0.000    0.000 
#    0.000    0.000    0.000    0.000    0.000    0.000 
#
# Total GULP energy -156064.361824 kJ/mol
# GULP energy per Si atom -5573.727208 kJ/mol
# Density = 2.338506 g / cm^3
# Si number density = 23.438406 Si / 1000 Ang^3
#
#
#
# Elastic Constant Matrix: (Units=GPa)
#
#
# Indices 1 2 3 4 5 6 
#
# 1 111.5892 28.3732 21.2348 0.0000 0.3087 0.0000
# 2 28.3732 110.9641 22.0006 0.0000 -3.0111 0.0000
# 3 21.2348 22.0006 99.4969 0.0000 14.3543 0.0000
# 4 0.0000 0.0000 0.0000 104.0455 0.0000 18.4053
# 5 0.3087 -3.0111 14.3543 0.0000 35.8516 0.0000
# 6 0.0000 0.0000 0.0000 18.4053 0.0000 45.6499
#
#
#
# Elastic Compliance Matrix: (Units=1/GPa)
#
#
# Indices 1 2 3 4 5 6 
#
# 1 0.009831 -0.002170 -0.001677 0.000000 0.000404 0.000000
# 2 -0.002170 0.010006 -0.001988 0.000000 0.001655 0.000000
# 3 -0.001677 -0.001988 0.011536 0.000000 -0.004771 0.000000
# 4 0.000000 0.000000 0.000000 0.010349 0.000000 -0.004173
# 5 0.000404 0.001655 -0.004771 0.000000 0.029939 0.000000
# 6 0.000000 0.000000 0.000000 -0.004173 0.000000 0.023588
#
#
# Mechanical properties :
#
#
# Convention : Reuss Voigt Hill
#
# Bulk Modulus (GPa) = 50.75272 51.69636 51.22454
# Shear Modulus (GPa) = 44.05761 53.80551 48.93156
#
# Velocity S-wave (km/s) = 4.34028 4.79645 4.57406
# Velocity P-wave (km/s) = 6.84237 7.26490 7.05680
#
# Compressibility (1/GPa) = 0.01970338
#
# Stress axis : x y z
#
# Youngs Moduli (GPa) = 101.71660 99.94029 86.68236
#
# Poissons Ratio (x) = 0.21691 0.14533
# Poissons Ratio (y) = 0.22077 0.17233
# Poissons Ratio (z) = 0.17054 0.19869
#
# Static dielectric constant tensor:
#      x y z
#    x 1.920190 0.000000 -0.106260 
#    y 0.000000 1.890770 0.000000 
#    z -0.106260 0.000000 1.968090 
# 
# From -- ./inp_files/32104.got.cif
#   From: 2010.05.17/outbox.cif.g08.bks.cpg/sg12_17_cif.got.tgz:32104.got - 2010.06.03 13:09:07.
