data_PCOD9217578
_publ_section_title
;
Structure prediction by ZEFSAII (Michael W. Deem and Ramdas Pophale) SiO2 
 PCOD9217578
Probable space group: C 2/M
;
_chemical_formula_sum "Si O2"
_cell_formula_units_Z 40
_cell_length_a 11.298673
_cell_length_b 21.649323
_cell_length_c 9.377071
_cell_angle_alpha 90.000000
_cell_angle_beta 56.147320
_cell_angle_gamma 90.000000
_cell_volume 1904.865395
_symmetry_space_group_name_H-M "C 2/M"
_symmetry_group_IT_number 12
_symmetry_cell_setting 'monoclinic'
loop_
_space_group_symop_operation_xyz
x,y,z
-x,y,-z
-x,-y,-z
x,-y,z
1/2+x,1/2+y,z
1/2-x,1/2+y,-z
1/2-x,1/2-y,-z
1/2+x,1/2-y,z
loop_
_atom_site_type_symbol
_atom_site_label
_atom_site_fract_x
_atom_site_fract_y
_atom_site_fract_z
Si Si1 0.173593 0.240504 0.896927
Si Si2 0.647805 0.870420 0.813149
Si Si3 0.069214 0.929855 0.297345
Si Si4 0.614000 0.613655 0.807134
Si Si5 0.619801 0.070297 0.527397
O O1 0.212029 0.301432 0.782145
O O2 0.197613 0.172870 0.814232
O O3 0.250000 0.250000 0.000000
O O4 0.000000 0.241212 0.000000
O O5 0.764371 0.915778 0.802647
O O6 0.628105 0.889071 0.662899
O O7 0.500000 0.873729 0.000000
O O8 0.000000 0.928284 0.500000
O O9 0.992166 0.877544 0.255317
O O10 0.047734 0.000000 0.256006
O O11 0.734076 0.570852 0.659457
O O12 0.500000 0.590194 0.000000
O O13 0.500000 0.092754 0.500000
O O14 0.586511 0.000000 0.593443
#
# Coordination Sequence:
#
# PCOD9217578 Si02
#       5
#     8   8   8   8   8
#     4  10  23  43  70 101 137 172 229 287 333 406
#     4  11  24  43  70  98 135 185 221 274 342 406
#     4  11  23  43  66  97 139 175 223 284 333 394
#     4  11  24  44  70  96 132 178 226 277 340 397
#     4  11  26  44  62  98 141 173 223 281 330 403
#
# _framework density 20.998857999999998
#
# number of rings (size 3 to 8) (size 9 to 14) (size 15 to 20)
#    0.000    1.200    2.000    3.600    8.400    4.000 
#    0.000    0.000    0.000    0.000    0.000    0.000 
#    0.000    0.000    0.000    0.000    0.000    0.000 
#
# Total GULP energy -111481.284023 kJ/mol
# GULP energy per Si atom -5574.064201 kJ/mol
# Density = 2.095106 g / cm^3
# Si number density = 20.998858 Si / 1000 Ang^3
#
#
#
# Elastic Constant Matrix: (Units=GPa)
#
#
# Indices 1 2 3 4 5 6 
#
# 1 147.4253 36.9010 41.5780 0.0000 21.9985 0.0000
# 2 36.9010 76.7687 32.6499 0.0000 29.9771 0.0000
# 3 41.5780 32.6499 98.8775 0.0000 6.2498 0.0000
# 4 0.0000 0.0000 0.0000 23.9381 0.0000 23.4487
# 5 21.9985 29.9771 6.2498 0.0000 49.8573 0.0000
# 6 0.0000 0.0000 0.0000 23.4487 0.0000 3.1037
#
#
#
# Elastic Compliance Matrix: (Units=1/GPa)
#
#
# Indices 1 2 3 4 5 6 
#
# 1 0.008377 -0.002041 -0.002714 0.000000 -0.002129 0.000000
# 2 -0.002041 0.020404 -0.005202 0.000000 -0.010715 0.000000
# 3 -0.002714 -0.005202 0.012800 0.000000 0.002721 0.000000
# 4 0.000000 0.000000 0.000000 -0.006526 0.000000 0.049309
# 5 -0.002129 -0.010715 0.002721 0.000000 0.027098 0.000000
# 6 0.000000 0.000000 0.000000 0.049309 0.000000 -0.050338
#
#
# Mechanical properties :
#
#
# Convention : Reuss Voigt Hill
#
# Bulk Modulus (GPa) = 46.15242 60.59213 53.37227
# Shear Modulus (GPa) = 128.36493 29.50931 78.93712
#
# Velocity S-wave (km/s) = 7.82702 3.75278 6.13781
# Velocity P-wave (km/s) = 10.18377 6.90618 8.70071
#
# Compressibility (1/GPa) = 0.02166734
#
# Stress axis : x y z
#
# Youngs Moduli (GPa) = 119.37348 49.01047 78.12204
#
# Poissons Ratio (x) = 0.10004 0.21202
# Poissons Ratio (y) = 0.24366 0.40638
# Poissons Ratio (z) = 0.32398 0.25495
#
# Static dielectric constant tensor:
#      x y z
#    x 1.785400 0.000000 0.056090 
#    y 0.000000 1.833750 0.000000 
#    z 0.056090 0.000000 1.617940 
# 
# From -- ./inp_files/50429.got.cif
#   From: 2010.05.17/outbox.cif.g08.bks.cpg/sg12_26_cif.got.tgz:50429.got - 2010.06.03 13:09:07.
