data_PCOD9217907
_publ_section_title
;
Structure prediction by ZEFSAII (Michael W. Deem and Ramdas Pophale) SiO2 
 PCOD9217907
Probable space group: C 2/M
;
_chemical_formula_sum "Si O2"
_cell_formula_units_Z 44
_cell_length_a 12.171945
_cell_length_b 22.575583
_cell_length_c 8.207117
_cell_angle_alpha 90.000000
_cell_angle_beta 105.208950
_cell_angle_gamma 90.000000
_cell_volume 2176.235446
_symmetry_space_group_name_H-M "C 2/M"
_symmetry_group_IT_number 12
_symmetry_cell_setting 'monoclinic'
loop_
_space_group_symop_operation_xyz
x,y,z
-x,y,-z
-x,-y,-z
x,-y,z
1/2+x,1/2+y,z
1/2-x,1/2+y,-z
1/2-x,1/2-y,-z
1/2+x,1/2-y,z
loop_
_atom_site_type_symbol
_atom_site_label
_atom_site_fract_x
_atom_site_fract_y
_atom_site_fract_z
Si Si1 0.000000 0.598183 0.000000
Si Si2 0.880755 0.097497 0.667692
Si Si3 0.367237 0.431777 0.278508
Si Si4 0.876746 0.215181 0.863531
Si Si5 0.792206 0.667246 0.929740
Si Si6 0.453538 0.000000 0.732449
Si Si7 0.303432 0.000000 0.347241
O O1 0.906423 0.639270 0.046187
O O2 0.942178 0.556950 0.842653
O O3 0.874414 0.084813 0.472272
O O4 0.874908 0.166144 0.720092
O O5 0.779988 0.056922 0.703345
O O6 0.008884 0.075878 0.757464
O O7 0.332549 0.500000 0.248256
O O8 0.281094 0.385114 0.172911
O O9 0.834167 0.282507 0.817890
O O10 0.786263 0.193206 0.960880
O O11 0.000000 0.216536 0.000000
O O12 0.364862 0.000000 0.549379
O O13 0.586153 0.000000 0.725616
#
# Coordination Sequence:
#
# PCOD9217907 Si02
#       7
#     4   8   8   8   8   4   4
#     4  11  22  40  58  94 118 163 204 252 304 389
#     4  11  21  39  66  90 130 159 210 263 323 369
#     4  11  22  40  64  99 127 168 207 267 323 376
#     4  11  23  44  62  92 126 166 214 269 314 378
#     4  11  24  41  68  87 127 171 212 260 324 373
#     4  10  24  36  61  88 129 157 203 245 315 377
#     4  11  20  41  58  91 123 168 197 259 309 378
#
# _framework density 20.218401
#
# number of rings (size 3 to 8) (size 9 to 14) (size 15 to 20)
#    0.000    1.091    4.545    2.727    2.545    0.727 
#    1.636    1.364    0.000    2.182    0.000    0.000 
#    0.000    0.000    0.000    0.000    0.000    0.000 
#
# Total GULP energy -122769.920147 kJ/mol
# GULP energy per Si atom -5580.450916 kJ/mol
# Density = 2.017238 g / cm^3
# Si number density = 20.218401 Si / 1000 Ang^3
#
#
#
# Elastic Constant Matrix: (Units=GPa)
#
#
# Indices 1 2 3 4 5 6 
#
# 1 131.1772 38.4151 6.1619 0.0000 12.8162 0.0000
# 2 38.4151 155.1702 34.1470 0.0000 13.4706 0.0000
# 3 6.1619 34.1470 15.6126 0.0000 8.5757 0.0000
# 4 0.0000 0.0000 0.0000 25.4491 0.0000 -5.1011
# 5 12.8162 13.4706 8.5757 0.0000 27.6593 0.0000
# 6 0.0000 0.0000 0.0000 -5.1011 0.0000 39.7771
#
#
#
# Elastic Compliance Matrix: (Units=1/GPa)
#
#
# Indices 1 2 3 4 5 6 
#
# 1 0.008651 -0.002959 0.005384 0.000000 -0.004237 0.000000
# 2 -0.002959 0.013627 -0.031029 0.000000 0.004355 0.000000
# 3 0.005384 -0.031029 0.148079 0.000000 -0.033295 0.000000
# 4 0.000000 0.000000 0.000000 0.040331 0.000000 0.005172
# 5 -0.004237 0.004355 -0.033295 0.000000 0.046320 0.000000
# 6 0.000000 0.000000 0.000000 0.005172 0.000000 0.025803
#
#
# Mechanical properties :
#
#
# Convention : Reuss Voigt Hill
#
# Bulk Modulus (GPa) = 8.83784 51.04533 29.94159
# Shear Modulus (GPa) = 13.23678 33.45950 23.34814
#
# Velocity S-wave (km/s) = 2.56147 4.07246 3.40192
# Velocity P-wave (km/s) = 3.62337 6.88586 5.50199
#
# Compressibility (1/GPa) = 0.11314978
#
# Stress axis : x y z
#
# Youngs Moduli (GPa) = 115.59705 73.38226 6.75313
#
# Poissons Ratio (x) = 0.21711 -0.03636
# Poissons Ratio (y) = 0.34201 0.20954
# Poissons Ratio (z) = -0.62236 2.27698
#
# Static dielectric constant tensor:
#      x y z
#    x 1.744610 0.000000 -0.002410 
#    y 0.000000 1.758620 0.000000 
#    z -0.002410 0.000000 1.773250 
# 
# From -- ./inp_files/50897.got.cif
#   From: 2010.05.17/outbox.cif.g08.bks.cpg/sg12_26_cif.got.tgz:50897.got - 2010.06.03 13:09:07.
