data_PCOD9217831
_publ_section_title
;
Structure prediction by ZEFSAII (Michael W. Deem and Ramdas Pophale) SiO2 
 PCOD9217831
Probable space group: C 2/M
;
_chemical_formula_sum "Si O2"
_cell_formula_units_Z 58
_cell_length_a 29.722700
_cell_length_b 8.420381
_cell_length_c 25.272275
_cell_angle_alpha 90.000000
_cell_angle_beta 151.131323
_cell_angle_gamma 90.000000
_cell_volume 3053.760213
_symmetry_space_group_name_H-M "C 2/M"
_symmetry_group_IT_number 12
_symmetry_cell_setting 'monoclinic'
loop_
_space_group_symop_operation_xyz
x,y,z
-x,y,-z
-x,-y,-z
x,-y,z
1/2+x,1/2+y,z
1/2-x,1/2+y,-z
1/2-x,1/2-y,-z
1/2+x,1/2-y,z
loop_
_atom_site_type_symbol
_atom_site_label
_atom_site_fract_x
_atom_site_fract_y
_atom_site_fract_z
Si Si1 0.194540 0.187133 0.096943
Si Si2 0.610745 0.315577 0.118673
Si Si3 0.008686 0.312018 0.705073
Si Si4 0.953002 0.310172 0.136743
Si Si5 0.198221 0.188095 0.498568
Si Si6 0.363941 0.692194 0.737571
Si Si7 0.892672 0.172809 0.295820
Si Si8 0.500000 0.500000 0.500000
O O1 0.155157 0.256062 0.111817
O O2 0.305053 0.211880 0.211724
O O3 0.171848 0.000000 0.071528
O O4 0.138485 0.263198 0.990509
O O5 0.642365 0.500000 0.152754
O O6 0.630702 0.247894 0.196692
O O7 0.500000 0.315392 0.000000
O O8 0.025794 0.500000 0.717543
O O9 0.049095 0.258043 0.803835
O O10 0.898899 0.277107 0.594874
O O11 0.048472 0.225993 0.694376
O O12 0.963879 0.500000 0.148005
O O13 0.044172 0.239705 0.201053
O O14 0.250000 0.250000 0.500000
O O15 0.271235 0.231666 0.618880
O O16 0.181646 0.000000 0.478371
O O17 0.358689 0.500000 0.730910
O O18 0.849300 0.000000 0.238954
O O19 0.955702 0.137040 0.412877
#
# Coordination Sequence:
#
# PCOD9217831 Si02
#       8
#     8   8   8   8   8   8   8   2
#     4  11  22  40  67  96 130 173 221 270 328 394
#     4   9  18  35  58  89 126 167 212 264 317 385
#     4  11  24  43  67  95 130 171 224 274 327 398
#     4  11  23  38  61  95 135 173 213 270 332 396
#     4  12  24  39  60  91 130 175 220 273 330 390
#     4  11  21  37  61  89 128 174 223 269 326 391
#     4  10  23  46  70  94 128 165 211 269 331 387
#     4   8  24  48  74  92 130 168 214 274 332 390
#
# _framework density 18.992977
#
# number of rings (size 3 to 8) (size 9 to 14) (size 15 to 20)
#    0.414    0.966    2.759    3.310    0.000    3.310 
#    0.000    5.517    0.000    0.000    0.000    0.000 
#    0.000    0.000    0.000    0.000    0.000    0.000 
#
# Total GULP energy -161491.920105 kJ/mol
# GULP energy per Si atom -5568.686900 kJ/mol
# Density = 1.894975 g / cm^3
# Si number density = 18.992977 Si / 1000 Ang^3
#
#
#
# Elastic Constant Matrix: (Units=GPa)
#
#
# Indices 1 2 3 4 5 6 
#
# 1 114.5256 0.3749 59.6412 0.0000 -19.3207 -0.0001
# 2 0.3749 32.3124 -4.6349 0.0004 -12.2888 -0.0008
# 3 59.6412 -4.6349 99.0837 0.0000 -34.6554 -0.0001
# 4 0.0000 0.0004 0.0000 147.9666 0.0000 -206.8815
# 5 -19.3207 -12.2888 -34.6554 0.0000 38.7626 -0.0001
# 6 -0.0001 -0.0008 -0.0001 -206.8815 -0.0001 401.4908
#
#
#
# Elastic Compliance Matrix: (Units=1/GPa)
#
#
# Indices 1 2 3 4 5 6 
#
# 1 0.012837 -0.002051 -0.008457 0.000000 -0.001813 0.000000
# 2 -0.002051 0.040597 0.010589 0.000000 0.021315 0.000000
# 3 -0.008457 0.010589 0.022374 0.000000 0.019146 0.000000
# 4 0.000000 0.000000 0.000000 0.024176 0.000000 0.012457
# 5 -0.001813 0.021315 0.019146 0.000000 0.048769 0.000000
# 6 0.000000 0.000000 0.000000 0.012457 0.000000 0.008910
#
#
# Mechanical properties :
#
#
# Convention : Reuss Voigt Hill
#
# Bulk Modulus (GPa) = 13.16322 39.63157 26.39739
# Shear Modulus (GPa) = 27.34880 130.34670 78.84775
#
# Velocity S-wave (km/s) = 3.79877 8.29324 6.45014
# Velocity P-wave (km/s) = 5.11728 10.61205 8.33073
#
# Compressibility (1/GPa) = 0.07596926
#
# Stress axis : x y z
#
# Youngs Moduli (GPa) = 77.90281 24.63251 44.69394
#
# Poissons Ratio (x) = 0.05053 0.37796
# Poissons Ratio (y) = 0.15981 -0.47326
# Poissons Ratio (z) = 0.65880 -0.26083
#
# Static dielectric constant tensor:
#      x y z
#    x 1.662550 0.000000 -0.011310 
#    y 0.000000 1.665220 0.000000 
#    z -0.011310 0.000000 1.609880 
# 
# From -- ./inp_files/351523.got.cif
#   From: 2010.05.17/outbox.cif.g08.bks.cpg/sg12_176_cif.got.tgz:351523.got - 2010.06.03 13:09:07.
