data_PCOD9217504
_publ_section_title
;
Structure prediction by ZEFSAII (Michael W. Deem and Ramdas Pophale) SiO2 
 PCOD9217504
Probable space group: C 2/M
;
_chemical_formula_sum "Si O2"
_cell_formula_units_Z 48
_cell_length_a 9.428119
_cell_length_b 28.331556
_cell_length_c 18.595316
_cell_angle_alpha 90.000000
_cell_angle_beta 28.875158
_cell_angle_gamma 90.000000
_cell_volume 2398.604984
_symmetry_space_group_name_H-M "C 2/M"
_symmetry_group_IT_number 12
_symmetry_cell_setting 'monoclinic'
loop_
_space_group_symop_operation_xyz
x,y,z
-x,y,-z
-x,-y,-z
x,-y,z
1/2+x,1/2+y,z
1/2-x,1/2+y,-z
1/2-x,1/2-y,-z
1/2+x,1/2-y,z
loop_
_atom_site_type_symbol
_atom_site_label
_atom_site_fract_x
_atom_site_fract_y
_atom_site_fract_z
Si Si1 0.815482 0.389609 0.883923
Si Si2 0.650618 0.443374 0.657567
Si Si3 0.346573 0.193680 0.345615
Si Si4 0.882488 0.055690 0.628145
Si Si5 0.812578 0.711433 0.655874
Si Si6 0.184254 0.866862 0.103876
O O1 0.954530 0.348793 0.772254
O O2 0.044269 0.431895 0.783776
O O3 0.500000 0.406507 0.000000
O O4 0.761761 0.369469 0.986299
O O5 0.599598 0.500000 0.687790
O O6 0.536355 0.425013 0.631033
O O7 0.473827 0.414345 0.796014
O O8 0.000000 0.435895 0.500000
O O9 0.336233 0.237840 0.294840
O O10 0.480364 0.208860 0.364454
O O11 0.000000 0.180115 0.500000
O O12 0.000000 0.073660 0.500000
O O13 0.936585 0.000000 0.605397
O O14 0.553105 0.673806 0.777638
O O15 0.000000 0.701598 0.500000
O O16 0.500000 0.859686 0.000000
#
# Coordination Sequence:
#
# PCOD9217504 Si02
#       6
#     8   8   8   8   8   8
#     4  12  26  43  62  96 134 166 208 261 321 377
#     4  10  23  43  67  94 125 168 219 262 307 373
#     4  11  25  44  69  93 126 168 213 263 309 375
#     4  10  23  43  67  93 126 170 215 261 313 372
#     4  11  25  44  68  95 125 166 217 259 312 375
#     4  12  26  41  65  96 129 171 208 260 321 377
#
# _framework density 20.011631999999999
#
# number of rings (size 3 to 8) (size 9 to 14) (size 15 to 20)
#    0.000    1.000    3.333    3.000    7.000    5.333 
#    0.000    0.000    0.000    0.000    0.000    0.000 
#    0.000    0.000    0.000    0.000    0.000    0.000 
#
# Total GULP energy -134012.562656 kJ/mol
# GULP energy per Si atom -5583.856777 kJ/mol
# Density = 1.996608 g / cm^3
# Si number density = 20.011632 Si / 1000 Ang^3
#
#
#
# Elastic Constant Matrix: (Units=GPa)
#
#
# Indices 1 2 3 4 5 6 
#
# 1 114.8147 1.0384 18.4934 0.0000 -19.4536 0.0005
# 2 1.0384 31.8151 0.7611 0.0001 1.8072 0.0001
# 3 18.4934 0.7611 71.4126 0.0010 -15.4561 0.0010
# 4 0.0000 0.0001 0.0010 10.5612 -0.0002 -13.3944
# 5 -19.4536 1.8072 -15.4561 -0.0002 45.2428 -0.0006
# 6 0.0005 0.0001 0.0010 -13.3944 -0.0006 21.8421
#
#
#
# Elastic Compliance Matrix: (Units=1/GPa)
#
#
# Indices 1 2 3 4 5 6 
#
# 1 0.009592 -0.000474 -0.001709 0.000001 0.003560 0.000001
# 2 -0.000474 0.031555 -0.000573 -0.000001 -0.001660 -0.000001
# 3 -0.001709 -0.000573 0.015439 -0.000009 0.004563 -0.000006
# 4 0.000001 -0.000001 -0.000009 0.426022 0.000003 0.261252
# 5 0.003560 -0.001660 0.004563 0.000003 0.025259 0.000002
# 6 0.000001 -0.000001 -0.000006 0.261252 0.000002 0.205992
#
#
# Mechanical properties :
#
#
# Convention : Reuss Voigt Hill
#
# Bulk Modulus (GPa) = 19.57895 28.73646 24.15771
# Shear Modulus (GPa) = 6.78983 28.71253 17.75118
#
# Velocity S-wave (km/s) = 1.84399 3.79197 2.98156
# Velocity P-wave (km/s) = 3.78666 5.79337 4.89397
#
# Compressibility (1/GPa) = 0.05107525
#
# Stress axis : x y z
#
# Youngs Moduli (GPa) = 104.24990 31.69056 64.77015
#
# Poissons Ratio (x) = 0.01503 0.11066
# Poissons Ratio (y) = 0.04946 0.03710
# Poissons Ratio (z) = 0.17812 0.01815
#
# Static dielectric constant tensor:
#      x y z
#    x 1.676600 0.000000 0.029560 
#    y 0.000000 1.714650 0.000000 
#    z 0.029560 0.000000 1.652650 
# 
# From -- ./inp_files/260221.got.cif
#   From: 2010.05.17/outbox.cif.g08.bks.cpg/sg12_131_cif.got.tgz:260221.got - 2010.06.03 13:09:07.
