data_PCOD9217164
_publ_section_title
;
Structure prediction by ZEFSAII (Michael W. Deem and Ramdas Pophale) SiO2 
 PCOD9217164
Probable space group: C 2/M
;
_chemical_formula_sum "Si O2"
_cell_formula_units_Z 48
_cell_length_a 17.255445
_cell_length_b 14.410225
_cell_length_c 15.636992
_cell_angle_alpha 90.000000
_cell_angle_beta 40.259519
_cell_angle_gamma 90.000000
_cell_volume 2512.761186
_symmetry_space_group_name_H-M "C 2/M"
_symmetry_group_IT_number 12
_symmetry_cell_setting 'monoclinic'
loop_
_space_group_symop_operation_xyz
x,y,z
-x,y,-z
-x,-y,-z
x,-y,z
1/2+x,1/2+y,z
1/2-x,1/2+y,-z
1/2-x,1/2-y,-z
1/2+x,1/2-y,z
loop_
_atom_site_type_symbol
_atom_site_label
_atom_site_fract_x
_atom_site_fract_y
_atom_site_fract_z
Si Si1 0.194506 0.729894 0.140592
Si Si2 0.687211 0.895700 0.893609
Si Si3 0.433318 0.105881 0.188336
Si Si4 0.713277 0.388324 0.614626
Si Si5 0.137157 0.889897 0.877161
Si Si6 0.914276 0.273950 0.360986
O O1 0.206748 0.826739 0.179478
O O2 0.276248 0.659869 0.127410
O O3 0.054719 0.706918 0.254880
O O4 0.250000 0.750000 0.000000
O O5 0.641658 0.892535 0.835276
O O6 0.719201 0.000000 0.889748
O O7 0.569760 0.869625 0.048037
O O8 0.381473 0.175130 0.300011
O O9 0.434112 0.000000 0.220283
O O10 0.722616 0.500000 0.589433
O O11 0.675902 0.378274 0.745647
O O12 0.835173 0.329409 0.496563
O O13 0.620970 0.333131 0.628951
O O14 0.136838 0.000000 0.896214
O O15 0.000000 0.854448 0.000000
#
# Coordination Sequence:
#
# PCOD9217164 Si02
#       6
#     8   8   8   8   8   8
#     4  12  23  34  58  90 121 152 193 254 301 348
#     4   9  19  33  53  82 117 155 193 237 293 353
#     4   9  17  33  56  81 113 154 195 238 289 351
#     4  10  23  43  63  84 118 164 207 246 299 371
#     4  10  23  42  63  86 119 164 206 247 302 365
#     4  11  22  37  61  91 119 154 201 253 305 351
#
# _framework density 19.102491000000001
#
# number of rings (size 3 to 8) (size 9 to 14) (size 15 to 20)
#    0.000    1.833    1.667    3.500    2.333    3.333 
#    0.000    1.667    0.000    0.000    0.000    9.333 
#    0.000    0.000    0.000    0.000    0.000    0.000 
#
# Total GULP energy -133839.048957 kJ/mol
# GULP energy per Si atom -5576.627040 kJ/mol
# Density = 1.905901 g / cm^3
# Si number density = 19.102491 Si / 1000 Ang^3
#
#
#
# Elastic Constant Matrix: (Units=GPa)
#
#
# Indices 1 2 3 4 5 6 
#
# 1 87.3631 50.3149 46.0908 0.0000 -19.0459 0.0000
# 2 50.3149 91.3799 50.3392 0.0000 5.3407 0.0000
# 3 46.0908 50.3392 104.7608 0.0000 -11.0861 0.0000
# 4 0.0000 0.0000 0.0000 25.2192 0.0000 0.1120
# 5 -19.0459 5.3407 -11.0861 0.0000 23.4644 0.0000
# 6 0.0000 0.0000 0.0000 0.1120 0.0000 -1.3661
#
#
#
# Elastic Compliance Matrix: (Units=1/GPa)
#
#
# Indices 1 2 3 4 5 6 
#
# 1 0.026037 -0.014656 -0.001919 0.000000 0.023563 0.000000
# 2 -0.014656 0.024357 -0.007475 0.000000 -0.020972 0.000000
# 3 -0.001919 -0.007475 0.014734 0.000000 0.007105 0.000000
# 4 0.000000 0.000000 0.000000 0.039638 0.000000 0.003250
# 5 0.023563 -0.020972 0.007105 0.000000 0.069874 0.000000
# 6 0.000000 0.000000 0.000000 0.003250 0.000000 -0.731732
#
#
# Mechanical properties :
#
#
# Convention : Reuss Voigt Hill
#
# Bulk Modulus (GPa) = 58.73162 64.11041 61.42102
# Shear Modulus (GPa) = -9.93409 18.58075 4.32333
#
# Velocity S-wave (km/s) = -2.28292 3.12218 1.50604
# Velocity P-wave (km/s) = 4.88501 6.82872 5.93695
#
# Compressibility (1/GPa) = 0.01702660
#
# Stress axis : x y z
#
# Youngs Moduli (GPa) = 38.40714 41.05667 67.87217
#
# Poissons Ratio (x) = 0.60173 0.13026
# Poissons Ratio (y) = 0.56290 0.50734
# Poissons Ratio (z) = 0.07371 0.30689
#
# Static dielectric constant tensor:
#      x y z
#    x 1.882250 0.000000 -0.201780 
#    y 0.000000 1.707350 0.000000 
#    z -0.201780 0.000000 1.879460 
# 
# From -- ./inp_files/225108.got.cif
#   From: 2010.05.17/outbox.cif.g08.bks.cpg/sg12_113_cif.got.tgz:225108.got - 2010.06.03 13:09:07.
