data_PCOD9217999
_publ_section_title
;
Structure prediction by ZEFSAII (Michael W. Deem and Ramdas Pophale) SiO2 
 PCOD9217999
Probable space group: C 2/M
;
_chemical_formula_sum "Si O2"
_cell_formula_units_Z 40
_cell_length_a 8.212570
_cell_length_b 27.461393
_cell_length_c 8.549469
_cell_angle_alpha 90.000000
_cell_angle_beta 53.761766
_cell_angle_gamma 90.000000
_cell_volume 1555.180166
_symmetry_space_group_name_H-M "C 2/M"
_symmetry_group_IT_number 12
_symmetry_cell_setting 'monoclinic'
loop_
_space_group_symop_operation_xyz
x,y,z
-x,y,-z
-x,-y,-z
x,-y,z
1/2+x,1/2+y,z
1/2-x,1/2+y,-z
1/2-x,1/2-y,-z
1/2+x,1/2-y,z
loop_
_atom_site_type_symbol
_atom_site_label
_atom_site_fract_x
_atom_site_fract_y
_atom_site_fract_z
Si Si1 0.808704 0.081045 0.030640
Si Si2 0.936295 0.223120 0.714415
Si Si3 0.404171 0.052942 0.383153
Si Si4 0.300673 0.179901 0.717491
Si Si5 0.284720 0.875326 0.208744
O O1 0.604542 0.051509 0.162380
O O2 0.767387 0.132088 0.148617
O O3 0.856600 0.093424 0.825126
O O4 0.000000 0.057019 0.000000
O O5 0.856154 0.276499 0.807704
O O6 0.781413 0.179887 0.768653
O O7 0.000000 0.234414 0.500000
O O8 0.117537 0.201698 0.716506
O O9 0.500000 0.059425 0.500000
O O10 0.288592 0.099202 0.375389
O O11 0.300561 0.000000 0.436119
O O12 0.500000 0.168561 0.500000
O O13 0.500000 0.877905 0.000000
#
# Coordination Sequence:
#
# PCOD9217999 Si02
#       5
#     8   8   8   8   8
#     4  11  23  41  64 100 137 173 214 271 332 395
#     4  11  24  39  62  96 133 185 232 272 324 384
#     4  10  24  46  74  98 126 169 220 276 340 404
#     4  11  24  40  63  95 136 186 231 272 321 390
#     4  10  24  40  65  98 134 172 218 269 337 388
#
# _framework density 25.720492
#
# number of rings (size 3 to 8) (size 9 to 14) (size 15 to 20)
#    0.000    1.400    2.000    3.000   14.000    5.600 
#    0.000    0.000    0.000    3.000    0.000    0.000 
#    0.000    0.000    0.000    0.000    0.000    0.000 
#
# Total GULP energy -111852.806471 kJ/mol
# GULP energy per Si atom -5592.640324 kJ/mol
# Density = 2.566195 g / cm^3
# Si number density = 25.720492 Si / 1000 Ang^3
#
#
#
# Elastic Constant Matrix: (Units=GPa)
#
#
# Indices 1 2 3 4 5 6 
#
# 1 112.7724 46.4162 12.1396 0.0000 14.8344 0.0000
# 2 46.4162 164.6426 31.8038 0.0000 9.5025 0.0000
# 3 12.1396 31.8038 62.7753 0.0000 10.6638 0.0000
# 4 0.0000 0.0000 0.0000 -35.8548 0.0000 -59.7580
# 5 14.8344 9.5025 10.6638 0.0000 33.5564 0.0000
# 6 0.0000 0.0000 0.0000 -59.7580 0.0000 -67.7327
#
#
#
# Elastic Compliance Matrix: (Units=1/GPa)
#
#
# Indices 1 2 3 4 5 6 
#
# 1 0.010503 -0.002740 0.000015 0.000000 -0.003872 0.000000
# 2 -0.002740 0.007472 -0.003279 0.000000 0.000138 0.000000
# 3 0.000015 -0.003279 0.018426 0.000000 -0.004934 0.000000
# 4 0.000000 0.000000 0.000000 0.059286 0.000000 -0.052306
# 5 -0.003872 0.000138 -0.004934 0.000000 0.033041 0.000000
# 6 0.000000 0.000000 0.000000 -0.052306 0.000000 0.031383
#
#
# Mechanical properties :
#
#
# Convention : Reuss Voigt Hill
#
# Bulk Modulus (GPa) = 40.99622 57.87880 49.43751
# Shear Modulus (GPa) = 27.73909 2.64917 15.19413
#
# Velocity S-wave (km/s) = 3.28759 1.01598 2.43315
# Velocity P-wave (km/s) = 5.51223 4.89164 5.21118
#
# Compressibility (1/GPa) = 0.02439249
#
# Stress axis : x y z
#
# Youngs Moduli (GPa) = 95.21024 133.83683 54.27053
#
# Poissons Ratio (x) = 0.36678 -0.00082
# Poissons Ratio (y) = 0.26092 0.17794
# Poissons Ratio (z) = -0.00143 0.43883
#
# Static dielectric constant tensor:
#      x y z
#    x 2.124890 0.000000 0.023480 
#    y 0.000000 2.098680 0.000000 
#    z 0.023480 0.000000 2.094730 
# 
# From -- ./inp_files/41473.got.cif
#   From: 2010.05.17/outbox.cif.g08.bks.cpg/sg12_21_cif.got.tgz:41473.got - 2010.06.03 13:09:07.
