data_PCOD9217988
_publ_section_title
;
Structure prediction by ZEFSAII (Michael W. Deem and Ramdas Pophale) SiO2 
 PCOD9217988
Probable space group: C 2/M
;
_chemical_formula_sum "Si O2"
_cell_formula_units_Z 58
_cell_length_a 18.134956
_cell_length_b 24.285202
_cell_length_c 12.742340
_cell_angle_alpha 90.000000
_cell_angle_beta 26.563899
_cell_angle_gamma 90.000000
_cell_volume 2509.602545
_symmetry_space_group_name_H-M "C 2/M"
_symmetry_group_IT_number 12
_symmetry_cell_setting 'monoclinic'
loop_
_space_group_symop_operation_xyz
x,y,z
-x,y,-z
-x,-y,-z
x,-y,z
1/2+x,1/2+y,z
1/2-x,1/2+y,-z
1/2-x,1/2-y,-z
1/2+x,1/2-y,z
loop_
_atom_site_type_symbol
_atom_site_label
_atom_site_fract_x
_atom_site_fract_y
_atom_site_fract_z
Si Si1 0.487247 0.816620 0.396225
Si Si2 0.777013 0.107241 0.048492
Si Si3 0.805076 0.107349 0.246954
Si Si4 0.136252 0.706006 0.741232
Si Si5 0.492122 0.284706 0.262877
Si Si6 0.000000 0.500000 0.000000
Si Si7 0.821486 0.413008 0.370901
Si Si8 0.468178 0.563317 0.424691
O O1 0.500000 0.797419 0.500000
O O2 0.299437 0.835939 0.620776
O O3 0.562871 0.769602 0.227088
O O4 0.597183 0.871607 0.246713
O O5 0.863200 0.068232 0.854951
O O6 0.892122 0.163111 0.900013
O O7 0.771754 0.083456 0.172842
O O8 0.749669 0.074262 0.422124
O O9 0.000000 0.116627 0.000000
O O10 0.323861 0.705614 0.543116
O O11 0.087190 0.761574 0.743103
O O12 0.121866 0.650167 0.692227
O O13 0.000000 0.699019 0.000000
O O14 0.044772 0.452122 0.853379
O O15 0.672267 0.414770 0.475253
O O16 0.500000 0.588230 0.500000
O O17 0.415724 0.500000 0.508967
#
# Coordination Sequence:
#
# PCOD9217988 Si02
#       8
#     8   8   8   8   8   2   8   8
#     4  10  24  40  64 100 144 190 242 292 364 438
#     4  11  24  44  69 103 148 190 241 307 363 442
#     4  11  22  43  75 101 142 183 237 298 367 438
#     4  11  24  36  65 100 141 182 243 297 357 429
#     4  11  23  40  63 101 142 196 239 294 366 436
#     4  12  28  44  76 108 142 174 262 310 368 430
#     4  12  23  48  70 106 140 189 239 312 368 430
#     4  11  25  46  71 100 137 187 241 301 378 439
#
# _framework density 23.111229999999999
#
# number of rings (size 3 to 8) (size 9 to 14) (size 15 to 20)
#    0.000    0.966    5.517    0.414    5.793    2.759 
#    1.241    1.034    0.000    1.241    0.000    0.000 
#    0.000    0.000    0.000    0.000    0.000    0.000 
#
# Total GULP energy -161552.099521 kJ/mol
# GULP energy per Si atom -5570.762052 kJ/mol
# Density = 2.305863 g / cm^3
# Si number density = 23.111230 Si / 1000 Ang^3
#
#
#
# Elastic Constant Matrix: (Units=GPa)
#
#
# Indices 1 2 3 4 5 6 
#
# 1 95.3269 7.9888 34.3977 0.0801 28.4320 0.0315
# 2 7.9888 48.7056 3.1231 0.0303 -1.5728 0.0095
# 3 34.3977 3.1231 116.7611 0.0339 21.0742 0.0136
# 4 0.0801 0.0303 0.0339 -38.2597 -0.0530 -33.1372
# 5 28.4320 -1.5728 21.0742 -0.0530 43.1146 -0.0039
# 6 0.0315 0.0095 0.0136 -33.1372 -0.0039 -8.7647
#
#
#
# Elastic Compliance Matrix: (Units=1/GPa)
#
#
# Indices 1 2 3 4 5 6 
#
# 1 0.014041 -0.002396 -0.002616 0.000002 -0.008068 0.000040
# 2 -0.002396 0.021025 -0.000307 0.000001 0.002497 0.000008
# 3 -0.002616 -0.000307 0.009908 -0.000001 -0.003129 0.000009
# 4 0.000002 0.000001 -0.000001 0.011491 0.000009 -0.043445
# 5 -0.008068 0.002497 -0.003129 0.000009 0.030135 -0.000079
# 6 0.000040 0.000008 0.000009 -0.043445 -0.000079 0.050161
#
#
# Mechanical properties :
#
#
# Convention : Reuss Voigt Hill
#
# Bulk Modulus (GPa) = 29.12425 39.09032 34.10729
# Shear Modulus (GPa) = 31.47704 13.57030 22.52367
#
# Velocity S-wave (km/s) = 3.69451 2.42579 3.12521
# Velocity P-wave (km/s) = 5.55232 4.97963 5.27375
#
# Compressibility (1/GPa) = 0.03433564
#
# Stress axis : x y z
#
# Youngs Moduli (GPa) = 71.21767 47.56279 100.92636
#
# Poissons Ratio (x) = 0.11396 0.26405
# Poissons Ratio (y) = 0.17063 0.03101
# Poissons Ratio (z) = 0.18633 0.01461
#
# Static dielectric constant tensor:
#      x y z
#    x 1.949920 -0.000030 -0.009540 
#    y -0.000030 1.949680 0.000030 
#    z -0.009540 0.000030 1.914940 
# 
# From -- ./inp_files/160907.got.cif
#   From: 2010.05.17/outbox.cif.g08.bks.cpg/sg12_81_cif.got.tgz:160907.got - 2010.06.03 13:09:07.
