data_PCOD9217845
_publ_section_title
;
Structure prediction by ZEFSAII (Michael W. Deem and Ramdas Pophale) SiO2 
 PCOD9217845
Probable space group: C 2/M
;
_chemical_formula_sum "Si O2"
_cell_formula_units_Z 44
_cell_length_a 11.644554
_cell_length_b 21.026229
_cell_length_c 8.676587
_cell_angle_alpha 90.000000
_cell_angle_beta 110.365088
_cell_angle_gamma 90.000000
_cell_volume 1991.598404
_symmetry_space_group_name_H-M "C 2/M"
_symmetry_group_IT_number 12
_symmetry_cell_setting 'monoclinic'
loop_
_space_group_symop_operation_xyz
x,y,z
-x,y,-z
-x,-y,-z
x,-y,z
1/2+x,1/2+y,z
1/2-x,1/2+y,-z
1/2-x,1/2-y,-z
1/2+x,1/2-y,z
loop_
_atom_site_type_symbol
_atom_site_label
_atom_site_fract_x
_atom_site_fract_y
_atom_site_fract_z
Si Si1 0.889524 0.000000 0.695475
Si Si2 0.884201 0.790828 0.643848
Si Si3 0.476557 0.850639 0.661580
Si Si4 0.724324 0.600752 0.597817
Si Si5 0.078064 0.891971 0.831981
Si Si6 0.240551 0.312951 0.888475
O O1 0.815055 0.054974 0.559513
O O2 0.975598 0.055676 0.813715
O O3 0.920738 0.719959 0.619816
O O4 0.827675 0.830426 0.477333
O O5 0.791718 0.794319 0.744672
O O6 0.005707 0.828071 0.752109
O O7 0.500000 0.875649 0.500000
O O8 0.369627 0.892785 0.687073
O O9 0.603516 0.840432 0.809880
O O10 0.652915 0.582492 0.718709
O O11 0.173436 0.868630 0.003722
O O12 0.250000 0.250000 0.000000
#
# Coordination Sequence:
#
# PCOD9217845 Si02
#       6
#     4   8   8   8   8   8
#     4  10  23  46  72  96 121 168 232 273 302 386
#     4  11  22  39  63  93 132 172 211 257 318 395
#     4  12  24  40  65  93 136 174 213 259 327 397
#     4  11  22  41  68  92 122 169 223 262 316 375
#     4  11  22  40  68  95 127 164 218 273 316 366
#     4  12  25  40  60  99 141 168 206 262 333 391
#
# _framework density 22.092808000000002
#
# number of rings (size 3 to 8) (size 9 to 14) (size 15 to 20)
#    0.000    0.727    3.636    6.545    0.000    2.182 
#    0.000    8.636    0.000    2.182    0.000    0.000 
#    0.000    0.000    0.000    0.000    0.000    0.000 
#
# Total GULP energy -122571.922890 kJ/mol
# GULP energy per Si atom -5571.451040 kJ/mol
# Density = 2.204252 g / cm^3
# Si number density = 22.092808 Si / 1000 Ang^3
#
#
#
# Elastic Constant Matrix: (Units=GPa)
#
#
# Indices 1 2 3 4 5 6 
#
# 1 109.7333 25.0764 51.7209 0.0000 27.4702 0.0000
# 2 25.0764 72.2003 15.0091 0.0000 16.9318 0.0000
# 3 51.7209 15.0091 85.4867 0.0000 27.8062 0.0000
# 4 0.0000 0.0000 0.0000 23.7653 0.0000 16.8306
# 5 27.4702 16.9318 27.8062 0.0000 50.5744 0.0000
# 6 0.0000 0.0000 0.0000 16.8306 0.0000 -3.5424
#
#
#
# Elastic Compliance Matrix: (Units=1/GPa)
#
#
# Indices 1 2 3 4 5 6 
#
# 1 0.013663 -0.002669 -0.006910 0.000000 -0.002728 0.000000
# 2 -0.002669 0.015657 0.000121 0.000000 -0.003859 0.000000
# 3 -0.006910 0.000121 0.017840 0.000000 -0.006096 0.000000
# 4 0.000000 0.000000 0.000000 0.009640 0.000000 0.045803
# 5 -0.002728 -0.003859 -0.006096 0.000000 0.025898 0.000000
# 6 0.000000 0.000000 0.000000 0.045803 0.000000 -0.064676
#
#
# Mechanical properties :
#
#
# Convention : Reuss Voigt Hill
#
# Bulk Modulus (GPa) = 35.40647 50.11476 42.76061
# Shear Modulus (GPa) = 107.86510 25.86706 66.86608
#
# Velocity S-wave (km/s) = 6.99497 3.42546 5.50742
# Velocity P-wave (km/s) = 9.01668 6.19500 7.73558
#
# Compressibility (1/GPa) = 0.02824343
#
# Stress axis : x y z
#
# Youngs Moduli (GPa) = 73.19048 63.86874 56.05356
#
# Poissons Ratio (x) = 0.17047 0.38735
# Poissons Ratio (y) = 0.19535 -0.00678
# Poissons Ratio (z) = 0.50577 -0.00772
#
# Static dielectric constant tensor:
#      x y z
#    x 1.873840 0.000000 -0.015640 
#    y 0.000000 1.791860 0.000000 
#    z -0.015640 0.000000 1.815060 
# 
# From -- ./inp_files/50888.got.cif
#   From: 2010.05.17/outbox.cif.g08.bks.cpg/sg12_26_cif.got.tgz:50888.got - 2010.06.03 13:09:07.
