data_PCOD9217184
_publ_section_title
;
Structure prediction by ZEFSAII (Michael W. Deem and Ramdas Pophale) SiO2 
 PCOD9217184
Probable space group: C 2/M
;
_chemical_formula_sum "Si O2"
_cell_formula_units_Z 42
_cell_length_a 19.591656
_cell_length_b 7.677508
_cell_length_c 11.804644
_cell_angle_alpha 90.000000
_cell_angle_beta 64.547762
_cell_angle_gamma 90.000000
_cell_volume 1603.264075
_symmetry_space_group_name_H-M "C 2/M"
_symmetry_group_IT_number 12
_symmetry_cell_setting 'monoclinic'
loop_
_space_group_symop_operation_xyz
x,y,z
-x,y,-z
-x,-y,-z
x,-y,z
1/2+x,1/2+y,z
1/2-x,1/2+y,-z
1/2-x,1/2-y,-z
1/2+x,1/2-y,z
loop_
_atom_site_type_symbol
_atom_site_label
_atom_site_fract_x
_atom_site_fract_y
_atom_site_fract_z
Si Si1 0.176988 0.790753 0.628992
Si Si2 0.434818 0.302921 0.469431
Si Si3 0.638239 0.801987 0.271281
Si Si4 0.500000 0.500000 0.000000
Si Si5 0.950479 0.708831 0.887310
Si Si6 0.198694 0.701028 0.873684
O O1 0.250000 0.750000 0.500000
O O2 0.103312 0.721754 0.613488
O O3 0.185701 0.719881 0.748771
O O4 0.171633 0.000000 0.639844
O O5 0.500000 0.217464 0.500000
O O6 0.459216 0.500000 0.425015
O O7 0.368707 0.311351 0.611689
O O8 0.573219 0.765554 0.226028
O O9 0.720475 0.783540 0.157175
O O10 0.631951 0.000000 0.313963
O O11 0.509525 0.344046 0.895698
O O12 0.964055 0.500000 0.896012
O O13 0.125674 0.770072 0.991036
O O14 0.203779 0.500000 0.901509
#
# Coordination Sequence:
#
# PCOD9217184 Si02
#       6
#     8   8   8   2   8   8
#     4  11  22  38  63  95 133 174 222 277 335 397
#     4  10  23  42  63  93 132 176 227 274 333 407
#     4  11  23  41  68  98 135 169 220 288 337 404
#     4  12  26  44  76  90 142 192 216 270 334 420
#     4  10  26  46  67 105 137 175 228 280 337 406
#     4  11  23  41  68  97 136 172 222 286 336 400
#
# _framework density 26.196559000000001
#
# number of rings (size 3 to 8) (size 9 to 14) (size 15 to 20)
#    0.000    1.333    1.905    2.571    5.333    2.667 
#    3.429    1.905    0.000    0.000    0.000    0.000 
#    0.000    0.000    0.000    0.000    0.000    0.000 
#
# Total GULP energy -117336.164426 kJ/mol
# GULP energy per Si atom -5587.436401 kJ/mol
# Density = 2.613693 g / cm^3
# Si number density = 26.196559 Si / 1000 Ang^3
#
#
#
# Elastic Constant Matrix: (Units=GPa)
#
#
# Indices 1 2 3 4 5 6 
#
# 1 133.9852 17.7032 -0.7429 0.0000 21.8078 0.0000
# 2 17.7032 115.8859 4.1872 0.0000 2.9070 0.0000
# 3 -0.7429 4.1872 85.4244 0.0000 13.9188 0.0000
# 4 0.0000 0.0000 0.0000 21.7221 0.0000 10.5894
# 5 21.8078 2.9070 13.9188 0.0000 51.0702 0.0000
# 6 0.0000 0.0000 0.0000 10.5894 0.0000 24.0187
#
#
#
# Elastic Compliance Matrix: (Units=1/GPa)
#
#
# Indices 1 2 3 4 5 6 
#
# 1 0.008217 -0.001190 0.000723 0.000000 -0.003638 0.000000
# 2 -0.001190 0.008824 -0.000464 0.000000 0.000132 0.000000
# 3 0.000723 -0.000464 0.012329 0.000000 -0.003642 0.000000
# 4 0.000000 0.000000 0.000000 0.058639 0.000000 -0.025853
# 5 -0.003638 0.000132 -0.003642 0.000000 0.022119 0.000000
# 6 0.000000 0.000000 0.000000 -0.025853 0.000000 0.053032
#
#
# Mechanical properties :
#
#
# Convention : Reuss Voigt Hill
#
# Bulk Modulus (GPa) = 36.35564 41.95448 39.15506
# Shear Modulus (GPa) = 28.70371 40.30539 34.50455
#
# Velocity S-wave (km/s) = 3.31374 3.92672 3.63318
# Velocity P-wave (km/s) = 5.34315 6.05053 5.70781
#
# Compressibility (1/GPa) = 0.02750605
#
# Stress axis : x y z
#
# Youngs Moduli (GPa) = 121.70062 113.32161 81.11114
#
# Poissons Ratio (x) = 0.13486 -0.05861
# Poissons Ratio (y) = 0.14483 0.03767
# Poissons Ratio (z) = -0.08793 0.05263
#
# Static dielectric constant tensor:
#      x y z
#    x 2.175670 0.000000 -0.110780 
#    y 0.000000 1.970430 0.000000 
#    z -0.110780 0.000000 2.140170 
# 
# From -- ./inp_files/220750.got.cif
#   From: 2010.05.17/outbox.cif.g08.bks.cpg/sg12_111_cif.got.tgz:220750.got - 2010.06.03 13:09:07.
