data_PCOD9217191
_publ_section_title
;
Structure prediction by ZEFSAII (Michael W. Deem and Ramdas Pophale) SiO2 
 PCOD9217191
Probable space group: C 2/M
;
_chemical_formula_sum "Si O2"
_cell_formula_units_Z 64
_cell_length_a 31.494684
_cell_length_b 16.782725
_cell_length_c 9.605338
_cell_angle_alpha 90.000000
_cell_angle_beta 142.676859
_cell_angle_gamma 90.000000
_cell_volume 3078.271014
_symmetry_space_group_name_H-M "C 2/M"
_symmetry_group_IT_number 12
_symmetry_cell_setting 'monoclinic'
loop_
_space_group_symop_operation_xyz
x,y,z
-x,y,-z
-x,-y,-z
x,-y,z
1/2+x,1/2+y,z
1/2-x,1/2+y,-z
1/2-x,1/2-y,-z
1/2+x,1/2-y,z
loop_
_atom_site_type_symbol
_atom_site_label
_atom_site_fract_x
_atom_site_fract_y
_atom_site_fract_z
Si Si1 0.372580 0.640663 0.880050
Si Si2 0.747286 0.090128 0.374785
Si Si3 0.012038 0.328159 0.365446
Si Si4 0.168617 0.904020 0.652311
Si Si5 0.116267 0.326242 0.161557
Si Si6 0.519107 0.667407 0.208817
Si Si7 0.624157 0.094782 0.472036
Si Si8 0.710427 0.403973 0.070545
O O1 0.320487 0.591307 0.647869
O O2 0.375942 0.731353 0.833142
O O3 0.336563 0.638020 0.936108
O O4 0.453247 0.613988 0.086896
O O5 0.768145 0.125840 0.280301
O O6 0.690776 0.138038 0.313219
O O7 0.721517 0.000000 0.293257
O O8 0.023492 0.240494 0.328509
O O9 0.077749 0.379892 0.483396
O O10 0.000000 0.327561 0.500000
O O11 0.942047 0.355452 0.100528
O O12 0.093826 0.874328 0.405530
O O13 0.170414 0.000000 0.647475
O O14 0.182267 0.881404 0.846041
O O15 0.098562 0.356268 0.270006
O O16 0.500000 0.691406 0.000000
O O17 0.706733 0.113318 0.704011
O O18 0.617585 0.000000 0.430334
O O19 0.703162 0.500000 0.070335
#
# Coordination Sequence:
#
# PCOD9217191 Si02
#       8
#     8   8   8   8   8   8   8   8
#     4  11  22  39  65  94 127 166 217 265 312 380
#     4  11  22  39  64  95 129 166 214 266 314 375
#     4  11  27  44  65  97 128 164 214 268 325 381
#     4  10  24  40  62  96 133 173 215 262 321 374
#     4  11  24  41  66  98 126 168 213 264 317 383
#     4  11  23  43  66  91 133 173 213 266 315 377
#     4  11  24  45  71  94 127 171 213 261 321 388
#     4  10  23  42  63  95 132 170 213 263 321 380
#
# _framework density 20.790891999999999
#
# number of rings (size 3 to 8) (size 9 to 14) (size 15 to 20)
#    0.000    1.250    2.500    3.000    5.250    3.000 
#    0.000    2.500    0.000    0.000    0.000    0.000 
#    0.000    0.000    0.000    0.000    0.000    0.000 
#
# Total GULP energy -178795.536952 kJ/mol
# GULP energy per Si atom -5587.360530 kJ/mol
# Density = 2.074357 g / cm^3
# Si number density = 20.790892 Si / 1000 Ang^3
#
#
#
# Elastic Constant Matrix: (Units=GPa)
#
#
# Indices 1 2 3 4 5 6 
#
# 1 165.7722 32.4481 45.2632 0.0000 -20.3070 0.0000
# 2 32.4481 28.0310 13.9973 0.0000 -4.0344 0.0000
# 3 45.2632 13.9973 79.6867 0.0000 -11.0899 0.0000
# 4 0.0000 0.0000 0.0000 29.0274 0.0000 19.9761
# 5 -20.3070 -4.0344 -11.0899 0.0000 46.8657 0.0000
# 6 0.0000 0.0000 0.0000 19.9761 0.0000 63.0976
#
#
#
# Elastic Compliance Matrix: (Units=1/GPa)
#
#
# Indices 1 2 3 4 5 6 
#
# 1 0.008818 -0.008256 -0.003232 0.000000 0.002345 0.000000
# 2 -0.008256 0.046982 -0.003617 0.000000 -0.000389 0.000000
# 3 -0.003232 -0.003617 0.015286 0.000000 0.001905 0.000000
# 4 0.000000 0.000000 0.000000 0.044047 0.000000 -0.013945
# 5 0.002345 -0.000389 0.001905 0.000000 0.022771 0.000000
# 6 0.000000 0.000000 0.000000 -0.013945 0.000000 0.020263
#
#
# Mechanical properties :
#
#
# Convention : Reuss Voigt Hill
#
# Bulk Modulus (GPa) = 24.46488 50.76746 37.61617
# Shear Modulus (GPa) = 24.75204 39.91689 32.33446
#
# Velocity S-wave (km/s) = 3.45414 4.38645 3.94791
# Velocity P-wave (km/s) = 5.26315 7.07995 6.23805
#
# Compressibility (1/GPa) = 0.04087492
#
# Stress axis : x y z
#
# Youngs Moduli (GPa) = 113.40024 21.28462 65.42097
#
# Poissons Ratio (x) = 0.17573 0.21146
# Poissons Ratio (y) = 0.93627 0.23663
# Poissons Ratio (z) = 0.36654 0.07699
#
# Static dielectric constant tensor:
#      x y z
#    x 1.765840 0.000000 -0.005990 
#    y 0.000000 1.740650 0.000000 
#    z -0.005990 0.000000 1.749130 
# 
# From -- ./inp_files/112870.got.cif
#   From: 2010.05.17/outbox.cif.g08.bks.cpg/sg12_57_cif.got.tgz:112870.got - 2010.06.03 13:09:07.
