data_PCOD9217715
_publ_section_title
;
Structure prediction by ZEFSAII (Michael W. Deem and Ramdas Pophale) SiO2 
 PCOD9217715
Probable space group: C 2/M
;
_chemical_formula_sum "Si O2"
_cell_formula_units_Z 40
_cell_length_a 15.283673
_cell_length_b 15.290920
_cell_length_c 6.660318
_cell_angle_alpha 90.000000
_cell_angle_beta 89.203358
_cell_angle_gamma 90.000000
_cell_volume 1556.375329
_symmetry_space_group_name_H-M "C 2/M"
_symmetry_group_IT_number 12
_symmetry_cell_setting 'monoclinic'
loop_
_space_group_symop_operation_xyz
x,y,z
-x,y,-z
-x,-y,-z
x,-y,z
1/2+x,1/2+y,z
1/2-x,1/2+y,-z
1/2-x,1/2-y,-z
1/2+x,1/2-y,z
loop_
_atom_site_type_symbol
_atom_site_label
_atom_site_fract_x
_atom_site_fract_y
_atom_site_fract_z
Si Si1 0.415614 0.129350 0.124322
Si Si2 0.892895 0.896270 0.656139
Si Si3 0.706161 0.099005 0.531583
Si Si4 0.931865 0.835525 0.204298
Si Si5 0.253945 0.156523 0.889720
O O1 0.384939 0.101489 0.346967
O O2 0.425468 0.233945 0.149522
O O3 0.500000 0.098492 0.000000
O O4 0.332265 0.105762 0.991496
O O5 0.788464 0.883131 0.678458
O O6 0.912967 0.850746 0.442487
O O7 0.907661 0.000000 0.636995
O O8 0.966196 0.863597 0.810809
O O9 0.714804 0.163413 0.343555
O O10 0.719959 0.000000 0.454391
O O11 0.844602 0.880957 0.114859
O O12 0.250000 0.250000 0.000000
#
# Coordination Sequence:
#
# PCOD9217715 Si02
#       5
#     8   8   8   8   8
#     4  11  25  41  61  92 131 181 240 288 326 378
#     4   9  18  36  67 103 134 166 207 267 350 426
#     4  10  23  44  69  98 136 180 225 278 338 402
#     4   9  18  33  60  94 133 169 211 270 336 410
#     4   9  21  40  64  96 132 174 224 275 333 403
#
# _framework density 25.700742000000002
#
# number of rings (size 3 to 8) (size 9 to 14) (size 15 to 20)
#    0.000    2.400    0.000    1.200    0.000   18.000 
#    0.000    1.000    0.000    4.800    0.000    0.000 
#    0.000    0.000    0.000    0.000    0.000    0.000 
#
# Total GULP energy -111708.197690 kJ/mol
# GULP energy per Si atom -5585.409884 kJ/mol
# Density = 2.564225 g / cm^3
# Si number density = 25.700742 Si / 1000 Ang^3
#
#
#
# Elastic Constant Matrix: (Units=GPa)
#
#
# Indices 1 2 3 4 5 6 
#
# 1 190.3225 23.1697 86.0620 0.0000 -33.4181 0.0000
# 2 23.1697 115.5617 29.0397 0.0000 -0.6032 0.0000
# 3 86.0620 29.0397 116.3907 0.0000 -3.5123 0.0000
# 4 0.0000 0.0000 0.0000 -130.7875 0.0000 38.2264
# 5 -33.4181 -0.6032 -3.5123 0.0000 55.2133 0.0000
# 6 0.0000 0.0000 0.0000 38.2264 0.0000 8.8748
#
#
#
# Elastic Compliance Matrix: (Units=1/GPa)
#
#
# Indices 1 2 3 4 5 6 
#
# 1 0.009139 -0.000156 -0.006565 0.000000 0.005112 0.000000
# 2 -0.000156 0.009235 -0.002193 0.000000 -0.000133 0.000000
# 3 -0.006565 -0.002193 0.013899 0.000000 -0.003113 0.000000
# 4 0.000000 0.000000 0.000000 -0.003385 0.000000 0.014579
# 5 0.005112 -0.000133 -0.003113 0.000000 0.021006 0.000000
# 6 0.000000 0.000000 0.000000 0.014579 0.000000 0.049881
#
#
# Mechanical properties :
#
#
# Convention : Reuss Voigt Hill
#
# Bulk Modulus (GPa) = 69.22156 77.64639 73.43398
# Shear Modulus (GPa) = 40.84343 5.59369 23.21856
#
# Velocity S-wave (km/s) = 3.99079 1.47689 3.00896
# Velocity P-wave (km/s) = 6.94459 5.76069 6.38016
#
# Compressibility (1/GPa) = 0.01444637
#
# Stress axis : x y z
#
# Youngs Moduli (GPa) = 109.41681 108.28360 71.94790
#
# Poissons Ratio (x) = 0.01690 0.47231
# Poissons Ratio (y) = 0.01708 0.15776
# Poissons Ratio (z) = 0.71828 0.23744
#
# Static dielectric constant tensor:
#      x y z
#    x 2.086320 0.000000 -0.036100 
#    y 0.000000 1.943680 0.000000 
#    z -0.036100 0.000000 2.148110 
# 
# From -- ./inp_files/15226.got.cif
#   From: 2010.05.17/outbox.cif.g08.bks.cpg/sg12_8_cif.got.tgz:15226.got - 2010.06.03 13:09:07.
