data_PCOD9217620
_publ_section_title
;
Structure prediction by ZEFSAII (Michael W. Deem and Ramdas Pophale) SiO2 
 PCOD9217620
Probable space group: C 2/M
;
_chemical_formula_sum "Si O2"
_cell_formula_units_Z 48
_cell_length_a 15.871708
_cell_length_b 25.746250
_cell_length_c 11.696339
_cell_angle_alpha 90.000000
_cell_angle_beta 154.098950
_cell_angle_gamma 90.000000
_cell_volume 2087.797591
_symmetry_space_group_name_H-M "C 2/M"
_symmetry_group_IT_number 12
_symmetry_cell_setting 'monoclinic'
loop_
_space_group_symop_operation_xyz
x,y,z
-x,y,-z
-x,-y,-z
x,-y,z
1/2+x,1/2+y,z
1/2-x,1/2+y,-z
1/2-x,1/2-y,-z
1/2+x,1/2-y,z
loop_
_atom_site_type_symbol
_atom_site_label
_atom_site_fract_x
_atom_site_fract_y
_atom_site_fract_z
Si Si1 0.065353 0.797593 0.395017
Si Si2 0.785751 0.394125 0.256937
Si Si3 0.204529 0.685375 0.555861
Si Si4 0.797103 0.500000 0.674392
Si Si5 0.725245 0.895404 0.244608
Si Si6 0.226851 0.000000 0.313617
Si Si7 0.787673 0.364084 0.016732
O O1 0.128795 0.740423 0.510000
O O2 0.148962 0.804035 0.368740
O O3 0.170183 0.842818 0.592860
O O4 0.841554 0.811982 0.135428
O O5 0.698743 0.350897 0.231788
O O6 0.800274 0.447979 0.341595
O O7 0.000000 0.372969 0.500000
O O8 0.717816 0.395512 0.044085
O O9 0.011727 0.653712 0.281339
O O10 0.704084 0.446150 0.601885
O O11 0.787717 0.500000 0.522831
O O12 0.000000 0.500000 0.000000
O O13 0.748448 0.899327 0.137434
O O14 0.500000 0.889162 0.000000
O O15 0.000000 0.000000 0.000000
#
# Coordination Sequence:
#
# PCOD9217620 Si02
#       7
#     8   8   8   4   8   4   8
#     4  11  23  41  71 100 138 186 233 293 355 419
#     4  10  25  44  69  98 141 184 234 286 361 430
#     4  10  23  44  66 101 142 183 234 287 357 428
#     4  10  26  44  79 100 140 197 235 296 362 432
#     4  11  23  45  69  98 140 184 242 290 360 419
#     4  12  27  46  76 109 141 179 241 303 355 428
#     4  11  24  41  68 103 141 181 234 293 350 436
#
# _framework density 22.990734
#
# number of rings (size 3 to 8) (size 9 to 14) (size 15 to 20)
#    0.000    1.333    1.667    2.250   11.667    6.000 
#    0.000    1.667    0.000    0.000    0.000    0.000 
#    0.000    0.000    0.000    0.000    0.000    0.000 
#
# Total GULP energy -133969.867569 kJ/mol
# GULP energy per Si atom -5582.077815 kJ/mol
# Density = 2.293841 g / cm^3
# Si number density = 22.990734 Si / 1000 Ang^3
#
#
#
# Elastic Constant Matrix: (Units=GPa)
#
#
# Indices 1 2 3 4 5 6 
#
# 1 138.2705 69.0736 29.3368 0.0000 -31.7412 0.0000
# 2 69.0736 126.2174 4.4206 0.0000 -38.1687 -0.0001
# 3 29.3368 4.4206 65.7247 0.0000 6.1038 -0.0001
# 4 0.0000 0.0000 0.0000 18.0132 0.0000 -12.2692
# 5 -31.7412 -38.1687 6.1038 0.0000 49.2067 0.0000
# 6 0.0000 -0.0001 -0.0001 -12.2692 0.0000 53.9268
#
#
#
# Elastic Compliance Matrix: (Units=1/GPa)
#
#
# Indices 1 2 3 4 5 6 
#
# 1 0.011881 -0.004956 -0.005387 0.000000 0.004488 0.000000
# 2 -0.004956 0.012559 0.000769 0.000000 0.006449 0.000000
# 3 -0.005387 0.000769 0.018043 0.000000 -0.005117 0.000000
# 4 0.000000 0.000000 0.000000 0.065695 0.000000 0.014947
# 5 0.004488 0.006449 -0.005117 0.000000 0.028854 0.000000
# 6 0.000000 0.000000 0.000000 0.014947 0.000000 0.021944
#
#
# Mechanical properties :
#
#
# Convention : Reuss Voigt Hill
#
# Bulk Modulus (GPa) = 42.85607 59.54164 51.19885
# Shear Modulus (GPa) = 26.89572 39.38811 33.14191
#
# Velocity S-wave (km/s) = 3.42402 4.14359 3.80087
# Velocity P-wave (km/s) = 5.85772 6.98905 6.44824
#
# Compressibility (1/GPa) = 0.02333392
#
# Stress axis : x y z
#
# Youngs Moduli (GPa) = 84.16600 79.62732 55.42358
#
# Poissons Ratio (x) = 0.39466 0.29855
# Poissons Ratio (y) = 0.41716 -0.04261
# Poissons Ratio (z) = 0.45338 -0.06121
#
# Static dielectric constant tensor:
#      x y z
#    x 1.933810 0.000000 -0.056560 
#    y 0.000000 1.800580 0.000000 
#    z -0.056560 0.000000 1.983680 
# 
# From -- ./inp_files/149913.got.cif
#   From: 2010.05.17/outbox.cif.g08.bks.cpg/sg12_75_cif.got.tgz:149913.got - 2010.06.03 13:09:07.
