data_PCOD9217678
_publ_section_title
;
Structure prediction by ZEFSAII (Michael W. Deem and Ramdas Pophale) SiO2 
 PCOD9217678
Probable space group: C 2/M
;
_chemical_formula_sum "Si O2"
_cell_formula_units_Z 36
_cell_length_a 8.725563
_cell_length_b 19.065438
_cell_length_c 8.570237
_cell_angle_alpha 90.000000
_cell_angle_beta 80.313443
_cell_angle_gamma 90.000000
_cell_volume 1405.389704
_symmetry_space_group_name_H-M "C 2/M"
_symmetry_group_IT_number 12
_symmetry_cell_setting 'monoclinic'
loop_
_space_group_symop_operation_xyz
x,y,z
-x,y,-z
-x,-y,-z
x,-y,z
1/2+x,1/2+y,z
1/2-x,1/2+y,-z
1/2-x,1/2-y,-z
1/2+x,1/2-y,z
loop_
_atom_site_type_symbol
_atom_site_label
_atom_site_fract_x
_atom_site_fract_y
_atom_site_fract_z
Si Si1 0.980435 0.500000 0.345642
Si Si2 0.870872 0.000000 0.955779
Si Si3 0.208345 0.000000 0.690191
Si Si4 0.649024 0.724703 0.288685
Si Si5 0.330877 0.660120 0.367984
Si Si6 0.146001 0.612821 0.863732
O O1 0.902990 0.570397 0.282855
O O2 0.124137 0.500000 0.461362
O O3 0.151457 0.500000 0.203440
O O4 0.788704 0.067496 0.909915
O O5 0.938359 0.000000 0.123864
O O6 0.151593 0.922719 0.644785
O O7 0.480134 0.698914 0.267805
O O8 0.671376 0.687417 0.454398
O O9 0.679419 0.806996 0.309489
O O10 0.782715 0.689376 0.165796
O O11 0.000000 0.613573 0.000000
#
# Coordination Sequence:
#
# PCOD9217678 Si02
#       6
#     4   4   4   8   8   8
#     4  11  22  37  68 103 136 179 235 284 342 410
#     4  11  22  39  64  95 142 181 227 282 346 412
#     4  12  22  40  64 102 128 177 229 281 336 412
#     4  10  23  44  68  96 138 182 225 293 357 409
#     4  10  24  43  70 100 137 175 239 291 347 420
#     4  11  22  43  64 102 142 183 227 292 351 419
#
# _framework density 25.615670999999999
#
# number of rings (size 3 to 8) (size 9 to 14) (size 15 to 20)
#    0.000    1.333    2.222    3.333    3.111    3.556 
#    0.000    5.556    0.000    0.000    0.000    0.000 
#    0.000    0.000    0.000    0.000    0.000    0.000 
#
# Total GULP energy -100515.071422 kJ/mol
# GULP energy per Si atom -5584.170635 kJ/mol
# Density = 2.555737 g / cm^3
# Si number density = 25.615671 Si / 1000 Ang^3
#
#
#
# Elastic Constant Matrix: (Units=GPa)
#
#
# Indices 1 2 3 4 5 6 
#
# 1 148.1536 51.6245 22.2883 0.0000 -14.9472 0.0000
# 2 51.6245 152.4993 24.6107 0.0000 7.5766 0.0000
# 3 22.2883 24.6107 97.9650 0.0000 -14.8189 0.0000
# 4 0.0000 0.0000 0.0000 9.0718 0.0000 -4.9998
# 5 -14.9472 7.5766 -14.8189 0.0000 33.6890 0.0000
# 6 0.0000 0.0000 0.0000 -4.9998 0.0000 28.6558
#
#
#
# Elastic Compliance Matrix: (Units=1/GPa)
#
#
# Indices 1 2 3 4 5 6 
#
# 1 0.008256 -0.002913 -0.000529 0.000000 0.004086 0.000000
# 2 -0.002913 0.008057 -0.001962 0.000000 -0.003967 0.000000
# 3 -0.000529 -0.001962 0.011626 0.000000 0.005320 0.000000
# 4 0.000000 0.000000 0.000000 0.121960 0.000000 0.021279
# 5 0.004086 -0.003967 0.005320 0.000000 0.034728 0.000000
# 6 0.000000 0.000000 0.000000 0.021279 0.000000 0.038610
#
#
# Mechanical properties :
#
#
# Convention : Reuss Voigt Hill
#
# Bulk Modulus (GPa) = 58.36582 66.18501 62.27541
# Shear Modulus (GPa) = 20.85472 34.28961 27.57217
#
# Velocity S-wave (km/s) = 2.85641 3.66268 3.28438
# Velocity P-wave (km/s) = 5.80633 6.61671 6.22472
#
# Compressibility (1/GPa) = 0.01713332
#
# Stress axis : x y z
#
# Youngs Moduli (GPa) = 121.11798 124.11485 86.01725
#
# Poissons Ratio (x) = 0.36150 0.04548
# Poissons Ratio (y) = 0.35277 0.16872
# Poissons Ratio (z) = 0.06403 0.24345
#
# Static dielectric constant tensor:
#      x y z
#    x 2.158830 0.000000 -0.226870 
#    y 0.000000 1.906470 0.000000 
#    z -0.226870 0.000000 2.318130 
# 
# From -- ./inp_files/118556.got.cif
#   From: 2010.05.17/outbox.cif.g08.bks.cpg/sg12_60_cif.got.tgz:118556.got - 2010.06.03 13:09:07.
