data_PCOD9217619
_publ_section_title
;
Structure prediction by ZEFSAII (Michael W. Deem and Ramdas Pophale) SiO2 
 PCOD9217619
Probable space group: C 2/M
;
_chemical_formula_sum "Si O2"
_cell_formula_units_Z 38
_cell_length_a 7.102701
_cell_length_b 27.311020
_cell_length_c 8.976437
_cell_angle_alpha 90.000000
_cell_angle_beta 129.477782
_cell_angle_gamma 90.000000
_cell_volume 1344.034036
_symmetry_space_group_name_H-M "C 2/M"
_symmetry_group_IT_number 12
_symmetry_cell_setting 'monoclinic'
loop_
_space_group_symop_operation_xyz
x,y,z
-x,y,-z
-x,-y,-z
x,-y,z
1/2+x,1/2+y,z
1/2-x,1/2+y,-z
1/2-x,1/2-y,-z
1/2+x,1/2-y,z
loop_
_atom_site_type_symbol
_atom_site_label
_atom_site_fract_x
_atom_site_fract_y
_atom_site_fract_z
Si Si1 0.563410 0.075175 0.766667
Si Si2 0.500000 0.634617 0.500000
Si Si3 0.596341 0.554991 0.329605
Si Si4 0.599894 0.813662 0.833183
Si Si5 0.000000 0.500000 0.000000
Si Si6 0.959201 0.204987 0.743901
O O1 0.342051 0.055577 0.553596
O O2 0.803347 0.070270 0.781630
O O3 0.501258 0.131472 0.775334
O O4 0.583153 0.042531 0.920505
O O5 0.436344 0.594479 0.336306
O O6 0.396674 0.674914 0.566132
O O7 0.488691 0.500000 0.281607
O O8 0.448196 0.763759 0.738471
O O9 0.780409 0.811947 0.783124
O O10 0.765105 0.807324 0.064285
#
# Coordination Sequence:
#
# PCOD9217619 Si02
#       6
#     8   4   8   8   2   8
#     4  11  23  42  68  96 128 170 225 272 318 386
#     4  12  25  40  68 100 132 177 218 264 332 400
#     4  11  23  45  63  94 136 176 211 275 330 384
#     4  10  23  44  65  94 135 170 213 281 321 381
#     4  12  24  38  72 102 120 170 238 260 312 402
#     4  10  24  42  65  96 134 174 217 261 336 389
#
# _framework density 28.273095999999999
#
# number of rings (size 3 to 8) (size 9 to 14) (size 15 to 20)
#    0.000    1.263    4.211    0.947    5.895    4.211 
#    0.000    0.000    0.000    3.789    0.000    0.000 
#    0.000    0.000    0.000    0.000    0.000    0.000 
#
# Total GULP energy -106232.434839 kJ/mol
# GULP energy per Si atom -5591.180781 kJ/mol
# Density = 2.820875 g / cm^3
# Si number density = 28.273096 Si / 1000 Ang^3
#
#
#
# Elastic Constant Matrix: (Units=GPa)
#
#
# Indices 1 2 3 4 5 6 
#
# 1 113.1812 71.0971 66.6295 0.0000 -42.0584 0.0000
# 2 71.0971 354.4245 123.6109 0.0000 -11.1894 0.0000
# 3 66.6295 123.6109 155.7639 0.0000 -28.0853 0.0000
# 4 0.0000 0.0000 0.0000 71.6203 0.0000 -20.1460
# 5 -42.0584 -11.1894 -28.0853 0.0000 61.0192 0.0000
# 6 0.0000 0.0000 0.0000 -20.1460 0.0000 8.7698
#
#
#
# Elastic Compliance Matrix: (Units=1/GPa)
#
#
# Indices 1 2 3 4 5 6 
#
# 1 0.015095 -0.001436 -0.003804 0.000000 0.008390 0.000000
# 2 -0.001436 0.004072 -0.002901 0.000000 -0.001579 0.000000
# 3 -0.003804 -0.002901 0.010666 0.000000 0.001755 0.000000
# 4 0.000000 0.000000 0.000000 0.039462 0.000000 0.090651
# 5 0.008390 -0.001579 0.001755 0.000000 0.022690 0.000000
# 6 0.000000 0.000000 0.000000 0.090651 0.000000 0.322270
#
#
# Mechanical properties :
#
#
# Convention : Reuss Voigt Hill
#
# Bulk Modulus (GPa) = 73.80817 127.33827 100.57322
# Shear Modulus (GPa) = 11.49280 52.41734 31.95507
#
# Velocity S-wave (km/s) = 2.01835 4.31044 3.36553
# Velocity P-wave (km/s) = 5.62083 8.36120 7.12402
#
# Compressibility (1/GPa) = 0.01354864
#
# Stress axis : x y z
#
# Youngs Moduli (GPa) = 66.24682 245.59835 93.75264
#
# Poissons Ratio (x) = 0.35276 0.35668
# Poissons Ratio (y) = 0.09515 0.27202
# Poissons Ratio (z) = 0.25203 0.71260
#
# Static dielectric constant tensor:
#      x y z
#    x 3.293160 0.000000 0.828360 
#    y 0.000000 2.079270 0.000000 
#    z 0.828360 0.000000 2.643980 
# 
# From -- ./inp_files/39470.got.cif
#   From: 2010.05.17/outbox.cif.g08.bks.cpg/sg12_20_cif.got.tgz:39470.got - 2010.06.03 13:09:07.
