data_PCOD9217600
_publ_section_title
;
Structure prediction by ZEFSAII (Michael W. Deem and Ramdas Pophale) SiO2 
 PCOD9217600
Probable space group: C 2/M
;
_chemical_formula_sum "Si O2"
_cell_formula_units_Z 56
_cell_length_a 23.311186
_cell_length_b 14.144408
_cell_length_c 9.836961
_cell_angle_alpha 90.000000
_cell_angle_beta 63.913052
_cell_angle_gamma 90.000000
_cell_volume 2913.051883
_symmetry_space_group_name_H-M "C 2/M"
_symmetry_group_IT_number 12
_symmetry_cell_setting 'monoclinic'
loop_
_space_group_symop_operation_xyz
x,y,z
-x,y,-z
-x,-y,-z
x,-y,z
1/2+x,1/2+y,z
1/2-x,1/2+y,-z
1/2-x,1/2-y,-z
1/2+x,1/2-y,z
loop_
_atom_site_type_symbol
_atom_site_label
_atom_site_fract_x
_atom_site_fract_y
_atom_site_fract_z
Si Si1 0.306707 0.890543 0.294909
Si Si2 0.279333 0.725554 0.114747
Si Si3 0.686122 0.112559 0.398642
Si Si4 0.453987 0.390286 0.256737
Si Si5 0.958900 0.389940 0.165160
Si Si6 0.055582 0.721325 0.551536
Si Si7 0.594732 0.611638 0.996803
O O1 0.280740 0.816653 0.212857
O O2 0.291606 0.867324 0.468752
O O3 0.383986 0.885081 0.209491
O O4 0.288201 0.000000 0.288072
O O5 0.238009 0.647247 0.237641
O O6 0.349479 0.681891 0.020437
O O7 0.250000 0.750000 0.000000
O O8 0.620129 0.168263 0.440443
O O9 0.674681 0.000000 0.404109
O O10 0.444920 0.500000 0.298880
O O11 0.429157 0.323417 0.400944
O O12 0.420122 0.371611 0.147494
O O13 0.529284 0.374337 0.148583
O O14 0.976026 0.500000 0.163887
O O15 0.970344 0.337151 0.292643
O O16 0.000000 0.348662 0.000000
O O17 0.000000 0.727242 0.500000
O O18 0.611816 0.500000 0.992833
#
# Coordination Sequence:
#
# PCOD9217600 Si02
#       7
#     8   8   8   8   8   8   8
#     4   9  20  39  59  82 118 160 207 250 292 357
#     4  12  25  37  62  92 127 160 201 252 319 369
#     4  10  23  44  62  84 120 165 208 248 294 368
#     4   9  20  38  63  90 119 155 209 259 300 357
#     4   9  19  35  58  87 115 155 205 250 293 348
#     4  11  23  35  61  89 127 158 196 242 319 364
#     4   9  19  38  63  89 116 160 209 257 303 356
#
# _framework density 19.223824
#
# number of rings (size 3 to 8) (size 9 to 14) (size 15 to 20)
#    0.000    2.143    0.000    4.714    6.000    2.571 
#    0.000    3.571    0.000    0.000    0.000    0.000 
#    0.000    0.000    0.000    0.000    0.000    0.000 
#
# Total GULP energy -156407.407688 kJ/mol
# GULP energy per Si atom -5585.978846 kJ/mol
# Density = 1.918007 g / cm^3
# Si number density = 19.223824 Si / 1000 Ang^3
#
#
#
# Elastic Constant Matrix: (Units=GPa)
#
#
# Indices 1 2 3 4 5 6 
#
# 1 59.6303 50.1472 17.2682 0.0000 20.4366 0.0000
# 2 50.1472 98.7247 18.0755 0.0000 14.2611 0.0000
# 3 17.2682 18.0755 45.4721 0.0000 4.9271 0.0000
# 4 0.0000 0.0000 0.0000 12.5164 0.0000 -15.8695
# 5 20.4366 14.2611 4.9271 0.0000 16.8518 0.0000
# 6 0.0000 0.0000 0.0000 -15.8695 0.0000 30.4090
#
#
#
# Elastic Compliance Matrix: (Units=1/GPa)
#
#
# Indices 1 2 3 4 5 6 
#
# 1 0.046459 -0.016539 -0.006692 0.000000 -0.040389 0.000000
# 2 -0.016539 0.018044 -0.001457 0.000000 0.005214 0.000000
# 3 -0.006692 -0.001457 0.024887 0.000000 0.002072 0.000000
# 4 0.000000 0.000000 0.000000 0.236153 0.000000 0.123241
# 5 -0.040389 0.005214 0.002072 0.000000 0.103304 0.000000
# 6 0.000000 0.000000 0.000000 0.123241 0.000000 0.097201
#
#
# Mechanical properties :
#
#
# Convention : Reuss Voigt Hill
#
# Bulk Modulus (GPa) = 24.99112 41.64544 33.31828
# Shear Modulus (GPa) = 8.49238 19.84450 14.16844
#
# Velocity S-wave (km/s) = 2.10410 3.21641 2.71777
# Velocity P-wave (km/s) = 4.35101 5.95854 5.21706
#
# Compressibility (1/GPa) = 0.04001421
#
# Stress axis : x y z
#
# Youngs Moduli (GPa) = 21.52414 55.42030 40.18090
#
# Poissons Ratio (x) = 0.91662 0.26890
# Poissons Ratio (y) = 0.35600 0.05853
# Poissons Ratio (z) = 0.14405 0.08073
#
# Static dielectric constant tensor:
#      x y z
#    x 1.657840 0.000000 -0.025590 
#    y 0.000000 1.701300 0.000000 
#    z -0.025590 0.000000 1.658930 
# 
# From -- ./inp_files/96236.got.cif
#   From: 2010.05.17/outbox.cif.g08.bks.cpg/sg12_49_cif.got.tgz:96236.got - 2010.06.03 13:09:07.
