data_PCOD9217270
_publ_section_title
;
Structure prediction by ZEFSAII (Michael W. Deem and Ramdas Pophale) SiO2 
 PCOD9217270
Probable space group: C 2/M
;
_chemical_formula_sum "Si O2"
_cell_formula_units_Z 48
_cell_length_a 22.446964
_cell_length_b 8.376275
_cell_length_c 23.638284
_cell_angle_alpha 90.000000
_cell_angle_beta 148.713998
_cell_angle_gamma 90.000000
_cell_volume 2308.083176
_symmetry_space_group_name_H-M "C 2/M"
_symmetry_group_IT_number 12
_symmetry_cell_setting 'monoclinic'
loop_
_space_group_symop_operation_xyz
x,y,z
-x,y,-z
-x,-y,-z
x,-y,z
1/2+x,1/2+y,z
1/2-x,1/2+y,-z
1/2-x,1/2-y,-z
1/2+x,1/2-y,z
loop_
_atom_site_type_symbol
_atom_site_label
_atom_site_fract_x
_atom_site_fract_y
_atom_site_fract_z
Si Si1 0.124538 0.684588 0.127944
Si Si2 0.757197 0.808405 0.570465
Si Si3 0.538802 0.194490 0.468121
Si Si4 0.309198 0.185805 0.992411
Si Si5 0.062153 0.812419 0.193991
Si Si6 0.177389 0.315768 0.781855
O O1 0.150981 0.500000 0.135555
O O2 0.117406 0.711246 0.188657
O O3 0.220300 0.798142 0.180130
O O4 0.000000 0.720394 0.000000
O O5 0.750000 0.750000 0.500000
O O6 0.657400 0.753407 0.533821
O O7 0.878677 0.768411 0.698666
O O8 0.747436 0.000000 0.560040
O O9 0.500000 0.249003 0.500000
O O10 0.437936 0.237918 0.342544
O O11 0.543718 0.000000 0.475648
O O12 0.427236 0.280985 0.080823
O O13 0.338070 0.000000 0.019673
O O14 0.250000 0.250000 0.000000
O O15 0.221284 0.214946 0.870146
O O16 0.084916 0.000000 0.202424
O O17 0.163984 0.500000 0.788393
#
# Coordination Sequence:
#
# PCOD9217270 Si02
#       6
#     8   8   8   8   8   8
#     4  11  22  37  59  91 127 165 204 251 312 372
#     4  10  23  42  65  95 127 165 211 263 321 384
#     4   9  19  39  65  93 125 164 211 260 313 373
#     4  12  26  43  62  89 126 165 209 259 317 379
#     4  11  23  41  66  94 124 163 211 259 313 377
#     4  11  22  38  65  96 125 162 208 258 314 377
#
# _framework density 20.796476999999999
#
# number of rings (size 3 to 8) (size 9 to 14) (size 15 to 20)
#    0.000    1.333    1.667    4.000    2.333    4.667 
#    0.000    0.833    0.000    3.500    0.000    0.000 
#    0.000    0.000    0.000    0.000    0.000    0.000 
#
# Total GULP energy -134079.225725 kJ/mol
# GULP energy per Si atom -5586.634405 kJ/mol
# Density = 2.074914 g / cm^3
# Si number density = 20.796477 Si / 1000 Ang^3
#
#
#
# Elastic Constant Matrix: (Units=GPa)
#
#
# Indices 1 2 3 4 5 6 
#
# 1 95.6926 -0.5387 21.8160 0.0000 -20.8043 0.0000
# 2 -0.5387 30.1174 19.3659 0.0000 -1.1157 0.0000
# 3 21.8160 19.3659 107.2186 0.0000 -16.9242 0.0000
# 4 0.0000 0.0000 0.0000 18.9007 0.0000 -12.2059
# 5 -20.8043 -1.1157 -16.9242 0.0000 32.5512 0.0000
# 6 0.0000 0.0000 0.0000 -12.2059 0.0000 20.9883
#
#
#
# Elastic Compliance Matrix: (Units=1/GPa)
#
#
# Indices 1 2 3 4 5 6 
#
# 1 0.012385 0.001567 -0.001683 0.000000 0.007094 0.000000
# 2 0.001567 0.037943 -0.007418 0.000000 -0.001555 0.000000
# 3 -0.001683 -0.007418 0.011765 0.000000 0.004787 0.000000
# 4 0.000000 0.000000 0.000000 0.084729 0.000000 0.049275
# 5 0.007094 -0.001555 0.004787 0.000000 0.037690 0.000000
# 6 0.000000 0.000000 0.000000 0.049275 0.000000 0.076302
#
#
# Mechanical properties :
#
#
# Convention : Reuss Voigt Hill
#
# Bulk Modulus (GPa) = 21.26538 34.92391 28.09464
# Shear Modulus (GPa) = 17.14928 27.31373 22.23150
#
# Velocity S-wave (km/s) = 2.87474 3.62799 3.27311
# Velocity P-wave (km/s) = 4.61157 5.86340 5.27475
#
# Compressibility (1/GPa) = 0.04702478
#
# Stress axis : x y z
#
# Youngs Moduli (GPa) = 80.74287 26.35504 85.00122
#
# Poissons Ratio (x) = -0.04129 0.14307
# Poissons Ratio (y) = -0.12649 0.63050
# Poissons Ratio (z) = 0.13590 0.19549
#
# Static dielectric constant tensor:
#      x y z
#    x 1.766470 0.000000 -0.013370 
#    y 0.000000 1.695460 0.000000 
#    z -0.013370 0.000000 1.776140 
# 
# From -- ./inp_files/348888.got.cif
#   From: 2010.05.17/outbox.cif.g08.bks.cpg/sg12_175_cif.got.tgz:348888.got - 2010.06.03 13:09:07.
