data_PCOD9217406
_publ_section_title
;
Structure prediction by ZEFSAII (Michael W. Deem and Ramdas Pophale) SiO2 
 PCOD9217406
Probable space group: C 2/M
;
_chemical_formula_sum "Si O2"
_cell_formula_units_Z 40
_cell_length_a 10.606789
_cell_length_b 7.814473
_cell_length_c 23.571706
_cell_angle_alpha 90.000000
_cell_angle_beta 110.776074
_cell_angle_gamma 90.000000
_cell_volume 1826.728986
_symmetry_space_group_name_H-M "C 2/M"
_symmetry_group_IT_number 12
_symmetry_cell_setting 'monoclinic'
loop_
_space_group_symop_operation_xyz
x,y,z
-x,y,-z
-x,-y,-z
x,-y,z
1/2+x,1/2+y,z
1/2-x,1/2+y,-z
1/2-x,1/2-y,-z
1/2+x,1/2-y,z
loop_
_atom_site_type_symbol
_atom_site_label
_atom_site_fract_x
_atom_site_fract_y
_atom_site_fract_z
Si Si1 0.866619 0.196952 0.871077
Si Si2 0.918443 0.000000 0.045325
Si Si3 0.542570 0.298603 0.674950
Si Si4 0.348907 0.000000 0.953112
Si Si5 0.156431 0.201563 0.260205
Si Si6 0.595141 0.795331 0.463855
O O1 0.821984 0.333421 0.910147
O O2 0.848267 0.267338 0.804921
O O3 0.809223 0.000000 0.865865
O O4 0.024120 0.160481 0.910141
O O5 0.760565 0.000000 0.014628
O O6 0.000000 0.000000 0.000000
O O7 0.563415 0.500000 0.687534
O O8 0.691184 0.220477 0.693307
O O9 0.453770 0.227628 0.713324
O O10 0.457886 0.274939 0.604183
O O11 0.500000 0.000000 0.000000
O O12 0.126619 0.000000 0.250173
O O13 0.500000 0.732984 0.500000
O O14 0.750000 0.750000 0.500000
O O15 0.583264 0.000000 0.459335
#
# Coordination Sequence:
#
# PCOD9217406 Si02
#       6
#     8   4   8   4   8   8
#     4   9  24  45  65  98 136 177 218 285 334 398
#     4  10  24  48  68  98 144 170 222 287 330 398
#     4  11  24  40  66  96 131 169 217 274 325 391
#     4  12  26  44  74 102 132 182 230 272 344 410
#     4  10  23  43  63  93 132 169 216 272 331 385
#     4  11  24  42  64  93 132 172 218 269 326 388
#
# _framework density 21.897061999999998
#
# number of rings (size 3 to 8) (size 9 to 14) (size 15 to 20)
#    0.600    1.000    0.000    3.000    4.200   11.200 
#    1.800    0.000    0.000    0.000    0.000    0.000 
#    0.000    0.000    0.000    0.000    0.000    0.000 
#
# Total GULP energy -111674.127142 kJ/mol
# GULP energy per Si atom -5583.706357 kJ/mol
# Density = 2.184722 g / cm^3
# Si number density = 21.897062 Si / 1000 Ang^3
#
#
#
# Elastic Constant Matrix: (Units=GPa)
#
#
# Indices 1 2 3 4 5 6 
#
# 1 115.2153 -0.3351 13.6297 0.0000 -13.1718 0.0000
# 2 -0.3351 63.5872 -1.3181 0.0000 -17.4383 0.0000
# 3 13.6297 -1.3181 87.3597 0.0000 -10.7602 0.0000
# 4 0.0000 0.0000 0.0000 26.4498 0.0000 -2.7715
# 5 -13.1718 -17.4383 -10.7602 0.0000 30.5619 0.0000
# 6 0.0000 0.0000 0.0000 -2.7715 0.0000 16.6467
#
#
#
# Elastic Compliance Matrix: (Units=1/GPa)
#
#
# Indices 1 2 3 4 5 6 
#
# 1 0.009291 0.001236 -0.000889 0.000000 0.004397 0.000000
# 2 0.001236 0.019043 0.001566 0.000000 0.011950 0.000000
# 3 -0.000889 0.001566 0.012201 0.000000 0.004806 0.000000
# 4 0.000000 0.000000 0.000000 0.038479 0.000000 0.006406
# 5 0.004397 0.011950 0.004806 0.000000 0.043126 0.000000
# 6 0.000000 0.000000 0.000000 0.006406 0.000000 0.061139
#
#
# Mechanical properties :
#
#
# Convention : Reuss Voigt Hill
#
# Bulk Modulus (GPa) = 22.54228 32.23501 27.38865
# Shear Modulus (GPa) = 25.74152 31.67738 28.70945
#
# Velocity S-wave (km/s) = 3.43238 3.80761 3.62485
# Velocity P-wave (km/s) = 5.10150 5.83812 5.48220
#
# Compressibility (1/GPa) = 0.04436108
#
# Stress axis : x y z
#
# Youngs Moduli (GPa) = 107.63302 52.51399 81.95844
#
# Poissons Ratio (x) = -0.06492 0.07289
# Poissons Ratio (y) = -0.13306 -0.12837
# Poissons Ratio (z) = 0.09572 -0.08225
#
# Static dielectric constant tensor:
#      x y z
#    x 1.818380 0.000000 -0.009570 
#    y 0.000000 1.828150 0.000000 
#    z -0.009570 0.000000 1.875260 
# 
# From -- ./inp_files/331825.got.cif
#   From: 2010.05.17/outbox.cif.g08.bks.cpg/sg12_166_cif.got.tgz:331825.got - 2010.06.03 13:09:07.
