data_PCOD9217976
_publ_section_title
;
Structure prediction by ZEFSAII (Michael W. Deem and Ramdas Pophale) SiO2 
 PCOD9217976
Probable space group: C 2/M
;
_chemical_formula_sum "Si O2"
_cell_formula_units_Z 48
_cell_length_a 22.955514
_cell_length_b 12.999495
_cell_length_c 7.549633
_cell_angle_alpha 90.000000
_cell_angle_beta 106.069337
_cell_angle_gamma 90.000000
_cell_volume 2164.860581
_symmetry_space_group_name_H-M "C 2/M"
_symmetry_group_IT_number 12
_symmetry_cell_setting 'monoclinic'
loop_
_space_group_symop_operation_xyz
x,y,z
-x,y,-z
-x,-y,-z
x,-y,z
1/2+x,1/2+y,z
1/2-x,1/2+y,-z
1/2-x,1/2-y,-z
1/2+x,1/2-y,z
loop_
_atom_site_type_symbol
_atom_site_label
_atom_site_fract_x
_atom_site_fract_y
_atom_site_fract_z
Si Si1 0.808468 0.110927 0.519327
Si Si2 0.064510 0.829565 0.356930
Si Si3 0.059578 0.384107 0.174834
Si Si4 0.346475 0.793671 0.005470
Si Si5 0.273120 0.805781 0.266523
Si Si6 0.932363 0.115801 0.222530
O O1 0.873238 0.125958 0.669870
O O2 0.751948 0.119414 0.604299
O O3 0.803647 0.207450 0.385621
O O4 0.807855 0.000000 0.428848
O O5 0.061240 0.707373 0.319368
O O6 0.067344 0.860920 0.565781
O O7 0.002775 0.875027 0.227489
O O8 0.059059 0.500000 0.247056
O O9 0.118217 0.366389 0.099881
O O10 0.000000 0.372193 0.000000
O O11 0.319194 0.846819 0.158559
O O12 0.392988 0.704010 0.099748
O O13 0.287947 0.739970 0.870966
O O14 0.910318 0.000000 0.172632
#
# Coordination Sequence:
#
# PCOD9217976 Si02
#       6
#     8   8   8   8   8   8
#     4  11  22  41  66  94 128 168 212 262 322 381
#     4  11  21  42  67  98 129 161 208 265 318 396
#     4  11  24  44  66  90 125 172 214 265 319 365
#     4  11  22  43  61  90 131 165 216 264 305 378
#     4  10  24  40  61  89 128 170 214 259 305 374
#     4  11  23  40  69 100 132 166 199 262 340 381
#
# _framework density 22.172329000000001
#
# number of rings (size 3 to 8) (size 9 to 14) (size 15 to 20)
#    0.000    1.167    5.000    2.000    0.000    2.000 
#    0.000    6.667    0.000    0.000    0.000    0.000 
#    0.000    0.000    0.000    0.000    0.000    0.000 
#
# Total GULP energy -134133.616010 kJ/mol
# GULP energy per Si atom -5588.900667 kJ/mol
# Density = 2.212186 g / cm^3
# Si number density = 22.172329 Si / 1000 Ang^3
#
#
#
# Elastic Constant Matrix: (Units=GPa)
#
#
# Indices 1 2 3 4 5 6 
#
# 1 100.3748 7.6420 3.9059 0.0000 12.9995 0.0000
# 2 7.6420 108.4684 -5.0441 0.0000 0.2935 0.0000
# 3 3.9059 -5.0441 26.3687 0.0000 4.1180 0.0000
# 4 0.0000 0.0000 0.0000 16.9035 0.0000 -3.3256
# 5 12.9995 0.2935 4.1180 0.0000 32.7903 0.0000
# 6 0.0000 0.0000 0.0000 -3.3256 0.0000 3.8501
#
#
#
# Elastic Compliance Matrix: (Units=1/GPa)
#
#
# Indices 1 2 3 4 5 6 
#
# 1 0.010590 -0.000786 -0.001086 0.000000 -0.004055 0.000000
# 2 -0.000786 0.009363 0.001909 0.000000 -0.000012 0.000000
# 3 -0.001086 0.001909 0.039153 0.000000 -0.004504 0.000000
# 4 0.000000 0.000000 0.000000 0.071271 0.000000 0.061561
# 5 -0.004055 -0.000012 -0.004504 0.000000 0.032670 0.000000
# 6 0.000000 0.000000 0.000000 0.061561 0.000000 0.312908
#
#
# Mechanical properties :
#
#
# Convention : Reuss Voigt Hill
#
# Bulk Modulus (GPa) = 16.89682 27.57996 22.23839
# Shear Modulus (GPa) = 10.08864 25.95599 18.02232
#
# Velocity S-wave (km/s) = 2.13541 3.42519 2.85411
# Velocity P-wave (km/s) = 3.70367 5.30174 4.57305
#
# Compressibility (1/GPa) = 0.05918273
#
# Stress axis : x y z
#
# Youngs Moduli (GPa) = 94.42984 106.79828 25.54072
#
# Poissons Ratio (x) = 0.08390 0.02773
# Poissons Ratio (y) = 0.07419 -0.04877
# Poissons Ratio (z) = 0.10252 -0.20392
#
# Static dielectric constant tensor:
#      x y z
#    x 1.876300 0.000000 -0.034640 
#    y 0.000000 1.760500 0.000000 
#    z -0.034640 0.000000 1.855640 
# 
# From -- ./inp_files/94990.got.cif
#   From: 2010.05.17/outbox.cif.g08.bks.cpg/sg12_48_cif.got.tgz:94990.got - 2010.06.03 13:09:07.
