data_PCOD9217443
_publ_section_title
;
Structure prediction by ZEFSAII (Michael W. Deem and Ramdas Pophale) SiO2 
 PCOD9217443
Probable space group: C 2/M
;
_chemical_formula_sum "Si O2"
_cell_formula_units_Z 40
_cell_length_a 19.769048
_cell_length_b 8.908796
_cell_length_c 11.326459
_cell_angle_alpha 90.000000
_cell_angle_beta 89.203107
_cell_angle_gamma 90.000000
_cell_volume 1994.605078
_symmetry_space_group_name_H-M "C 2/M"
_symmetry_group_IT_number 12
_symmetry_cell_setting 'monoclinic'
loop_
_space_group_symop_operation_xyz
x,y,z
-x,y,-z
-x,-y,-z
x,-y,z
1/2+x,1/2+y,z
1/2-x,1/2+y,-z
1/2-x,1/2-y,-z
1/2+x,1/2-y,z
loop_
_atom_site_type_symbol
_atom_site_label
_atom_site_fract_x
_atom_site_fract_y
_atom_site_fract_z
Si Si1 0.222928 0.177748 0.380864
Si Si2 0.607409 0.822289 0.241392
Si Si3 0.156093 0.175708 0.747793
Si Si4 0.175623 0.822797 0.013502
Si Si5 0.530308 0.178220 0.627435
O O1 0.250000 0.250000 0.500000
O O2 0.152129 0.247317 0.342892
O O3 0.277845 0.226790 0.282216
O O4 0.218487 0.000000 0.391226
O O5 0.632711 0.752643 0.118305
O O6 0.529258 0.799023 0.275689
O O7 0.620709 0.000000 0.240614
O O8 0.095607 0.230382 0.666085
O O9 0.171319 0.000000 0.726495
O O10 0.140349 0.194232 0.886626
O O11 0.183159 0.000000 0.037969
O O12 0.250000 0.750000 0.000000
O O13 0.500000 0.218894 0.500000
O O14 0.547099 0.000000 0.622501
#
# Coordination Sequence:
#
# PCOD9217443 Si02
#       5
#     8   8   8   8   8
#     4  12  24  39  63  92 125 164 211 264 318 378
#     4  11  23  40  64  94 128 166 214 265 318 380
#     4  11  24  41  64  93 126 165 213 264 316 378
#     4  11  23  40  64  93 128 168 212 266 321 378
#     4  10  23  43  65  91 127 170 212 261 321 383
#
# _framework density 20.054095
#
# number of rings (size 3 to 8) (size 9 to 14) (size 15 to 20)
#    0.000    1.000    2.000    4.800    0.000    6.800 
#    0.000    4.000    0.000    0.000    0.000    0.000 
#    0.000    0.000    0.000    0.000    0.000    0.000 
#
# Total GULP energy -111901.392408 kJ/mol
# GULP energy per Si atom -5595.069620 kJ/mol
# Density = 2.000845 g / cm^3
# Si number density = 20.054095 Si / 1000 Ang^3
#
#
#
# Elastic Constant Matrix: (Units=GPa)
#
#
# Indices 1 2 3 4 5 6 
#
# 1 41.1165 22.5913 -8.8567 0.0000 6.4568 0.0000
# 2 22.5913 90.9618 13.6793 0.0000 -3.7669 0.0000
# 3 -8.8567 13.6793 65.6867 0.0000 -4.5134 0.0000
# 4 0.0000 0.0000 0.0000 38.9108 0.0000 1.4276
# 5 6.4568 -3.7669 -4.5134 0.0000 34.4300 0.0000
# 6 0.0000 0.0000 0.0000 1.4276 0.0000 28.3665
#
#
#
# Elastic Compliance Matrix: (Units=1/GPa)
#
#
# Indices 1 2 3 4 5 6 
#
# 1 0.031394 -0.008903 0.005667 0.000000 -0.006119 0.000000
# 2 -0.008903 0.013904 -0.003912 0.000000 0.002678 0.000000
# 3 0.005667 -0.003912 0.016852 0.000000 0.000718 0.000000
# 4 0.000000 0.000000 0.000000 0.025747 0.000000 -0.001296
# 5 -0.006119 0.002678 0.000718 0.000000 0.030579 0.000000
# 6 0.000000 0.000000 0.000000 -0.001296 0.000000 0.035318
#
#
# Mechanical properties :
#
#
# Convention : Reuss Voigt Hill
#
# Bulk Modulus (GPa) = 20.89697 28.06589 24.48143
# Shear Modulus (GPa) = 27.16781 31.69821 29.43301
#
# Velocity S-wave (km/s) = 3.68465 3.98003 3.83519
# Velocity P-wave (km/s) = 5.34277 5.92844 5.64320
#
# Compressibility (1/GPa) = 0.04785384
#
# Stress axis : x y z
#
# Youngs Moduli (GPa) = 31.85317 71.92242 59.34076
#
# Poissons Ratio (x) = 0.64030 -0.33625
# Poissons Ratio (y) = 0.28358 0.23213
# Poissons Ratio (z) = -0.18050 0.28135
#
# Static dielectric constant tensor:
#      x y z
#    x 1.685610 0.000000 -0.021760 
#    y 0.000000 1.670630 0.000000 
#    z -0.021760 0.000000 1.746620 
# 
# From -- ./inp_files/151685.got.cif
#   From: 2010.05.17/outbox.cif.g08.bks.cpg/sg12_76_cif.got.tgz:151685.got - 2010.06.03 13:09:07.
