data_PCOD9217575
_publ_section_title
;
Structure prediction by ZEFSAII (Michael W. Deem and Ramdas Pophale) SiO2 
 PCOD9217575
Probable space group: C 2/M
;
_chemical_formula_sum "Si O2"
_cell_formula_units_Z 60
_cell_length_a 14.821765
_cell_length_b 27.399375
_cell_length_c 15.064232
_cell_angle_alpha 90.000000
_cell_angle_beta 27.745372
_cell_angle_gamma 90.000000
_cell_volume 2848.048683
_symmetry_space_group_name_H-M "C 2/M"
_symmetry_group_IT_number 12
_symmetry_cell_setting 'monoclinic'
loop_
_space_group_symop_operation_xyz
x,y,z
-x,y,-z
-x,-y,-z
x,-y,z
1/2+x,1/2+y,z
1/2-x,1/2+y,-z
1/2-x,1/2-y,-z
1/2+x,1/2-y,z
loop_
_atom_site_type_symbol
_atom_site_label
_atom_site_fract_x
_atom_site_fract_y
_atom_site_fract_z
Si Si1 0.609485 0.942410 0.058716
Si Si2 0.601983 0.794450 0.637588
Si Si3 0.255091 0.603513 0.519816
Si Si4 0.156159 0.702452 0.298644
Si Si5 0.376655 0.604976 0.681185
Si Si6 0.000000 0.127510 0.000000
Si Si7 0.169378 0.698933 0.782731
Si Si8 0.002034 0.055509 0.162168
O O1 0.416060 0.916940 0.267042
O O2 0.571970 0.000000 0.078928
O O3 0.701706 0.920103 0.887725
O O4 0.788268 0.937159 0.972850
O O5 0.750000 0.750000 0.500000
O O6 0.681642 0.847086 0.537400
O O7 0.424353 0.782915 0.727859
O O8 0.580461 0.802326 0.761734
O O9 0.454067 0.618172 0.396820
O O10 0.332155 0.564286 0.382218
O O11 0.322651 0.663774 0.139967
O O12 0.219161 0.750657 0.297837
O O13 0.000000 0.678819 0.500000
O O14 0.500000 0.574502 0.500000
O O15 0.295140 0.652035 0.700665
O O16 0.976623 0.093545 0.105763
O O17 0.000000 0.699638 0.000000
O O18 0.995253 0.000000 0.136003
#
# Coordination Sequence:
#
# PCOD9217575 Si02
#       8
#     8   8   8   8   8   4   8   8
#     4  10  23  44  69 102 138 177 232 289 347 422
#     4  12  24  41  72  98 136 188 229 284 349 411
#     4  11  22  42  69  99 137 182 226 283 351 411
#     4  12  25  45  68 102 143 182 233 294 347 414
#     4  11  23  41  68  98 136 180 223 278 339 411
#     4  12  25  44  68 104 138 180 233 296 348 416
#     4  12  25  45  67 100 143 182 235 283 341 421
#     4  10  23  43  69  99 137 182 232 290 354 416
#
# _framework density 21.067056000000001
#
# number of rings (size 3 to 8) (size 9 to 14) (size 15 to 20)
#    0.000    0.800    3.333    4.200    0.000    2.400 
#    0.000    0.667    0.000    4.000    0.000    0.000 
#    0.000    0.000    0.000    0.000    0.000    0.000 
#
# Total GULP energy -167571.685853 kJ/mol
# GULP energy per Si atom -5585.722862 kJ/mol
# Density = 2.101911 g / cm^3
# Si number density = 21.067056 Si / 1000 Ang^3
#
#
#
# Elastic Constant Matrix: (Units=GPa)
#
#
# Indices 1 2 3 4 5 6 
#
# 1 115.2509 27.9766 27.1813 -0.0140 13.2615 0.0081
# 2 27.9766 92.2598 28.4376 0.0006 4.5908 0.0088
# 3 27.1813 28.4376 142.5209 -0.0328 7.9498 0.0091
# 4 -0.0140 0.0006 -0.0328 52.2883 0.0148 3.4766
# 5 13.2615 4.5908 7.9498 0.0148 25.8399 -0.0053
# 6 0.0081 0.0088 0.0091 3.4766 -0.0053 12.2501
#
#
#
# Elastic Compliance Matrix: (Units=1/GPa)
#
#
# Indices 1 2 3 4 5 6 
#
# 1 0.010056 -0.002468 -0.001182 0.000004 -0.004359 -0.000007
# 2 -0.002468 0.012203 -0.001947 -0.000002 -0.000302 -0.000005
# 3 -0.001182 -0.001947 0.007710 0.000005 -0.001419 -0.000006
# 4 0.000004 -0.000002 0.000005 0.019493 -0.000016 -0.005532
# 5 -0.004359 -0.000302 -0.001419 -0.000016 0.041427 0.000026
# 6 -0.000007 -0.000005 -0.000006 -0.005532 0.000026 0.083202
#
#
# Mechanical properties :
#
#
# Convention : Reuss Voigt Hill
#
# Bulk Modulus (GPa) = 53.26729 57.46916 55.36822
# Shear Modulus (GPa) = 26.10371 35.83806 30.97089
#
# Velocity S-wave (km/s) = 3.52387 4.12897 3.83836
# Velocity P-wave (km/s) = 6.47274 7.07598 6.78107
#
# Compressibility (1/GPa) = 0.01877325
#
# Stress axis : x y z
#
# Youngs Moduli (GPa) = 99.44080 81.94955 129.70667
#
# Poissons Ratio (x) = 0.20226 0.15335
# Poissons Ratio (y) = 0.24543 0.25257
# Poissons Ratio (z) = 0.11757 0.15958
#
# Static dielectric constant tensor:
#      x y z
#    x 1.738760 0.000020 0.042800 
#    y 0.000020 1.778190 -0.000020 
#    z 0.042800 -0.000020 1.742120 
# 
# From -- ./inp_files/219213.got.cif
#   From: 2010.05.17/outbox.cif.g08.bks.cpg/sg12_110_cif.got.tgz:219213.got - 2010.06.03 13:09:07.
