data_PCOD9217293
_publ_section_title
;
Structure prediction by ZEFSAII (Michael W. Deem and Ramdas Pophale) SiO2 
 PCOD9217293
Probable space group: C 2/M
;
_chemical_formula_sum "Si O2"
_cell_formula_units_Z 50
_cell_length_a 24.335432
_cell_length_b 9.721038
_cell_length_c 11.225575
_cell_angle_alpha 90.000000
_cell_angle_beta 107.981098
_cell_angle_gamma 90.000000
_cell_volume 2525.882529
_symmetry_space_group_name_H-M "C 2/M"
_symmetry_group_IT_number 12
_symmetry_cell_setting 'monoclinic'
loop_
_space_group_symop_operation_xyz
x,y,z
-x,y,-z
-x,-y,-z
x,-y,z
1/2+x,1/2+y,z
1/2-x,1/2+y,-z
1/2-x,1/2-y,-z
1/2+x,1/2-y,z
loop_
_atom_site_type_symbol
_atom_site_label
_atom_site_fract_x
_atom_site_fract_y
_atom_site_fract_z
Si Si1 0.867273 0.846278 0.366103
Si Si2 0.940873 0.161704 0.036280
Si Si3 0.734108 0.660016 0.875821
Si Si4 0.853328 0.655922 0.830465
Si Si5 0.526071 0.251557 0.684212
Si Si6 0.899651 0.662889 0.596415
Si Si7 0.500000 0.000000 0.500000
O O1 0.825547 0.804593 0.229498
O O2 0.932678 0.852854 0.360763
O O3 0.864102 0.733526 0.467775
O O4 0.849759 0.000000 0.394100
O O5 0.950754 0.242699 0.165991
O O6 0.928966 0.000000 0.052878
O O7 0.890812 0.233505 0.927022
O O8 0.000000 0.168830 0.000000
O O9 0.730518 0.500000 0.909213
O O10 0.786359 0.673903 0.816730
O O11 0.750000 0.750000 0.000000
O O12 0.870063 0.500000 0.879964
O O13 0.866858 0.663124 0.699402
O O14 0.456660 0.258007 0.648903
O O15 0.530696 0.118222 0.605257
O O16 0.917548 0.500000 0.580688
#
# Coordination Sequence:
#
# PCOD9217293 Si02
#       7
#     8   8   8   8   8   8   2
#     4  11  24  39  61  89 125 166 209 255 314 373
#     4  11  24  39  61  95 130 165 203 254 317 382
#     4  10  23  45  65  89 120 160 209 259 310 372
#     4  10  23  42  66  92 124 165 208 259 311 369
#     4  12  21  39  61  89 127 166 204 261 305 368
#     4  11  22  40  62  92 127 159 207 261 308 373
#     4  12  24  40  60  92 128 164 218 258 302 374
#
# _framework density 19.795059999999999
#
# number of rings (size 3 to 8) (size 9 to 14) (size 15 to 20)
#    0.000    1.120    4.000    1.440    1.120    6.080 
#    0.000    0.000    0.000    0.000    0.000    0.000 
#    0.000    0.000    0.000    0.000    0.000    0.000 
#
# Total GULP energy -139235.567340 kJ/mol
# GULP energy per Si atom -5569.422694 kJ/mol
# Density = 1.975001 g / cm^3
# Si number density = 19.795060 Si / 1000 Ang^3
#
#
#
# Elastic Constant Matrix: (Units=GPa)
#
#
# Indices 1 2 3 4 5 6 
#
# 1 75.8047 35.2434 33.6527 0.0000 -0.6584 0.0000
# 2 35.2434 96.8381 81.8381 0.0000 7.9498 0.0000
# 3 33.6527 81.8381 140.5789 0.0000 -5.3039 0.0000
# 4 0.0000 0.0000 0.0000 50.5395 0.0000 -9.7130
# 5 -0.6584 7.9498 -5.3039 0.0000 27.4251 0.0000
# 6 0.0000 0.0000 0.0000 -9.7130 0.0000 26.1447
#
#
#
# Elastic Compliance Matrix: (Units=1/GPa)
#
#
# Indices 1 2 3 4 5 6 
#
# 1 0.016018 -0.005518 -0.000552 0.000000 0.001877 0.000000
# 2 -0.005518 0.024261 -0.013169 0.000000 -0.009712 0.000000
# 3 -0.000552 -0.013169 0.015166 0.000000 0.006737 0.000000
# 4 0.000000 0.000000 0.000000 0.021308 0.000000 0.007916
# 5 0.001877 -0.009712 0.006737 0.000000 0.040626 0.000000
# 6 0.000000 0.000000 0.000000 0.007916 0.000000 0.041190
#
#
# Mechanical properties :
#
#
# Convention : Reuss Voigt Hill
#
# Bulk Modulus (GPa) = 58.93229 68.29890 63.61559
# Shear Modulus (GPa) = 24.66664 31.65436 28.16050
#
# Velocity S-wave (km/s) = 3.53384 4.00322 3.77583
# Velocity P-wave (km/s) = 6.81811 7.47968 7.15654
#
# Compressibility (1/GPa) = 0.01696863
#
# Stress axis : x y z
#
# Youngs Moduli (GPa) = 62.42877 41.21780 65.93593
#
# Poissons Ratio (x) = 0.22742 0.03637
# Poissons Ratio (y) = 0.34446 0.86833
# Poissons Ratio (z) = 0.03444 0.54281
#
# Static dielectric constant tensor:
#      x y z
#    x 1.647350 0.000000 0.029860 
#    y 0.000000 1.152420 0.000000 
#    z 0.029860 0.000000 1.643040 
# 
# From -- ./inp_files/181188.got.cif
#   From: 2010.05.17/outbox.cif.g08.bks.cpg/sg12_91_cif.got.tgz:181188.got - 2010.06.03 13:09:07.
