data_PCOD9217633
_publ_section_title
;
Structure prediction by ZEFSAII (Michael W. Deem and Ramdas Pophale) SiO2 
 PCOD9217633
Probable space group: C 2/M
;
_chemical_formula_sum "Si O2"
_cell_formula_units_Z 40
_cell_length_a 14.381334
_cell_length_b 24.617674
_cell_length_c 7.433872
_cell_angle_alpha 90.000000
_cell_angle_beta 141.180543
_cell_angle_gamma 90.000000
_cell_volume 1649.824187
_symmetry_space_group_name_H-M "C 2/M"
_symmetry_group_IT_number 12
_symmetry_cell_setting 'monoclinic'
loop_
_space_group_symop_operation_xyz
x,y,z
-x,y,-z
-x,-y,-z
x,-y,z
1/2+x,1/2+y,z
1/2-x,1/2+y,-z
1/2-x,1/2-y,-z
1/2+x,1/2-y,z
loop_
_atom_site_type_symbol
_atom_site_label
_atom_site_fract_x
_atom_site_fract_y
_atom_site_fract_z
Si Si1 0.906534 0.692310 0.177101
Si Si2 0.165717 0.618932 0.427587
Si Si3 0.167609 0.000000 0.830133
Si Si4 0.331267 0.283435 0.787279
Si Si5 0.675334 0.385711 0.716486
Si Si6 0.134534 0.500000 0.553155
O O1 0.739017 0.657586 0.299509
O O2 0.000000 0.704358 0.500000
O O3 0.013744 0.654135 0.213588
O O4 0.761731 0.655919 0.969531
O O5 0.266809 0.621851 0.400077
O O6 0.133827 0.556846 0.440436
O O7 0.233631 0.945296 0.853585
O O8 0.000000 0.000000 0.500000
O O9 0.208036 0.000000 0.100941
O O10 0.250000 0.250000 0.500000
O O11 0.346958 0.244372 0.981503
O O12 0.500000 0.293456 0.000000
O O13 0.500000 0.382348 0.500000
O O14 0.000000 0.500000 0.500000
#
# Coordination Sequence:
#
# PCOD9217633 Si02
#       6
#     8   8   4   8   8   4
#     4  12  26  49  79 118 161 213 277 341 413 499
#     4  12  26  50  86 111 161 217 278 332 421 482
#     4  10  23  44  67 105 159 192 254 336 404 477
#     4  12  25  52  78 116 167 217 276 339 405 504
#     4  11  24  47  77 114 157 212 271 339 416 496
#     4  12  27  52  82 121 157 214 282 342 403 500
#
# _framework density 24.245007999999999
#
# number of rings (size 3 to 8) (size 9 to 14) (size 15 to 20)
#    0.000    0.400    4.000    4.200    0.000    5.600 
#    0.000   11.500    0.000    1.200    0.000    0.000 
#    0.000    0.000    0.000    0.000    0.000    0.000 
#
# Total GULP energy -111635.169334 kJ/mol
# GULP energy per Si atom -5581.758467 kJ/mol
# Density = 2.418983 g / cm^3
# Si number density = 24.245008 Si / 1000 Ang^3
#
#
#
# Elastic Constant Matrix: (Units=GPa)
#
#
# Indices 1 2 3 4 5 6 
#
# 1 167.2067 64.4044 65.8048 0.0000 -13.2886 0.0000
# 2 64.4044 207.0273 71.2249 0.0000 -14.6064 0.0000
# 3 65.8048 71.2249 152.4968 0.0000 -6.0801 0.0000
# 4 0.0000 0.0000 0.0000 121.8354 0.0000 -2.4714
# 5 -13.2886 -14.6064 -6.0801 0.0000 53.6954 0.0000
# 6 0.0000 0.0000 0.0000 -2.4714 0.0000 20.7865
#
#
#
# Elastic Compliance Matrix: (Units=1/GPa)
#
#
# Indices 1 2 3 4 5 6 
#
# 1 0.007636 -0.001397 -0.002594 0.000000 0.001216 0.000000
# 2 -0.001397 0.006098 -0.002203 0.000000 0.001064 0.000000
# 3 -0.002594 -0.002203 0.008695 0.000000 -0.000257 0.000000
# 4 0.000000 0.000000 0.000000 0.008228 0.000000 0.000978
# 5 0.001216 0.001064 -0.000257 0.000000 0.019185 0.000000
# 6 0.000000 0.000000 0.000000 0.000978 0.000000 0.048224
#
#
# Mechanical properties :
#
#
# Convention : Reuss Voigt Hill
#
# Bulk Modulus (GPa) = 99.58719 103.28877 101.43798
# Shear Modulus (GPa) = 43.93602 60.94991 52.44296
#
# Velocity S-wave (km/s) = 4.26157 5.01934 4.65590
# Velocity P-wave (km/s) = 8.08574 8.73420 8.41622
#
# Compressibility (1/GPa) = 0.01004145
#
# Stress axis : x y z
#
# Youngs Moduli (GPa) = 130.95154 163.99317 115.00273
#
# Poissons Ratio (x) = 0.22916 0.29833
# Poissons Ratio (y) = 0.18299 0.25331
# Poissons Ratio (z) = 0.33970 0.36122
#
# Static dielectric constant tensor:
#      x y z
#    x 2.184930 0.000000 0.045710 
#    y 0.000000 1.620780 0.000000 
#    z 0.045710 0.000000 1.991920 
# 
# From -- ./inp_files/78943.got.cif
#   From: 2010.05.17/outbox.cif.g08.bks.cpg/sg12_40_cif.got.tgz:78943.got - 2010.06.03 13:09:07.
