data_PCOD9217771
_publ_section_title
;
Structure prediction by ZEFSAII (Michael W. Deem and Ramdas Pophale) SiO2 
 PCOD9217771
Probable space group: C 2/M
;
_chemical_formula_sum "Si O2"
_cell_formula_units_Z 38
_cell_length_a 8.741711
_cell_length_b 15.441334
_cell_length_c 13.920303
_cell_angle_alpha 90.000000
_cell_angle_beta 99.626075
_cell_angle_gamma 90.000000
_cell_volume 1852.557277
_symmetry_space_group_name_H-M "C 2/M"
_symmetry_group_IT_number 12
_symmetry_cell_setting 'monoclinic'
loop_
_space_group_symop_operation_xyz
x,y,z
-x,y,-z
-x,-y,-z
x,-y,z
1/2+x,1/2+y,z
1/2-x,1/2+y,-z
1/2-x,1/2-y,-z
1/2+x,1/2-y,z
loop_
_atom_site_type_symbol
_atom_site_label
_atom_site_fract_x
_atom_site_fract_y
_atom_site_fract_z
Si Si1 0.183143 0.000000 0.051552
Si Si2 0.308572 0.324551 0.220915
Si Si3 0.500000 0.000000 0.000000
Si Si4 0.826693 0.825221 0.444873
Si Si5 0.376775 0.000000 0.572000
Si Si6 0.614323 0.000000 0.214255
Si Si7 0.907108 0.820625 0.890624
O O1 0.190954 0.908140 0.105929
O O2 0.306843 0.000000 0.978060
O O3 0.000000 0.000000 0.000000
O O4 0.331972 0.296650 0.333637
O O5 0.219054 0.414865 0.217337
O O6 0.203303 0.257819 0.150172
O O7 0.468138 0.333524 0.180298
O O8 0.492167 0.000000 0.115699
O O9 0.750000 0.750000 0.500000
O O10 0.728352 0.913657 0.443677
O O11 0.000000 0.840948 0.500000
O O12 0.500000 0.000000 0.500000
O O13 0.455567 0.000000 0.685755
O O14 0.000000 0.802323 0.000000
#
# Coordination Sequence:
#
# PCOD9217771 Si02
#       7
#     4   8   2   8   4   4   8
#     4  10  24  46  66  95 138 181 230 282 333 410
#     4  11  24  42  65  97 134 171 229 274 340 410
#     4  12  24  44  74  96 136 186 232 262 358 406
#     4  11  23  44  68  96 132 179 220 287 348 408
#     4  10  23  45  68  98 132 169 233 288 340 410
#     4  10  24  41  67  95 134 179 215 285 335 411
#     4  11  23  41  64  97 133 176 219 278 336 401
#
# _framework density 20.512184999999999
#
# number of rings (size 3 to 8) (size 9 to 14) (size 15 to 20)
#    0.000    1.263    0.000    6.000    4.421    1.684 
#    3.789    0.000    0.000    0.000    0.000    0.000 
#    0.000    0.000    0.000    0.000    0.000    0.000 
#
# Total GULP energy -105998.186704 kJ/mol
# GULP energy per Si atom -5578.851932 kJ/mol
# Density = 2.046550 g / cm^3
# Si number density = 20.512185 Si / 1000 Ang^3
#
#
#
# Elastic Constant Matrix: (Units=GPa)
#
#
# Indices 1 2 3 4 5 6 
#
# 1 97.2191 29.6519 63.6965 0.0000 -21.7035 0.0000
# 2 29.6519 132.5558 57.8511 0.0000 -7.4454 0.0000
# 3 63.6965 57.8511 180.4027 0.0000 -10.9377 0.0000
# 4 0.0000 0.0000 0.0000 13.1243 0.0000 -11.7156
# 5 -21.7035 -7.4454 -10.9377 0.0000 46.3472 0.0000
# 6 0.0000 0.0000 0.0000 -11.7156 0.0000 29.1755
#
#
#
# Elastic Compliance Matrix: (Units=1/GPa)
#
#
# Indices 1 2 3 4 5 6 
#
# 1 0.014872 -0.001006 -0.004581 0.000000 0.005721 0.000000
# 2 -0.001006 0.008866 -0.002465 0.000000 0.000371 0.000000
# 3 -0.004581 -0.002465 0.007910 0.000000 -0.000675 0.000000
# 4 0.000000 0.000000 0.000000 0.118766 0.000000 0.047691
# 5 0.005721 0.000371 -0.000675 0.000000 0.024156 0.000000
# 6 0.000000 0.000000 0.000000 0.047691 0.000000 0.053426
#
#
# Mechanical properties :
#
#
# Convention : Reuss Voigt Hill
#
# Bulk Modulus (GPa) = 64.33932 79.17517 71.75724
# Shear Modulus (GPa) = 20.05755 34.99462 27.52609
#
# Velocity S-wave (km/s) = 3.13043 4.13491 3.66722
# Velocity P-wave (km/s) = 6.67088 7.84088 7.27943
#
# Compressibility (1/GPa) = 0.01554259
#
# Stress axis : x y z
#
# Youngs Moduli (GPa) = 67.24125 112.79263 126.41461
#
# Poissons Ratio (x) = 0.11346 0.57917
# Poissons Ratio (y) = 0.06764 0.31166
# Poissons Ratio (z) = 0.30807 0.27808
#
# Static dielectric constant tensor:
#      x y z
#    x 1.764730 0.000000 0.030930 
#    y 0.000000 1.711910 0.000000 
#    z 0.030930 0.000000 1.742840 
# 
# From -- ./inp_files/119109.got.cif
#   From: 2010.05.17/outbox.cif.g08.bks.cpg/sg12_60_cif.got.tgz:119109.got - 2010.06.03 13:09:07.
