data_PCOD9217733
_publ_section_title
;
Structure prediction by ZEFSAII (Michael W. Deem and Ramdas Pophale) SiO2 
 PCOD9217733
Probable space group: C 2/M
;
_chemical_formula_sum "Si O2"
_cell_formula_units_Z 40
_cell_length_a 17.106506
_cell_length_b 23.838219
_cell_length_c 9.500656
_cell_angle_alpha 90.000000
_cell_angle_beta 152.205479
_cell_angle_gamma 90.000000
_cell_volume 1806.575168
_symmetry_space_group_name_H-M "C 2/M"
_symmetry_group_IT_number 12
_symmetry_cell_setting 'monoclinic'
loop_
_space_group_symop_operation_xyz
x,y,z
-x,y,-z
-x,-y,-z
x,-y,z
1/2+x,1/2+y,z
1/2-x,1/2+y,-z
1/2-x,1/2-y,-z
1/2+x,1/2-y,z
loop_
_atom_site_type_symbol
_atom_site_label
_atom_site_fract_x
_atom_site_fract_y
_atom_site_fract_z
Si Si1 0.504006 0.936990 0.337420
Si Si2 0.910776 0.150698 0.709330
Si Si3 0.678609 0.260316 0.040605
Si Si4 0.639644 0.565038 0.614040
Si Si5 0.104759 0.319117 0.387463
O O1 0.500000 0.931157 0.500000
O O2 0.599451 0.884140 0.424874
O O3 0.569897 0.000000 0.410517
O O4 0.317781 0.933418 0.976172
O O5 0.863814 0.099698 0.534423
O O6 0.743287 0.183755 0.487139
O O7 0.041793 0.190173 0.836733
O O8 0.000000 0.135285 0.000000
O O9 0.579023 0.205237 0.935251
O O10 0.750000 0.250000 0.000000
O O11 0.828022 0.281676 0.376788
O O12 0.500000 0.587100 0.500000
O O13 0.599262 0.500000 0.519679
#
# Coordination Sequence:
#
# PCOD9217733 Si02
#       5
#     8   8   8   8   8
#     4  10  23  44  71 103 141 183 234 289 345 418
#     4  10  25  45  68 103 145 181 229 288 355 418
#     4  11  24  43  67  99 135 183 233 281 342 416
#     4  10  24  44  72 105 138 185 238 288 347 412
#     4  11  25  44  68 102 141 183 228 286 354 410
#
# _framework density 22.141344
#
# number of rings (size 3 to 8) (size 9 to 14) (size 15 to 20)
#    0.000    1.600    0.000    2.400   11.200    2.000 
#    0.000    2.000    0.000    0.000    0.000    0.000 
#    0.000    0.000    0.000    0.000    0.000    0.000 
#
# Total GULP energy -111903.598246 kJ/mol
# GULP energy per Si atom -5595.179912 kJ/mol
# Density = 2.209095 g / cm^3
# Si number density = 22.141344 Si / 1000 Ang^3
#
#
#
# Elastic Constant Matrix: (Units=GPa)
#
#
# Indices 1 2 3 4 5 6 
#
# 1 126.3238 34.8450 71.1731 0.0000 -17.8751 0.0000
# 2 34.8450 106.4422 68.0846 0.0000 -23.7949 0.0000
# 3 71.1731 68.0846 96.1113 0.0000 -20.0640 0.0000
# 4 0.0000 0.0000 0.0000 38.5734 0.0000 0.5655
# 5 -17.8751 -23.7949 -20.0640 0.0000 31.4064 0.0000
# 6 0.0000 0.0000 0.0000 0.5655 0.0000 34.0477
#
#
#
# Elastic Compliance Matrix: (Units=1/GPa)
#
#
# Indices 1 2 3 4 5 6 
#
# 1 0.014655 0.004446 -0.013336 0.000000 0.003190 0.000000
# 2 0.004446 0.019584 -0.015623 0.000000 0.007387 0.000000
# 3 -0.013336 -0.015623 0.031492 0.000000 0.000692 0.000000
# 4 0.000000 0.000000 0.000000 0.025931 0.000000 -0.000431
# 5 0.003190 0.007387 0.000692 0.000000 0.039695 0.000000
# 6 0.000000 0.000000 0.000000 -0.000431 0.000000 0.029378
#
#
# Mechanical properties :
#
#
# Convention : Reuss Voigt Hill
#
# Bulk Modulus (GPa) = 59.86547 75.23142 67.54844
# Shear Modulus (GPa) = 23.22034 31.12382 27.17208
#
# Velocity S-wave (km/s) = 3.24193 3.75332 3.50696
# Velocity P-wave (km/s) = 6.41171 7.26875 6.85364
#
# Compressibility (1/GPa) = 0.01670412
#
# Stress axis : x y z
#
# Youngs Moduli (GPa) = 68.23707 51.06202 31.75426
#
# Poissons Ratio (x) = -0.22700 0.42347
# Poissons Ratio (y) = -0.30336 0.49610
# Poissons Ratio (z) = 0.90999 0.79775
#
# Static dielectric constant tensor:
#      x y z
#    x 1.788610 0.000000 0.028780 
#    y 0.000000 1.825010 0.000000 
#    z 0.028780 0.000000 1.859770 
# 
# From -- ./inp_files/79308.got.cif
#   From: 2010.05.17/outbox.cif.g08.bks.cpg/sg12_40_cif.got.tgz:79308.got - 2010.06.03 13:09:07.
