data_PCOD9217453
_publ_section_title
;
Structure prediction by ZEFSAII (Michael W. Deem and Ramdas Pophale) SiO2 
 PCOD9217453
Probable space group: C 2/M
;
_chemical_formula_sum "Si O2"
_cell_formula_units_Z 48
_cell_length_a 22.136332
_cell_length_b 12.600936
_cell_length_c 7.238787
_cell_angle_alpha 90.000000
_cell_angle_beta 79.995739
_cell_angle_gamma 90.000000
_cell_volume 1988.474500
_symmetry_space_group_name_H-M "C 2/M"
_symmetry_group_IT_number 12
_symmetry_cell_setting 'monoclinic'
loop_
_space_group_symop_operation_xyz
x,y,z
-x,y,-z
-x,-y,-z
x,-y,z
1/2+x,1/2+y,z
1/2-x,1/2+y,-z
1/2-x,1/2-y,-z
1/2+x,1/2-y,z
loop_
_atom_site_type_symbol
_atom_site_label
_atom_site_fract_x
_atom_site_fract_y
_atom_site_fract_z
Si Si1 0.456656 0.620937 0.303606
Si Si2 0.727551 0.382593 0.650838
Si Si3 0.930928 0.660691 0.511968
Si Si4 0.835916 0.674151 0.872773
Si Si5 0.094715 0.880973 0.084491
Si Si6 0.673805 0.155719 0.700132
O O1 0.446255 0.500000 0.376583
O O2 0.436556 0.714792 0.449451
O O3 0.529177 0.634099 0.220435
O O4 0.424584 0.630522 0.120096
O O5 0.701314 0.500000 0.696704
O O6 0.776146 0.352638 0.785819
O O7 0.682769 0.282927 0.666237
O O8 0.767241 0.385845 0.441745
O O9 0.893352 0.637521 0.718341
O O10 0.829395 0.631296 0.082631
O O11 0.000000 0.622359 0.500000
O O12 0.852954 0.798282 0.888268
O O13 0.887704 0.619359 0.370350
O O14 0.115557 0.000000 0.109653
#
# Coordination Sequence:
#
# PCOD9217453 Si02
#       6
#     8   8   8   8   8   8
#     4   9  17  30  47  79 130 177 206 235 292 370
#     4  10  24  46  68  91 120 161 217 272 317 370
#     4  11  21  33  58  93 130 170 205 246 298 379
#     4  11  21  37  64  95 125 166 216 250 306 370
#     4   9  17  30  52  84 129 173 204 240 295 369
#     4  10  23  43  65  93 129 165 205 260 323 375
#
# _framework density 24.139109000000001
#
# number of rings (size 3 to 8) (size 9 to 14) (size 15 to 20)
#    0.000    2.000    3.333    1.500    0.000    3.667 
#    0.000    6.667    0.000    8.000    0.000   11.667 
#    0.000    0.000    0.000    0.000    0.000    0.000 
#
# Total GULP energy -134239.556529 kJ/mol
# GULP energy per Si atom -5593.314855 kJ/mol
# Density = 2.408417 g / cm^3
# Si number density = 24.139109 Si / 1000 Ang^3
#
#
#
# Elastic Constant Matrix: (Units=GPa)
#
#
# Indices 1 2 3 4 5 6 
#
# 1 117.6940 21.4029 51.1007 0.0000 -9.5054 0.0000
# 2 21.4029 146.7758 19.9852 0.0000 4.8876 0.0000
# 3 51.1007 19.9852 177.8748 0.0000 -4.6541 0.0000
# 4 0.0000 0.0000 0.0000 -2.7173 0.0000 -13.2447
# 5 -9.5054 4.8876 -4.6541 0.0000 25.2526 0.0000
# 6 0.0000 0.0000 0.0000 -13.2447 0.0000 -6.2005
#
#
#
# Elastic Compliance Matrix: (Units=1/GPa)
#
#
# Indices 1 2 3 4 5 6 
#
# 1 0.010179 -0.001237 -0.002692 0.000000 0.003575 0.000000
# 2 -0.001237 0.007125 -0.000496 0.000000 -0.001936 0.000000
# 3 -0.002692 -0.000496 0.006458 0.000000 0.000273 0.000000
# 4 0.000000 0.000000 0.000000 0.039102 0.000000 -0.083524
# 5 0.003575 -0.001936 0.000273 0.000000 0.041371 0.000000
# 6 0.000000 0.000000 0.000000 -0.083524 0.000000 0.017136
#
#
# Mechanical properties :
#
#
# Convention : Reuss Voigt Hill
#
# Bulk Modulus (GPa) = 67.05331 69.70246 68.37789
# Shear Modulus (GPa) = 36.98470 26.59068 31.78769
#
# Velocity S-wave (km/s) = 3.91851 3.32258 3.63279
# Velocity P-wave (km/s) = 6.95062 6.60737 6.78117
#
# Compressibility (1/GPa) = 0.01491351
#
# Stress axis : x y z
#
# Youngs Moduli (GPa) = 98.24191 140.34180 154.84446
#
# Poissons Ratio (x) = 0.17358 0.41680
# Poissons Ratio (y) = 0.12151 0.07679
# Poissons Ratio (z) = 0.26444 0.06960
#
# Static dielectric constant tensor:
#      x y z
#    x 1.900130 0.000000 -0.013850 
#    y 0.000000 1.965900 0.000000 
#    z -0.013850 0.000000 1.925740 
# 
# From -- ./inp_files/94415.got.cif
#   From: 2010.05.17/outbox.cif.g08.bks.cpg/sg12_48_cif.got.tgz:94415.got - 2010.06.03 13:09:07.
