data_PCOD9217140
_publ_section_title
;
Structure prediction by ZEFSAII (Michael W. Deem and Ramdas Pophale) SiO2 
 PCOD9217140
Probable space group: C 2/M
;
_chemical_formula_sum "Si O2"
_cell_formula_units_Z 48
_cell_length_a 9.843467
_cell_length_b 9.618770
_cell_length_c 26.119788
_cell_angle_alpha 90.000000
_cell_angle_beta 84.298378
_cell_angle_gamma 90.000000
_cell_volume 2460.840044
_symmetry_space_group_name_H-M "C 2/M"
_symmetry_group_IT_number 12
_symmetry_cell_setting 'monoclinic'
loop_
_space_group_symop_operation_xyz
x,y,z
-x,y,-z
-x,-y,-z
x,-y,z
1/2+x,1/2+y,z
1/2-x,1/2+y,-z
1/2-x,1/2-y,-z
1/2+x,1/2-y,z
loop_
_atom_site_type_symbol
_atom_site_label
_atom_site_fract_x
_atom_site_fract_y
_atom_site_fract_z
Si Si1 0.330072 0.778033 0.373412
Si Si2 0.851965 0.662935 0.031961
Si Si3 0.301948 0.500000 0.548809
Si Si4 0.467921 0.162749 0.804191
Si Si5 0.170617 0.835969 0.863380
Si Si6 0.381048 0.500000 0.432674
Si Si7 0.611922 0.159788 0.308897
O O1 0.353323 0.631228 0.398800
O O2 0.473069 0.833545 0.346859
O O3 0.223153 0.758377 0.331106
O O4 0.267443 0.871252 0.420438
O O5 0.811168 0.500000 0.039525
O O6 0.857374 0.743792 0.085476
O O7 0.750000 0.750000 0.000000
O O8 0.000000 0.663830 0.000000
O O9 0.291830 0.500000 0.487934
O O10 0.461575 0.500000 0.556381
O O11 0.330402 0.172688 0.843044
O O12 0.580913 0.266398 0.821940
O O13 0.426175 0.197674 0.747666
O O14 0.513342 0.000000 0.803746
O O15 0.137574 0.000000 0.871615
O O16 0.662620 0.000000 0.306313
#
# Coordination Sequence:
#
# PCOD9217140 Si02
#       7
#     8   8   4   8   8   4   8
#     4  12  22  42  63  91 119 163 199 254 307 370
#     4  11  24  41  64  94 128 170 209 257 309 364
#     4  11  24  41  61  95 123 159 205 249 307 373
#     4  10  23  42  61  88 122 165 200 257 308 365
#     4  11  23  41  63  93 127 160 211 256 308 367
#     4  11  24  41  63  89 129 159 197 257 309 362
#     4  11  23  40  64  89 123 156 207 250 309 367
#
# _framework density 19.505534999999998
#
# number of rings (size 3 to 8) (size 9 to 14) (size 15 to 20)
#    0.000    1.000    3.333    3.500    0.000    6.667 
#    3.000    0.833    0.000    0.000    0.000    0.000 
#    0.000    0.000    0.000    0.000    0.000    0.000 
#
# Total GULP energy -134159.326069 kJ/mol
# GULP energy per Si atom -5589.971920 kJ/mol
# Density = 1.946114 g / cm^3
# Si number density = 19.505535 Si / 1000 Ang^3
#
#
#
# Elastic Constant Matrix: (Units=GPa)
#
#
# Indices 1 2 3 4 5 6 
#
# 1 45.5468 13.5763 -20.0748 0.0000 7.9575 0.0000
# 2 13.5763 114.4962 16.0772 0.0000 7.3258 0.0000
# 3 -20.0748 16.0772 66.5258 0.0000 7.4900 0.0000
# 4 0.0000 0.0000 0.0000 -47.9266 0.0000 32.2761
# 5 7.9575 7.3258 7.4900 0.0000 30.8756 0.0000
# 6 0.0000 0.0000 0.0000 32.2761 0.0000 -1.8431
#
#
#
# Elastic Compliance Matrix: (Units=1/GPa)
#
#
# Indices 1 2 3 4 5 6 
#
# 1 0.029839 -0.004506 0.011143 0.000000 -0.009324 0.000000
# 2 -0.004506 0.009805 -0.003699 0.000000 -0.000268 0.000000
# 3 0.011143 -0.003699 0.020061 0.000000 -0.006861 0.000000
# 4 0.000000 0.000000 0.000000 0.001933 0.000000 0.033853
# 5 -0.009324 -0.000268 -0.006861 0.000000 0.036519 0.000000
# 6 0.000000 0.000000 0.000000 0.033853 0.000000 0.050269
#
#
# Mechanical properties :
#
#
# Convention : Reuss Voigt Hill
#
# Bulk Modulus (GPa) = 15.24863 27.30289 21.27576
# Shear Modulus (GPa) = 30.41182 10.68718 20.54950
#
# Velocity S-wave (km/s) = 3.95288 2.34328 3.24932
# Velocity P-wave (km/s) = 5.35427 4.62051 5.00087
#
# Compressibility (1/GPa) = 0.06557965
#
# Stress axis : x y z
#
# Youngs Moduli (GPa) = 33.51324 101.99106 49.84886
#
# Poissons Ratio (x) = 0.45959 -0.55547
# Poissons Ratio (y) = 0.15102 0.18440
# Poissons Ratio (z) = -0.37344 0.37728
#
# Static dielectric constant tensor:
#      x y z
#    x 1.663800 0.000000 0.009310 
#    y 0.000000 1.675760 0.000000 
#    z 0.009310 0.000000 1.667260 
# 
# From -- ./inp_files/334793.got.cif
#   From: 2010.05.17/outbox.cif.g08.bks.cpg/sg12_168_cif.got.tgz:334793.got - 2010.06.03 13:09:07.
