data_PCOD9217098
_publ_section_title
;
Structure prediction by ZEFSAII (Michael W. Deem and Ramdas Pophale) SiO2 
 PCOD9217098
Probable space group: C 2/M
;
_chemical_formula_sum "Si O2"
_cell_formula_units_Z 58
_cell_length_a 11.912127
_cell_length_b 17.774583
_cell_length_c 19.259788
_cell_angle_alpha 90.000000
_cell_angle_beta 37.231085
_cell_angle_gamma 90.000000
_cell_volume 2467.277445
_symmetry_space_group_name_H-M "C 2/M"
_symmetry_group_IT_number 12
_symmetry_cell_setting 'monoclinic'
loop_
_space_group_symop_operation_xyz
x,y,z
-x,y,-z
-x,-y,-z
x,-y,z
1/2+x,1/2+y,z
1/2-x,1/2+y,-z
1/2-x,1/2-y,-z
1/2+x,1/2-y,z
loop_
_atom_site_type_symbol
_atom_site_label
_atom_site_fract_x
_atom_site_fract_y
_atom_site_fract_z
Si Si1 0.102102 0.912643 0.252250
Si Si2 0.433346 0.822416 0.154369
Si Si3 0.762532 0.190008 0.181950
Si Si4 0.115216 0.916387 0.777964
Si Si5 0.000000 0.500000 0.500000
Si Si6 0.219279 0.371628 0.484230
Si Si7 0.263594 0.414402 0.047951
Si Si8 0.867907 0.723042 0.344219
O O1 0.286953 0.874265 0.187311
O O2 0.002966 0.889348 0.228821
O O3 0.930178 0.901757 0.388456
O O4 0.144316 0.000000 0.220551
O O5 0.436841 0.744214 0.110546
O O6 0.624349 0.866643 0.068730
O O7 0.360372 0.800605 0.267563
O O8 0.774459 0.131438 0.113703
O O9 0.584214 0.241282 0.254238
O O10 0.739318 0.142191 0.264134
O O11 0.198535 0.000000 0.722209
O O12 0.962328 0.921335 0.913757
O O13 0.104292 0.432816 0.497279
O O14 0.160316 0.347795 0.590607
O O15 0.238504 0.291813 0.432408
O O16 0.195371 0.500000 0.092874
#
# Coordination Sequence:
#
# PCOD9217098 Si02
#       8
#     8   8   8   8   2   8   8   8
#     4  11  23  43  64  94 132 174 221 276 332 401
#     4  11  24  43  66  95 133 176 224 272 333 409
#     4  11  22  40  68  98 128 169 223 280 331 395
#     4  10  23  41  68  95 132 176 222 279 343 395
#     4  12  28  40  76 106 136 162 240 298 320 388
#     4  11  24  45  65 100 130 173 216 277 334 396
#     4  10  23  46  66  96 134 179 225 275 342 407
#     4  10  25  44  67  93 136 182 215 262 351 412
#
# _framework density 23.507691999999999
#
# number of rings (size 3 to 8) (size 9 to 14) (size 15 to 20)
#    0.000    1.379    2.069    2.069    5.793    2.759 
#    8.690    2.759    0.000    0.000    0.000    0.000 
#    0.000    0.000    0.000    0.000    0.000    0.000 
#
# Total GULP energy -161930.348715 kJ/mol
# GULP energy per Si atom -5583.805128 kJ/mol
# Density = 2.345419 g / cm^3
# Si number density = 23.507692 Si / 1000 Ang^3
#
#
#
# Elastic Constant Matrix: (Units=GPa)
#
#
# Indices 1 2 3 4 5 6 
#
# 1 122.3427 62.9388 -3.6746 -0.0007 -5.9245 0.0001
# 2 62.9388 133.3598 6.3952 -0.0016 -1.6743 0.0011
# 3 -3.6746 6.3952 22.8787 -0.0022 11.5601 0.0012
# 4 -0.0007 -0.0016 -0.0022 33.5167 0.0017 -6.3587
# 5 -5.9245 -1.6743 11.5601 0.0017 34.2604 -0.0005
# 6 0.0001 0.0011 0.0012 -6.3587 -0.0005 46.6330
#
#
#
# Elastic Compliance Matrix: (Units=1/GPa)
#
#
# Indices 1 2 3 4 5 6 
#
# 1 0.011043 -0.005344 0.002935 0.000000 0.000658 0.000000
# 2 -0.005344 0.010236 -0.004226 0.000000 0.001002 0.000000
# 3 0.002935 -0.004226 0.054501 0.000004 -0.018089 -0.000001
# 4 0.000000 0.000000 0.000004 0.030628 -0.000003 0.004176
# 5 0.000658 0.001002 -0.018089 -0.000003 0.035454 0.000000
# 6 0.000000 0.000000 -0.000001 0.004176 0.000000 0.022014
#
#
# Mechanical properties :
#
#
# Convention : Reuss Voigt Hill
#
# Bulk Modulus (GPa) = 15.99745 45.54444 30.77094
# Shear Modulus (GPa) = 25.25467 37.07680 31.16574
#
# Velocity S-wave (km/s) = 3.28123 3.97573 3.64506
# Velocity P-wave (km/s) = 4.60166 6.36330 5.55279
#
# Compressibility (1/GPa) = 0.06250996
#
# Stress axis : x y z
#
# Youngs Moduli (GPa) = 90.55413 97.69494 18.34825
#
# Poissons Ratio (x) = 0.52211 -0.05385
# Poissons Ratio (y) = 0.48394 0.07754
# Poissons Ratio (z) = -0.26577 0.41284
#
# Static dielectric constant tensor:
#      x y z
#    x 1.872010 0.000000 0.122370 
#    y 0.000000 1.949330 0.000000 
#    z 0.122370 0.000000 2.419110 
# 
# From -- ./inp_files/306345.got.cif
#   From: 2010.05.17/outbox.cif.g08.bks.cpg/sg12_154_cif.got.tgz:306345.got - 2010.06.03 13:09:07.
