data_PCOD9217517
_publ_section_title
;
Structure prediction by ZEFSAII (Michael W. Deem and Ramdas Pophale) SiO2 
 PCOD9217517
Probable space group: C 2/M
;
_chemical_formula_sum "Si O2"
_cell_formula_units_Z 48
_cell_length_a 20.261382
_cell_length_b 8.741219
_cell_length_c 33.627156
_cell_angle_alpha 90.000000
_cell_angle_beta 154.768298
_cell_angle_gamma 90.000000
_cell_volume 2538.785622
_symmetry_space_group_name_H-M "C 2/M"
_symmetry_group_IT_number 12
_symmetry_cell_setting 'monoclinic'
loop_
_space_group_symop_operation_xyz
x,y,z
-x,y,-z
-x,-y,-z
x,-y,z
1/2+x,1/2+y,z
1/2-x,1/2+y,-z
1/2-x,1/2-y,-z
1/2+x,1/2-y,z
loop_
_atom_site_type_symbol
_atom_site_label
_atom_site_fract_x
_atom_site_fract_y
_atom_site_fract_z
Si Si1 0.094405 0.681456 0.433885
Si Si2 0.134781 0.818225 0.541473
Si Si3 0.272972 0.682399 0.056451
Si Si4 0.981740 0.823320 0.942546
Si Si5 0.508988 0.816526 0.246670
Si Si6 0.646250 0.317508 0.757707
O O1 0.088903 0.500000 0.424770
O O2 0.250000 0.750000 0.500000
O O3 0.097825 0.723550 0.481957
O O4 0.955691 0.760763 0.334693
O O5 0.307746 0.780874 0.651273
O O6 0.000000 0.792848 0.500000
O O7 0.136152 0.000000 0.532250
O O8 0.282736 0.500000 0.060047
O O9 0.422121 0.747981 0.161090
O O10 0.250000 0.750000 0.000000
O O11 0.124100 0.734769 0.000709
O O12 0.818976 0.743535 0.845593
O O13 0.981970 0.000000 0.928979
O O14 0.000000 0.823535 0.000000
O O15 0.426995 0.752075 0.241775
O O16 0.490591 0.000000 0.236316
O O17 0.644129 0.500000 0.759713
#
# Coordination Sequence:
#
# PCOD9217517 Si02
#       6
#     8   8   8   8   8   8
#     4  12  24  40  64  94 129 169 218 270 321 378
#     4  10  23  43  67  95 131 172 215 266 328 390
#     4  12  26  44  67  95 133 174 220 269 327 390
#     4  11  23  41  67  96 129 166 214 268 323 381
#     4  11  22  40  66  94 129 171 217 268 330 389
#     4  12  24  39  65  98 132 170 218 267 325 388
#
# _framework density 18.906677999999999
#
# number of rings (size 3 to 8) (size 9 to 14) (size 15 to 20)
#    0.000    0.667    3.333    5.500    0.000    3.000 
#    0.000    5.000    0.000    0.000    0.000    0.000 
#    0.000    0.000    0.000    0.000    0.000    0.000 
#
# Total GULP energy -134286.118952 kJ/mol
# GULP energy per Si atom -5595.254956 kJ/mol
# Density = 1.886365 g / cm^3
# Si number density = 18.906678 Si / 1000 Ang^3
#
#
#
# Elastic Constant Matrix: (Units=GPa)
#
#
# Indices 1 2 3 4 5 6 
#
# 1 58.3812 35.5747 38.0132 0.0002 -9.8001 -0.0003
# 2 35.5747 143.5154 70.5165 0.0004 -12.1363 -0.0008
# 3 38.0132 70.5165 164.8224 0.0006 -9.6141 -0.0001
# 4 0.0002 0.0004 0.0006 27.1254 -0.0001 -15.6000
# 5 -9.8001 -12.1363 -9.6141 -0.0001 30.9713 0.0002
# 6 -0.0003 -0.0008 -0.0001 -15.6000 0.0002 16.7455
#
#
#
# Elastic Compliance Matrix: (Units=1/GPa)
#
#
# Indices 1 2 3 4 5 6 
#
# 1 0.022208 -0.003456 -0.003373 0.000000 0.004626 0.000000
# 2 -0.003456 0.009528 -0.003183 0.000000 0.001652 0.000001
# 3 -0.003373 -0.003183 0.008221 0.000000 0.000237 -0.000001
# 4 0.000000 0.000000 0.000000 0.079412 0.000000 0.073979
# 5 0.004626 0.001652 0.000237 0.000000 0.034473 0.000000
# 6 0.000000 0.000001 -0.000001 0.073979 0.000000 0.128636
#
#
# Mechanical properties :
#
#
# Convention : Reuss Voigt Hill
#
# Bulk Modulus (GPa) = 50.17140 72.76978 61.47059
# Shear Modulus (GPa) = 16.17358 29.80942 22.99150
#
# Velocity S-wave (km/s) = 2.92797 3.97503 3.49098
# Velocity P-wave (km/s) = 6.16641 7.72271 6.98802
#
# Compressibility (1/GPa) = 0.01993167
#
# Stress axis : x y z
#
# Youngs Moduli (GPa) = 45.02931 104.95015 121.64295
#
# Poissons Ratio (x) = 0.36273 0.41034
# Poissons Ratio (y) = 0.15563 0.38720
# Poissons Ratio (z) = 0.15190 0.33406
#
# Static dielectric constant tensor:
#      x y z
#    x 1.622530 0.000000 -0.000930 
#    y 0.000000 1.621360 0.000000 
#    z -0.000930 0.000000 1.629390 
# 
# From -- ./inp_files/378556.got.cif
#   From: 2010.05.17/outbox.cif.g08.bks.cpg/sg12_190_cif.got.tgz:378556.got - 2010.06.03 13:09:07.
