data_PCOD9217124
_publ_section_title
;
Structure prediction by ZEFSAII (Michael W. Deem and Ramdas Pophale) SiO2 
 PCOD9217124
Probable space group: C 2/M
;
_chemical_formula_sum "Si O2"
_cell_formula_units_Z 52
_cell_length_a 9.221000
_cell_length_b 20.249224
_cell_length_c 13.524961
_cell_angle_alpha 90.000000
_cell_angle_beta 76.593101
_cell_angle_gamma 90.000000
_cell_volume 2456.533888
_symmetry_space_group_name_H-M "C 2/M"
_symmetry_group_IT_number 12
_symmetry_cell_setting 'monoclinic'
loop_
_space_group_symop_operation_xyz
x,y,z
-x,y,-z
-x,-y,-z
x,-y,z
1/2+x,1/2+y,z
1/2-x,1/2+y,-z
1/2-x,1/2-y,-z
1/2+x,1/2-y,z
loop_
_atom_site_type_symbol
_atom_site_label
_atom_site_fract_x
_atom_site_fract_y
_atom_site_fract_z
Si Si1 0.819362 0.921753 0.139283
Si Si2 0.929050 0.617390 0.670539
Si Si3 0.757156 0.728940 0.613563
Si Si4 0.668889 0.421620 0.095390
Si Si5 0.959781 0.117673 0.397139
Si Si6 0.232072 0.365337 0.730317
Si Si7 0.220469 0.500000 0.417043
O O1 0.696884 0.885546 0.223587
O O2 0.992108 0.905459 0.134114
O O3 0.803462 0.000000 0.167003
O O4 0.795600 0.913034 0.026214
O O5 0.903232 0.686095 0.617878
O O6 0.894040 0.557762 0.603579
O O7 0.088103 0.608891 0.696108
O O8 0.750000 0.750000 0.500000
O O9 0.620229 0.677552 0.646861
O O10 0.748061 0.790562 0.688773
O O11 0.687318 0.500000 0.114061
O O12 0.768901 0.377992 0.152446
O O13 0.116345 0.097827 0.325157
O O14 0.000000 0.141772 0.500000
O O15 0.845105 0.057944 0.421138
#
# Coordination Sequence:
#
# PCOD9217124 Si02
#       7
#     8   8   8   8   8   8   4
#     4   9  18  40  65  92 131 167 212 252 326 384
#     4  11  24  39  65  96 132 165 208 276 317 372
#     4  11  24  47  67  88 125 176 222 259 319 380
#     4   9  20  37  66  96 124 173 210 258 313 396
#     4  11  23  43  68  87 123 173 217 265 317 385
#     4  12  25  37  64  99 128 161 223 262 315 382
#     4  10  23  42  59  90 128 166 204 261 329 370
#
# _framework density 21.168036000000001
#
# number of rings (size 3 to 8) (size 9 to 14) (size 15 to 20)
#    0.000    1.538    2.308    3.923    4.308    0.615 
#    0.000    3.077    0.000    1.846    0.000    0.000 
#    0.000    0.000    0.000    0.000    0.000    0.000 
#
# Total GULP energy -144847.941617 kJ/mol
# GULP energy per Si atom -5571.074678 kJ/mol
# Density = 2.111986 g / cm^3
# Si number density = 21.168036 Si / 1000 Ang^3
#
#
#
# Elastic Constant Matrix: (Units=GPa)
#
#
# Indices 1 2 3 4 5 6 
#
# 1 109.9655 14.5037 53.6715 0.0000 34.8526 0.0000
# 2 14.5037 69.4758 40.0587 0.0000 26.5454 0.0000
# 3 53.6715 40.0587 96.5333 0.0000 17.3356 0.0000
# 4 0.0000 0.0000 0.0000 26.4435 0.0000 11.7486
# 5 34.8526 26.5454 17.3356 0.0000 43.1200 0.0000
# 6 0.0000 0.0000 0.0000 11.7486 0.0000 3.8885
#
#
#
# Elastic Compliance Matrix: (Units=1/GPa)
#
#
# Indices 1 2 3 4 5 6 
#
# 1 0.018159 0.008336 -0.010776 0.000000 -0.015477 0.000000
# 2 0.008336 0.026819 -0.012491 0.000000 -0.018226 0.000000
# 3 -0.010776 -0.012491 0.020035 0.000000 0.008345 0.000000
# 4 0.000000 0.000000 0.000000 -0.110461 0.000000 0.333741
# 5 -0.015477 -0.018226 0.008345 0.000000 0.043566 0.000000
# 6 0.000000 0.000000 0.000000 0.333741 0.000000 -0.751176
#
#
# Mechanical properties :
#
#
# Convention : Reuss Voigt Hill
#
# Bulk Modulus (GPa) = 28.44818 54.71583 41.58201
# Shear Modulus (GPa) = -7.02762 25.87310 9.42274
#
# Velocity S-wave (km/s) = -1.82404 3.49989 2.11212
# Velocity P-wave (km/s) = 3.00537 6.49898 5.06305
#
# Compressibility (1/GPa) = 0.03515163
#
# Stress axis : x y z
#
# Youngs Moduli (GPa) = 55.06882 37.28663 49.91195
#
# Poissons Ratio (x) = -0.31082 0.53785
# Poissons Ratio (y) = -0.45904 0.62344
# Poissons Ratio (z) = 0.59342 0.46574
#
# Static dielectric constant tensor:
#      x y z
#    x 1.816040 0.000000 -0.038410 
#    y 0.000000 1.739160 0.000000 
#    z -0.038410 0.000000 1.854230 
# 
# From -- ./inp_files/197086.got.cif
#   From: 2010.05.17/outbox.cif.g08.bks.cpg/sg12_99_cif.got.tgz:197086.got - 2010.06.03 13:09:07.
