data_PCOD9217657
_publ_section_title
;
Structure prediction by ZEFSAII (Michael W. Deem and Ramdas Pophale) SiO2 
 PCOD9217657
Probable space group: C 2/M
;
_chemical_formula_sum "Si O2"
_cell_formula_units_Z 52
_cell_length_a 19.368772
_cell_length_b 9.318339
_cell_length_c 18.294926
_cell_angle_alpha 90.000000
_cell_angle_beta 131.449014
_cell_angle_gamma 90.000000
_cell_volume 2474.964667
_symmetry_space_group_name_H-M "C 2/M"
_symmetry_group_IT_number 12
_symmetry_cell_setting 'monoclinic'
loop_
_space_group_symop_operation_xyz
x,y,z
-x,y,-z
-x,-y,-z
x,-y,z
1/2+x,1/2+y,z
1/2-x,1/2+y,-z
1/2-x,1/2-y,-z
1/2+x,1/2-y,z
loop_
_atom_site_type_symbol
_atom_site_label
_atom_site_fract_x
_atom_site_fract_y
_atom_site_fract_z
Si Si1 0.910593 0.670069 0.771945
Si Si2 0.651506 0.327706 0.417814
Si Si3 0.214294 0.500000 0.990148
Si Si4 0.238587 0.279495 0.888794
Si Si5 0.749746 0.333435 0.264622
Si Si6 0.914886 0.665007 0.494598
Si Si7 0.953617 0.157520 0.046942
O O1 0.904325 0.500000 0.756331
O O2 0.891130 0.759444 0.685092
O O3 0.833569 0.727092 0.775064
O O4 0.006925 0.716822 0.875359
O O5 0.661469 0.500000 0.419573
O O6 0.750000 0.250000 0.500000
O O7 0.590660 0.277948 0.444087
O O8 0.186009 0.376165 0.909896
O O9 0.252864 0.623041 0.073210
O O10 0.206708 0.294950 0.783137
O O11 0.344330 0.337220 0.962383
O O12 0.717924 0.500000 0.239348
O O13 0.823417 0.322606 0.381060
O O14 0.918897 0.500000 0.525804
O O15 0.000000 0.686165 0.500000
O O16 0.978492 0.000000 0.095158
O O17 0.000000 0.169615 0.000000
#
# Coordination Sequence:
#
# PCOD9217657 Si02
#       7
#     8   8   4   8   8   8   8
#     4  12  26  40  64 101 130 172 222 274 336 394
#     4  12  24  44  70  97 135 174 222 279 335 395
#     4  10  24  42  62  86 130 176 224 266 318 394
#     4  11  22  43  64  93 128 176 225 269 323 390
#     4  11  21  40  68  92 129 174 221 268 331 397
#     4  10  23  44  68 101 137 177 220 272 335 402
#     4  11  22  39  64  93 133 165 211 273 332 385
#
# _framework density 21.010401999999999
#
# number of rings (size 3 to 8) (size 9 to 14) (size 15 to 20)
#    0.000    0.923    4.615    2.769    2.154    0.615 
#    5.538    0.000    0.000    0.000    0.000    0.000 
#    0.000    0.000    0.000    0.000    0.000    0.000 
#
# Total GULP energy -144861.654378 kJ/mol
# GULP energy per Si atom -5571.602091 kJ/mol
# Density = 2.096258 g / cm^3
# Si number density = 21.010402 Si / 1000 Ang^3
#
#
#
# Elastic Constant Matrix: (Units=GPa)
#
#
# Indices 1 2 3 4 5 6 
#
# 1 50.1652 34.5577 0.3926 0.0000 -5.1400 0.0000
# 2 34.5577 187.8342 36.9528 0.0000 -34.4812 0.0000
# 3 0.3926 36.9528 58.3869 0.0000 -20.5750 0.0000
# 4 0.0000 0.0000 0.0000 25.5093 0.0000 -11.8063
# 5 -5.1400 -34.4812 -20.5750 0.0000 34.3779 0.0000
# 6 0.0000 0.0000 0.0000 -11.8063 0.0000 120.5020
#
#
#
# Elastic Compliance Matrix: (Units=1/GPa)
#
#
# Indices 1 2 3 4 5 6 
#
# 1 0.023260 -0.004787 0.003050 0.000000 0.000501 0.000000
# 2 -0.004787 0.007766 -0.003029 0.000000 0.005261 0.000000
# 3 0.003050 -0.003029 0.022955 0.000000 0.011156 0.000000
# 4 0.000000 0.000000 0.000000 0.041063 0.000000 0.004023
# 5 0.000501 0.005261 0.011156 0.000000 0.041117 0.000000
# 6 0.000000 0.000000 0.000000 0.004023 0.000000 0.008693
#
#
# Mechanical properties :
#
#
# Convention : Reuss Voigt Hill
#
# Bulk Modulus (GPa) = 22.49800 48.91028 35.70414
# Shear Modulus (GPa) = 29.55030 51.04337 40.29683
#
# Velocity S-wave (km/s) = 3.75435 4.93428 4.38419
# Velocity P-wave (km/s) = 5.43367 7.46943 6.53135
#
# Compressibility (1/GPa) = 0.04444840
#
# Stress axis : x y z
#
# Youngs Moduli (GPa) = 42.99316 128.76143 43.56322
#
# Poissons Ratio (x) = 0.61642 -0.13288
# Poissons Ratio (y) = 0.20582 0.13196
# Poissons Ratio (z) = -0.13114 0.39004
#
# Static dielectric constant tensor:
#      x y z
#    x 1.823880 0.000000 0.009680 
#    y 0.000000 1.720440 0.000000 
#    z 0.009680 0.000000 1.736970 
# 
# From -- ./inp_files/282070.got.cif
#   From: 2010.05.17/outbox.cif.g08.bks.cpg/sg12_142_cif.got.tgz:282070.got - 2010.06.03 13:09:07.
