data_PCOD9217609
_publ_section_title
;
Structure prediction by ZEFSAII (Michael W. Deem and Ramdas Pophale) SiO2 
 PCOD9217609
Probable space group: C 2/M
;
_chemical_formula_sum "Si O2"
_cell_formula_units_Z 40
_cell_length_a 13.944006
_cell_length_b 18.374971
_cell_length_c 13.882283
_cell_angle_alpha 90.000000
_cell_angle_beta 29.793229
_cell_angle_gamma 90.000000
_cell_volume 1767.335998
_symmetry_space_group_name_H-M "C 2/M"
_symmetry_group_IT_number 12
_symmetry_cell_setting 'monoclinic'
loop_
_space_group_symop_operation_xyz
x,y,z
-x,y,-z
-x,-y,-z
x,-y,z
1/2+x,1/2+y,z
1/2-x,1/2+y,-z
1/2-x,1/2-y,-z
1/2+x,1/2-y,z
loop_
_atom_site_type_symbol
_atom_site_label
_atom_site_fract_x
_atom_site_fract_y
_atom_site_fract_z
Si Si1 0.240197 0.500000 0.684874
Si Si2 0.216362 0.618535 0.083143
Si Si3 0.069767 0.204596 0.772279
Si Si4 0.284237 0.147965 0.400749
Si Si5 0.728913 0.921710 0.285894
Si Si6 0.771165 0.500000 0.084490
O O1 0.289181 0.575372 0.587717
O O2 0.304798 0.500000 0.740130
O O3 0.004883 0.500000 0.889267
O O4 0.262119 0.579171 0.143119
O O5 0.986520 0.629083 0.277622
O O6 0.341808 0.691740 0.977841
O O7 0.277542 0.570084 0.938136
O O8 0.137529 0.181172 0.606047
O O9 0.149010 0.284938 0.725044
O O10 0.167121 0.145604 0.756423
O O11 0.500000 0.914818 0.500000
O O12 0.789389 0.000000 0.275117
#
# Coordination Sequence:
#
# PCOD9217609 Si02
#       6
#     4   8   8   8   8   4
#     4   9  20  43  68  85 125 172 204 261 312 370
#     4  11  21  41  66  92 127 167 209 260 316 378
#     4  11  24  40  64  98 130 162 210 265 315 378
#     4  10  23  44  64  93 127 169 212 257 320 371
#     4  11  23  40  67  97 130 170 209 262 327 385
#     4   9  20  39  64  96 120 160 221 253 301 381
#
# _framework density 22.632933999999999
#
# number of rings (size 3 to 8) (size 9 to 14) (size 15 to 20)
#    0.000    1.600    3.000    1.200    2.800    0.800 
#   18.000    2.000    0.000    0.000    0.000    0.000 
#    0.000    0.000    0.000    0.000    0.000    0.000 
#
# Total GULP energy -111778.594222 kJ/mol
# GULP energy per Si atom -5588.929711 kJ/mol
# Density = 2.258142 g / cm^3
# Si number density = 22.632934 Si / 1000 Ang^3
#
#
#
# Elastic Constant Matrix: (Units=GPa)
#
#
# Indices 1 2 3 4 5 6 
#
# 1 61.5141 34.0544 -13.0274 -0.0301 19.7937 0.0438
# 2 34.0544 137.7377 -11.7282 -0.0455 9.8307 0.0252
# 3 -13.0274 -11.7282 42.6616 -0.0588 7.5677 0.0615
# 4 -0.0301 -0.0455 -0.0588 25.2031 0.0351 5.4922
# 5 19.7937 9.8307 7.5677 0.0351 30.0149 -0.0298
# 6 0.0438 0.0252 0.0615 5.4922 -0.0298 11.9492
#
#
#
# Elastic Compliance Matrix: (Units=1/GPa)
#
#
# Indices 1 2 3 4 5 6 
#
# 1 0.027031 -0.004441 0.010403 0.000130 -0.018994 -0.000250
# 2 -0.004441 0.008448 0.000981 0.000015 -0.000085 -0.000014
# 3 0.010403 0.000981 0.029480 0.000170 -0.014615 -0.000307
# 4 0.000130 0.000015 0.000170 0.044096 -0.000205 -0.020269
# 5 -0.018994 -0.000085 -0.014615 -0.000205 0.049556 0.000363
# 6 -0.000250 -0.000014 -0.000307 -0.020269 0.000363 0.093007
#
#
# Mechanical properties :
#
#
# Convention : Reuss Voigt Hill
#
# Bulk Modulus (GPa) = 12.68316 28.94565 20.81441
# Shear Modulus (GPa) = 18.93844 28.94111 23.93977
#
# Velocity S-wave (km/s) = 2.89583 3.57979 3.25582
# Velocity P-wave (km/s) = 4.09843 5.46841 4.83221
#
# Compressibility (1/GPa) = 0.07884472
#
# Stress axis : x y z
#
# Youngs Moduli (GPa) = 36.99513 118.37186 33.92115
#
# Poissons Ratio (x) = 0.52575 -0.35289
# Poissons Ratio (y) = 0.16431 -0.03329
# Poissons Ratio (z) = -0.38487 -0.11617
#
# Static dielectric constant tensor:
#      x y z
#    x 1.802900 -0.000010 -0.009430 
#    y -0.000010 1.864310 0.000020 
#    z -0.009430 0.000020 1.866060 
# 
# From -- ./inp_files/77808.got.cif
#   From: 2010.05.17/outbox.cif.g08.bks.cpg/sg12_39_cif.got.tgz:77808.got - 2010.06.03 13:09:07.
