data_PCOD9217218
_publ_section_title
;
Structure prediction by ZEFSAII (Michael W. Deem and Ramdas Pophale) SiO2 
 PCOD9217218
Probable space group: C 2/M
;
_chemical_formula_sum "Si O2"
_cell_formula_units_Z 48
_cell_length_a 26.794037
_cell_length_b 13.760242
_cell_length_c 11.275977
_cell_angle_alpha 90.000000
_cell_angle_beta 32.175736
_cell_angle_gamma 90.000000
_cell_volume 2213.872460
_symmetry_space_group_name_H-M "C 2/M"
_symmetry_group_IT_number 12
_symmetry_cell_setting 'monoclinic'
loop_
_space_group_symop_operation_xyz
x,y,z
-x,y,-z
-x,-y,-z
x,-y,z
1/2+x,1/2+y,z
1/2-x,1/2+y,-z
1/2-x,1/2-y,-z
1/2+x,1/2-y,z
loop_
_atom_site_type_symbol
_atom_site_label
_atom_site_fract_x
_atom_site_fract_y
_atom_site_fract_z
Si Si1 0.673688 0.294248 0.482514
Si Si2 0.426841 0.313921 0.753513
Si Si3 0.211671 0.888503 0.149874
Si Si4 0.770377 0.887078 0.396440
Si Si5 0.572170 0.896706 0.245759
Si Si6 0.519541 0.392071 0.119717
O O1 0.689584 0.330580 0.315960
O O2 0.707461 0.185118 0.443426
O O3 0.734210 0.357214 0.455682
O O4 0.564706 0.316823 0.728908
O O5 0.500000 0.314962 0.500000
O O6 0.330575 0.337383 0.881001
O O7 0.433735 0.208421 0.802609
O O8 0.455289 0.390852 0.792706
O O9 0.175019 0.000000 0.233106
O O10 0.322976 0.895604 0.914778
O O11 0.880070 0.872673 0.141720
O O12 0.747792 0.000000 0.424192
O O13 0.500000 0.895802 0.500000
O O14 0.559233 0.000000 0.206319
O O15 0.484861 0.500000 0.156790
#
# Coordination Sequence:
#
# PCOD9217218 Si02
#       6
#     8   8   8   8   8   8
#     4  11  22  39  65  91 121 157 200 251 306 360
#     4  11  21  35  57  86 121 153 196 249 295 352
#     4  11  21  35  59  88 118 154 198 248 300 354
#     4  10  23  42  64  92 122 157 204 254 303 358
#     4   9  20  37  53  76 115 163 203 236 288 358
#     4  11  22  39  64  92 123 160 203 251 303 358
#
# _framework density 21.681466
#
# number of rings (size 3 to 8) (size 9 to 14) (size 15 to 20)
#    0.000    1.500    1.667    4.000    0.000    2.000 
#    0.000    3.333    0.000   10.000    0.000    0.000 
#    0.000    0.000    0.000    0.000    0.000    0.000 
#
# Total GULP energy -133955.249158 kJ/mol
# GULP energy per Si atom -5581.468715 kJ/mol
# Density = 2.163212 g / cm^3
# Si number density = 21.681466 Si / 1000 Ang^3
#
#
#
# Elastic Constant Matrix: (Units=GPa)
#
#
# Indices 1 2 3 4 5 6 
#
# 1 100.2104 58.5311 13.7674 0.0000 10.1992 0.0000
# 2 58.5311 183.0370 39.6409 0.0000 -2.8616 0.0000
# 3 13.7674 39.6409 55.1241 0.0000 -13.7430 0.0000
# 4 0.0000 0.0000 0.0000 23.6674 0.0000 -9.0758
# 5 10.1992 -2.8616 -13.7430 0.0000 21.2004 0.0000
# 6 0.0000 0.0000 0.0000 -9.0758 0.0000 9.9092
#
#
#
# Elastic Compliance Matrix: (Units=1/GPa)
#
#
# Indices 1 2 3 4 5 6 
#
# 1 0.013515 -0.003851 -0.002811 0.000000 -0.008843 0.000000
# 2 -0.003851 0.007687 -0.004587 0.000000 -0.000083 0.000000
# 3 -0.002811 -0.004587 0.026627 0.000000 0.017994 0.000000
# 4 0.000000 0.000000 0.000000 0.065125 0.000000 0.059648
# 5 -0.008843 -0.000083 0.017994 0.000000 0.063077 0.000000
# 6 0.000000 0.000000 0.000000 0.059648 0.000000 0.155547
#
#
# Mechanical properties :
#
#
# Convention : Reuss Voigt Hill
#
# Bulk Modulus (GPa) = 39.47590 62.47225 50.97408
# Shear Modulus (GPa) = 13.79239 26.05089 19.92164
#
# Velocity S-wave (km/s) = 2.52491 3.47007 3.03451
# Velocity P-wave (km/s) = 5.17175 6.70309 5.98658
#
# Compressibility (1/GPa) = 0.02533191
#
# Stress axis : x y z
#
# Youngs Moduli (GPa) = 73.99379 130.09026 37.55551
#
# Poissons Ratio (x) = 0.50101 0.10555
# Poissons Ratio (y) = 0.28497 0.17225
# Poissons Ratio (z) = 0.20796 0.59668
#
# Static dielectric constant tensor:
#      x y z
#    x 1.857100 0.000000 0.021460 
#    y 0.000000 1.875860 0.000000 
#    z 0.021460 0.000000 1.805700 
# 
# From -- ./inp_files/183671.got.cif
#   From: 2010.05.17/outbox.cif.g08.bks.cpg/sg12_92_cif.got.tgz:183671.got - 2010.06.03 13:09:07.
