data_PCOD9217473
_publ_section_title
;
Structure prediction by ZEFSAII (Michael W. Deem and Ramdas Pophale) SiO2 
 PCOD9217473
Probable space group: C 2/M
;
_chemical_formula_sum "Si O2"
_cell_formula_units_Z 34
_cell_length_a 15.348036
_cell_length_b 14.604443
_cell_length_c 8.254399
_cell_angle_alpha 90.000000
_cell_angle_beta 110.771511
_cell_angle_gamma 90.000000
_cell_volume 1729.959218
_symmetry_space_group_name_H-M "C 2/M"
_symmetry_group_IT_number 12
_symmetry_cell_setting 'monoclinic'
loop_
_space_group_symop_operation_xyz
x,y,z
-x,y,-z
-x,-y,-z
x,-y,z
1/2+x,1/2+y,z
1/2-x,1/2+y,-z
1/2-x,1/2-y,-z
1/2+x,1/2-y,z
loop_
_atom_site_type_symbol
_atom_site_label
_atom_site_fract_x
_atom_site_fract_y
_atom_site_fract_z
Si Si1 0.566036 0.322757 0.167506
Si Si2 0.092781 0.500000 0.284453
Si Si3 0.235052 0.325768 0.853522
Si Si4 0.598166 0.184588 0.476631
Si Si5 0.628128 0.000000 0.928357
Si Si6 0.500000 0.500000 0.000000
O O1 0.663302 0.349605 0.148169
O O2 0.584908 0.264854 0.338197
O O3 0.510993 0.417854 0.143929
O O4 0.500000 0.264999 0.000000
O O5 0.123782 0.590985 0.399979
O O6 0.979652 0.500000 0.199258
O O7 0.128398 0.500000 0.123498
O O8 0.173827 0.291582 0.662101
O O9 0.180964 0.411714 0.893287
O O10 0.250000 0.250000 0.000000
O O11 0.500000 0.168567 0.500000
#
# Coordination Sequence:
#
# PCOD9217473 Si02
#       6
#     8   4   8   8   4   2
#     4  10  23  43  66  92 128 179 217 268 321 376
#     4  11  24  42  66 104 130 174 204 277 343 387
#     4  12  24  42  65  97 130 174 217 271 325 385
#     4  12  23  41  67 102 133 170 216 270 333 396
#     4  11  24  40  69  94 134 168 221 265 333 397
#     4   8  22  42  68  80 126 178 210 264 314 362
#
# _framework density 19.653642999999999
#
# number of rings (size 3 to 8) (size 9 to 14) (size 15 to 20)
#    0.706    0.235    2.353    5.294    3.294    0.000 
#    0.000    1.765    0.000    0.000    0.000    0.000 
#    0.000    0.000    0.000    0.000    0.000    0.000 
#
# Total GULP energy -94701.256802 kJ/mol
# GULP energy per Si atom -5570.662165 kJ/mol
# Density = 1.960891 g / cm^3
# Si number density = 19.653643 Si / 1000 Ang^3
#
#
#
# Elastic Constant Matrix: (Units=GPa)
#
#
# Indices 1 2 3 4 5 6 
#
# 1 60.5646 -5.8974 39.5015 0.0000 -2.1275 0.0000
# 2 -5.8974 133.9020 83.8224 0.0000 -12.5470 0.0000
# 3 39.5015 83.8224 186.9226 0.0000 11.5608 0.0000
# 4 0.0000 0.0000 0.0000 16.6195 0.0000 0.4018
# 5 -2.1275 -12.5470 11.5608 0.0000 34.5809 0.0000
# 6 0.0000 0.0000 0.0000 0.4018 0.0000 6.3363
#
#
#
# Elastic Compliance Matrix: (Units=1/GPa)
#
#
# Indices 1 2 3 4 5 6 
#
# 1 0.022815 0.006817 -0.008290 0.000000 0.006648 0.000000
# 2 0.006817 0.013527 -0.008002 0.000000 0.008003 0.000000
# 3 -0.008290 -0.008002 0.011131 0.000000 -0.007135 0.000000
# 4 0.000000 0.000000 0.000000 0.060263 0.000000 -0.003822
# 5 0.006648 0.008003 -0.007135 0.000000 0.034615 0.000000
# 6 0.000000 0.000000 0.000000 -0.003822 0.000000 0.158064
#
#
# Mechanical properties :
#
#
# Convention : Reuss Voigt Hill
#
# Bulk Modulus (GPa) = 35.05649 68.47134 51.76392
# Shear Modulus (GPa) = 15.20344 29.10484 22.15414
#
# Velocity S-wave (km/s) = 2.78433 3.85241 3.36106
# Velocity P-wave (km/s) = 5.31154 7.39613 6.43876
#
# Compressibility (1/GPa) = 0.02852539
#
# Stress axis : x y z
#
# Youngs Moduli (GPa) = 43.83000 73.92452 89.83811
#
# Poissons Ratio (x) = -0.50396 0.74473
# Poissons Ratio (y) = -0.29880 0.71886
# Poissons Ratio (z) = 0.36334 0.59152
#
# Static dielectric constant tensor:
#      x y z
#    x 1.746170 0.000000 0.034800 
#    y 0.000000 1.668200 0.000000 
#    z 0.034800 0.000000 1.729480 
# 
# From -- ./inp_files/58695.got.cif
#   From: 2010.05.17/outbox.cif.g08.bks.cpg/sg12_30_cif.got.tgz:58695.got - 2010.06.03 13:09:07.
