data_PCOD9217132
_publ_section_title
;
Structure prediction by ZEFSAII (Michael W. Deem and Ramdas Pophale) SiO2 
 PCOD9217132
Probable space group: C 2/M
;
_chemical_formula_sum "Si O2"
_cell_formula_units_Z 60
_cell_length_a 14.952583
_cell_length_b 7.833623
_cell_length_c 21.352758
_cell_angle_alpha 90.000000
_cell_angle_beta 72.829705
_cell_angle_gamma 90.000000
_cell_volume 2389.639796
_symmetry_space_group_name_H-M "C 2/M"
_symmetry_group_IT_number 12
_symmetry_cell_setting 'monoclinic'
loop_
_space_group_symop_operation_xyz
x,y,z
-x,y,-z
-x,-y,-z
x,-y,z
1/2+x,1/2+y,z
1/2-x,1/2+y,-z
1/2-x,1/2-y,-z
1/2+x,1/2-y,z
loop_
_atom_site_type_symbol
_atom_site_label
_atom_site_fract_x
_atom_site_fract_y
_atom_site_fract_z
Si Si1 0.700021 0.702869 0.147102
Si Si2 0.898979 0.795388 0.096112
Si Si3 0.000000 0.745232 0.500000
Si Si4 0.394661 0.291705 0.953299
Si Si5 0.521693 0.798043 0.263867
Si Si6 0.175770 0.693217 0.695240
Si Si7 0.381612 0.298420 0.633191
Si Si8 0.335271 0.690091 0.439207
O O1 0.690970 0.500000 0.149619
O O2 0.803533 0.744615 0.149733
O O3 0.683598 0.766876 0.079159
O O4 0.612381 0.773205 0.202849
O O5 0.002730 0.739094 0.094152
O O6 0.901201 0.000000 0.094875
O O7 0.888630 0.732535 0.026022
O O8 0.922103 0.688856 0.567325
O O9 0.927038 0.816479 0.463689
O O10 0.392628 0.500000 0.955944
O O11 0.421578 0.730272 0.259226
O O12 0.548468 0.709299 0.323270
O O13 0.509292 0.000000 0.277077
O O14 0.184063 0.500000 0.717988
O O15 0.280466 0.765480 0.678145
O O16 0.158125 0.693954 0.623486
O O17 0.372614 0.500000 0.614465
O O18 0.316999 0.500000 0.419253
O O19 0.250000 0.750000 0.500000
#
# Coordination Sequence:
#
# PCOD9217132 Si02
#       8
#     8   8   4   8   8   8   8   8
#     4  11  22  37  58  86 118 158 200 242 291 348
#     4   9  17  35  61  90 123 158 195 242 287 338
#     4  12  23  38  65  92 121 154 185 230 301 364
#     4   8  17  34  59  89 123 160 196 234 290 348
#     4  11  25  43  59  83 115 153 201 249 291 341
#     4  10  23  42  61  83 115 149 189 240 292 346
#     4  11  22  41  64  88 117 152 188 234 297 362
#     4  12  23  38  60  89 119 151 187 229 286 352
#
# _framework density 25.108388000000001
#
# number of rings (size 3 to 8) (size 9 to 14) (size 15 to 20)
#    0.000    1.600    2.667    3.600    0.000    2.133 
#    0.000    7.667    0.000    0.000    0.000    0.000 
#    0.000    0.000    0.000    0.000    0.000    0.000 
#
# Total GULP energy -167444.513430 kJ/mol
# GULP energy per Si atom -5581.483781 kJ/mol
# Density = 2.505124 g / cm^3
# Si number density = 25.108388 Si / 1000 Ang^3
#
#
#
# Elastic Constant Matrix: (Units=GPa)
#
#
# Indices 1 2 3 4 5 6 
#
# 1 171.9626 8.3806 18.7365 0.0000 -35.8275 0.0000
# 2 8.3806 67.1146 -4.4890 0.0000 -2.2767 0.0000
# 3 18.7365 -4.4890 58.4406 0.0000 -24.6164 0.0000
# 4 0.0000 0.0000 0.0000 -47.0477 0.0000 53.2140
# 5 -35.8275 -2.2767 -24.6164 0.0000 56.9658 0.0000
# 6 0.0000 0.0000 0.0000 53.2140 0.0000 -47.2640
#
#
#
# Elastic Compliance Matrix: (Units=1/GPa)
#
#
# Indices 1 2 3 4 5 6 
#
# 1 0.006739 -0.000743 -0.000544 0.000000 0.003973 0.000000
# 2 -0.000743 0.015143 0.001784 0.000000 0.000909 0.000000
# 3 -0.000544 0.001784 0.021160 0.000000 0.008873 0.000000
# 4 0.000000 0.000000 0.000000 0.077728 0.000000 0.087513
# 5 0.003973 0.000909 0.008873 0.000000 0.023924 0.000000
# 6 0.000000 0.000000 0.000000 0.087513 0.000000 0.077372
#
#
# Mechanical properties :
#
#
# Convention : Reuss Voigt Hill
#
# Bulk Modulus (GPa) = 22.70843 38.08598 30.39720
# Shear Modulus (GPa) = 21.20896 10.85679 16.03288
#
# Velocity S-wave (km/s) = 2.90952 2.08167 2.52969
# Velocity P-wave (km/s) = 4.51119 4.58032 4.54589
#
# Compressibility (1/GPa) = 0.04403651
#
# Stress axis : x y z
#
# Youngs Moduli (GPa) = 148.40066 66.03785 47.25812
#
# Poissons Ratio (x) = 0.04907 0.02570
# Poissons Ratio (y) = 0.11026 -0.08432
# Poissons Ratio (z) = 0.08070 -0.11783
#
# Static dielectric constant tensor:
#      x y z
#    x 1.994760 0.000000 -0.041040 
#    y 0.000000 1.951180 0.000000 
#    z -0.041040 0.000000 2.016990 
# 
# From -- ./inp_files/338655.got.cif
#   From: 2010.05.17/outbox.cif.g08.bks.cpg/sg12_170_cif.got.tgz:338655.got - 2010.06.03 13:09:07.
