data_PCOD9217806
_publ_section_title
;
Structure prediction by ZEFSAII (Michael W. Deem and Ramdas Pophale) SiO2 
 PCOD9217806
Probable space group: C 2/M
;
_chemical_formula_sum "Si O2"
_cell_formula_units_Z 40
_cell_length_a 8.782732
_cell_length_b 13.741207
_cell_length_c 15.064774
_cell_angle_alpha 90.000000
_cell_angle_beta 98.626684
_cell_angle_gamma 90.000000
_cell_volume 1797.528544
_symmetry_space_group_name_H-M "C 2/M"
_symmetry_group_IT_number 12
_symmetry_cell_setting 'monoclinic'
loop_
_space_group_symop_operation_xyz
x,y,z
-x,y,-z
-x,-y,-z
x,-y,z
1/2+x,1/2+y,z
1/2-x,1/2+y,-z
1/2-x,1/2-y,-z
1/2+x,1/2-y,z
loop_
_atom_site_type_symbol
_atom_site_label
_atom_site_fract_x
_atom_site_fract_y
_atom_site_fract_z
Si Si1 0.564349 0.793185 0.911648
Si Si2 0.603994 0.787090 0.433468
Si Si3 0.993627 0.889538 0.693946
Si Si4 0.153505 0.611962 0.252944
Si Si5 0.881993 0.114613 0.874436
O O1 0.453169 0.828318 0.822704
O O2 0.734541 0.831373 0.904340
O O3 0.534153 0.676931 0.911813
O O4 0.500000 0.831994 0.000000
O O5 0.500000 0.834469 0.500000
O O6 0.750000 0.750000 0.500000
O O7 0.530212 0.690834 0.382568
O O8 0.632917 0.855912 0.352757
O O9 0.875118 0.880242 0.765717
O O10 0.164923 0.876405 0.748449
O O11 0.984245 0.000000 0.658379
O O12 0.111232 0.500000 0.237981
O O13 0.888604 0.000000 0.897831
#
# Coordination Sequence:
#
# PCOD9217806 Si02
#       5
#     8   8   8   8   8
#     4  12  26  47  75 107 147 192 241 300 363 426
#     4  12  25  42  69 101 135 178 230 294 360 433
#     4  10  23  45  71  98 136 186 234 287 356 432
#     4  11  25  46  71 100 141 188 238 297 364 428
#     4  11  25  45  73 106 142 191 241 295 360 427
#
# _framework density 22.252776000000001
#
# number of rings (size 3 to 8) (size 9 to 14) (size 15 to 20)
#    0.000    0.800    4.000    2.400    2.800    3.600 
#    0.000    3.000    0.000    0.000    0.000    0.000 
#    0.000    0.000    0.000    0.000    0.000    0.000 
#
# Total GULP energy -111837.464978 kJ/mol
# GULP energy per Si atom -5591.873249 kJ/mol
# Density = 2.220213 g / cm^3
# Si number density = 22.252776 Si / 1000 Ang^3
#
#
#
# Elastic Constant Matrix: (Units=GPa)
#
#
# Indices 1 2 3 4 5 6 
#
# 1 81.8715 57.2024 34.3101 0.0000 -25.2047 0.0000
# 2 57.2024 138.9472 23.3791 0.0000 -0.8247 0.0000
# 3 34.3101 23.3791 118.0784 0.0000 -24.1901 0.0000
# 4 0.0000 0.0000 0.0000 0.0982 0.0000 -6.6865
# 5 -25.2047 -0.8247 -24.1901 0.0000 52.1463 0.0000
# 6 0.0000 0.0000 0.0000 -6.6865 0.0000 30.5378
#
#
#
# Elastic Compliance Matrix: (Units=1/GPa)
#
#
# Indices 1 2 3 4 5 6 
#
# 1 0.022337 -0.008658 -0.002865 0.000000 0.009331 0.000000
# 2 -0.008658 0.010820 -0.000496 0.000000 -0.004244 0.000000
# 3 -0.002865 -0.000496 0.010071 0.000000 0.003280 0.000000
# 4 0.000000 0.000000 0.000000 -0.732110 0.000000 -0.160302
# 5 0.009331 -0.004244 0.003280 0.000000 0.025141 0.000000
# 6 0.000000 0.000000 0.000000 -0.160302 0.000000 -0.002353
#
#
# Mechanical properties :
#
#
# Convention : Reuss Voigt Hill
#
# Bulk Modulus (GPa) = 52.10959 63.18671 57.64815
# Shear Modulus (GPa) = -7.86583 31.49017 11.81217
#
# Velocity S-wave (km/s) = -1.88214 3.76588 2.30645
# Velocity P-wave (km/s) = 4.32952 6.88228 5.74937
#
# Compressibility (1/GPa) = 0.01919033
#
# Stress axis : x y z
#
# Youngs Moduli (GPa) = 44.76965 92.42418 99.29170
#
# Poissons Ratio (x) = 0.80023 0.28443
# Poissons Ratio (y) = 0.38763 0.04923
# Poissons Ratio (z) = 0.12824 0.04583
#
# Static dielectric constant tensor:
#      x y z
#    x 1.858250 0.000000 -0.026370 
#    y 0.000000 1.812200 0.000000 
#    z -0.026370 0.000000 1.799200 
# 
# From -- ./inp_files/194531.got.cif
#   From: 2010.05.17/outbox.cif.g08.bks.cpg/sg12_98_cif.got.tgz:194531.got - 2010.06.03 13:09:07.
