data_PCOD9217212
_publ_section_title
;
Structure prediction by ZEFSAII (Michael W. Deem and Ramdas Pophale) SiO2 
 PCOD9217212
Probable space group: C 2/M
;
_chemical_formula_sum "Si O2"
_cell_formula_units_Z 56
_cell_length_a 19.036317
_cell_length_b 8.692675
_cell_length_c 20.958782
_cell_angle_alpha 90.000000
_cell_angle_beta 53.384737
_cell_angle_gamma 90.000000
_cell_volume 2783.769579
_symmetry_space_group_name_H-M "C 2/M"
_symmetry_group_IT_number 12
_symmetry_cell_setting 'monoclinic'
loop_
_space_group_symop_operation_xyz
x,y,z
-x,y,-z
-x,-y,-z
x,-y,z
1/2+x,1/2+y,z
1/2-x,1/2+y,-z
1/2-x,1/2-y,-z
1/2+x,1/2-y,z
loop_
_atom_site_type_symbol
_atom_site_label
_atom_site_fract_x
_atom_site_fract_y
_atom_site_fract_z
Si Si1 0.024629 0.185131 0.704286
Si Si2 0.162948 0.684356 0.013574
Si Si3 0.160322 0.182506 0.872789
Si Si4 0.970298 0.684045 0.162593
Si Si5 0.661213 0.684618 0.520332
Si Si6 0.653527 0.317550 0.262699
Si Si7 0.399581 0.822449 0.576511
O O1 0.924166 0.228431 0.743556
O O2 0.056708 0.258548 0.752657
O O3 0.083397 0.229269 0.611401
O O4 0.028558 0.000000 0.707781
O O5 0.169819 0.500000 0.009806
O O6 0.152759 0.743003 0.946774
O O7 0.250000 0.750000 0.000000
O O8 0.072251 0.728180 0.097561
O O9 0.089364 0.245878 0.860969
O O10 0.257136 0.227442 0.796593
O O11 0.150936 0.000000 0.882927
O O12 0.963586 0.500000 0.162805
O O13 0.661677 0.500000 0.515731
O O14 0.750000 0.750000 0.500000
O O15 0.651062 0.757146 0.456487
O O16 0.669282 0.500000 0.247370
O O17 0.617860 0.279471 0.352238
O O18 0.500000 0.816605 0.500000
O O19 0.376455 0.000000 0.602723
#
# Coordination Sequence:
#
# PCOD9217212 Si02
#       7
#     8   8   8   8   8   8   8
#     4  10  23  42  64  91 125 166 213 263 316 380
#     4  11  24  44  70 100 132 169 214 258 311 377
#     4  12  26  43  66  97 132 169 211 262 318 377
#     4  11  25  43  66  95 130 170 212 260 313 375
#     4  11  24  42  63  90 126 168 216 266 322 382
#     4  11  23  42  67  93 126 168 214 265 320 380
#     4  11  23  40  64  94 127 166 213 266 321 379
#
# _framework density 20.116606999999998
#
# number of rings (size 3 to 8) (size 9 to 14) (size 15 to 20)
#    0.000    1.000    1.429    4.714    2.000    9.143 
#    0.000    0.000    0.000    0.000    0.000    0.000 
#    0.000    0.000    0.000    0.000    0.000    0.000 
#
# Total GULP energy -156645.387995 kJ/mol
# GULP energy per Si atom -5594.478143 kJ/mol
# Density = 2.007082 g / cm^3
# Si number density = 20.116607 Si / 1000 Ang^3
#
#
#
# Elastic Constant Matrix: (Units=GPa)
#
#
# Indices 1 2 3 4 5 6 
#
# 1 122.0957 18.5745 7.2326 0.0000 15.0036 0.0001
# 2 18.5745 25.1428 -7.5451 0.0001 -4.5373 0.0002
# 3 7.2326 -7.5451 54.2505 0.0000 10.0890 0.0000
# 4 0.0000 0.0001 0.0000 35.7613 0.0000 1.9054
# 5 15.0036 -4.5373 10.0890 0.0000 40.8205 0.0000
# 6 0.0001 0.0002 0.0000 1.9054 0.0000 31.6135
#
#
#
# Elastic Compliance Matrix: (Units=1/GPa)
#
#
# Indices 1 2 3 4 5 6 
#
# 1 0.010162 -0.008815 -0.001786 0.000000 -0.004273 0.000000
# 2 -0.008815 0.049590 0.006755 0.000000 0.007082 0.000000
# 3 -0.001786 0.006755 0.020281 0.000000 -0.003605 0.000000
# 4 0.000000 0.000000 0.000000 0.028053 0.000000 -0.001691
# 5 -0.004273 0.007082 -0.003605 0.000000 0.027746 0.000000
# 6 0.000000 0.000000 0.000000 -0.001691 0.000000 0.031734
#
#
# Mechanical properties :
#
#
# Convention : Reuss Voigt Hill
#
# Bulk Modulus (GPa) = 13.82324 26.44590 20.13457
# Shear Modulus (GPa) = 25.07872 33.85419 29.46646
#
# Velocity S-wave (km/s) = 3.53465 4.10676 3.83140
# Velocity P-wave (km/s) = 4.85230 5.97178 5.44091
#
# Compressibility (1/GPa) = 0.07234193
#
# Stress axis : x y z
#
# Youngs Moduli (GPa) = 98.40380 20.16538 49.30706
#
# Poissons Ratio (x) = 0.17775 0.08806
# Poissons Ratio (y) = 0.86739 -0.33307
# Poissons Ratio (z) = 0.17575 -0.13622
#
# Static dielectric constant tensor:
#      x y z
#    x 1.784220 0.000000 0.030810 
#    y 0.000000 1.678730 0.000000 
#    z 0.030810 0.000000 1.730640 
# 
# From -- ./inp_files/313741.got.cif
#   From: 2010.05.17/outbox.cif.g08.bks.cpg/sg12_157_cif.got.tgz:313741.got - 2010.06.03 13:09:07.
