data_PCOD9217028
_publ_section_title
;
Structure prediction by ZEFSAII (Michael W. Deem and Ramdas Pophale) SiO2 
 PCOD9217028
Probable space group: C 2/M
;
_chemical_formula_sum "Si O2"
_cell_formula_units_Z 40
_cell_length_a 24.784246
_cell_length_b 11.089096
_cell_length_c 12.185469
_cell_angle_alpha 90.000000
_cell_angle_beta 147.396574
_cell_angle_gamma 90.000000
_cell_volume 1804.507722
_symmetry_space_group_name_H-M "C 2/M"
_symmetry_group_IT_number 12
_symmetry_cell_setting 'monoclinic'
loop_
_space_group_symop_operation_xyz
x,y,z
-x,y,-z
-x,-y,-z
x,-y,z
1/2+x,1/2+y,z
1/2-x,1/2+y,-z
1/2-x,1/2-y,-z
1/2+x,1/2-y,z
loop_
_atom_site_type_symbol
_atom_site_label
_atom_site_fract_x
_atom_site_fract_y
_atom_site_fract_z
Si Si1 0.154936 0.635463 0.761886
Si Si2 0.635770 0.732381 0.946055
Si Si3 0.925592 0.142091 0.510214
Si Si4 0.330184 0.369185 0.566897
Si Si5 0.392110 0.809764 0.850603
O O1 0.117750 0.500000 0.672303
O O2 0.153309 0.657673 0.890205
O O3 0.098347 0.754012 0.618802
O O4 0.265980 0.651181 0.902454
O O5 0.539099 0.656890 0.743980
O O6 0.616838 0.782702 0.035785
O O7 0.859013 0.186624 0.499816
O O8 0.905117 0.000000 0.444963
O O9 0.375249 0.500000 0.634728
O O10 0.379092 0.309900 0.755620
O O11 0.209994 0.374097 0.364074
O O12 0.500000 0.861603 0.000000
#
# Coordination Sequence:
#
# PCOD9217028 Si02
#       5
#     8   8   8   8   8
#     4  11  26  46  69 100 140 180 226 284 339 399
#     4  11  24  43  68 101 132 181 231 279 334 406
#     4  11  23  44  70  99 138 180 227 280 337 402
#     4  10  23  41  64  96 136 177 221 278 335 400
#     4  11  22  43  67  97 133 173 225 276 337 404
#
# _framework density 22.166712
#
# number of rings (size 3 to 8) (size 9 to 14) (size 15 to 20)
#    0.000    1.200    4.000    1.200    0.000    9.600 
#    0.000    0.000    0.000    0.000    0.000    0.000 
#    0.000    0.000    0.000    0.000    0.000    0.000 
#
# Total GULP energy -111516.541263 kJ/mol
# GULP energy per Si atom -5575.827063 kJ/mol
# Density = 2.211626 g / cm^3
# Si number density = 22.166712 Si / 1000 Ang^3
#
#
#
# Elastic Constant Matrix: (Units=GPa)
#
#
# Indices 1 2 3 4 5 6 
#
# 1 151.9667 18.9000 46.7232 0.0000 -1.3345 0.0000
# 2 18.9000 99.3873 43.9583 0.0000 -16.9074 0.0000
# 3 46.7232 43.9583 102.9985 0.0000 15.3614 0.0000
# 4 0.0000 0.0000 0.0000 -185.9418 0.0000 -68.6966
# 5 -1.3345 -16.9074 15.3614 0.0000 59.9587 0.0000
# 6 0.0000 0.0000 0.0000 -68.6966 0.0000 -16.3587
#
#
#
# Elastic Compliance Matrix: (Units=1/GPa)
#
#
# Indices 1 2 3 4 5 6 
#
# 1 0.007734 0.000481 -0.003909 0.000000 0.001309 0.000000
# 2 0.000481 0.014099 -0.007101 0.000000 0.005806 0.000000
# 3 -0.003909 -0.007101 0.015413 0.000000 -0.006038 0.000000
# 4 0.000000 0.000000 0.000000 0.009752 0.000000 -0.040953
# 5 0.001309 0.005806 -0.006038 0.000000 0.019891 0.000000
# 6 0.000000 0.000000 0.000000 -0.040953 0.000000 0.110848
#
#
# Mechanical properties :
#
#
# Convention : Reuss Voigt Hill
#
# Bulk Modulus (GPa) = 61.77551 63.72396 62.74973
# Shear Modulus (GPa) = 24.48692 -12.15030 6.16831
#
# Velocity S-wave (km/s) = 3.32726 -2.34376 1.66995
# Velocity P-wave (km/s) = 6.53376 4.63527 5.66461
#
# Compressibility (1/GPa) = 0.01618765
#
# Stress axis : x y z
#
# Youngs Moduli (GPa) = 129.30151 70.92920 64.87949
#
# Poissons Ratio (x) = -0.03410 0.25360
# Poissons Ratio (y) = -0.06217 0.46071
# Poissons Ratio (z) = 0.50541 0.50367
#
# Static dielectric constant tensor:
#      x y z
#    x 1.845170 0.000000 0.007940 
#    y 0.000000 1.968370 0.000000 
#    z 0.007940 0.000000 1.854150 
# 
# From -- ./inp_files/141106.got.cif
#   From: 2010.05.17/outbox.cif.g08.bks.cpg/sg12_71_cif.got.tgz:141106.got - 2010.06.03 13:09:07.
