data_PCOD9217155
_publ_section_title
;
Structure prediction by ZEFSAII (Michael W. Deem and Ramdas Pophale) SiO2 
 PCOD9217155
Probable space group: C 2/M
;
_chemical_formula_sum "Si O2"
_cell_formula_units_Z 56
_cell_length_a 15.497249
_cell_length_b 28.834221
_cell_length_c 7.813650
_cell_angle_alpha 90.000000
_cell_angle_beta 53.285665
_cell_angle_gamma 90.000000
_cell_volume 2798.908076
_symmetry_space_group_name_H-M "C 2/M"
_symmetry_group_IT_number 12
_symmetry_cell_setting 'monoclinic'
loop_
_space_group_symop_operation_xyz
x,y,z
-x,y,-z
-x,-y,-z
x,-y,z
1/2+x,1/2+y,z
1/2-x,1/2+y,-z
1/2-x,1/2-y,-z
1/2+x,1/2-y,z
loop_
_atom_site_type_symbol
_atom_site_label
_atom_site_fract_x
_atom_site_fract_y
_atom_site_fract_z
Si Si1 0.647245 0.615632 0.153798
Si Si2 0.302501 0.446045 0.225749
Si Si3 0.104092 0.118040 0.602110
Si Si4 0.734187 0.803741 0.554413
Si Si5 0.514137 0.151975 0.684286
Si Si6 0.446850 0.948375 0.375355
Si Si7 0.206295 0.299605 0.989790
O O1 0.651422 0.606018 0.355067
O O2 0.522217 0.626482 0.268942
O O3 0.721362 0.659420 0.017745
O O4 0.683095 0.575837 0.979654
O O5 0.327368 0.500000 0.187122
O O6 0.375285 0.421316 0.282106
O O7 0.179886 0.440642 0.438776
O O8 0.164638 0.163335 0.602680
O O9 0.750000 0.750000 0.500000
O O10 0.628129 0.825263 0.594416
O O11 0.722909 0.804583 0.770052
O O12 0.500000 0.145273 0.500000
O O13 0.509073 0.099082 0.763934
O O14 0.418512 0.187477 0.840020
O O15 0.500000 0.951450 0.500000
O O16 0.462163 0.000000 0.276900
O O17 0.250000 0.250000 0.000000
#
# Coordination Sequence:
#
# PCOD9217155 Si02
#       7
#     8   8   8   8   8   8   8
#     4  10  23  42  62  89 129 169 208 266 316 381
#     4  11  22  40  67  97 127 167 216 265 320 384
#     4  10  23  42  62  90 129 167 212 263 317 384
#     4  11  24  41  63  90 126 169 214 262 323 379
#     4  11  21  39  65  91 130 166 207 264 317 380
#     4   9  18  34  62  93 123 165 213 257 314 376
#     4  11  25  41  62  94 125 164 216 263 318 381
#
# _framework density 20.007802000000002
#
# number of rings (size 3 to 8) (size 9 to 14) (size 15 to 20)
#    0.000    1.571    1.429    3.429    4.000    1.714 
#    0.000    1.429    0.000    2.571    0.000    0.000 
#    0.000    0.000    0.000    0.000    0.000    0.000 
#
# Total GULP energy -156201.861056 kJ/mol
# GULP energy per Si atom -5578.637895 kJ/mol
# Density = 1.996226 g / cm^3
# Si number density = 20.007802 Si / 1000 Ang^3
#
#
#
# Elastic Constant Matrix: (Units=GPa)
#
#
# Indices 1 2 3 4 5 6 
#
# 1 103.8843 54.4011 5.9438 0.0000 -1.4811 0.0000
# 2 54.4011 174.9592 28.6103 0.0000 2.0216 0.0000
# 3 5.9438 28.6103 24.7625 0.0000 3.6719 0.0000
# 4 0.0000 0.0000 0.0000 72.6591 0.0000 -45.9766
# 5 -1.4811 2.0216 3.6719 0.0000 23.8694 0.0000
# 6 0.0000 0.0000 0.0000 -45.9766 0.0000 95.3365
#
#
#
# Elastic Compliance Matrix: (Units=1/GPa)
#
#
# Indices 1 2 3 4 5 6 
#
# 1 0.011571 -0.003863 0.001567 0.000000 0.000804 0.000000
# 2 -0.003863 0.008348 -0.008777 0.000000 0.000403 0.000000
# 3 0.001567 -0.008777 0.051191 0.000000 -0.007034 0.000000
# 4 0.000000 0.000000 0.000000 0.019807 0.000000 0.009552
# 5 0.000804 0.000403 -0.007034 0.000000 0.042992 0.000000
# 6 0.000000 0.000000 0.000000 0.009552 0.000000 0.015096
#
#
# Mechanical properties :
#
#
# Convention : Reuss Voigt Hill
#
# Bulk Modulus (GPa) = 20.42353 53.50183 36.96268
# Shear Modulus (GPa) = 26.67046 52.68305 39.67675
#
# Velocity S-wave (km/s) = 3.65499 5.13697 4.45799
# Velocity P-wave (km/s) = 5.29546 7.87293 6.70914
#
# Compressibility (1/GPa) = 0.04896313
#
# Stress axis : x y z
#
# Youngs Moduli (GPa) = 86.42260 119.79629 19.53452
#
# Poissons Ratio (x) = 0.46282 -0.03061
# Poissons Ratio (y) = 0.33388 0.17146
# Poissons Ratio (z) = -0.13543 1.05146
#
# Static dielectric constant tensor:
#      x y z
#    x 1.680750 0.000000 -0.111730 
#    y 0.000000 1.644320 0.000000 
#    z -0.111730 0.000000 1.505720 
# 
# From -- ./inp_files/65747.got.cif
#   From: 2010.05.17/outbox.cif.g08.bks.cpg/sg12_33_cif.got.tgz:65747.got - 2010.06.03 13:09:07.
