data_PCOD9217403
_publ_section_title
;
Structure prediction by ZEFSAII (Michael W. Deem and Ramdas Pophale) SiO2 
 PCOD9217403
Probable space group: C 2/M
;
_chemical_formula_sum "Si O2"
_cell_formula_units_Z 48
_cell_length_a 20.795626
_cell_length_b 7.788428
_cell_length_c 15.342078
_cell_angle_alpha 90.000000
_cell_angle_beta 85.484422
_cell_angle_gamma 90.000000
_cell_volume 2477.170116
_symmetry_space_group_name_H-M "C 2/M"
_symmetry_group_IT_number 12
_symmetry_cell_setting 'monoclinic'
loop_
_space_group_symop_operation_xyz
x,y,z
-x,y,-z
-x,-y,-z
x,-y,z
1/2+x,1/2+y,z
1/2-x,1/2+y,-z
1/2-x,1/2-y,-z
1/2+x,1/2-y,z
loop_
_atom_site_type_symbol
_atom_site_label
_atom_site_fract_x
_atom_site_fract_y
_atom_site_fract_z
Si Si1 0.567544 0.207271 0.033268
Si Si2 0.955049 0.000000 0.639969
Si Si3 0.200407 0.800556 0.929188
Si Si4 0.233158 0.196289 0.248538
Si Si5 0.697464 0.205250 0.579108
Si Si6 0.097871 0.000000 0.546618
Si Si7 0.909224 0.696938 0.768804
O O1 0.575875 0.254695 0.133724
O O2 0.568305 0.000000 0.030554
O O3 0.500000 0.267421 0.000000
O O4 0.628726 0.268302 0.971505
O O5 0.939652 0.831152 0.698378
O O6 0.912560 0.000000 0.556483
O O7 0.028845 0.000000 0.600704
O O8 0.219886 0.704327 0.839293
O O9 0.208975 0.000000 0.909373
O O10 0.250000 0.750000 0.000000
O O11 0.270666 0.249215 0.331162
O O12 0.168073 0.298781 0.235743
O O13 0.211685 0.000000 0.264151
O O14 0.750000 0.250000 0.500000
O O15 0.637332 0.329696 0.568710
O O16 0.683166 0.000000 0.578671
O O17 0.931802 0.500000 0.754825
#
# Coordination Sequence:
#
# PCOD9217403 Si02
#       7
#     8   4   8   8   8   4   8
#     4  10  23  43  63  90 130 174 220 275 333 394
#     4  11  26  46  67  96 136 178 218 274 326 404
#     4  12  24  38  61  93 129 168 218 275 331 390
#     4  11  23  40  65  96 131 170 217 277 336 390
#     4  11  24  42  69 101 134 171 216 276 335 392
#     4  11  26  46  68  98 140 173 215 274 340 394
#     4  11  23  41  69  96 127 176 227 267 328 402
#
# _framework density 19.376949
#
# number of rings (size 3 to 8) (size 9 to 14) (size 15 to 20)
#    0.000    1.000    3.333    3.000    3.500    4.333 
#    0.000    5.000    0.000    0.000    0.000    0.000 
#    0.000    0.000    0.000    0.000    0.000    0.000 
#
# Total GULP energy -134201.642401 kJ/mol
# GULP energy per Si atom -5591.735100 kJ/mol
# Density = 1.933285 g / cm^3
# Si number density = 19.376949 Si / 1000 Ang^3
#
#
#
# Elastic Constant Matrix: (Units=GPa)
#
#
# Indices 1 2 3 4 5 6 
#
# 1 124.4489 41.7433 68.7955 0.0000 9.8869 0.0000
# 2 41.7433 90.0119 45.5320 0.0000 7.3305 0.0000
# 3 68.7955 45.5320 169.2404 0.0000 6.6122 0.0000
# 4 0.0000 0.0000 0.0000 31.4282 0.0000 -0.2227
# 5 9.8869 7.3305 6.6122 0.0000 33.5944 0.0000
# 6 0.0000 0.0000 0.0000 -0.2227 0.0000 26.3310
#
#
#
# Elastic Compliance Matrix: (Units=1/GPa)
#
#
# Indices 1 2 3 4 5 6 
#
# 1 0.011285 -0.003236 -0.003643 0.000000 -0.001898 0.000000
# 2 -0.003236 0.013943 -0.002372 0.000000 -0.001623 0.000000
# 3 -0.003643 -0.002372 0.008027 0.000000 0.000010 0.000000
# 4 0.000000 0.000000 0.000000 0.031820 0.000000 0.000269
# 5 -0.001898 -0.001623 0.000010 0.000000 0.030678 0.000000
# 6 0.000000 0.000000 0.000000 0.000269 0.000000 0.037980
#
#
# Mechanical properties :
#
#
# Convention : Reuss Voigt Hill
#
# Bulk Modulus (GPa) = 67.78259 77.31588 72.54924
# Shear Modulus (GPa) = 31.81595 33.44608 32.63102
#
# Velocity S-wave (km/s) = 4.05649 4.15911 4.10812
# Velocity P-wave (km/s) = 7.54965 7.94052 7.74755
#
# Compressibility (1/GPa) = 0.01475305
#
# Stress axis : x y z
#
# Youngs Moduli (GPa) = 88.60952 71.72240 124.57560
#
# Poissons Ratio (x) = 0.23213 0.45378
# Poissons Ratio (y) = 0.28678 0.29550
# Poissons Ratio (z) = 0.32277 0.17013
#
# Static dielectric constant tensor:
#      x y z
#    x 1.647630 0.000000 0.015690 
#    y 0.000000 1.682260 0.000000 
#    z 0.015690 0.000000 1.639210 
# 
# From -- ./inp_files/221783.got.cif
#   From: 2010.05.17/outbox.cif.g08.bks.cpg/sg12_111_cif.got.tgz:221783.got - 2010.06.03 13:09:07.
