data_PCOD9217116
_publ_section_title
;
Structure prediction by ZEFSAII (Michael W. Deem and Ramdas Pophale) SiO2 
 PCOD9217116
Probable space group: C 2/M
;
_chemical_formula_sum "Si O2"
_cell_formula_units_Z 56
_cell_length_a 17.421784
_cell_length_b 32.948696
_cell_length_c 5.067273
_cell_angle_alpha 90.000000
_cell_angle_beta 63.381230
_cell_angle_gamma 90.000000
_cell_volume 2600.436917
_symmetry_space_group_name_H-M "C 2/M"
_symmetry_group_IT_number 12
_symmetry_cell_setting 'monoclinic'
loop_
_space_group_symop_operation_xyz
x,y,z
-x,y,-z
-x,-y,-z
x,-y,z
1/2+x,1/2+y,z
1/2-x,1/2+y,-z
1/2-x,1/2-y,-z
1/2+x,1/2-y,z
loop_
_atom_site_type_symbol
_atom_site_label
_atom_site_fract_x
_atom_site_fract_y
_atom_site_fract_z
Si Si1 0.712449 0.119792 0.232370
Si Si2 0.443339 0.125464 0.846725
Si Si3 0.666032 0.335391 0.318173
Si Si4 0.444862 0.739114 0.348922
Si Si5 0.845627 0.686705 0.291801
Si Si6 0.682408 0.546273 0.838374
Si Si7 0.907264 0.921899 0.505166
O O1 0.651104 0.107846 0.080975
O O2 0.657398 0.150816 0.489210
O O3 0.744399 0.079755 0.328968
O O4 0.795271 0.146291 0.013314
O O5 0.500000 0.122591 0.500000
O O6 0.500000 0.108124 0.000000
O O7 0.416482 0.171187 0.974535
O O8 0.596186 0.300491 0.450416
O O9 0.751065 0.315940 0.316023
O O10 0.625316 0.376158 0.502124
O O11 0.500000 0.758259 0.500000
O O12 0.372144 0.770659 0.369391
O O13 0.500000 0.729449 0.000000
O O14 0.710472 0.500000 0.776827
O O15 0.606113 0.554237 0.746351
O O16 0.651808 0.556991 0.181217
O O17 0.000000 0.920417 0.500000
#
# Coordination Sequence:
#
# PCOD9217116 Si02
#       7
#     8   8   8   8   8   8   8
#     4  10  23  41  71  95 128 176 222 258 331 397
#     4  11  22  37  66  99 130 162 216 274 326 381
#     4  10  24  45  64  92 131 179 221 263 322 390
#     4  12  30  42  63  95 132 169 220 281 328 369
#     4  11  23  42  68  92 128 173 223 266 323 387
#     4  11  24  43  66  99 133 168 215 268 320 388
#     4  11  23  41  68  96 131 174 216 261 320 388
#
# _framework density 21.534842999999999
#
# number of rings (size 3 to 8) (size 9 to 14) (size 15 to 20)
#    0.000    1.143    2.857    2.143    8.000    3.429 
#    0.000    0.000    0.000    0.857    0.000    0.000 
#    0.000    0.000    0.000    0.000    0.000    0.000 
#
# Total GULP energy -156273.395370 kJ/mol
# GULP energy per Si atom -5581.192692 kJ/mol
# Density = 2.148583 g / cm^3
# Si number density = 21.534843 Si / 1000 Ang^3
#
#
#
# Elastic Constant Matrix: (Units=GPa)
#
#
# Indices 1 2 3 4 5 6 
#
# 1 104.5682 35.4252 27.8342 0.0000 9.1227 0.0000
# 2 35.4252 140.2315 33.3796 0.0000 0.5202 0.0000
# 3 27.8342 33.3796 84.9535 0.0000 8.6963 0.0000
# 4 0.0000 0.0000 0.0000 4.7539 0.0000 9.9658
# 5 9.1227 0.5202 8.6963 0.0000 29.6682 0.0000
# 6 0.0000 0.0000 0.0000 9.9658 0.0000 11.2552
#
#
#
# Elastic Compliance Matrix: (Units=1/GPa)
#
#
# Indices 1 2 3 4 5 6 
#
# 1 0.011223 -0.002223 -0.002530 0.000000 -0.002670 0.000000
# 2 -0.002223 0.008325 -0.002678 0.000000 0.001323 0.000000
# 3 -0.002530 -0.002678 0.013988 0.000000 -0.003275 0.000000
# 4 0.000000 0.000000 0.000000 -0.245689 0.000000 0.217543
# 5 -0.002670 0.001323 -0.003275 0.000000 0.035464 0.000000
# 6 0.000000 0.000000 0.000000 0.217543 0.000000 -0.103774
#
#
# Mechanical properties :
#
#
# Convention : Reuss Voigt Hill
#
# Bulk Modulus (GPa) = 53.55342 58.11457 55.83399
# Shear Modulus (GPa) = -19.27702 24.67641 2.69969
#
# Velocity S-wave (km/s) = -2.99516 3.38876 1.12088
# Velocity P-wave (km/s) = 3.60013 6.50819 5.25916
#
# Compressibility (1/GPa) = 0.01867294
#
# Stress axis : x y z
#
# Youngs Moduli (GPa) = 89.10549 120.11729 71.49129
#
# Poissons Ratio (x) = 0.26701 0.18089
# Poissons Ratio (y) = 0.19807 0.19147
# Poissons Ratio (z) = 0.22546 0.32170
#
# Static dielectric constant tensor:
#      x y z
#    x 1.878640 0.000000 0.012070 
#    y 0.000000 1.758630 0.000000 
#    z 0.012070 0.000000 1.845280 
# 
# From -- ./inp_files/18248.got.cif
#   From: 2010.05.17/outbox.cif.g08.bks.cpg/sg12_10_cif.got.tgz:18248.got - 2010.06.03 13:09:07.
