data_PCOD9217231
_publ_section_title
;
Structure prediction by ZEFSAII (Michael W. Deem and Ramdas Pophale) SiO2 
 PCOD9217231
Probable space group: C 2/M
;
_chemical_formula_sum "Si O2"
_cell_formula_units_Z 42
_cell_length_a 18.640108
_cell_length_b 9.599979
_cell_length_c 12.538510
_cell_angle_alpha 90.000000
_cell_angle_beta 119.506611
_cell_angle_gamma 90.000000
_cell_volume 1952.688906
_symmetry_space_group_name_H-M "C 2/M"
_symmetry_group_IT_number 12
_symmetry_cell_setting 'monoclinic'
loop_
_space_group_symop_operation_xyz
x,y,z
-x,y,-z
-x,-y,-z
x,-y,z
1/2+x,1/2+y,z
1/2-x,1/2+y,-z
1/2-x,1/2-y,-z
1/2+x,1/2-y,z
loop_
_atom_site_type_symbol
_atom_site_label
_atom_site_fract_x
_atom_site_fract_y
_atom_site_fract_z
Si Si1 0.333089 0.340285 0.818797
Si Si2 0.349156 0.216646 0.377119
Si Si3 0.832913 0.332585 0.025890
Si Si4 0.000000 0.500000 0.500000
Si Si5 0.375011 0.659761 0.612052
Si Si6 0.430583 0.349195 0.253260
O O1 0.361201 0.500000 0.860348
O O2 0.233922 0.341982 0.734994
O O3 0.355506 0.232084 0.927500
O O4 0.365510 0.292870 0.726823
O O5 0.331925 0.255698 0.486806
O O6 0.378776 0.342816 0.324127
O O7 0.427642 0.117687 0.433643
O O8 0.823079 0.500000 0.018398
O O9 0.750000 0.250000 0.000000
O O10 0.900744 0.279123 0.159587
O O11 0.345343 0.500000 0.588083
O O12 0.472254 0.660929 0.656297
O O13 0.414657 0.500000 0.188463
#
# Coordination Sequence:
#
# PCOD9217231 Si02
#       6
#     8   8   8   2   8   8
#     4  11  24  43  66  94 132 174 214 264 325 389
#     4  12  22  39  65  96 133 171 218 267 323 382
#     4  12  26  43  67  96 127 167 219 271 327 388
#     4  12  24  36  62 104 130 178 220 272 326 374
#     4  10  23  42  64  95 130 172 216 262 323 387
#     4  11  23  41  69  94 128 171 221 274 316 384
#
# _framework density 21.508801999999999
#
# number of rings (size 3 to 8) (size 9 to 14) (size 15 to 20)
#    0.000    0.762    4.762    2.857    1.333    3.048 
#    1.714    3.810    0.000    0.000    0.000    0.000 
#    0.000    0.000    0.000    0.000    0.000    0.000 
#
# Total GULP energy -117067.257815 kJ/mol
# GULP energy per Si atom -5574.631325 kJ/mol
# Density = 2.145985 g / cm^3
# Si number density = 21.508802 Si / 1000 Ang^3
#
#
#
# Elastic Constant Matrix: (Units=GPa)
#
#
# Indices 1 2 3 4 5 6 
#
# 1 40.1281 -0.5155 -1.7224 0.0000 -15.2971 0.0000
# 2 -0.5155 138.5828 51.1124 0.0000 -11.6421 0.0000
# 3 -1.7224 51.1124 89.4201 0.0000 -25.8625 0.0000
# 4 0.0000 0.0000 0.0000 -97.2879 0.0000 70.2098
# 5 -15.2971 -11.6421 -25.8625 0.0000 36.3834 0.0000
# 6 0.0000 0.0000 0.0000 70.2098 0.0000 -53.0599
#
#
#
# Elastic Compliance Matrix: (Units=1/GPa)
#
#
# Indices 1 2 3 4 5 6 
#
# 1 0.031828 -0.000638 0.006028 0.000000 0.017463 0.000000
# 2 -0.000638 0.009185 -0.005652 0.000000 -0.001347 0.000000
# 3 0.006028 -0.005652 0.018555 0.000000 0.013915 0.000000
# 4 0.000000 0.000000 0.000000 -0.228049 0.000000 -0.301758
# 5 0.017463 -0.001347 0.013915 0.000000 0.044288 0.000000
# 6 0.000000 0.000000 0.000000 -0.301758 0.000000 -0.418138
#
#
# Mechanical properties :
#
#
# Convention : Reuss Voigt Hill
#
# Bulk Modulus (GPa) = 16.93643 40.65332 28.79488
# Shear Modulus (GPa) = -9.57621 -8.17579 -8.87600
#
# Velocity S-wave (km/s) = -2.11232 -1.95177 -2.03363
# Velocity P-wave (km/s) = 1.39359 3.72326 2.81111
#
# Compressibility (1/GPa) = 0.05904432
#
# Stress axis : x y z
#
# Youngs Moduli (GPa) = 31.41913 108.87386 53.89503
#
# Poissons Ratio (x) = 0.06946 -0.32490
# Poissons Ratio (y) = 0.02005 0.30461
# Poissons Ratio (z) = -0.18941 0.61535
#
# Static dielectric constant tensor:
#      x y z
#    x 1.788050 0.000000 -0.036710 
#    y 0.000000 1.761800 0.000000 
#    z -0.036710 0.000000 1.807100 
# 
# From -- ./inp_files/163319.got.cif
#   From: 2010.05.17/outbox.cif.g08.bks.cpg/sg12_82_cif.got.tgz:163319.got - 2010.06.03 13:09:07.
