data_PCOD9217904
_publ_section_title
;
Structure prediction by ZEFSAII (Michael W. Deem and Ramdas Pophale) SiO2 
 PCOD9217904
Probable space group: C 2/M
;
_chemical_formula_sum "Si O2"
_cell_formula_units_Z 44
_cell_length_a 8.802166
_cell_length_b 19.150414
_cell_length_c 12.827125
_cell_angle_alpha 90.000000
_cell_angle_beta 96.639040
_cell_angle_gamma 90.000000
_cell_volume 2147.706625
_symmetry_space_group_name_H-M "C 2/M"
_symmetry_group_IT_number 12
_symmetry_cell_setting 'monoclinic'
loop_
_space_group_symop_operation_xyz
x,y,z
-x,y,-z
-x,-y,-z
x,-y,z
1/2+x,1/2+y,z
1/2-x,1/2+y,-z
1/2-x,1/2-y,-z
1/2+x,1/2-y,z
loop_
_atom_site_type_symbol
_atom_site_label
_atom_site_fract_x
_atom_site_fract_y
_atom_site_fract_z
Si Si1 0.500000 0.751840 0.500000
Si Si2 0.361500 0.000000 0.187591
Si Si3 0.187843 0.500000 0.326689
Si Si4 0.729293 0.221385 0.346111
Si Si5 0.835441 0.000000 0.540394
Si Si6 0.681352 0.618909 0.291432
Si Si7 0.824148 0.000000 0.032421
Si Si8 0.665474 0.615622 0.792424
O O1 0.409755 0.792830 0.584633
O O2 0.379250 0.705686 0.426690
O O3 0.532421 0.000000 0.247654
O O4 0.285636 0.071469 0.224871
O O5 0.309840 0.000000 0.063531
O O6 0.191307 0.500000 0.450665
O O7 0.286338 0.565682 0.298492
O O8 0.735439 0.304420 0.326666
O O9 0.739882 0.183913 0.234954
O O10 0.829673 0.931065 0.609991
O O11 0.000000 0.000000 0.500000
O O12 0.514822 0.628640 0.226755
O O13 0.805030 0.930973 0.103051
O O14 0.000000 0.000000 0.000000
#
# Coordination Sequence:
#
# PCOD9217904 Si02
#       8
#     4   4   4   8   4   8   4   8
#     4  10  24  36  60  90 138 192 212 254 320 406
#     4  11  25  43  69 101 125 166 230 292 339 386
#     4  11  25  37  65  97 137 166 222 283 323 389
#     4  11  24  39  61  96 138 180 227 259 332 393
#     4  11  21  35  65  92 135 179 222 252 323 394
#     4  11  23  40  63  97 137 178 221 267 323 412
#     4  11  21  47  81  93 117 175 233 283 352 403
#     4  11  23  42  66  97 129 181 220 281 333 395
#
# _framework density 20.486971
#
# number of rings (size 3 to 8) (size 9 to 14) (size 15 to 20)
#    0.000    1.091    5.455    1.091    8.909    2.909 
#    0.000    0.909    0.000    1.636    0.000    0.000 
#    0.000    0.000    0.000    0.000    0.000    0.000 
#
# Total GULP energy -122691.700495 kJ/mol
# GULP energy per Si atom -5576.895477 kJ/mol
# Density = 2.044034 g / cm^3
# Si number density = 20.486971 Si / 1000 Ang^3
#
#
#
# Elastic Constant Matrix: (Units=GPa)
#
#
# Indices 1 2 3 4 5 6 
#
# 1 92.2687 11.5355 34.7802 0.0000 4.6524 0.0000
# 2 11.5355 130.6707 40.7224 0.0000 -10.5971 0.0000
# 3 34.7802 40.7224 129.6177 0.0000 8.3395 0.0000
# 4 0.0000 0.0000 0.0000 2.6743 0.0000 -0.1090
# 5 4.6524 -10.5971 8.3395 0.0000 31.6250 0.0000
# 6 0.0000 0.0000 0.0000 -0.1090 0.0000 8.5409
#
#
#
# Elastic Compliance Matrix: (Units=1/GPa)
#
#
# Indices 1 2 3 4 5 6 
#
# 1 0.012088 -0.000176 -0.003123 0.000000 -0.001014 0.000000
# 2 -0.000176 0.008911 -0.002997 0.000000 0.003802 0.000000
# 3 -0.003123 -0.002997 0.009694 0.000000 -0.003101 0.000000
# 4 0.000000 0.000000 0.000000 0.374122 0.000000 0.004774
# 5 -0.001014 0.003802 -0.003101 0.000000 0.033861 0.000000
# 6 0.000000 0.000000 0.000000 0.004774 0.000000 0.117145
#
#
# Mechanical properties :
#
#
# Convention : Reuss Voigt Hill
#
# Bulk Modulus (GPa) = 55.24576 58.51481 56.88029
# Shear Modulus (GPa) = 8.70402 26.26932 17.48667
#
# Velocity S-wave (km/s) = 2.06344 3.58473 2.92473
# Velocity P-wave (km/s) = 5.71856 6.76444 6.26337
#
# Compressibility (1/GPa) = 0.01810094
#
# Stress axis : x y z
#
# Youngs Moduli (GPa) = 82.72482 112.22532 103.15592
#
# Poissons Ratio (x) = 0.01976 0.32217
# Poissons Ratio (y) = 0.01457 0.30914
# Poissons Ratio (z) = 0.25836 0.33632
#
# Static dielectric constant tensor:
#      x y z
#    x 1.777210 0.000000 -0.020350 
#    y 0.000000 1.686320 0.000000 
#    z -0.020350 0.000000 1.774310 
# 
# From -- ./inp_files/120899.got.cif
#   From: 2010.05.17/outbox.cif.g08.bks.cpg/sg12_61_cif.got.tgz:120899.got - 2010.06.03 13:09:07.
