data_PCOD9217152
_publ_section_title
;
Structure prediction by ZEFSAII (Michael W. Deem and Ramdas Pophale) SiO2 
 PCOD9217152
Probable space group: C 2/M
;
_chemical_formula_sum "Si O2"
_cell_formula_units_Z 40
_cell_length_a 27.703734
_cell_length_b 8.813096
_cell_length_c 13.869574
_cell_angle_alpha 90.000000
_cell_angle_beta 38.176903
_cell_angle_gamma 90.000000
_cell_volume 2093.065113
_symmetry_space_group_name_H-M "C 2/M"
_symmetry_group_IT_number 12
_symmetry_cell_setting 'monoclinic'
loop_
_space_group_symop_operation_xyz
x,y,z
-x,y,-z
-x,-y,-z
x,-y,z
1/2+x,1/2+y,z
1/2-x,1/2+y,-z
1/2-x,1/2-y,-z
1/2+x,1/2-y,z
loop_
_atom_site_type_symbol
_atom_site_label
_atom_site_fract_x
_atom_site_fract_y
_atom_site_fract_z
Si Si1 0.667033 0.818132 0.660784
Si Si2 0.965246 0.180797 0.269428
Si Si3 0.770233 0.818155 0.864254
Si Si4 0.069043 0.681540 0.467465
Si Si5 0.127152 0.681357 0.945298
O O1 0.750000 0.750000 0.500000
O O2 0.599609 0.749930 0.699756
O O3 0.648993 0.782895 0.800835
O O4 0.668713 0.000000 0.647730
O O5 0.950972 0.245757 0.398467
O O6 0.958643 0.000000 0.280946
O O7 0.050254 0.231594 0.099484
O O8 0.850140 0.747789 0.699280
O O9 0.699796 0.784349 0.900964
O O10 0.777832 0.000000 0.859060
O O11 0.750000 0.750000 0.000000
O O12 0.075232 0.500000 0.468032
O O13 0.000000 0.714178 0.500000
O O14 0.111780 0.500000 0.975546
#
# Coordination Sequence:
#
# PCOD9217152 Si02
#       5
#     8   8   8   8   8
#     4  11  23  41  65  91 123 162 205 254 306 360
#     4  12  25  40  62  92 124 160 203 251 305 367
#     4  11  23  40  63  92 125 160 203 252 305 366
#     4  11  24  42  64  90 122 161 205 254 307 362
#     4  10  23  42  62  87 121 161 203 250 303 359
#
# _framework density 19.110728000000002
#
# number of rings (size 3 to 8) (size 9 to 14) (size 15 to 20)
#    0.000    1.000    0.000    6.600    0.000   13.600 
#    0.000    0.000    0.000    0.000    0.000    0.000 
#    0.000    0.000    0.000    0.000    0.000    0.000 
#
# Total GULP energy -111966.664141 kJ/mol
# GULP energy per Si atom -5598.333207 kJ/mol
# Density = 1.906723 g / cm^3
# Si number density = 19.110728 Si / 1000 Ang^3
#
#
#
# Elastic Constant Matrix: (Units=GPa)
#
#
# Indices 1 2 3 4 5 6 
#
# 1 212.7769 118.5322 131.7813 0.0000 8.5863 0.0000
# 2 118.5322 112.5844 113.7304 0.0001 0.7128 0.0000
# 3 131.7813 113.7304 218.6278 0.0000 2.0893 0.0000
# 4 0.0000 0.0001 0.0000 44.3652 0.0000 -1.4788
# 5 8.5863 0.7128 2.0893 0.0000 41.4254 0.0000
# 6 0.0000 0.0000 0.0000 -1.4788 0.0000 31.7344
#
#
#
# Elastic Compliance Matrix: (Units=1/GPa)
#
#
# Indices 1 2 3 4 5 6 
#
# 1 0.011742 -0.011001 -0.001334 0.000000 -0.002177 0.000000
# 2 -0.011001 0.029027 -0.008490 0.000000 0.002209 0.000000
# 3 -0.001334 -0.008490 0.009795 0.000000 -0.000071 0.000000
# 4 0.000000 0.000000 0.000000 0.022575 0.000000 0.001052
# 5 -0.002177 0.002209 -0.000071 0.000000 0.024557 0.000000
# 6 0.000000 0.000000 0.000000 0.001052 0.000000 0.031561
#
#
# Mechanical properties :
#
#
# Convention : Reuss Voigt Hill
#
# Bulk Modulus (GPa) = 112.18182 141.34190 126.76186
# Shear Modulus (GPa) = 28.75568 35.50134 32.12851
#
# Velocity S-wave (km/s) = 3.88324 4.31474 4.10466
# Velocity P-wave (km/s) = 8.88451 9.94699 9.43072
#
# Compressibility (1/GPa) = 0.00891410
#
# Stress axis : x y z
#
# Youngs Moduli (GPa) = 85.16123 34.45108 102.08920
#
# Poissons Ratio (x) = 0.37900 0.13622
# Poissons Ratio (y) = 0.93686 0.86671
# Poissons Ratio (z) = 0.11364 0.29248
#
# Static dielectric constant tensor:
#      x y z
#    x 1.633340 0.000000 0.002520 
#    y 0.000000 1.637630 0.000000 
#    z 0.002520 0.000000 1.616070 
# 
# From -- ./inp_files/151687.got.cif
#   From: 2010.05.17/outbox.cif.g08.bks.cpg/sg12_76_cif.got.tgz:151687.got - 2010.06.03 13:09:07.
