data_PCOD9217634
_publ_section_title
;
Structure prediction by ZEFSAII (Michael W. Deem and Ramdas Pophale) SiO2 
 PCOD9217634
Probable space group: C 2/M
;
_chemical_formula_sum "Si O2"
_cell_formula_units_Z 42
_cell_length_a 5.235511
_cell_length_b 28.494693
_cell_length_c 11.612337
_cell_angle_alpha 90.000000
_cell_angle_beta 99.721361
_cell_angle_gamma 90.000000
_cell_volume 1707.502181
_symmetry_space_group_name_H-M "C 2/M"
_symmetry_group_IT_number 12
_symmetry_cell_setting 'monoclinic'
loop_
_space_group_symop_operation_xyz
x,y,z
-x,y,-z
-x,-y,-z
x,-y,z
1/2+x,1/2+y,z
1/2-x,1/2+y,-z
1/2-x,1/2-y,-z
1/2+x,1/2-y,z
loop_
_atom_site_type_symbol
_atom_site_label
_atom_site_fract_x
_atom_site_fract_y
_atom_site_fract_z
Si Si1 0.675241 0.500000 0.220879
Si Si2 0.500000 0.000000 0.000000
Si Si3 0.790074 0.220407 0.773412
Si Si4 0.234916 0.500000 0.378266
Si Si5 0.000000 0.161514 0.000000
Si Si6 0.076151 0.132995 0.371079
Si Si7 0.000000 0.576782 0.500000
Si Si8 0.840416 0.080083 0.142288
O O1 0.470648 0.500000 0.309966
O O2 0.598743 0.546855 0.144769
O O3 0.957150 0.500000 0.294112
O O4 0.627634 0.041670 0.093098
O O5 0.495406 0.237958 0.763203
O O6 0.857440 0.182660 0.680398
O O7 0.857378 0.194425 0.898088
O O8 0.215258 0.544274 0.459333
O O9 0.826137 0.125048 0.059166
O O10 0.350640 0.106240 0.394062
O O11 0.000000 0.137568 0.500000
O O12 0.883194 0.103670 0.272167
#
# Coordination Sequence:
#
# PCOD9217634 Si02
#       8
#     4   2   8   4   4   8   4   8
#     4  11  22  43  63 101 146 195 244 305 356 435
#     4  10  24  40  70 106 162 210 258 316 362 444
#     4  11  27  51  79 112 146 196 251 331 404 474
#     4  11  24  39  68  97 152 197 258 291 351 434
#     4  10  24  47  77 104 150 192 267 321 390 470
#     4  11  25  46  75 111 155 196 256 315 390 479
#     4  11  24  40  70 104 146 212 246 312 364 445
#     4  10  23  44  67 112 150 206 252 315 375 442
#
# _framework density 24.597332999999999
#
# number of rings (size 3 to 8) (size 9 to 14) (size 15 to 20)
#    0.000    1.333    1.905    1.714    2.667    9.143 
#    3.429    1.429    0.000    0.000    0.000    0.000 
#    0.000    0.000    0.000    0.000    0.000    0.000 
#
# Total GULP energy -117224.555969 kJ/mol
# GULP energy per Si atom -5582.121713 kJ/mol
# Density = 2.454135 g / cm^3
# Si number density = 24.597333 Si / 1000 Ang^3
#
#
#
# Elastic Constant Matrix: (Units=GPa)
#
#
# Indices 1 2 3 4 5 6 
#
# 1 105.8418 0.5608 43.3303 0.0000 6.6494 0.0000
# 2 0.5608 95.0105 46.2569 0.0000 2.0846 0.0000
# 3 43.3303 46.2569 155.9835 0.0000 0.6692 0.0000
# 4 0.0000 0.0000 0.0000 54.2620 0.0000 4.4335
# 5 6.6494 2.0846 0.6692 0.0000 41.0291 0.0000
# 6 0.0000 0.0000 0.0000 4.4335 0.0000 24.4928
#
#
#
# Elastic Compliance Matrix: (Units=1/GPa)
#
#
# Indices 1 2 3 4 5 6 
#
# 1 0.011009 0.001706 -0.003556 0.000000 -0.001813 0.000000
# 2 0.001706 0.012579 -0.004201 0.000000 -0.000847 0.000000
# 3 -0.003556 -0.004201 0.008642 0.000000 0.000649 0.000000
# 4 0.000000 0.000000 0.000000 0.018706 0.000000 -0.003386
# 5 -0.001813 -0.000847 0.000649 0.000000 0.024699 0.000000
# 6 0.000000 0.000000 0.000000 -0.003386 0.000000 0.041441
#
#
# Mechanical properties :
#
#
# Convention : Reuss Voigt Hill
#
# Bulk Modulus (GPa) = 49.68199 59.68129 54.68164
# Shear Modulus (GPa) = 36.79549 41.73597 39.26573
#
# Velocity S-wave (km/s) = 3.87190 4.12365 3.99976
# Velocity P-wave (km/s) = 6.34277 6.85483 6.60377
#
# Compressibility (1/GPa) = 0.02012802
#
# Stress axis : x y z
#
# Youngs Moduli (GPa) = 90.83619 79.49906 115.71760
#
# Poissons Ratio (x) = -0.13564 0.41153
# Poissons Ratio (y) = -0.15499 0.48608
# Poissons Ratio (z) = 0.32304 0.33394
#
# Static dielectric constant tensor:
#      x y z
#    x 2.030900 0.000000 -0.055720 
#    y 0.000000 1.958790 0.000000 
#    z -0.055720 0.000000 2.019740 
# 
# From -- ./inp_files/116165.got.cif
#   From: 2010.05.17/outbox.cif.g08.bks.cpg/sg12_59_cif.got.tgz:116165.got - 2010.06.03 13:09:07.
