data_PCOD9217586
_publ_section_title
;
Structure prediction by ZEFSAII (Michael W. Deem and Ramdas Pophale) SiO2 
 PCOD9217586
Probable space group: C 2/M
;
_chemical_formula_sum "Si O2"
_cell_formula_units_Z 34
_cell_length_a 14.054131
_cell_length_b 9.888023
_cell_length_c 24.400657
_cell_angle_alpha 90.000000
_cell_angle_beta 153.377906
_cell_angle_gamma 90.000000
_cell_volume 1519.475363
_symmetry_space_group_name_H-M "C 2/M"
_symmetry_group_IT_number 12
_symmetry_cell_setting 'monoclinic'
loop_
_space_group_symop_operation_xyz
x,y,z
-x,y,-z
-x,-y,-z
x,-y,z
1/2+x,1/2+y,z
1/2-x,1/2+y,-z
1/2-x,1/2-y,-z
1/2+x,1/2-y,z
loop_
_atom_site_type_symbol
_atom_site_label
_atom_site_fract_x
_atom_site_fract_y
_atom_site_fract_z
Si Si1 0.885341 0.346202 0.608915
Si Si2 0.261418 0.152969 0.783379
Si Si3 0.000000 0.500000 0.500000
Si Si4 0.324005 0.253413 0.692629
Si Si5 0.734834 0.845970 0.044098
O O1 0.888246 0.500000 0.590180
O O2 0.750000 0.250000 0.500000
O O3 0.794284 0.336881 0.623284
O O4 0.114260 0.276227 0.725249
O O5 0.294138 0.175375 0.734706
O O6 0.173875 0.000000 0.747057
O O7 0.486219 0.160546 0.930457
O O8 0.832996 0.380455 0.393001
O O9 0.569582 0.304253 0.817234
O O10 0.774424 0.000000 0.047715
O O11 0.750000 0.750000 0.000000
#
# Coordination Sequence:
#
# PCOD9217586 Si02
#       5
#     8   8   2   8   8
#     4  12  28  45  67  98 139 177 231 283 338 408
#     4  10  23  43  70  98 136 181 223 278 343 400
#     4  12  24  36  70  98 128 176 226 274 332 400
#     4  11  24  42  68  98 138 177 229 276 343 397
#     4   9  19  38  65  99 135 177 226 278 334 404
#
# _framework density 22.376145000000001
#
# number of rings (size 3 to 8) (size 9 to 14) (size 15 to 20)
#    0.000    1.412    1.176    2.824    8.235    2.824 
#    0.000    7.059    0.000    0.000    0.000    0.000 
#    0.000    0.000    0.000    0.000    0.000    0.000 
#
# Total GULP energy -94724.686539 kJ/mol
# GULP energy per Si atom -5572.040385 kJ/mol
# Density = 2.232522 g / cm^3
# Si number density = 22.376145 Si / 1000 Ang^3
#
#
#
# Elastic Constant Matrix: (Units=GPa)
#
#
# Indices 1 2 3 4 5 6 
#
# 1 69.1588 24.9994 14.2752 0.0001 -25.1856 0.0000
# 2 24.9994 180.7790 53.7173 0.0004 2.4996 0.0000
# 3 14.2752 53.7173 139.8372 0.0021 -5.0375 0.0000
# 4 0.0001 0.0004 0.0021 33.0114 0.0003 7.6508
# 5 -25.1856 2.4996 -5.0375 0.0003 28.8776 -0.0001
# 6 0.0000 0.0000 0.0000 7.6508 -0.0001 22.9062
#
#
#
# Elastic Compliance Matrix: (Units=1/GPa)
#
#
# Indices 1 2 3 4 5 6 
#
# 1 0.023214 -0.003396 -0.000327 0.000000 0.020483 0.000000
# 2 -0.003396 0.006768 -0.002396 0.000000 -0.003966 0.000000
# 3 -0.000327 -0.002396 0.008153 -0.000001 0.001344 0.000000
# 4 0.000000 0.000000 -0.000001 0.032834 -0.000001 -0.010967
# 5 0.020483 -0.003966 0.001344 -0.000001 0.053071 0.000000
# 6 0.000000 0.000000 0.000000 -0.010967 0.000000 0.047319
#
#
# Mechanical properties :
#
#
# Convention : Reuss Voigt Hill
#
# Bulk Modulus (GPa) = 38.61538 63.97321 51.29429
# Shear Modulus (GPa) = 26.01037 36.74459 31.37748
#
# Velocity S-wave (km/s) = 3.41312 4.05672 3.74876
# Velocity P-wave (km/s) = 5.72952 7.11299 6.45840
#
# Compressibility (1/GPa) = 0.02589642
#
# Stress axis : x y z
#
# Youngs Moduli (GPa) = 43.07754 147.75258 122.64759
#
# Poissons Ratio (x) = 0.50179 0.04014
# Poissons Ratio (y) = 0.14630 0.29387
# Poissons Ratio (z) = 0.01410 0.35403
#
# Static dielectric constant tensor:
#      x y z
#    x 1.988390 0.000000 -0.047660 
#    y 0.000000 1.760490 0.000000 
#    z -0.047660 0.000000 1.955210 
# 
# From -- ./inp_files/339140.got.cif
#   From: 2010.05.17/outbox.cif.g08.bks.cpg/sg12_170_cif.got.tgz:339140.got - 2010.06.03 13:09:07.
