data_PCOD9217581
_publ_section_title
;
Structure prediction by ZEFSAII (Michael W. Deem and Ramdas Pophale) SiO2 
 PCOD9217581
Probable space group: C 2/M
;
_chemical_formula_sum "Si O2"
_cell_formula_units_Z 38
_cell_length_a 18.432116
_cell_length_b 19.614869
_cell_length_c 15.065970
_cell_angle_alpha 90.000000
_cell_angle_beta 18.877277
_cell_angle_gamma 90.000000
_cell_volume 1762.335613
_symmetry_space_group_name_H-M "C 2/M"
_symmetry_group_IT_number 12
_symmetry_cell_setting 'monoclinic'
loop_
_space_group_symop_operation_xyz
x,y,z
-x,y,-z
-x,-y,-z
x,-y,z
1/2+x,1/2+y,z
1/2-x,1/2+y,-z
1/2-x,1/2-y,-z
1/2+x,1/2-y,z
loop_
_atom_site_type_symbol
_atom_site_label
_atom_site_fract_x
_atom_site_fract_y
_atom_site_fract_z
Si Si1 0.000000 0.500000 0.500000
Si Si2 0.847956 0.391968 0.804066
Si Si3 0.000000 0.842943 0.500000
Si Si4 0.573011 0.578241 0.597734
Si Si5 0.703025 0.837342 0.501183
Si Si6 0.881840 0.246157 0.985650
O O1 0.842717 0.440765 0.727012
O O2 0.097162 0.390052 0.555385
O O3 0.680493 0.419299 0.072497
O O4 0.771877 0.316347 0.866882
O O5 0.935308 0.887851 0.489259
O O6 0.781481 0.796652 0.773438
O O7 0.653515 0.500000 0.502326
O O8 0.705210 0.624083 0.517410
O O9 0.501406 0.788649 0.768194
O O10 0.897285 0.791847 0.231487
#
# Coordination Sequence:
#
# PCOD9217581 Si02
#       6
#     2   8   4   8   8   8
#     4  12  26  44  74 100 130 186 230 270 360 408
#     4  11  23  48  70  99 141 183 226 293 343 419
#     4  12  24  44  70 104 146 178 232 288 340 426
#     4  11  25  45  69 101 143 188 227 281 353 410
#     4  10  23  44  76  97 140 185 229 289 344 409
#     4  10  23  43  70 105 136 183 228 285 350 396
#
# _framework density 21.562294999999999
#
# number of rings (size 3 to 8) (size 9 to 14) (size 15 to 20)
#    0.000    1.263    3.158    1.579    7.368    0.842 
#    3.789    8.421    0.000    0.000    0.000    0.000 
#    0.000    0.000    0.000    0.000    0.000    0.000 
#
# Total GULP energy -105836.822372 kJ/mol
# GULP energy per Si atom -5570.359072 kJ/mol
# Density = 2.151322 g / cm^3
# Si number density = 21.562295 Si / 1000 Ang^3
#
#
#
# Elastic Constant Matrix: (Units=GPa)
#
#
# Indices 1 2 3 4 5 6 
#
# 1 44.3137 45.0389 22.4170 -0.1924 5.8274 -0.1444
# 2 45.0389 144.9685 40.3467 -0.2207 9.4428 -0.0179
# 3 22.4170 40.3467 100.5886 -0.2558 14.2722 -0.1199
# 4 -0.1924 -0.2207 -0.2558 58.1019 0.0849 45.9190
# 5 5.8274 9.4428 14.2722 0.0849 25.8655 0.0851
# 6 -0.1444 -0.0179 -0.1199 45.9190 0.0851 49.8487
#
#
#
# Elastic Compliance Matrix: (Units=1/GPa)
#
#
# Indices 1 2 3 4 5 6 
#
# 1 0.034342 -0.009545 -0.003495 -0.000025 -0.002324 0.000115
# 2 -0.009545 0.010453 -0.001985 0.000081 -0.000571 -0.000102
# 3 -0.003495 -0.001985 0.012262 0.000076 -0.005254 -0.000042
# 4 -0.000025 0.000081 0.000076 0.063281 -0.000082 -0.058292
# 5 -0.002324 -0.000571 -0.005254 -0.000082 0.042293 -0.000017
# 6 0.000115 -0.000102 -0.000042 -0.058292 -0.000017 0.073758
#
#
# Mechanical properties :
#
#
# Convention : Reuss Voigt Hill
#
# Bulk Modulus (GPa) = 37.02662 56.16403 46.59532
# Shear Modulus (GPa) = 18.15269 38.90108 28.52689
#
# Velocity S-wave (km/s) = 2.90465 4.25211 3.64125
# Velocity P-wave (km/s) = 5.33465 7.08598 6.27175
#
# Compressibility (1/GPa) = 0.02700760
#
# Stress axis : x y z
#
# Youngs Moduli (GPa) = 29.11909 95.66459 81.55274
#
# Poissons Ratio (x) = 0.91315 0.28501
# Poissons Ratio (y) = 0.27795 0.16185
# Poissons Ratio (z) = 0.10177 0.18985
#
# Static dielectric constant tensor:
#      x y z
#    x 1.838570 -0.000050 -0.019550 
#    y -0.000050 1.737490 0.000030 
#    z -0.019550 0.000030 1.778410 
# 
# From -- ./inp_files/227527.got.cif
#   From: 2010.05.17/outbox.cif.g08.bks.cpg/sg12_114_cif.got.tgz:227527.got - 2010.06.03 13:09:07.
