data_PCOD9217222
_publ_section_title
;
Structure prediction by ZEFSAII (Michael W. Deem and Ramdas Pophale) SiO2 
 PCOD9217222
Probable space group: C 2/M
;
_chemical_formula_sum "Si O2"
_cell_formula_units_Z 48
_cell_length_a 19.394666
_cell_length_b 8.763396
_cell_length_c 19.951973
_cell_angle_alpha 90.000000
_cell_angle_beta 136.130554
_cell_angle_gamma 90.000000
_cell_volume 2350.091551
_symmetry_space_group_name_H-M "C 2/M"
_symmetry_group_IT_number 12
_symmetry_cell_setting 'monoclinic'
loop_
_space_group_symop_operation_xyz
x,y,z
-x,y,-z
-x,-y,-z
x,-y,z
1/2+x,1/2+y,z
1/2-x,1/2+y,-z
1/2-x,1/2-y,-z
1/2+x,1/2-y,z
loop_
_atom_site_type_symbol
_atom_site_label
_atom_site_fract_x
_atom_site_fract_y
_atom_site_fract_z
Si Si1 0.110535 0.681682 0.602841
Si Si2 0.992557 0.681115 0.918728
Si Si3 0.640614 0.318150 0.911543
Si Si4 0.312684 0.822375 0.700047
Si Si5 0.145470 0.821159 0.405683
Si Si6 0.440508 0.819861 0.283125
O O1 0.123507 0.500000 0.598586
O O2 0.199119 0.774429 0.631009
O O3 0.116026 0.706407 0.686736
O O4 0.000000 0.723027 0.500000
O O5 0.016341 0.500000 0.935233
O O6 0.879970 0.696941 0.812954
O O7 0.066614 0.759030 0.917826
O O8 0.000000 0.738281 0.000000
O O9 0.644364 0.500000 0.915967
O O10 0.602449 0.264549 0.811738
O O11 0.750000 0.250000 0.000000
O O12 0.360720 0.715470 0.677450
O O13 0.319727 0.000000 0.683997
O O14 0.250000 0.750000 0.500000
O O15 0.052961 0.736356 0.373951
O O16 0.142236 0.000000 0.416934
O O17 0.441187 0.000000 0.269620
#
# Coordination Sequence:
#
# PCOD9217222 Si02
#       6
#     8   8   8   8   8   8
#     4  10  23  42  64  92 130 174 217 264 319 380
#     4  10  23  44  68  97 132 168 210 265 326 389
#     4  12  26  44  68  97 130 171 217 268 325 389
#     4  11  23  40  65  95 131 169 211 266 323 382
#     4  12  24  40  65  95 128 169 215 265 321 382
#     4  11  23  42  66  96 133 170 214 268 323 385
#
# _framework density 20.424737
#
# number of rings (size 3 to 8) (size 9 to 14) (size 15 to 20)
#    0.000    1.000    1.667    5.000    2.333    4.000 
#    0.000    0.000    0.000    0.000    0.000    0.000 
#    0.000    0.000    0.000    0.000    0.000    0.000 
#
# Total GULP energy -134268.774903 kJ/mol
# GULP energy per Si atom -5594.532288 kJ/mol
# Density = 2.037825 g / cm^3
# Si number density = 20.424737 Si / 1000 Ang^3
#
#
#
# Elastic Constant Matrix: (Units=GPa)
#
#
# Indices 1 2 3 4 5 6 
#
# 1 62.4489 28.9996 11.0484 0.0000 6.6168 0.0000
# 2 28.9996 68.7396 16.0610 0.0000 -4.9124 0.0000
# 3 11.0484 16.0610 85.4303 0.0000 -1.4164 0.0000
# 4 0.0000 0.0000 0.0000 31.1684 0.0000 6.0644
# 5 6.6168 -4.9124 -1.4164 0.0000 38.3261 0.0000
# 6 0.0000 0.0000 0.0000 6.0644 0.0000 26.8837
#
#
#
# Elastic Compliance Matrix: (Units=1/GPa)
#
#
# Indices 1 2 3 4 5 6 
#
# 1 0.020835 -0.008873 -0.001106 0.000000 -0.004775 0.000000
# 2 -0.008873 0.019126 -0.002384 0.000000 0.003895 0.000000
# 3 -0.001106 -0.002384 0.012302 0.000000 0.000340 0.000000
# 4 0.000000 0.000000 0.000000 0.033557 0.000000 -0.007570
# 5 -0.004775 0.003895 0.000340 0.000000 0.027428 0.000000
# 6 0.000000 0.000000 0.000000 -0.007570 0.000000 0.038905
#
#
# Mechanical properties :
#
#
# Convention : Reuss Voigt Hill
#
# Bulk Modulus (GPa) = 36.31171 36.53741 36.42456
# Shear Modulus (GPa) = 26.87355 29.97627 28.42491
#
# Velocity S-wave (km/s) = 3.63124 3.83514 3.73458
# Velocity P-wave (km/s) = 5.94963 6.12689 6.03891
#
# Compressibility (1/GPa) = 0.02753932
#
# Stress axis : x y z
#
# Youngs Moduli (GPa) = 47.99644 52.28446 81.28622
#
# Poissons Ratio (x) = 0.46390 0.08987
# Poissons Ratio (y) = 0.42586 0.19376
# Poissons Ratio (z) = 0.05306 0.12463
#
# Static dielectric constant tensor:
#      x y z
#    x 1.727850 0.000000 0.032270 
#    y 0.000000 1.685060 0.000000 
#    z 0.032270 0.000000 1.991100 
# 
# From -- ./inp_files/320312.got.cif
#   From: 2010.05.17/outbox.cif.g08.bks.cpg/sg12_161_cif.got.tgz:320312.got - 2010.06.03 13:09:07.
