data_PCOD9217785
_publ_section_title
;
Structure prediction by ZEFSAII (Michael W. Deem and Ramdas Pophale) SiO2 
 PCOD9217785
Probable space group: C 2/M
;
_chemical_formula_sum "Si O2"
_cell_formula_units_Z 56
_cell_length_a 30.811217
_cell_length_b 8.644343
_cell_length_c 12.076632
_cell_angle_alpha 90.000000
_cell_angle_beta 61.188986
_cell_angle_gamma 90.000000
_cell_volume 2818.362762
_symmetry_space_group_name_H-M "C 2/M"
_symmetry_group_IT_number 12
_symmetry_cell_setting 'monoclinic'
loop_
_space_group_symop_operation_xyz
x,y,z
-x,y,-z
-x,-y,-z
x,-y,z
1/2+x,1/2+y,z
1/2-x,1/2+y,-z
1/2-x,1/2-y,-z
1/2+x,1/2-y,z
loop_
_atom_site_type_symbol
_atom_site_label
_atom_site_fract_x
_atom_site_fract_y
_atom_site_fract_z
Si Si1 0.746771 0.316302 0.378563
Si Si2 0.356038 0.181470 0.524620
Si Si3 0.997998 0.675539 0.135132
Si Si4 0.406722 0.684765 0.863250
Si Si5 0.656128 0.186134 0.879322
Si Si6 0.942145 0.687231 0.586891
Si Si7 0.896321 0.820409 0.261274
O O1 0.749034 0.500000 0.387077
O O2 0.750000 0.250000 0.500000
O O3 0.694886 0.267961 0.386928
O O4 0.792007 0.268910 0.242478
O O5 0.405353 0.228185 0.531037
O O6 0.365652 0.218268 0.384558
O O7 0.348682 0.000000 0.550646
O O8 0.987702 0.500000 0.188150
O O9 0.048185 0.736983 0.125120
O O10 0.953326 0.789043 0.218679
O O11 0.000000 0.670136 0.000000
O O12 0.408218 0.500000 0.870311
O O13 0.417151 0.738175 0.725511
O O14 0.357040 0.748262 0.983578
O O15 0.615849 0.259088 0.845426
O O16 0.651923 0.000000 0.885758
O O17 0.942299 0.500000 0.598233
O O18 0.000000 0.734080 0.500000
O O19 0.883559 0.000000 0.287443
#
# Coordination Sequence:
#
# PCOD9217785 Si02
#       7
#     8   8   8   8   8   8   8
#     4  11  23  39  64  94 129 169 214 268 322 384
#     4  11  23  40  65  94 127 168 215 262 319 384
#     4  11  22  36  57  83 120 165 204 248 308 382
#     4  12  25  40  63  93 127 164 208 268 324 376
#     4  11  23  40  61  88 125 168 210 254 316 385
#     4  10  23  45  70  93 124 171 219 260 310 384
#     4  12  23  35  58  91 127 161 204 262 317 373
#
# _framework density 19.869693000000002
#
# number of rings (size 3 to 8) (size 9 to 14) (size 15 to 20)
#    0.000    0.857    2.857    5.143    0.000    4.857 
#    0.000    0.714    0.000    0.000    0.000    0.000 
#    0.000    0.000    0.000    0.000    0.000    0.000 
#
# Total GULP energy -156460.134968 kJ/mol
# GULP energy per Si atom -5587.861963 kJ/mol
# Density = 1.982447 g / cm^3
# Si number density = 19.869693 Si / 1000 Ang^3
#
#
#
# Elastic Constant Matrix: (Units=GPa)
#
#
# Indices 1 2 3 4 5 6 
#
# 1 71.6302 16.1487 27.7951 0.0000 -11.0432 0.0000
# 2 16.1487 50.4316 17.4419 0.0000 1.7673 0.0000
# 3 27.7951 17.4419 110.1860 0.0000 -8.1486 0.0000
# 4 0.0000 0.0000 0.0000 19.3688 0.0000 -0.2277
# 5 -11.0432 1.7673 -8.1486 0.0000 31.3697 0.0000
# 6 0.0000 0.0000 0.0000 -0.2277 0.0000 28.8937
#
#
#
# Elastic Compliance Matrix: (Units=1/GPa)
#
#
# Indices 1 2 3 4 5 6 
#
# 1 0.017059 -0.004553 -0.003181 0.000000 0.005436 0.000000
# 2 -0.004553 0.022327 -0.002648 0.000000 -0.003549 0.000000
# 3 -0.003181 -0.002648 0.010426 0.000000 0.001738 0.000000
# 4 0.000000 0.000000 0.000000 0.051634 0.000000 0.000407
# 5 0.005436 -0.003549 0.001738 0.000000 0.034443 0.000000
# 6 0.000000 0.000000 0.000000 0.000407 0.000000 0.034613
#
#
# Mechanical properties :
#
#
# Convention : Reuss Voigt Hill
#
# Bulk Modulus (GPa) = 34.42543 39.44658 36.93601
# Shear Modulus (GPa) = 24.88208 27.31726 26.09967
#
# Velocity S-wave (km/s) = 3.54257 3.71188 3.62821
# Velocity P-wave (km/s) = 5.83920 6.18599 6.01510
#
# Compressibility (1/GPa) = 0.02904829
#
# Stress axis : x y z
#
# Youngs Moduli (GPa) = 58.61923 44.78886 95.91785
#
# Poissons Ratio (x) = 0.20392 0.30507
# Poissons Ratio (y) = 0.26689 0.25401
# Poissons Ratio (z) = 0.18644 0.11861
#
# Static dielectric constant tensor:
#      x y z
#    x 1.706040 0.000000 -0.026950 
#    y 0.000000 1.657940 0.000000 
#    z -0.026950 0.000000 1.743680 
# 
# From -- ./inp_files/187239.got.cif
#   From: 2010.05.17/outbox.cif.g08.bks.cpg/sg12_94_cif.got.tgz:187239.got - 2010.06.03 13:09:07.
