data_PCOD9217333
_publ_section_title
;
Structure prediction by ZEFSAII (Michael W. Deem and Ramdas Pophale) SiO2 
 PCOD9217333
Probable space group: C 2/M
;
_chemical_formula_sum "Si O2"
_cell_formula_units_Z 50
_cell_length_a 14.578008
_cell_length_b 23.054652
_cell_length_c 10.927064
_cell_angle_alpha 90.000000
_cell_angle_beta 40.751620
_cell_angle_gamma 90.000000
_cell_volume 2397.330229
_symmetry_space_group_name_H-M "C 2/M"
_symmetry_group_IT_number 12
_symmetry_cell_setting 'monoclinic'
loop_
_space_group_symop_operation_xyz
x,y,z
-x,y,-z
-x,-y,-z
x,-y,z
1/2+x,1/2+y,z
1/2-x,1/2+y,-z
1/2-x,1/2-y,-z
1/2+x,1/2-y,z
loop_
_atom_site_type_symbol
_atom_site_label
_atom_site_fract_x
_atom_site_fract_y
_atom_site_fract_z
Si Si1 0.902834 0.431319 0.718002
Si Si2 0.427388 0.871649 0.946427
Si Si3 0.320953 0.687464 0.431394
Si Si4 0.108022 0.759524 0.067868
Si Si5 0.840655 0.138846 0.157251
Si Si6 0.152909 0.881411 0.361340
Si Si7 0.000000 0.000000 0.500000
O O1 0.881671 0.500000 0.754633
O O2 0.959680 0.405164 0.788149
O O3 0.758552 0.399004 0.827947
O O4 0.000000 0.422167 0.500000
O O5 0.453590 0.803415 0.900255
O O6 0.500000 0.891762 0.000000
O O7 0.259740 0.877671 0.141411
O O8 0.250000 0.750000 0.500000
O O9 0.487920 0.701840 0.253426
O O10 0.285896 0.648070 0.349440
O O11 0.281241 0.651664 0.590993
O O12 0.250000 0.750000 0.000000
O O13 0.149732 0.796196 0.906689
O O14 0.000000 0.115420 0.000000
O O15 0.112104 0.948169 0.424557
O O16 0.000000 0.852275 0.500000
#
# Coordination Sequence:
#
# PCOD9217333 Si02
#       7
#     8   8   8   8   8   8   2
#     4  11  28  50  67  96 137 184 236 282 338 410
#     4  12  25  45  73 104 138 181 229 287 348 410
#     4  11  23  38  66 105 140 173 224 285 350 422
#     4  11  21  40  67 103 141 177 221 277 346 419
#     4  10  23  42  68 100 135 178 227 275 339 414
#     4  10  23  44  67 101 136 182 234 287 341 406
#     4   8  24  44  66  96 140 186 238 290 338 408
#
# _framework density 20.856534
#
# number of rings (size 3 to 8) (size 9 to 14) (size 15 to 20)
#    0.480    0.800    1.600    4.320    7.840    0.640 
#    1.440    0.000    0.000    0.000    0.000    0.000 
#    0.000    0.000    0.000    0.000    0.000    0.000 
#
# Total GULP energy -139323.985378 kJ/mol
# GULP energy per Si atom -5572.959415 kJ/mol
# Density = 2.080906 g / cm^3
# Si number density = 20.856534 Si / 1000 Ang^3
#
#
#
# Elastic Constant Matrix: (Units=GPa)
#
#
# Indices 1 2 3 4 5 6 
#
# 1 119.8616 45.5291 34.9414 0.0000 10.2792 0.0000
# 2 45.5291 121.5737 30.5447 0.0000 19.5994 0.0000
# 3 34.9414 30.5447 71.2013 0.0000 17.2011 0.0000
# 4 0.0000 0.0000 0.0000 21.6491 0.0000 1.5610
# 5 10.2792 19.5994 17.2011 0.0000 38.6597 0.0000
# 6 0.0000 0.0000 0.0000 1.5610 0.0000 20.8463
#
#
#
# Elastic Compliance Matrix: (Units=1/GPa)
#
#
# Indices 1 2 3 4 5 6 
#
# 1 0.010634 -0.003052 -0.004034 0.000000 0.000514 0.000000
# 2 -0.003052 0.010478 -0.002140 0.000000 -0.003548 0.000000
# 3 -0.004034 -0.002140 0.018399 0.000000 -0.006029 0.000000
# 4 0.000000 0.000000 0.000000 0.046442 0.000000 -0.003478
# 5 0.000514 -0.003548 -0.006029 0.000000 0.030211 0.000000
# 6 0.000000 0.000000 0.000000 -0.003478 0.000000 0.048231
#
#
# Mechanical properties :
#
#
# Convention : Reuss Voigt Hill
#
# Bulk Modulus (GPa) = 47.48418 59.40742 53.44580
# Shear Modulus (GPa) = 26.33440 29.67244 28.00342
#
# Velocity S-wave (km/s) = 3.55723 3.77595 3.66822
# Velocity P-wave (km/s) = 6.29986 6.89609 6.60471
#
# Compressibility (1/GPa) = 0.02105965
#
# Stress axis : x y z
#
# Youngs Moduli (GPa) = 94.03853 95.43676 54.35187
#
# Poissons Ratio (x) = 0.29127 0.21923
# Poissons Ratio (y) = 0.28700 0.11632
# Poissons Ratio (z) = 0.37931 0.20424
#
# Static dielectric constant tensor:
#      x y z
#    x 1.741500 0.000000 -0.096390 
#    y 0.000000 1.683970 0.000000 
#    z -0.096390 0.000000 1.727280 
# 
# From -- ./inp_files/148863.got.cif
#   From: 2010.05.17/outbox.cif.g08.bks.cpg/sg12_75_cif.got.tgz:148863.got - 2010.06.03 13:09:07.
