data_PCOD9217962
_publ_section_title
;
Structure prediction by ZEFSAII (Michael W. Deem and Ramdas Pophale) SiO2 
 PCOD9217962
Probable space group: C 2/M
;
_chemical_formula_sum "Si O2"
_cell_formula_units_Z 58
_cell_length_a 9.171999
_cell_length_b 21.131903
_cell_length_c 25.301822
_cell_angle_alpha 90.000000
_cell_angle_beta 147.431912
_cell_angle_gamma 90.000000
_cell_volume 2639.854424
_symmetry_space_group_name_H-M "C 2/M"
_symmetry_group_IT_number 12
_symmetry_cell_setting 'monoclinic'
loop_
_space_group_symop_operation_xyz
x,y,z
-x,y,-z
-x,-y,-z
x,-y,z
1/2+x,1/2+y,z
1/2-x,1/2+y,-z
1/2-x,1/2-y,-z
1/2+x,1/2-y,z
loop_
_atom_site_type_symbol
_atom_site_label
_atom_site_fract_x
_atom_site_fract_y
_atom_site_fract_z
Si Si1 0.382209 0.209094 0.410186
Si Si2 0.959089 0.274819 0.927778
Si Si3 0.736290 0.407926 0.839033
Si Si4 0.035458 0.891869 0.670879
Si Si5 0.782065 0.114203 0.481022
Si Si6 0.500000 0.000000 0.000000
Si Si7 0.821234 0.428473 0.269499
Si Si8 0.006119 0.317558 0.246060
O O1 0.500000 0.235891 0.500000
O O2 0.623118 0.179049 0.448653
O O3 0.196497 0.150710 0.372773
O O4 0.194855 0.262202 0.327708
O O5 0.837464 0.336226 0.862386
O O6 0.747681 0.217730 0.856829
O O7 0.000000 0.295107 0.000000
O O8 0.250000 0.250000 0.000000
O O9 0.645424 0.432602 0.753512
O O10 0.468284 0.412157 0.793806
O O11 0.954765 0.445943 0.939647
O O12 0.294728 0.851454 0.733183
O O13 0.913564 0.911942 0.576032
O O14 0.544951 0.071879 0.383990
O O15 0.000000 0.120096 0.500000
O O16 0.808068 0.500000 0.242267
O O17 0.906849 0.371619 0.256557
#
# Coordination Sequence:
#
# PCOD9217962 Si02
#       8
#     8   8   8   8   8   2   8   8
#     4  10  24  39  73 109 154 195 246 302 375 455
#     4  12  25  43  75 109 147 181 243 320 383 444
#     4  12  25  50  76 110 140 196 253 305 371 444
#     4  11  24  42  71 112 150 187 251 307 368 448
#     4  11  23  46  70 110 157 203 240 302 374 447
#     4  12  28  52  88 100 144 204 250 308 366 442
#     4  12  27  49  73 102 150 207 255 296 373 454
#     4  12  26  44  71 106 152 202 242 320 381 439
#
# _framework density 21.970908999999999
#
# number of rings (size 3 to 8) (size 9 to 14) (size 15 to 20)
#    0.000    0.552    5.517    1.655    5.793    1.379 
#    2.483    0.690    0.000    1.241    0.000    0.000 
#    0.000    0.000    0.000    0.000    0.000    0.000 
#
# Total GULP energy -161732.496297 kJ/mol
# GULP energy per Si atom -5576.982631 kJ/mol
# Density = 2.192090 g / cm^3
# Si number density = 21.970909 Si / 1000 Ang^3
#
#
#
# Elastic Constant Matrix: (Units=GPa)
#
#
# Indices 1 2 3 4 5 6 
#
# 1 97.3924 13.6590 20.0914 -0.0021 -5.9600 -0.0002
# 2 13.6590 81.2617 21.3030 0.0027 -2.0187 0.0016
# 3 20.0914 21.3030 97.4345 0.0055 -8.3518 0.0030
# 4 -0.0021 0.0027 0.0055 -39.2619 0.0018 -18.2519
# 5 -5.9600 -2.0187 -8.3518 0.0018 53.8468 0.0011
# 6 -0.0002 0.0016 0.0030 -18.2519 0.0011 4.9192
#
#
#
# Elastic Compliance Matrix: (Units=1/GPa)
#
#
# Indices 1 2 3 4 5 6 
#
# 1 0.010894 -0.001316 -0.001885 -0.000001 0.000864 -0.000001
# 2 -0.001316 0.013213 -0.002623 0.000001 -0.000057 0.000000
# 3 -0.001885 -0.002623 0.011350 0.000002 0.001453 0.000000
# 4 -0.000001 0.000001 0.000002 -0.009347 0.000001 -0.034682
# 5 0.000864 -0.000057 0.001453 0.000001 0.018890 0.000000
# 6 -0.000001 0.000000 0.000000 -0.034682 0.000000 0.074604
#
#
# Mechanical properties :
#
#
# Convention : Reuss Voigt Hill
#
# Bulk Modulus (GPa) = 41.99665 42.91062 42.45363
# Shear Modulus (GPa) = 35.92301 18.63650 27.27976
#
# Velocity S-wave (km/s) = 4.04793 2.91561 3.52750
# Velocity P-wave (km/s) = 6.40342 5.55944 5.99630
#
# Compressibility (1/GPa) = 0.02381142
#
# Stress axis : x y z
#
# Youngs Moduli (GPa) = 91.79428 75.68225 88.10649
#
# Poissons Ratio (x) = 0.09957 0.16605
# Poissons Ratio (y) = 0.12076 0.23106
# Poissons Ratio (z) = 0.17300 0.19848
#
# Static dielectric constant tensor:
#      x y z
#    x 1.787000 0.000000 -0.020650 
#    y 0.000000 1.965750 0.000000 
#    z -0.020650 0.000000 1.836380 
# 
# From -- ./inp_files/357090.got.cif
#   From: 2010.05.17/outbox.cif.g08.bks.cpg/sg12_179_cif.got.tgz:357090.got - 2010.06.03 13:09:07.
