data_PCOD9217596
_publ_section_title
;
Structure prediction by ZEFSAII (Michael W. Deem and Ramdas Pophale) SiO2 
 PCOD9217596
Probable space group: C 2/M
;
_chemical_formula_sum "Si O2"
_cell_formula_units_Z 40
_cell_length_a 18.722971
_cell_length_b 20.956048
_cell_length_c 5.482772
_cell_angle_alpha 90.000000
_cell_angle_beta 129.317474
_cell_angle_gamma 90.000000
_cell_volume 1664.283029
_symmetry_space_group_name_H-M "C 2/M"
_symmetry_group_IT_number 12
_symmetry_cell_setting 'monoclinic'
loop_
_space_group_symop_operation_xyz
x,y,z
-x,y,-z
-x,-y,-z
x,-y,z
1/2+x,1/2+y,z
1/2-x,1/2+y,-z
1/2-x,1/2-y,-z
1/2+x,1/2-y,z
loop_
_atom_site_type_symbol
_atom_site_label
_atom_site_fract_x
_atom_site_fract_y
_atom_site_fract_z
Si Si1 0.594931 0.752439 0.588897
Si Si2 0.758349 0.427051 0.405726
Si Si3 0.450610 0.422743 0.141989
Si Si4 0.446365 0.889075 0.640204
Si Si5 0.757274 0.693563 0.713202
O O1 0.500000 0.731340 0.500000
O O2 0.570034 0.812690 0.364535
O O3 0.655679 0.696609 0.608946
O O4 0.663449 0.784808 0.932239
O O5 0.751511 0.500000 0.476075
O O6 0.845067 0.420492 0.413154
O O7 0.778798 0.375530 0.657587
O O8 0.658259 0.406631 0.087875
O O9 0.500000 0.405407 0.500000
O O10 0.454568 0.500000 0.138244
O O11 0.500000 0.398793 0.000000
O O12 0.500000 0.898413 0.500000
O O13 0.500000 0.911883 0.000000
O O14 0.750000 0.750000 0.500000
#
# Coordination Sequence:
#
# PCOD9217596 Si02
#       5
#     8   8   8   8   8
#     4  10  23  43  74 103 142 187 240 308 365 432
#     4  11  24  45  73 105 149 193 237 307 370 430
#     4   9  20  41  65  93 136 189 239 287 346 421
#     4  11  24  44  74 108 145 189 243 295 367 449
#     4  11  23  45  71 103 143 186 251 298 360 448
#
# _framework density 24.034372999999999
#
# number of rings (size 3 to 8) (size 9 to 14) (size 15 to 20)
#    0.000    1.600    2.000    2.400    0.000    4.000 
#    3.600    7.000    0.000    1.200    0.000    0.000 
#    0.000    0.000    0.000    0.000    0.000    0.000 
#
# Total GULP energy -111919.345946 kJ/mol
# GULP energy per Si atom -5595.967297 kJ/mol
# Density = 2.397967 g / cm^3
# Si number density = 24.034373 Si / 1000 Ang^3
#
#
#
# Elastic Constant Matrix: (Units=GPa)
#
#
# Indices 1 2 3 4 5 6 
#
# 1 198.4826 39.7632 83.5584 0.0000 35.8917 0.0000
# 2 39.7632 94.4014 4.9714 0.0000 -3.7849 0.0000
# 3 83.5584 4.9714 140.6439 0.0000 5.1045 0.0000
# 4 0.0000 0.0000 0.0000 19.4760 0.0000 13.8442
# 5 35.8917 -3.7849 5.1045 0.0000 43.2160 0.0000
# 6 0.0000 0.0000 0.0000 13.8442 0.0000 9.5317
#
#
#
# Elastic Compliance Matrix: (Units=1/GPa)
#
#
# Indices 1 2 3 4 5 6 
#
# 1 0.009360 -0.003973 -0.005148 0.000000 -0.007513 0.000000
# 2 -0.003973 0.012340 0.001773 0.000000 0.004171 0.000000
# 3 -0.005148 0.001773 0.009988 0.000000 0.003251 0.000000
# 4 0.000000 0.000000 0.000000 -1.582607 0.000000 2.298638
# 5 -0.007513 0.004171 0.003251 0.000000 0.029361 0.000000
# 6 0.000000 0.000000 0.000000 2.298638 0.000000 -3.233715
#
#
# Mechanical properties :
#
#
# Convention : Reuss Voigt Hill
#
# Bulk Modulus (GPa) = 58.84942 76.67934 67.76438
# Shear Modulus (GPa) = -1.05599 34.79374 16.86888
#
# Velocity S-wave (km/s) = -0.66357 3.80895 2.65215
# Velocity P-wave (km/s) = 4.89404 7.16362 6.13470
#
# Compressibility (1/GPa) = 0.01699252
#
# Stress axis : x y z
#
# Youngs Moduli (GPa) = 106.83913 81.03549 100.12182
#
# Poissons Ratio (x) = 0.32193 0.51540
# Poissons Ratio (y) = 0.42444 -0.17748
# Poissons Ratio (z) = 0.54998 -0.14365
#
# Static dielectric constant tensor:
#      x y z
#    x -5.248500 0.000000 -0.074310 
#    y 0.000000 1.904260 0.000000 
#    z -0.074310 0.000000 1.902210 
# 
# From -- ./inp_files/22027.got.cif
#   From: 2010.05.17/outbox.cif.g08.bks.cpg/sg12_12_cif.got.tgz:22027.got - 2010.06.03 13:09:07.
