data_PCOD9217016
_publ_section_title
;
Structure prediction by ZEFSAII (Michael W. Deem and Ramdas Pophale) SiO2 
 PCOD9217016
Probable space group: C 2/M
;
_chemical_formula_sum "Si O2"
_cell_formula_units_Z 26
_cell_length_a 18.234020
_cell_length_b 13.929678
_cell_length_c 5.040162
_cell_angle_alpha 90.000000
_cell_angle_beta 99.297948
_cell_angle_gamma 90.000000
_cell_volume 1263.351522
_symmetry_space_group_name_H-M "C 2/M"
_symmetry_group_IT_number 12
_symmetry_cell_setting 'monoclinic'
loop_
_space_group_symop_operation_xyz
x,y,z
-x,y,-z
-x,-y,-z
x,-y,z
1/2+x,1/2+y,z
1/2-x,1/2+y,-z
1/2-x,1/2-y,-z
1/2+x,1/2-y,z
loop_
_atom_site_type_symbol
_atom_site_label
_atom_site_fract_x
_atom_site_fract_y
_atom_site_fract_z
Si Si1 0.329709 0.224161 0.665658
Si Si2 0.000000 0.500000 0.000000
Si Si3 0.133386 0.605507 0.813662
Si Si4 0.051983 0.889507 0.286896
O O1 0.250000 0.250000 0.500000
O O2 0.133124 0.349366 0.522906
O O3 0.327186 0.173811 0.950443
O O4 0.379503 0.318944 0.707919
O O5 0.051607 0.582110 0.879993
O O6 0.170696 0.500000 0.823787
O O7 0.000000 0.858615 0.500000
O O8 0.075676 0.000000 0.348151
O O9 0.000000 0.887221 0.000000
#
# Coordination Sequence:
#
# PCOD9217016 Si02
#       4
#     8   2   8   8
#     4  12  25  42  65  98 132 175 210 266 334 394
#     4   8  24  42  68 102 126 174 212 276 338 372
#     4  10  24  41  66  98 131 166 216 263 331 387
#     4  10  23  41  64  91 120 166 219 266 309 371
#
# _framework density 20.580178
#
# number of rings (size 3 to 8) (size 9 to 14) (size 15 to 20)
#    0.923    0.615    0.000    3.692    6.462    3.692 
#    0.000    3.077    0.000    0.000    0.000    0.000 
#    0.000    0.000    0.000    0.000    0.000    0.000 
#
# Total GULP energy -72376.755685 kJ/mol
# GULP energy per Si atom -5567.442745 kJ/mol
# Density = 2.053334 g / cm^3
# Si number density = 20.580178 Si / 1000 Ang^3
#
#
#
# Elastic Constant Matrix: (Units=GPa)
#
#
# Indices 1 2 3 4 5 6 
#
# 1 44.0962 27.9652 0.0919 0.0000 11.7857 0.0000
# 2 27.9652 95.5519 4.0066 0.0000 15.8539 0.0000
# 3 0.0919 4.0066 66.9962 0.0000 -12.4505 0.0000
# 4 0.0000 0.0000 0.0000 38.2450 0.0000 -12.1755
# 5 11.7857 15.8539 -12.4505 0.0000 28.0956 0.0000
# 6 0.0000 0.0000 0.0000 -12.1755 0.0000 0.4140
#
#
#
# Elastic Compliance Matrix: (Units=1/GPa)
#
#
# Indices 1 2 3 4 5 6 
#
# 1 0.029591 -0.007120 -0.001280 0.000000 -0.008963 0.000000
# 2 -0.007120 0.013530 -0.001812 0.000000 -0.005451 0.000000
# 3 -0.001280 -0.001812 0.016702 0.000000 0.008961 0.000000
# 4 0.000000 0.000000 0.000000 -0.003127 0.000000 -0.091954
# 5 -0.008963 -0.005451 0.008961 0.000000 0.046400 0.000000
# 6 0.000000 0.000000 0.000000 -0.091954 0.000000 -0.288840
#
#
# Mechanical properties :
#
#
# Convention : Reuss Voigt Hill
#
# Bulk Modulus (GPa) = 25.38236 30.08574 27.73405
# Shear Modulus (GPa) = -32.85432 24.98964 -3.93234
#
# Velocity S-wave (km/s) = -3.99984 3.48840 -1.38380
# Velocity P-wave (km/s) = 2.99524 5.55660 3.30941
#
# Compressibility (1/GPa) = 0.03939744
#
# Stress axis : x y z
#
# Youngs Moduli (GPa) = 33.79406 73.91167 59.87413
#
# Poissons Ratio (x) = 0.52622 0.07667
# Poissons Ratio (y) = 0.24060 0.10852
# Poissons Ratio (z) = 0.04327 0.13396
#
# Static dielectric constant tensor:
#      x y z
#    x 1.711260 0.000000 0.013650 
#    y 0.000000 1.769900 0.000000 
#    z 0.013650 0.000000 1.676740 
# 
# From -- ./inp_files/14755.got.cif
#   From: 2010.05.17/outbox.cif.g08.bks.cpg/sg12_8_cif.got.tgz:14755.got - 2010.06.03 13:09:07.
