data_PCOD9217505
_publ_section_title
;
Structure prediction by ZEFSAII (Michael W. Deem and Ramdas Pophale) SiO2 
 PCOD9217505
Probable space group: C 2/M
;
_chemical_formula_sum "Si O2"
_cell_formula_units_Z 48
_cell_length_a 19.039163
_cell_length_b 16.221946
_cell_length_c 15.367251
_cell_angle_alpha 90.000000
_cell_angle_beta 31.984998
_cell_angle_gamma 90.000000
_cell_volume 2514.054359
_symmetry_space_group_name_H-M "C 2/M"
_symmetry_group_IT_number 12
_symmetry_cell_setting 'monoclinic'
loop_
_space_group_symop_operation_xyz
x,y,z
-x,y,-z
-x,-y,-z
x,-y,z
1/2+x,1/2+y,z
1/2-x,1/2+y,-z
1/2-x,1/2-y,-z
1/2+x,1/2-y,z
loop_
_atom_site_type_symbol
_atom_site_label
_atom_site_fract_x
_atom_site_fract_y
_atom_site_fract_z
Si Si1 0.222089 0.802190 0.942839
Si Si2 0.343890 0.207536 0.163216
Si Si3 0.972695 0.095539 0.265244
Si Si4 0.242032 0.684028 0.428540
Si Si5 0.895177 0.901193 0.539294
Si Si6 0.515436 0.901431 0.379316
O O1 0.087929 0.852944 0.099695
O O2 0.250000 0.750000 0.000000
O O3 0.199452 0.743103 0.884281
O O4 0.343646 0.863686 0.796396
O O5 0.307805 0.274004 0.275226
O O6 0.249946 0.131266 0.286117
O O7 0.500000 0.189479 0.000000
O O8 0.835628 0.109056 0.359057
O O9 0.945452 0.126135 0.392019
O O10 0.009725 0.000000 0.229748
O O11 0.250000 0.750000 0.500000
O O12 0.098648 0.649317 0.552044
O O13 0.000000 0.870079 0.500000
O O14 0.895049 0.000000 0.540176
O O15 0.500000 0.889888 0.500000
O O16 0.506922 0.000000 0.370822
#
# Coordination Sequence:
#
# PCOD9217505 Si02
#       6
#     8   8   8   8   8   8
#     4  12  25  41  66  98 130 170 215 271 321 387
#     4  12  25  41  64  98 130 167 217 266 326 390
#     4  11  23  42  65  93 129 172 213 260 325 387
#     4  12  23  43  66  96 130 171 219 267 323 394
#     4  10  23  43  67  93 126 172 220 270 323 382
#     4  11  25  44  67  98 133 173 222 277 336 388
#
# _framework density 19.092666000000001
#
# number of rings (size 3 to 8) (size 9 to 14) (size 15 to 20)
#    0.000    0.667    5.000    3.000    2.333    0.333 
#    0.000    1.667    0.000    0.000    0.000    0.000 
#    0.000    0.000    0.000    0.000    0.000    0.000 
#
# Total GULP energy -134165.109381 kJ/mol
# GULP energy per Si atom -5590.212891 kJ/mol
# Density = 1.904921 g / cm^3
# Si number density = 19.092666 Si / 1000 Ang^3
#
#
#
# Elastic Constant Matrix: (Units=GPa)
#
#
# Indices 1 2 3 4 5 6 
#
# 1 96.1414 9.6852 25.4602 0.0000 8.9727 0.0000
# 2 9.6852 45.4903 20.6545 0.0000 5.5850 0.0000
# 3 25.4602 20.6545 117.8595 0.0000 -4.7746 0.0000
# 4 0.0000 0.0000 0.0000 35.5976 0.0000 -1.8361
# 5 8.9727 5.5850 -4.7746 0.0000 44.1689 0.0000
# 6 0.0000 0.0000 0.0000 -1.8361 0.0000 33.3981
#
#
#
# Elastic Compliance Matrix: (Units=1/GPa)
#
#
# Indices 1 2 3 4 5 6 
#
# 1 0.011361 -0.001044 -0.002370 0.000000 -0.002432 0.000000
# 2 -0.001044 0.024526 -0.004208 0.000000 -0.003344 0.000000
# 3 -0.002370 -0.004208 0.009818 0.000000 0.002075 0.000000
# 4 0.000000 0.000000 0.000000 0.028172 0.000000 0.001549
# 5 -0.002432 -0.003344 0.002075 0.000000 0.023782 0.000000
# 6 0.000000 0.000000 0.000000 0.001549 0.000000 0.030027
#
#
# Mechanical properties :
#
#
# Convention : Reuss Voigt Hill
#
# Bulk Modulus (GPa) = 32.82858 41.23234 37.03046
# Shear Modulus (GPa) = 32.66191 36.21233 34.43712
#
# Velocity S-wave (km/s) = 4.14055 4.35979 4.25159
# Velocity P-wave (km/s) = 6.33171 6.85467 6.59837
#
# Compressibility (1/GPa) = 0.03046126
#
# Stress axis : x y z
#
# Youngs Moduli (GPa) = 88.01977 40.77265 101.85272
#
# Poissons Ratio (x) = 0.04258 0.24137
# Poissons Ratio (y) = 0.09192 0.42860
# Poissons Ratio (z) = 0.20859 0.17157
#
# Static dielectric constant tensor:
#      x y z
#    x 1.678980 0.000000 -0.002780 
#    y 0.000000 1.685220 0.000000 
#    z -0.002780 0.000000 1.626570 
# 
# From -- ./inp_files/75082.got.cif
#   From: 2010.05.17/outbox.cif.g08.bks.cpg/sg12_38_cif.got.tgz:75082.got - 2010.06.03 13:09:07.
