data_PCOD9217605
_publ_section_title
;
Structure prediction by ZEFSAII (Michael W. Deem and Ramdas Pophale) SiO2 
 PCOD9217605
Probable space group: C 2/M
;
_chemical_formula_sum "Si O2"
_cell_formula_units_Z 28
_cell_length_a 11.239767
_cell_length_b 22.628444
_cell_length_c 5.156145
_cell_angle_alpha 90.000000
_cell_angle_beta 58.946439
_cell_angle_gamma 90.000000
_cell_volume 1123.462338
_symmetry_space_group_name_H-M "C 2/M"
_symmetry_group_IT_number 12
_symmetry_cell_setting 'monoclinic'
loop_
_space_group_symop_operation_xyz
x,y,z
-x,y,-z
-x,-y,-z
x,-y,z
1/2+x,1/2+y,z
1/2-x,1/2+y,-z
1/2-x,1/2-y,-z
1/2+x,1/2-y,z
loop_
_atom_site_type_symbol
_atom_site_label
_atom_site_fract_x
_atom_site_fract_y
_atom_site_fract_z
Si Si1 0.290061 0.930750 0.158361
Si Si2 0.641680 0.859292 0.440551
Si Si3 0.866605 0.218671 0.042288
Si Si4 0.500000 0.375470 0.500000
O O1 0.375883 0.900310 0.292177
O O2 0.130377 0.916939 0.418238
O O3 0.316110 0.000000 0.111793
O O4 0.314939 0.899609 0.853905
O O5 0.500000 0.829614 0.500000
O O6 0.765615 0.813686 0.361419
O O7 0.750000 0.250000 0.000000
O O8 0.943527 0.168141 0.787193
O O9 0.000000 0.254182 0.000000
#
# Coordination Sequence:
#
# PCOD9217605 Si02
#       4
#     8   8   8   4
#     4  11  23  42  72 101 142 187 228 285 347 409
#     4  11  25  44  67 104 146 179 233 288 342 420
#     4  11  25  45  71  98 137 187 235 293 354 417
#     4  10  23  44  64 104 136 174 239 282 346 424
#
# _framework density 24.922954000000001
#
# number of rings (size 3 to 8) (size 9 to 14) (size 15 to 20)
#    0.000    1.143    2.857    2.143    2.000    9.143 
#    0.000    4.286    0.000    0.000    0.000    0.000 
#    0.000    0.000    0.000    0.000    0.000    0.000 
#
# Total GULP energy -78360.855311 kJ/mol
# GULP energy per Si atom -5597.203951 kJ/mol
# Density = 2.486623 g / cm^3
# Si number density = 24.922954 Si / 1000 Ang^3
#
#
#
# Elastic Constant Matrix: (Units=GPa)
#
#
# Indices 1 2 3 4 5 6 
#
# 1 210.5644 42.2192 45.8245 0.0000 -27.1299 0.0000
# 2 42.2192 81.3564 32.1305 0.0000 2.2324 0.0000
# 3 45.8245 32.1305 116.3597 0.0000 -2.5971 0.0000
# 4 0.0000 0.0000 0.0000 29.6871 0.0000 3.3106
# 5 -27.1299 2.2324 -2.5971 0.0000 51.7705 0.0000
# 6 0.0000 0.0000 0.0000 3.3106 0.0000 24.7252
#
#
#
# Elastic Compliance Matrix: (Units=1/GPa)
#
#
# Indices 1 2 3 4 5 6 
#
# 1 0.006024 -0.002587 -0.001587 0.000000 0.003189 0.000000
# 2 -0.002587 0.014939 -0.003155 0.000000 -0.002158 0.000000
# 3 -0.001587 -0.003155 0.010086 0.000000 -0.000190 0.000000
# 4 0.000000 0.000000 0.000000 0.034195 0.000000 -0.004579
# 5 0.003189 -0.002158 -0.000190 0.000000 0.021071 0.000000
# 6 0.000000 0.000000 0.000000 -0.004579 0.000000 0.041058
#
#
# Mechanical properties :
#
#
# Convention : Reuss Voigt Hill
#
# Bulk Modulus (GPa) = 61.00424 72.06987 66.53706
# Shear Modulus (GPa) = 33.89986 40.44364 37.17175
#
# Velocity S-wave (km/s) = 3.69207 4.03270 3.86614
# Velocity P-wave (km/s) = 6.53494 7.11783 6.83260
#
# Compressibility (1/GPa) = 0.01639230
#
# Stress axis : x y z
#
# Youngs Moduli (GPa) = 166.00193 66.93837 99.14916
#
# Poissons Ratio (x) = 0.17316 0.15734
# Poissons Ratio (y) = 0.42943 0.31277
# Poissons Ratio (z) = 0.26342 0.21116
#
# Static dielectric constant tensor:
#      x y z
#    x 2.062030 0.000000 0.010200 
#    y 0.000000 1.957610 0.000000 
#    z 0.010200 0.000000 2.030120 
# 
# From -- ./inp_files/5902.got.cif
#   From: 2010.05.17/outbox.cif.g08.bks.cpg/sg12_3_cif.got.tgz:5902.got - 2010.06.03 13:09:07.
