data_PCOD9217417
_publ_section_title
;
Structure prediction by ZEFSAII (Michael W. Deem and Ramdas Pophale) SiO2 
 PCOD9217417
Probable space group: C 2/M
;
_chemical_formula_sum "Si O2"
_cell_formula_units_Z 42
_cell_length_a 13.958518
_cell_length_b 7.271145
_cell_length_c 19.916601
_cell_angle_alpha 90.000000
_cell_angle_beta 57.828131
_cell_angle_gamma 90.000000
_cell_volume 1711.043526
_symmetry_space_group_name_H-M "C 2/M"
_symmetry_group_IT_number 12
_symmetry_cell_setting 'monoclinic'
loop_
_space_group_symop_operation_xyz
x,y,z
-x,y,-z
-x,-y,-z
x,-y,z
1/2+x,1/2+y,z
1/2-x,1/2+y,-z
1/2-x,1/2-y,-z
1/2+x,1/2-y,z
loop_
_atom_site_type_symbol
_atom_site_label
_atom_site_fract_x
_atom_site_fract_y
_atom_site_fract_z
Si Si1 0.089873 0.721611 0.764975
Si Si2 0.109194 0.790416 0.262976
Si Si3 0.274308 0.712116 0.600887
Si Si4 0.572605 0.275751 0.569606
Si Si5 0.154779 0.720249 0.885296
Si Si6 0.500000 0.500000 0.000000
O O1 0.090356 0.500000 0.758773
O O2 0.210904 0.787349 0.689973
O O3 0.080510 0.766422 0.846289
O O4 0.989604 0.791441 0.756008
O O5 0.220269 0.717441 0.185007
O O6 0.045578 0.714115 0.353127
O O7 0.140414 0.000000 0.268366
O O8 0.303071 0.500000 0.603374
O O9 0.380901 0.787996 0.519895
O O10 0.170876 0.719191 0.585427
O O11 0.570513 0.500000 0.569507
O O12 0.154348 0.500000 0.897189
O O13 0.098977 0.838785 0.963407
#
# Coordination Sequence:
#
# PCOD9217417 Si02
#       6
#     8   8   8   8   8   2
#     4   9  18  33  57  84 117 154 192 235 281 337
#     4   9  18  33  57  84 117 154 192 235 281 337
#     4   8  13  23  42  73 110 150 191 228 268 317
#     4   8  13  23  42  73 110 150 191 228 268 317
#     4  10  23  43  64  88 119 146 188 238 298 354
#     4  12  26  44  72  86 110 150 186 240 308 370
#
# _framework density 24.546423000000001
#
# number of rings (size 3 to 8) (size 9 to 14) (size 15 to 20)
#    0.000    3.048    0.000    0.286    2.667    0.000 
#    0.000    1.905    0.000    5.714    0.000    1.333 
#    0.000    0.000    0.000    0.000    0.000    0.381 
#
# Total GULP energy -116965.405431 kJ/mol
# GULP energy per Si atom -5569.781211 kJ/mol
# Density = 2.449055 g / cm^3
# Si number density = 24.546423 Si / 1000 Ang^3
#
#
#
# Elastic Constant Matrix: (Units=GPa)
#
#
# Indices 1 2 3 4 5 6 
#
# 1 86.2569 10.5061 36.1441 0.0000 -27.6941 0.0000
# 2 10.5061 129.9762 17.5882 0.0000 -12.3608 0.0001
# 3 36.1441 17.5882 80.7543 0.0000 -46.5000 0.0000
# 4 0.0000 0.0000 0.0000 -2.9860 0.0000 -0.1947
# 5 -27.6941 -12.3608 -46.5000 0.0000 49.1792 0.0000
# 6 0.0000 0.0001 0.0000 -0.1947 0.0000 -6.8907
#
#
#
# Elastic Compliance Matrix: (Units=1/GPa)
#
#
# Indices 1 2 3 4 5 6 
#
# 1 0.014720 -0.000228 -0.003948 0.000000 0.004499 0.000000
# 2 -0.000228 0.007945 -0.001213 0.000000 0.000722 0.000000
# 3 -0.003948 -0.001213 0.028447 0.000000 0.024369 0.000000
# 4 0.000000 0.000000 0.000000 -0.335515 0.000000 0.009479
# 5 0.004499 0.000722 0.024369 0.000000 0.046090 0.000000
# 6 0.000000 0.000000 0.000000 0.009479 0.000000 -0.145390
#
#
# Mechanical properties :
#
#
# Convention : Reuss Voigt Hill
#
# Bulk Modulus (GPa) = 24.79311 47.27381 36.03346
# Shear Modulus (GPa) = -13.90891 23.37709 4.73409
#
# Velocity S-wave (km/s) = -2.38300 3.08938 1.39026
# Velocity P-wave (km/s) = 1.59714 5.65919 4.15796
#
# Compressibility (1/GPa) = 0.04033379
#
# Stress axis : x y z
#
# Youngs Moduli (GPa) = 67.93563 125.86704 35.15371
#
# Poissons Ratio (x) = 0.02866 0.13880
# Poissons Ratio (y) = 0.01547 0.04263
# Poissons Ratio (z) = 0.26823 0.15264
#
# Static dielectric constant tensor:
#      x y z
#    x 1.953360 0.000000 -0.000240 
#    y 0.000000 1.764620 0.000000 
#    z -0.000240 0.000000 2.027560 
# 
# From -- ./inp_files/313184.got.cif
#   From: 2010.05.17/outbox.cif.g08.bks.cpg/sg12_157_cif.got.tgz:313184.got - 2010.06.03 13:09:07.
