data_PCOD9217825
_publ_section_title
;
Structure prediction by ZEFSAII (Michael W. Deem and Ramdas Pophale) SiO2 
 PCOD9217825
Probable space group: C 2/M
;
_chemical_formula_sum "Si O2"
_cell_formula_units_Z 58
_cell_length_a 11.007118
_cell_length_b 20.850310
_cell_length_c 20.733981
_cell_angle_alpha 90.000000
_cell_angle_beta 38.889195
_cell_angle_gamma 90.000000
_cell_volume 2987.455262
_symmetry_space_group_name_H-M "C 2/M"
_symmetry_group_IT_number 12
_symmetry_cell_setting 'monoclinic'
loop_
_space_group_symop_operation_xyz
x,y,z
-x,y,-z
-x,-y,-z
x,-y,z
1/2+x,1/2+y,z
1/2-x,1/2+y,-z
1/2-x,1/2-y,-z
1/2+x,1/2-y,z
loop_
_atom_site_type_symbol
_atom_site_label
_atom_site_fract_x
_atom_site_fract_y
_atom_site_fract_z
Si Si1 0.500000 0.000000 0.500000
Si Si2 0.046858 0.382326 0.573643
Si Si3 0.356538 0.678546 0.226421
Si Si4 0.062211 0.924713 0.049502
Si Si5 0.719780 0.821143 0.757332
Si Si6 0.139909 0.201483 0.628106
Si Si7 0.000187 0.572553 0.922107
Si Si8 0.729412 0.346420 0.405769
O O1 0.478226 0.944243 0.564566
O O2 0.188086 0.342984 0.467900
O O3 0.174279 0.395141 0.584405
O O4 0.867353 0.340366 0.672002
O O5 0.454405 0.625590 0.140857
O O6 0.373057 0.751079 0.193380
O O7 0.424398 0.683066 0.272703
O O8 0.013075 0.000000 0.082933
O O9 0.290037 0.917976 0.974630
O O10 0.000000 0.912842 0.000000
O O11 0.643997 0.873257 0.837935
O O12 0.680284 0.848482 0.702524
O O13 0.949522 0.809335 0.664918
O O14 0.218689 0.273823 0.593369
O O15 0.063905 0.500000 0.879027
O O16 0.000000 0.576082 0.000000
O O17 0.500000 0.354617 0.500000
#
# Coordination Sequence:
#
# PCOD9217825 Si02
#       8
#     2   8   8   8   8   8   8   8
#     4  12  28  44  62  96 130 190 220 274 310 384
#     4  12  23  42  60  95 134 171 221 263 315 388
#     4  11  23  37  65  95 129 166 216 276 328 388
#     4  10  24  43  64  89 123 172 222 276 345 402
#     4  11  23  38  65 101 126 170 217 267 338 391
#     4  11  20  39  64  96 135 169 213 263 321 401
#     4  10  23  46  66  88 123 171 221 275 337 405
#     4  11  22  38  65  96 132 179 208 262 329 389
#
# _framework density 19.414515999999999
#
# number of rings (size 3 to 8) (size 9 to 14) (size 15 to 20)
#    0.000    1.103    4.138    2.897    2.897    1.103 
#    2.483    0.345    0.000    0.000    0.000    0.000 
#    0.000    0.000    0.000    0.000    0.000    0.000 
#
# Total GULP energy -161595.596412 kJ/mol
# GULP energy per Si atom -5572.261945 kJ/mol
# Density = 1.937033 g / cm^3
# Si number density = 19.414516 Si / 1000 Ang^3
#
#
#
# Elastic Constant Matrix: (Units=GPa)
#
#
# Indices 1 2 3 4 5 6 
#
# 1 80.8809 5.0073 -0.4173 -0.0281 4.9752 0.0146
# 2 5.0073 84.2978 45.2853 0.0059 7.5248 -0.0015
# 3 -0.4173 45.2853 52.6190 -0.0028 4.9697 0.0048
# 4 -0.0281 0.0059 -0.0028 13.3598 -0.0072 19.0108
# 5 4.9752 7.5248 4.9697 -0.0072 23.1457 0.0035
# 6 0.0146 -0.0015 0.0048 19.0108 0.0035 15.9363
#
#
#
# Elastic Compliance Matrix: (Units=1/GPa)
#
#
# Indices 1 2 3 4 5 6 
#
# 1 0.012612 -0.001307 0.001470 -0.000061 -0.002602 0.000061
# 2 -0.001307 0.022427 -0.019036 0.000046 -0.002923 -0.000045
# 3 0.001470 -0.019036 0.035566 -0.000053 -0.001764 0.000050
# 4 -0.000061 0.000046 -0.000053 -0.107311 -0.000043 0.128014
# 5 -0.002602 -0.002923 -0.001764 -0.000043 0.045093 0.000044
# 6 0.000061 -0.000045 0.000050 0.128014 0.000044 -0.089961
#
#
# Mechanical properties :
#
#
# Convention : Reuss Voigt Hill
#
# Bulk Modulus (GPa) = 30.43141 35.28315 32.85728
# Shear Modulus (GPa) = -152.08867 21.68320 -65.20274
#
# Velocity S-wave (km/s) = -8.86046 3.34556 -5.80150
# Velocity P-wave (km/s) = 9.43230 5.75646 5.28354
#
# Compressibility (1/GPa) = 0.03286078
#
# Stress axis : x y z
#
# Youngs Moduli (GPa) = 79.28723 44.58823 28.11708
#
# Poissons Ratio (x) = 0.05827 -0.04135
# Poissons Ratio (y) = 0.10362 0.53523
# Poissons Ratio (z) = -0.11659 0.84878
#
# Static dielectric constant tensor:
#      x y z
#    x 1.762830 0.000000 0.015370 
#    y 0.000000 1.623530 0.000000 
#    z 0.015370 0.000000 1.655620 
# 
# From -- ./inp_files/306353.got.cif
#   From: 2010.05.17/outbox.cif.g08.bks.cpg/sg12_154_cif.got.tgz:306353.got - 2010.06.03 13:09:07.
