data_PCOD9217580
_publ_section_title
;
Structure prediction by ZEFSAII (Michael W. Deem and Ramdas Pophale) SiO2 
 PCOD9217580
Probable space group: C 2/M
;
_chemical_formula_sum "Si O2"
_cell_formula_units_Z 48
_cell_length_a 28.268029
_cell_length_b 13.795396
_cell_length_c 5.062896
_cell_angle_alpha 90.000000
_cell_angle_beta 114.959839
_cell_angle_gamma 90.000000
_cell_volume 1789.972005
_symmetry_space_group_name_H-M "C 2/M"
_symmetry_group_IT_number 12
_symmetry_cell_setting 'monoclinic'
loop_
_space_group_symop_operation_xyz
x,y,z
-x,y,-z
-x,-y,-z
x,-y,z
1/2+x,1/2+y,z
1/2-x,1/2+y,-z
1/2-x,1/2-y,-z
1/2+x,1/2-y,z
loop_
_atom_site_type_symbol
_atom_site_label
_atom_site_fract_x
_atom_site_fract_y
_atom_site_fract_z
Si Si1 0.609348 0.742539 0.234041
Si Si2 0.341345 0.888694 0.288963
Si Si3 0.318628 0.616312 0.942308
Si Si4 0.253219 0.616173 0.294096
Si Si5 0.448077 0.893291 0.208342
Si Si6 0.464457 0.610528 0.654385
O O1 0.650961 0.818726 0.446225
O O2 0.633051 0.674739 0.063236
O O3 0.585261 0.674687 0.401029
O O4 0.561923 0.808462 0.019161
O O5 0.397276 0.890834 0.276512
O O6 0.328266 0.000000 0.336468
O O7 0.298705 0.850898 0.979971
O O8 0.327197 0.500000 0.935855
O O9 0.271216 0.644408 0.628860
O O10 0.299886 0.634819 0.195323
O O11 0.246702 0.500000 0.292399
O O12 0.500000 0.883429 0.500000
O O13 0.448453 0.000000 0.078460
O O14 0.500000 0.646752 0.500000
O O15 0.448464 0.500000 0.553459
O O16 0.500000 0.607936 0.000000
#
# Coordination Sequence:
#
# PCOD9217580 Si02
#       6
#     8   8   8   8   8   8
#     4  12  26  39  73 104 138 183 239 296 353 426
#     4  10  24  43  67 100 139 186 237 293 354 423
#     4  10  23  43  70 104 145 186 230 289 352 423
#     4   9  21  43  68  98 143 191 231 283 354 422
#     4  10  25  48  71 100 141 189 241 301 365 427
#     4  10  25  47  70  99 139 184 230 287 352 419
#
# _framework density 26.81606
#
# number of rings (size 3 to 8) (size 9 to 14) (size 15 to 20)
#    0.000    1.833    0.000    1.000    9.333    1.333 
#    0.000    7.500    0.000    3.000    0.000    0.000 
#    0.000    0.000    0.000    0.000    0.000    0.000 
#
# Total GULP energy -134804.096334 kJ/mol
# GULP energy per Si atom -5616.837347 kJ/mol
# Density = 2.675503 g / cm^3
# Si number density = 26.816060 Si / 1000 Ang^3
#
#
#
# Elastic Constant Matrix: (Units=GPa)
#
#
# Indices 1 2 3 4 5 6 
#
# 1 129.8398 30.0642 35.9223 0.0000 0.3229 0.0000
# 2 30.0642 132.8751 21.9468 0.0000 8.6595 0.0000
# 3 35.9223 21.9468 111.1894 0.0000 5.8147 0.0000
# 4 0.0000 0.0000 0.0000 17.6890 0.0000 11.0532
# 5 0.3229 8.6595 5.8147 0.0000 53.7197 0.0000
# 6 0.0000 0.0000 0.0000 11.0532 0.0000 17.4049
#
#
#
# Elastic Compliance Matrix: (Units=1/GPa)
#
#
# Indices 1 2 3 4 5 6 
#
# 1 0.008774 -0.001596 -0.002545 0.000000 0.000480 0.000000
# 2 -0.001596 0.008134 -0.001028 0.000000 -0.001190 0.000000
# 3 -0.002545 -0.001028 0.010066 0.000000 -0.000909 0.000000
# 4 0.000000 0.000000 0.000000 0.093725 0.000000 -0.059521
# 5 0.000480 -0.001190 -0.000909 0.000000 0.018903 0.000000
# 6 0.000000 0.000000 0.000000 -0.059521 0.000000 0.095255
#
#
# Mechanical properties :
#
#
# Convention : Reuss Voigt Hill
#
# Bulk Modulus (GPa) = 60.10505 61.08565 60.59535
# Shear Modulus (GPa) = 19.94094 36.82745 28.38420
#
# Velocity S-wave (km/s) = 2.72990 3.70987 3.25695
# Velocity P-wave (km/s) = 5.69201 6.41715 6.06543
#
# Compressibility (1/GPa) = 0.01663754
#
# Stress axis : x y z
#
# Youngs Moduli (GPa) = 113.96971 122.93574 99.34270
#
# Poissons Ratio (x) = 0.19623 0.25280
# Poissons Ratio (y) = 0.18192 0.10209
# Poissons Ratio (z) = 0.29003 0.12633
#
# Static dielectric constant tensor:
#      x y z
#    x 2.056280 0.000000 0.031180 
#    y 0.000000 2.081990 0.000000 
#    z 0.031180 0.000000 2.076360 
# 
# From -- ./inp_files/31592.got.cif
#   From: 2010.05.17/outbox.cif.g08.bks.cpg/sg12_16_cif.got.tgz:31592.got - 2010.06.03 13:09:07.
