data_PCOD9217301
_publ_section_title
;
Structure prediction by ZEFSAII (Michael W. Deem and Ramdas Pophale) SiO2 
 PCOD9217301
Probable space group: C 2/M
;
_chemical_formula_sum "Si O2"
_cell_formula_units_Z 64
_cell_length_a 12.613049
_cell_length_b 26.742947
_cell_length_c 15.609294
_cell_angle_alpha 90.000000
_cell_angle_beta 142.102321
_cell_angle_gamma 90.000000
_cell_volume 3234.149260
_symmetry_space_group_name_H-M "C 2/M"
_symmetry_group_IT_number 12
_symmetry_cell_setting 'monoclinic'
loop_
_space_group_symop_operation_xyz
x,y,z
-x,y,-z
-x,-y,-z
x,-y,z
1/2+x,1/2+y,z
1/2-x,1/2+y,-z
1/2-x,1/2-y,-z
1/2+x,1/2-y,z
loop_
_atom_site_type_symbol
_atom_site_label
_atom_site_fract_x
_atom_site_fract_y
_atom_site_fract_z
Si Si1 0.472070 0.440600 0.081102
Si Si2 0.694314 0.836088 0.305137
Si Si3 0.308170 0.058859 0.412687
Si Si4 0.320331 0.136924 0.069381
Si Si5 0.299648 0.225959 0.383707
Si Si6 0.802245 0.824475 0.182856
Si Si7 0.680460 0.646808 0.437931
Si Si8 0.701725 0.713164 0.138932
O O1 0.437762 0.500000 0.063114
O O2 0.652131 0.431898 0.245864
O O3 0.500000 0.426111 0.000000
O O4 0.306800 0.410392 0.010116
O O5 0.522638 0.866987 0.217537
O O6 0.680893 0.775541 0.307342
O O7 0.744423 0.844093 0.238754
O O8 0.826901 0.849129 0.464751
O O9 0.500000 0.069955 0.500000
O O10 0.266655 0.095662 0.463679
O O11 0.304105 0.000000 0.432165
O O12 0.248902 0.174305 0.095953
O O13 0.315854 0.161343 0.972224
O O14 0.500000 0.241010 0.500000
O O15 0.281563 0.192540 0.456723
O O16 0.243083 0.195758 0.262210
O O17 0.806581 0.764551 0.193130
O O18 0.988196 0.846803 0.280611
O O19 0.500000 0.725331 0.000000
#
# Coordination Sequence:
#
# PCOD9217301 Si02
#       8
#     8   8   8   8   8   8   8   8
#     4  10  23  42  66  95 126 154 188 248 317 373
#     4  11  24  38  57  85 123 165 212 246 293 345
#     4  10  23  43  67  96 125 151 190 249 314 373
#     4  12  22  38  62  87 119 162 205 245 296 368
#     4  11  22  38  57  88 127 161 200 254 304 366
#     4  11  22  40  56  82 123 165 208 253 292 342
#     4  12  22  38  63  89 117 166 205 247 303 365
#     4  11  22  35  57  88 122 155 202 249 301 361
#
# _framework density 19.788820999999999
#
# number of rings (size 3 to 8) (size 9 to 14) (size 15 to 20)
#    0.000    1.000    1.250    7.500    3.500    0.000 
#    0.000    0.000    0.000    4.500    0.000    0.000 
#    0.000    0.000    0.000    0.000    0.000    0.000 
#
# Total GULP energy -178789.130181 kJ/mol
# GULP energy per Si atom -5587.160318 kJ/mol
# Density = 1.974378 g / cm^3
# Si number density = 19.788821 Si / 1000 Ang^3
#
#
#
# Elastic Constant Matrix: (Units=GPa)
#
#
# Indices 1 2 3 4 5 6 
#
# 1 78.9160 37.9233 15.1060 0.0000 -2.0427 0.0000
# 2 37.9233 50.4467 4.6421 0.0000 5.6599 0.0000
# 3 15.1060 4.6421 68.9166 0.0001 -0.6863 0.0000
# 4 0.0000 0.0000 0.0001 -3.7067 0.0001 10.8272
# 5 -2.0427 5.6599 -0.6863 0.0001 50.1844 0.0000
# 6 0.0000 0.0000 0.0000 10.8272 0.0000 27.6456
#
#
#
# Elastic Compliance Matrix: (Units=1/GPa)
#
#
# Indices 1 2 3 4 5 6 
#
# 1 0.020970 -0.015730 -0.003511 0.000000 0.002580 0.000000
# 2 -0.015730 0.032008 0.001250 0.000000 -0.004233 0.000000
# 3 -0.003511 0.001250 0.015195 0.000000 -0.000076 0.000000
# 4 0.000000 0.000000 0.000000 -0.125832 0.000000 0.049282
# 5 0.002580 -0.004233 -0.000076 0.000000 0.020508 0.000000
# 6 0.000000 0.000000 0.000000 0.049282 0.000000 0.016871
#
#
# Mechanical properties :
#
#
# Convention : Reuss Voigt Hill
#
# Bulk Modulus (GPa) = 31.06609 34.84692 32.95651
# Shear Modulus (GPa) = 189.15518 24.19851 106.67684
#
# Velocity S-wave (km/s) = 9.78746 3.50070 7.35015
# Velocity P-wave (km/s) = 11.97743 5.82988 9.41930
#
# Compressibility (1/GPa) = 0.03218944
#
# Stress axis : x y z
#
# Youngs Moduli (GPa) = 47.68737 31.24199 65.81125
#
# Poissons Ratio (x) = 0.49145 0.23108
# Poissons Ratio (y) = 0.75014 -0.08225
# Poissons Ratio (z) = 0.16744 -0.03905
#
# Static dielectric constant tensor:
#      x y z
#    x 1.699340 0.000000 -0.003580 
#    y 0.000000 1.674670 0.000000 
#    z -0.003580 0.000000 1.698630 
# 
# From -- ./inp_files/209430.got.cif
#   From: 2010.05.17/outbox.cif.g08.bks.cpg/sg12_105_cif.got.tgz:209430.got - 2010.06.03 13:09:07.
