data_PCOD9217136
_publ_section_title
;
Structure prediction by ZEFSAII (Michael W. Deem and Ramdas Pophale) SiO2 
 PCOD9217136
Probable space group: C 2/M
;
_chemical_formula_sum "Si O2"
_cell_formula_units_Z 56
_cell_length_a 28.372775
_cell_length_b 13.674724
_cell_length_c 16.348865
_cell_angle_alpha 90.000000
_cell_angle_beta 155.945287
_cell_angle_gamma 90.000000
_cell_volume 2585.541819
_symmetry_space_group_name_H-M "C 2/M"
_symmetry_group_IT_number 12
_symmetry_cell_setting 'monoclinic'
loop_
_space_group_symop_operation_xyz
x,y,z
-x,y,-z
-x,-y,-z
x,-y,z
1/2+x,1/2+y,z
1/2-x,1/2+y,-z
1/2-x,1/2-y,-z
1/2+x,1/2-y,z
loop_
_atom_site_type_symbol
_atom_site_label
_atom_site_fract_x
_atom_site_fract_y
_atom_site_fract_z
Si Si1 0.337178 0.384449 0.865949
Si Si2 0.525759 0.792246 0.947567
Si Si3 0.257685 0.882391 0.798200
Si Si4 0.605440 0.117465 0.407612
Si Si5 0.998234 0.880686 0.591967
Si Si6 0.889177 0.618349 0.171565
Si Si7 0.274192 0.619076 0.948933
O O1 0.359538 0.500000 0.903726
O O2 0.450421 0.322715 0.026133
O O3 0.235986 0.364134 0.640979
O O4 0.285951 0.354028 0.873203
O O5 0.646385 0.840248 0.109663
O O6 0.500000 0.816057 0.000000
O O7 0.431862 0.830583 0.734679
O O8 0.127090 0.851801 0.572783
O O9 0.262156 0.000000 0.800772
O O10 0.296868 0.858344 0.953433
O O11 0.514056 0.147259 0.334161
O O12 0.408862 0.000000 0.625309
O O13 0.000000 0.850950 0.500000
O O14 0.109033 0.848627 0.819326
O O15 0.002556 0.000000 0.599104
O O16 0.894142 0.500000 0.184989
O O17 0.837339 0.651700 0.176011
O O18 0.272474 0.500000 0.947557
#
# Coordination Sequence:
#
# PCOD9217136 Si02
#       7
#     8   8   8   8   8   8   8
#     4  10  23  42  61  86 122 163 206 252 304 367
#     4  11  24  41  65  89 115 154 209 267 317 361
#     4   9  17  31  54  89 128 159 194 246 308 364
#     4   9  20  40  64  90 125 161 195 246 309 368
#     4   9  14  24  49  85 125 166 196 230 289 355
#     4   8  13  26  52  83 115 156 198 234 284 353
#     4   9  16  28  52  84 118 161 206 238 280 357
#
# _framework density 21.658904
#
# number of rings (size 3 to 8) (size 9 to 14) (size 15 to 20)
#    0.000    2.714    1.429    1.286    0.000    3.714 
#    0.000    5.714    3.143    4.286    0.000    0.000 
#    0.000    0.000    0.000    0.000    0.000    0.000 
#
# Total GULP energy -156517.138678 kJ/mol
# GULP energy per Si atom -5589.897810 kJ/mol
# Density = 2.160961 g / cm^3
# Si number density = 21.658904 Si / 1000 Ang^3
#
#
#
# Elastic Constant Matrix: (Units=GPa)
#
#
# Indices 1 2 3 4 5 6 
#
# 1 109.1487 11.5164 29.2309 0.0000 -25.7588 0.0000
# 2 11.5164 75.9132 40.0423 0.0000 -6.8980 0.0000
# 3 29.2309 40.0423 80.1009 0.0000 -23.9627 0.0000
# 4 0.0000 0.0000 0.0000 21.2584 0.0000 -3.3217
# 5 -25.7588 -6.8980 -23.9627 0.0000 14.8085 0.0000
# 6 0.0000 0.0000 0.0000 -3.3217 0.0000 17.0589
#
#
#
# Elastic Compliance Matrix: (Units=1/GPa)
#
#
# Indices 1 2 3 4 5 6 
#
# 1 0.016862 -0.002639 0.006925 0.000000 0.039307 0.000000
# 2 -0.002639 0.019454 -0.014391 0.000000 -0.018815 0.000000
# 3 0.006925 -0.014391 0.036342 0.000000 0.064148 0.000000
# 4 0.000000 0.000000 0.000000 0.048516 0.000000 0.009447
# 5 0.039307 -0.018815 0.064148 0.000000 0.230939 0.000000
# 6 0.000000 0.000000 0.000000 0.009447 0.000000 0.060460
#
#
# Mechanical properties :
#
#
# Convention : Reuss Voigt Hill
#
# Bulk Modulus (GPa) = 19.06657 47.41578 33.24118
# Shear Modulus (GPa) = 11.10455 22.91671 17.01063
#
# Velocity S-wave (km/s) = 2.26675 3.25633 2.80552
# Velocity P-wave (km/s) = 3.95892 6.00648 5.08679
#
# Compressibility (1/GPa) = 0.05244781
#
# Stress axis : x y z
#
# Youngs Moduli (GPa) = 59.30489 51.40231 27.51674
#
# Poissons Ratio (x) = 0.13565 -0.19054
# Poissons Ratio (y) = 0.15650 0.39599
# Poissons Ratio (z) = -0.41066 0.73972
#
# Static dielectric constant tensor:
#      x y z
#    x 1.740930 0.000000 0.010490 
#    y 0.000000 1.868900 0.000000 
#    z 0.010490 0.000000 1.747980 
# 
# From -- ./inp_files/246570.got.cif
#   From: 2010.05.17/outbox.cif.g08.bks.cpg/sg12_124_cif.got.tgz:246570.got - 2010.06.03 13:09:07.
