data_PCOD9217014
_publ_section_title
;
Structure prediction by ZEFSAII (Michael W. Deem and Ramdas Pophale) SiO2 
 PCOD9217014
Probable space group: C 2/M
;
_chemical_formula_sum "Si O2"
_cell_formula_units_Z 58
_cell_length_a 8.770204
_cell_length_b 25.201239
_cell_length_c 20.538171
_cell_angle_alpha 90.000000
_cell_angle_beta 141.898541
_cell_angle_gamma 90.000000
_cell_volume 2801.030726
_symmetry_space_group_name_H-M "C 2/M"
_symmetry_group_IT_number 12
_symmetry_cell_setting 'monoclinic'
loop_
_space_group_symop_operation_xyz
x,y,z
-x,y,-z
-x,-y,-z
x,-y,z
1/2+x,1/2+y,z
1/2-x,1/2+y,-z
1/2-x,1/2-y,-z
1/2+x,1/2-y,z
loop_
_atom_site_type_symbol
_atom_site_label
_atom_site_fract_x
_atom_site_fract_y
_atom_site_fract_z
Si Si1 0.872695 0.255076 0.723581
Si Si2 0.025261 0.403922 0.602957
Si Si3 0.636588 0.793877 0.414544
Si Si4 0.500000 0.000000 0.500000
Si Si5 0.969566 0.356810 0.152601
Si Si6 0.237867 0.440169 0.814012
Si Si7 0.256066 0.902125 0.951282
Si Si8 0.458586 0.644736 0.252102
O O1 0.655466 0.221517 0.684681
O O2 0.768061 0.288401 0.626959
O O3 0.019921 0.296751 0.817109
O O4 0.029056 0.208059 0.743517
O O5 0.112345 0.423955 0.703425
O O6 0.273923 0.381377 0.651249
O O7 0.848746 0.353204 0.552996
O O8 0.934672 0.453350 0.531693
O O9 0.750000 0.750000 0.500000
O O10 0.841186 0.396340 0.160042
O O11 0.255607 0.372976 0.236068
O O12 0.841205 0.364937 0.039471
O O13 0.166668 0.500000 0.808965
O O14 0.534197 0.438101 0.902937
O O15 0.137374 0.870036 0.851887
O O16 0.500000 0.928005 0.000000
#
# Coordination Sequence:
#
# PCOD9217014 Si02
#       8
#     8   8   8   2   8   8   8   8
#     4  11  21  37  61  89 123 162 203 257 319 370
#     4  10  23  41  64  90 126 163 214 260 312 392
#     4  11  23  39  63  94 122 165 212 263 321 387
#     4  12  24  40  68  94 116 172 216 256 322 376
#     4  11  21  38  61  88 127 158 206 258 311 371
#     4  11  22  42  63  88 122 161 207 265 316 356
#     4   9  21  39  60  90 124 163 205 248 301 382
#     4   9  21  40  59  88 127 166 204 250 309 377
#
# _framework density 20.706662999999999
#
# number of rings (size 3 to 8) (size 9 to 14) (size 15 to 20)
#    0.000    1.655    3.448    0.828    3.862    1.931 
#    1.241    4.138    0.000    0.828    0.000    0.000 
#    0.000    0.000    0.000    0.000    0.000    0.000 
#
# Total GULP energy -161524.965645 kJ/mol
# GULP energy per Si atom -5569.826402 kJ/mol
# Density = 2.065953 g / cm^3
# Si number density = 20.706663 Si / 1000 Ang^3
#
#
#
# Elastic Constant Matrix: (Units=GPa)
#
#
# Indices 1 2 3 4 5 6 
#
# 1 75.7814 22.7871 -4.7819 0.0000 -2.0970 0.0000
# 2 22.7871 143.0053 17.5562 0.0000 -0.2633 0.0000
# 3 -4.7819 17.5562 21.0029 0.0000 -6.0741 0.0001
# 4 0.0000 0.0000 0.0000 2.7657 0.0000 0.4893
# 5 -2.0970 -0.2633 -6.0741 0.0000 24.2486 0.0000
# 6 0.0000 0.0000 0.0001 0.4893 0.0000 22.3853
#
#
#
# Elastic Compliance Matrix: (Units=1/GPa)
#
#
# Indices 1 2 3 4 5 6 
#
# 1 0.014663 -0.003171 0.006841 0.000000 0.002947 0.000000
# 2 -0.003171 0.008541 -0.008532 0.000000 -0.002319 0.000000
# 3 0.006841 -0.008532 0.060855 0.000001 0.015743 0.000000
# 4 0.000000 0.000000 0.000001 0.362970 0.000000 -0.007934
# 5 0.002947 -0.002319 0.015743 0.000000 0.045413 0.000000
# 6 0.000000 0.000000 0.000000 -0.007934 0.000000 0.044846
#
#
# Mechanical properties :
#
#
# Convention : Reuss Voigt Hill
#
# Bulk Modulus (GPa) = 13.45259 34.54581 23.99920
# Shear Modulus (GPa) = 8.74449 23.49514 16.11982
#
# Velocity S-wave (km/s) = 2.05723 3.37213 2.79316
# Velocity P-wave (km/s) = 3.48623 5.64636 4.69229
#
# Compressibility (1/GPa) = 0.07433510
#
# Stress axis : x y z
#
# Youngs Moduli (GPa) = 68.20108 117.07999 16.43256
#
# Poissons Ratio (x) = 0.37124 -0.11242
# Poissons Ratio (y) = 0.21625 0.14020
# Poissons Ratio (z) = -0.46657 0.99893
#
# Static dielectric constant tensor:
#      x y z
#    x 1.805320 0.000000 0.026090 
#    y 0.000000 1.714200 0.000000 
#    z 0.026090 0.000000 1.756820 
# 
# From -- ./inp_files/302485.got.cif
#   From: 2010.05.17/outbox.cif.g08.bks.cpg/sg12_152_cif.got.tgz:302485.got - 2010.06.03 13:09:07.
