data_PCOD9217176
_publ_section_title
;
Structure prediction by ZEFSAII (Michael W. Deem and Ramdas Pophale) SiO2 
 PCOD9217176
Probable space group: C 2/M
;
_chemical_formula_sum "Si O2"
_cell_formula_units_Z 56
_cell_length_a 25.600902
_cell_length_b 8.935719
_cell_length_c 18.288317
_cell_angle_alpha 90.000000
_cell_angle_beta 42.657072
_cell_angle_gamma 90.000000
_cell_volume 2834.898959
_symmetry_space_group_name_H-M "C 2/M"
_symmetry_group_IT_number 12
_symmetry_cell_setting 'monoclinic'
loop_
_space_group_symop_operation_xyz
x,y,z
-x,y,-z
-x,-y,-z
x,-y,z
1/2+x,1/2+y,z
1/2-x,1/2+y,-z
1/2-x,1/2-y,-z
1/2+x,1/2-y,z
loop_
_atom_site_type_symbol
_atom_site_label
_atom_site_fract_x
_atom_site_fract_y
_atom_site_fract_z
Si Si1 0.627181 0.820478 0.214585
Si Si2 0.800148 0.678566 0.295501
Si Si3 0.770157 0.820942 0.169547
Si Si4 0.109310 0.178255 0.081516
Si Si5 0.477662 0.675426 0.438341
Si Si6 0.654722 0.178280 0.508953
Si Si7 0.441469 0.179295 0.245439
O O1 0.692020 0.778566 0.207087
O O2 0.644921 0.757595 0.116098
O O3 0.545779 0.751245 0.322178
O O4 0.621886 0.000000 0.217307
O O5 0.792925 0.500000 0.304458
O O6 0.781825 0.740030 0.234188
O O7 0.737631 0.746989 0.415362
O O8 0.885981 0.716792 0.234656
O O9 0.767493 0.000000 0.184858
O O10 0.840084 0.788411 0.042048
O O11 0.022264 0.236494 0.162230
O O12 0.110021 0.000000 0.092259
O O13 0.500000 0.688520 0.500000
O O14 0.470735 0.500000 0.426847
O O15 0.398657 0.759015 0.501202
O O16 0.608310 0.214668 0.630748
O O17 0.662204 0.000000 0.496413
O O18 0.455820 0.000000 0.231376
#
# Coordination Sequence:
#
# PCOD9217176 Si02
#       7
#     8   8   8   8   8   8   8
#     4  11  22  39  62  88 123 162 203 251 305 368
#     4  11  24  41  63  91 124 162 206 256 307 362
#     4  10  24  43  62  90 125 163 206 252 309 367
#     4  11  23  40  65  93 122 160 207 257 305 362
#     4  11  23  37  57  89 126 161 203 251 299 359
#     4  11  22  39  63  89 122 162 204 250 305 368
#     4  10  23  42  63  91 124 162 206 251 308 367
#
# _framework density 19.753791
#
# number of rings (size 3 to 8) (size 9 to 14) (size 15 to 20)
#    0.000    1.286    1.429    3.857    0.000    8.000 
#    0.000    2.857    0.000    0.000    0.000    0.000 
#    0.000    0.000    0.000    0.000    0.000    0.000 
#
# Total GULP energy -156631.295467 kJ/mol
# GULP energy per Si atom -5593.974838 kJ/mol
# Density = 1.970883 g / cm^3
# Si number density = 19.753791 Si / 1000 Ang^3
#
#
#
# Elastic Constant Matrix: (Units=GPa)
#
#
# Indices 1 2 3 4 5 6 
#
# 1 100.5538 25.7587 12.1619 0.0027 -1.9114 0.0000
# 2 25.7587 38.5193 20.4398 0.0099 4.1291 -0.0066
# 3 12.1619 20.4398 48.8447 0.0053 0.9844 -0.0040
# 4 0.0027 0.0099 0.0053 27.7781 -0.0032 -0.0606
# 5 -1.9114 4.1291 0.9844 -0.0032 21.6881 0.0016
# 6 0.0000 -0.0066 -0.0040 -0.0606 0.0016 29.9188
#
#
#
# Elastic Compliance Matrix: (Units=1/GPa)
#
#
# Indices 1 2 3 4 5 6 
#
# 1 0.012163 -0.008725 0.000568 0.000002 0.002707 -0.000002
# 2 -0.008725 0.040356 -0.014558 -0.000012 -0.007791 0.000007
# 3 0.000568 -0.014558 0.026391 0.000000 0.001624 0.000000
# 4 0.000002 -0.000012 0.000000 0.036000 0.000008 0.000073
# 5 0.002707 -0.007791 0.001624 0.000008 0.047756 -0.000004
# 6 -0.000002 0.000007 0.000000 0.000073 -0.000004 0.033424
#
#
# Mechanical properties :
#
#
# Convention : Reuss Voigt Hill
#
# Bulk Modulus (GPa) = 29.86898 33.84872 31.85885
# Shear Modulus (GPa) = 19.78789 24.51417 22.15103
#
# Velocity S-wave (km/s) = 3.16844 3.52658 3.35230
# Velocity P-wave (km/s) = 5.34217 5.80990 5.58094
#
# Compressibility (1/GPa) = 0.03347955
#
# Stress axis : x y z
#
# Youngs Moduli (GPa) = 82.21798 24.77945 37.89186
#
# Poissons Ratio (x) = 0.21621 -0.02153
# Poissons Ratio (y) = 0.71737 0.55163
# Poissons Ratio (z) = -0.04672 0.36074
#
# Static dielectric constant tensor:
#      x y z
#    x 1.691920 0.000000 0.010220 
#    y 0.000000 1.657120 0.000000 
#    z 0.010220 0.000000 1.677400 
# 
# From -- ./inp_files/288467.got.cif
#   From: 2010.05.17/outbox.cif.g08.bks.cpg/sg12_145_cif.got.tgz:288467.got - 2010.06.03 13:09:07.
