data_PCOD9217951
_publ_section_title
;
Structure prediction by ZEFSAII (Michael W. Deem and Ramdas Pophale) SiO2 
 PCOD9217951
Probable space group: C 2/M
;
_chemical_formula_sum "Si O2"
_cell_formula_units_Z 48
_cell_length_a 20.428437
_cell_length_b 14.166966
_cell_length_c 8.849943
_cell_angle_alpha 90.000000
_cell_angle_beta 68.496481
_cell_angle_gamma 90.000000
_cell_volume 2382.977045
_symmetry_space_group_name_H-M "C 2/M"
_symmetry_group_IT_number 12
_symmetry_cell_setting 'monoclinic'
loop_
_space_group_symop_operation_xyz
x,y,z
-x,y,-z
-x,-y,-z
x,-y,z
1/2+x,1/2+y,z
1/2-x,1/2+y,-z
1/2-x,1/2-y,-z
1/2+x,1/2-y,z
loop_
_atom_site_type_symbol
_atom_site_label
_atom_site_fract_x
_atom_site_fract_y
_atom_site_fract_z
Si Si1 0.425914 0.000000 0.467991
Si Si2 0.081847 0.500000 0.890974
Si Si3 0.425538 0.208501 0.479497
Si Si4 0.566478 0.500000 0.656507
Si Si5 0.098375 0.000000 0.282894
Si Si6 0.170158 0.808836 0.219471
Si Si7 0.067605 0.192420 0.833358
Si Si8 0.165240 0.684053 0.937535
O O1 0.500000 0.000000 0.500000
O O2 0.421082 0.000000 0.289250
O O3 0.396663 0.896878 0.531142
O O4 0.120901 0.591682 0.928622
O O5 0.000000 0.500000 0.000000
O O6 0.500000 0.220958 0.500000
O O7 0.369283 0.280591 0.593908
O O8 0.442541 0.231466 0.291899
O O9 0.604034 0.500000 0.461480
O O10 0.483311 0.500000 0.689412
O O11 0.580221 0.592749 0.742956
O O12 0.133569 0.904599 0.193011
O O13 0.252562 0.828517 0.166357
O O14 0.159128 0.721056 0.114614
O O15 0.134056 0.229389 0.868757
O O16 0.000000 0.189169 0.000000
#
# Coordination Sequence:
#
# PCOD9217951 Si02
#       8
#     4   4   8   4   4   8   8   8
#     4  10  24  39  63 104 136 169 223 276 332 398
#     4  12  25  43  70 101 134 176 225 281 340 391
#     4  11  22  40  67  96 132 174 221 273 332 401
#     4  11  23  38  65 103 127 167 218 270 333 383
#     4  11  21  42  68  94 129 170 220 271 324 398
#     4  11  25  45  67  93 134 180 223 269 335 408
#     4  12  23  40  65 100 133 168 220 279 331 389
#     4  11  26  44  65  96 135 178 220 276 335 398
#
# _framework density 20.142871
#
# number of rings (size 3 to 8) (size 9 to 14) (size 15 to 20)
#    0.000    0.833    3.333    4.250    4.667    1.333 
#    0.000    2.500    0.000    0.000    0.000    0.000 
#    0.000    0.000    0.000    0.000    0.000    0.000 
#
# Total GULP energy -134031.721810 kJ/mol
# GULP energy per Si atom -5584.655075 kJ/mol
# Density = 2.009702 g / cm^3
# Si number density = 20.142871 Si / 1000 Ang^3
#
#
#
# Elastic Constant Matrix: (Units=GPa)
#
#
# Indices 1 2 3 4 5 6 
#
# 1 89.5673 38.5132 35.2771 0.0000 1.9561 0.0000
# 2 38.5132 145.5801 25.2646 0.0000 -5.8513 0.0000
# 3 35.2771 25.2646 82.4368 0.0000 -0.9249 0.0000
# 4 0.0000 0.0000 0.0000 29.1628 0.0000 18.4030
# 5 1.9561 -5.8513 -0.9249 0.0000 25.2376 0.0000
# 6 0.0000 0.0000 0.0000 18.4030 0.0000 30.3772
#
#
#
# Elastic Compliance Matrix: (Units=1/GPa)
#
#
# Indices 1 2 3 4 5 6 
#
# 1 0.014615 -0.003019 -0.005352 0.000000 -0.002029 0.000000
# 2 -0.003019 0.007944 -0.001120 0.000000 0.002035 0.000000
# 3 -0.005352 -0.001120 0.014772 0.000000 0.000697 0.000000
# 4 0.000000 0.000000 0.000000 0.055512 0.000000 -0.033630
# 5 -0.002029 0.002035 0.000697 0.000000 0.040278 0.000000
# 6 0.000000 0.000000 0.000000 -0.033630 0.000000 0.053293
#
#
# Mechanical properties :
#
#
# Convention : Reuss Voigt Hill
#
# Bulk Modulus (GPa) = 54.49780 57.29932 55.89856
# Shear Modulus (GPa) = 23.63930 31.52416 27.58173
#
# Velocity S-wave (km/s) = 3.42947 3.96034 3.70443
# Velocity P-wave (km/s) = 6.54187 7.02998 6.79031
#
# Compressibility (1/GPa) = 0.01834936
#
# Stress axis : x y z
#
# Youngs Moduli (GPa) = 68.42212 125.88253 67.69733
#
# Poissons Ratio (x) = 0.38007 0.36230
# Poissons Ratio (y) = 0.20658 0.07580
# Poissons Ratio (z) = 0.36617 0.14096
#
# Static dielectric constant tensor:
#      x y z
#    x 1.677770 0.000000 0.032850 
#    y 0.000000 1.735950 0.000000 
#    z 0.032850 0.000000 1.729230 
# 
# From -- ./inp_files/85763.got.cif
#   From: 2010.05.17/outbox.cif.g08.bks.cpg/sg12_43_cif.got.tgz:85763.got - 2010.06.03 13:09:07.
