data_PCOD9217071
_publ_section_title
;
Structure prediction by ZEFSAII (Michael W. Deem and Ramdas Pophale) SiO2 
 PCOD9217071
Probable space group: C 2/M
;
_chemical_formula_sum "Si O2"
_cell_formula_units_Z 60
_cell_length_a 18.194382
_cell_length_b 29.305684
_cell_length_c 5.410486
_cell_angle_alpha 90.000000
_cell_angle_beta 71.648643
_cell_angle_gamma 90.000000
_cell_volume 2738.151004
_symmetry_space_group_name_H-M "C 2/M"
_symmetry_group_IT_number 12
_symmetry_cell_setting 'monoclinic'
loop_
_space_group_symop_operation_xyz
x,y,z
-x,y,-z
-x,-y,-z
x,-y,z
1/2+x,1/2+y,z
1/2-x,1/2+y,-z
1/2-x,1/2-y,-z
1/2+x,1/2-y,z
loop_
_atom_site_type_symbol
_atom_site_label
_atom_site_fract_x
_atom_site_fract_y
_atom_site_fract_z
Si Si1 0.930350 0.222610 0.390552
Si Si2 0.566631 0.450944 0.631021
Si Si3 0.141944 0.883768 0.886164
Si Si4 0.711532 0.133630 0.607193
Si Si5 0.234336 0.222688 0.261530
Si Si6 0.725676 0.448516 0.168021
Si Si7 0.500000 0.642809 0.000000
Si Si8 0.549156 0.826110 0.703324
O O1 0.855590 0.214203 0.630910
O O2 0.925353 0.273248 0.274268
O O3 0.000000 0.226807 0.500000
O O4 0.942166 0.180183 0.200658
O O5 0.500000 0.449955 0.500000
O O6 0.560809 0.500000 0.771389
O O7 0.568664 0.406286 0.799213
O O8 0.650155 0.451105 0.420721
O O9 0.212762 0.861951 0.655684
O O10 0.074681 0.865755 0.137442
O O11 0.189787 0.924741 0.963997
O O12 0.722975 0.174493 0.788843
O O13 0.718200 0.085912 0.746130
O O14 0.627420 0.143890 0.584372
O O15 0.250000 0.250000 0.500000
O O16 0.250000 0.250000 0.000000
O O17 0.754105 0.500000 0.093762
O O18 0.500000 0.828430 0.500000
O O19 0.500000 0.840205 0.000000
#
# Coordination Sequence:
#
# PCOD9217071 Si02
#       8
#     8   8   8   8   8   8   4   8
#     4  11  26  41  62  94 141 192 236 285 350 417
#     4   9  18  35  55  84 124 172 231 289 345 405
#     4  11  23  37  62  94 136 183 238 288 352 414
#     4  11  26  43  70 103 136 184 239 295 366 442
#     4  12  28  45  72 103 146 188 241 299 352 426
#     4  10  23  41  66  95 132 181 238 305 364 424
#     4  12  24  38  55  98 144 194 245 288 342 414
#     4  11  26  46  72 102 136 180 230 293 363 438
#
# _framework density 21.912597999999999
#
# number of rings (size 3 to 8) (size 9 to 14) (size 15 to 20)
#    0.000    1.200    3.333    1.200   11.200    1.067 
#    0.000    2.667    0.000    0.800    0.000    0.000 
#    0.000    0.000    0.000    0.000    0.000    0.000 
#
# Total GULP energy -167115.317123 kJ/mol
# GULP energy per Si atom -5570.510571 kJ/mol
# Density = 2.186272 g / cm^3
# Si number density = 21.912598 Si / 1000 Ang^3
#
#
#
# Elastic Constant Matrix: (Units=GPa)
#
#
# Indices 1 2 3 4 5 6 
#
# 1 132.7004 47.6369 20.4274 0.0000 -10.4441 0.0000
# 2 47.6369 124.7213 16.0890 0.0000 5.9594 0.0000
# 3 20.4274 16.0890 81.7563 0.0000 -10.6838 0.0000
# 4 0.0000 0.0000 0.0000 20.5597 0.0000 28.6871
# 5 -10.4441 5.9594 -10.6838 0.0000 24.8448 0.0000
# 6 0.0000 0.0000 0.0000 28.6871 0.0000 30.6290
#
#
#
# Elastic Compliance Matrix: (Units=1/GPa)
#
#
# Indices 1 2 3 4 5 6 
#
# 1 0.009348 -0.003643 -0.001050 0.000000 0.004352 0.000000
# 2 -0.003643 0.009838 -0.001626 0.000000 -0.004590 0.000000
# 3 -0.001050 -0.001626 0.013570 0.000000 0.005784 0.000000
# 4 0.000000 0.000000 0.000000 -0.158512 0.000000 0.148463
# 5 0.004352 -0.004590 0.005784 0.000000 0.045667 0.000000
# 6 0.000000 0.000000 0.000000 0.148463 0.000000 -0.106401
#
#
# Mechanical properties :
#
#
# Convention : Reuss Voigt Hill
#
# Bulk Modulus (GPa) = 49.70589 56.38717 53.04653
# Shear Modulus (GPa) = -29.91366 32.20835 1.14735
#
# Velocity S-wave (km/s) = -3.69878 3.83803 0.72439
# Velocity P-wave (km/s) = 2.11935 6.74012 4.99604
#
# Compressibility (1/GPa) = 0.02011834
#
# Stress axis : x y z
#
# Youngs Moduli (GPa) = 106.97946 101.64382 73.69418
#
# Poissons Ratio (x) = 0.37026 0.07738
# Poissons Ratio (y) = 0.38970 0.11981
# Poissons Ratio (z) = 0.11233 0.16525
#
# Static dielectric constant tensor:
#      x y z
#    x 1.892500 0.000000 0.032030 
#    y 0.000000 2.042530 0.000000 
#    z 0.032030 0.000000 1.898680 
# 
# From -- ./inp_files/18285.got.cif
#   From: 2010.05.17/outbox.cif.g08.bks.cpg/sg12_10_cif.got.tgz:18285.got - 2010.06.03 13:09:07.
