data_PCOD9217612
_publ_section_title
;
Structure prediction by ZEFSAII (Michael W. Deem and Ramdas Pophale) SiO2 
 PCOD9217612
Probable space group: C 2/M
;
_chemical_formula_sum "Si O2"
_cell_formula_units_Z 40
_cell_length_a 21.724215
_cell_length_b 13.450900
_cell_length_c 19.516054
_cell_angle_alpha 90.000000
_cell_angle_beta 18.682635
_cell_angle_gamma 90.000000
_cell_volume 1826.751618
_symmetry_space_group_name_H-M "C 2/M"
_symmetry_group_IT_number 12
_symmetry_cell_setting 'monoclinic'
loop_
_space_group_symop_operation_xyz
x,y,z
-x,y,-z
-x,-y,-z
x,-y,z
1/2+x,1/2+y,z
1/2-x,1/2+y,-z
1/2-x,1/2-y,-z
1/2+x,1/2-y,z
loop_
_atom_site_type_symbol
_atom_site_label
_atom_site_fract_x
_atom_site_fract_y
_atom_site_fract_z
Si Si1 0.172491 0.381051 0.663228
Si Si2 0.931727 0.209980 0.496281
Si Si3 0.992099 0.119785 0.215325
Si Si4 0.751489 0.879077 0.937691
Si Si5 0.156174 0.881082 0.776695
O O1 0.175785 0.500000 0.661859
O O2 0.245607 0.344773 0.659956
O O3 0.327737 0.349864 0.442458
O O4 0.963303 0.352619 0.856849
O O5 0.856373 0.323363 0.575724
O O6 0.000000 0.181806 0.500000
O O7 0.103434 0.178534 0.265028
O O8 0.936970 0.151436 0.197481
O O9 0.190938 0.143525 0.044269
O O10 0.987880 0.000000 0.215861
O O11 0.777190 0.000000 0.901542
O O12 0.186703 0.000000 0.744307
O O13 0.000000 0.857800 0.000000
#
# Coordination Sequence:
#
# PCOD9217612 Si02
#       5
#     8   8   8   8   8
#     4   9  19  37  64  95 126 156 189 235 299 367
#     4  11  24  38  60  87 126 159 203 247 289 353
#     4   8  16  37  63  89 119 151 196 249 297 353
#     4   9  19  37  63  96 126 155 189 235 300 367
#     4  10  23  44  65  83 115 161 207 257 303 343
#
# _framework density 21.896792000000001
#
# number of rings (size 3 to 8) (size 9 to 14) (size 15 to 20)
#    0.000    2.600    0.000    1.800    2.800    5.200 
#    3.600    4.000    0.000    0.000    0.000    0.000 
#    0.000    0.000    0.000    0.000    0.000    0.000 
#
# Total GULP energy -111700.046574 kJ/mol
# GULP energy per Si atom -5585.002329 kJ/mol
# Density = 2.184695 g / cm^3
# Si number density = 21.896792 Si / 1000 Ang^3
#
#
#
# Elastic Constant Matrix: (Units=GPa)
#
#
# Indices 1 2 3 4 5 6 
#
# 1 226.0981 28.8408 78.4695 -0.0185 -12.6054 0.0055
# 2 28.8408 76.8659 31.7663 -0.0150 -5.9865 0.0149
# 3 78.4695 31.7663 86.5738 0.0258 -22.4535 -0.0114
# 4 -0.0185 -0.0150 0.0258 28.0616 -0.0064 -14.7145
# 5 -12.6054 -5.9865 -22.4535 -0.0064 39.6981 -0.0004
# 6 0.0055 0.0149 -0.0114 -14.7145 -0.0004 33.7559
#
#
#
# Elastic Compliance Matrix: (Units=1/GPa)
#
#
# Indices 1 2 3 4 5 6 
#
# 1 0.006527 0.000047 -0.006322 0.000010 -0.001496 0.000001
# 2 0.000047 0.015371 -0.005950 0.000011 -0.001033 -0.000004
# 3 -0.006322 -0.005950 0.021927 -0.000025 0.009498 0.000000
# 4 0.000010 0.000011 -0.000025 0.046195 -0.000002 0.020137
# 5 -0.001496 -0.001033 0.009498 -0.000002 0.029931 0.000004
# 6 0.000001 -0.000004 0.000000 0.020137 0.000004 0.038402
#
#
# Mechanical properties :
#
#
# Convention : Reuss Voigt Hill
#
# Bulk Modulus (GPa) = 51.61159 74.18790 62.89974
# Shear Modulus (GPa) = 26.41840 37.00053 31.70947
#
# Velocity S-wave (km/s) = 3.47723 4.11514 3.80956
# Velocity P-wave (km/s) = 6.30421 7.51887 6.93817
#
# Compressibility (1/GPa) = 0.01937549
#
# Stress axis : x y z
#
# Youngs Moduli (GPa) = 153.19944 65.05885 45.60556
#
# Poissons Ratio (x) = -0.00305 0.28830
# Poissons Ratio (y) = -0.00718 0.27136
# Poissons Ratio (z) = 0.96845 0.38711
#
# Static dielectric constant tensor:
#      x y z
#    x 1.785150 0.000000 -0.023360 
#    y 0.000000 1.879150 0.000010 
#    z -0.023360 0.000010 1.765590 
# 
# From -- ./inp_files/284426.got.cif
#   From: 2010.05.17/outbox.cif.g08.bks.cpg/sg12_143_cif.got.tgz:284426.got - 2010.06.03 13:09:07.
