data_PCOD9217115
_publ_section_title
;
Structure prediction by ZEFSAII (Michael W. Deem and Ramdas Pophale) SiO2 
 PCOD9217115
Probable space group: C 2/M
;
_chemical_formula_sum "Si O2"
_cell_formula_units_Z 44
_cell_length_a 9.095612
_cell_length_b 14.943111
_cell_length_c 16.050016
_cell_angle_alpha 90.000000
_cell_angle_beta 60.407081
_cell_angle_gamma 90.000000
_cell_volume 1896.906646
_symmetry_space_group_name_H-M "C 2/M"
_symmetry_group_IT_number 12
_symmetry_cell_setting 'monoclinic'
loop_
_space_group_symop_operation_xyz
x,y,z
-x,y,-z
-x,-y,-z
x,-y,z
1/2+x,1/2+y,z
1/2-x,1/2+y,-z
1/2-x,1/2-y,-z
1/2+x,1/2-y,z
loop_
_atom_site_type_symbol
_atom_site_label
_atom_site_fract_x
_atom_site_fract_y
_atom_site_fract_z
Si Si1 0.170239 0.823551 0.267954
Si Si2 0.345714 0.634079 0.089419
Si Si3 0.805263 0.190302 0.563577
Si Si4 0.340700 0.000000 0.428620
Si Si5 0.526495 0.783595 0.147816
Si Si6 0.788444 0.500000 0.740678
Si Si7 0.945443 0.000000 0.346558
O O1 0.194626 0.763641 0.345408
O O2 0.365517 0.849867 0.197681
O O3 0.082880 0.767864 0.217828
O O4 0.057891 0.910256 0.320742
O O5 0.448408 0.711261 0.107947
O O6 0.197844 0.669313 0.070768
O O7 0.237767 0.582310 0.189344
O O8 0.500000 0.586974 0.000000
O O9 0.750000 0.250000 0.500000
O O10 0.705090 0.097167 0.596322
O O11 0.000000 0.166705 0.500000
O O12 0.543971 0.000000 0.363146
O O13 0.214174 0.000000 0.544802
O O14 0.631454 0.500000 0.723221
#
# Coordination Sequence:
#
# PCOD9217115 Si02
#       7
#     8   8   8   4   8   4   4
#     4  11  22  42  67  97 140 184 226 279 349 407
#     4  11  23  45  73 104 138 178 227 289 361 424
#     4  12  25  43  68  99 138 186 241 291 343 412
#     4  12  27  47  66 101 143 192 241 291 354 408
#     4  10  23  41  71 103 137 177 226 287 344 424
#     4  12  26  45  69 101 138 183 234 294 345 421
#     4  12  24  45  70  93 141 190 230 286 345 407
#
# _framework density 23.195658999999999
#
# number of rings (size 3 to 8) (size 9 to 14) (size 15 to 20)
#    0.000    0.727    3.636    4.091    0.000    3.636 
#    0.000    0.000    0.000    2.182    0.000    0.000 
#    0.000    0.000    0.000    0.000    0.000    0.000 
#
# Total GULP energy -122654.861724 kJ/mol
# GULP energy per Si atom -5575.220987 kJ/mol
# Density = 2.314287 g / cm^3
# Si number density = 23.195659 Si / 1000 Ang^3
#
#
#
# Elastic Constant Matrix: (Units=GPa)
#
#
# Indices 1 2 3 4 5 6 
#
# 1 149.5504 40.2086 36.5087 0.0000 -35.8613 0.0000
# 2 40.2086 82.9402 27.9859 0.0000 -14.9720 0.0000
# 3 36.5087 27.9859 85.8077 0.0000 -41.7352 0.0000
# 4 0.0000 0.0000 0.0000 47.6730 0.0000 8.7491
# 5 -35.8613 -14.9720 -41.7352 0.0000 51.7894 0.0000
# 6 0.0000 0.0000 0.0000 8.7491 0.0000 25.1200
#
#
#
# Elastic Compliance Matrix: (Units=1/GPa)
#
#
# Indices 1 2 3 4 5 6 
#
# 1 0.008823 -0.003292 -0.000282 0.000000 0.004930 0.000000
# 2 -0.003292 0.014787 -0.004032 0.000000 -0.001254 0.000000
# 3 -0.000282 -0.004032 0.020438 0.000000 0.015109 0.000000
# 4 0.000000 0.000000 0.000000 0.022409 0.000000 -0.007805
# 5 0.004930 -0.001254 0.015109 0.000000 0.034536 0.000000
# 6 0.000000 0.000000 0.000000 -0.007805 0.000000 0.042527
#
#
# Mechanical properties :
#
#
# Convention : Reuss Voigt Hill
#
# Bulk Modulus (GPa) = 34.67979 58.63387 46.65683
# Shear Modulus (GPa) = 29.70110 39.15617 34.42863
#
# Velocity S-wave (km/s) = 3.58223 4.11308 3.85680
# Velocity P-wave (km/s) = 5.66509 6.92022 6.32387
#
# Compressibility (1/GPa) = 0.02883524
#
# Stress axis : x y z
#
# Youngs Moduli (GPa) = 113.34044 67.62715 48.92897
#
# Poissons Ratio (x) = 0.22263 0.01381
# Poissons Ratio (y) = 0.37313 0.19728
# Poissons Ratio (z) = 0.03199 0.27267
#
# Static dielectric constant tensor:
#      x y z
#    x 1.839130 0.000000 0.016990 
#    y 0.000000 1.951390 0.000000 
#    z 0.016990 0.000000 2.059460 
# 
# From -- ./inp_files/256910.got.cif
#   From: 2010.05.17/outbox.cif.g08.bks.cpg/sg12_129_cif.got.tgz:256910.got - 2010.06.03 13:09:07.
