data_PCOD9217475
_publ_section_title
;
Structure prediction by ZEFSAII (Michael W. Deem and Ramdas Pophale) SiO2 
 PCOD9217475
Probable space group: C 2/M
;
_chemical_formula_sum "Si O2"
_cell_formula_units_Z 64
_cell_length_a 26.699452
_cell_length_b 8.711737
_cell_length_c 23.385153
_cell_angle_alpha 90.000000
_cell_angle_beta 145.944092
_cell_angle_gamma 90.000000
_cell_volume 3046.046878
_symmetry_space_group_name_H-M "C 2/M"
_symmetry_group_IT_number 12
_symmetry_cell_setting 'monoclinic'
loop_
_space_group_symop_operation_xyz
x,y,z
-x,y,-z
-x,-y,-z
x,-y,z
1/2+x,1/2+y,z
1/2-x,1/2+y,-z
1/2-x,1/2-y,-z
1/2+x,1/2-y,z
loop_
_atom_site_type_symbol
_atom_site_label
_atom_site_fract_x
_atom_site_fract_y
_atom_site_fract_z
Si Si1 0.650487 0.815689 0.910814
Si Si2 0.192578 0.319795 0.162960
Si Si3 0.317494 0.819044 0.609771
Si Si4 0.877574 0.680549 0.353681
Si Si5 0.980752 0.681562 0.681934
Si Si6 0.142218 0.821935 0.234236
Si Si7 0.570684 0.320047 0.951463
Si Si8 0.442257 0.680480 0.525927
O O1 0.580667 0.768762 0.794608
O O2 0.607676 0.758032 0.929375
O O3 0.653851 0.000000 0.913718
O O4 0.750000 0.750000 0.000000
O O5 0.207188 0.500000 0.169342
O O6 0.284208 0.228830 0.238209
O O7 0.166068 0.280858 0.202691
O O8 0.116277 0.259953 0.048704
O O9 0.250000 0.750000 0.500000
O O10 0.415959 0.799389 0.675125
O O11 0.310836 0.733599 0.663583
O O12 0.301661 0.000000 0.602611
O O13 0.894518 0.500000 0.363907
O O14 0.958064 0.774258 0.400955
O O15 0.879118 0.727590 0.422218
O O16 0.982928 0.500000 0.669810
O O17 0.939646 0.769569 0.589198
O O18 0.036055 0.808947 0.144896
O O19 0.163637 0.000000 0.241797
O O20 0.594520 0.500000 0.973493
O O21 0.426147 0.500000 0.504209
#
# Coordination Sequence:
#
# PCOD9217475 Si02
#       8
#     8   8   8   8   8   8   8   8
#     4  11  24  43  67  96 132 172 219 268 322 383
#     4  12  26  42  66  96 127 165 214 264 318 379
#     4  11  24  43  67  96 132 172 219 268 322 383
#     4  11  23  43  66  91 128 168 211 263 321 378
#     4  10  23  43  66  93 130 176 217 262 324 388
#     4  11  24  44  68  95 129 167 211 262 321 384
#     4  11  24  44  68  95 129 167 211 262 321 384
#     4  11  23  40  65  94 129 167 213 262 317 381
#
# _framework density 21.010840000000002
#
# number of rings (size 3 to 8) (size 9 to 14) (size 15 to 20)
#    0.000    1.000    1.250    6.000    3.500    5.000 
#    0.000    0.000    0.000    0.000    0.000    0.000 
#    0.000    0.000    0.000    0.000    0.000    0.000 
#
# Total GULP energy -179139.948899 kJ/mol
# GULP energy per Si atom -5598.123403 kJ/mol
# Density = 2.096302 g / cm^3
# Si number density = 21.010840 Si / 1000 Ang^3
#
#
#
# Elastic Constant Matrix: (Units=GPa)
#
#
# Indices 1 2 3 4 5 6 
#
# 1 26.4401 -2.3028 -5.8771 0.0000 -9.0236 0.0000
# 2 -2.3028 52.1918 10.6940 0.0000 3.0802 0.0000
# 3 -5.8771 10.6940 87.4689 0.0000 -8.8684 0.0000
# 4 0.0000 0.0000 0.0000 31.7572 0.0000 -3.0642
# 5 -9.0236 3.0802 -8.8684 0.0000 36.2255 0.0000
# 6 0.0000 0.0000 0.0000 -3.0642 0.0000 35.5683
#
#
#
# Elastic Compliance Matrix: (Units=1/GPa)
#
#
# Indices 1 2 3 4 5 6 
#
# 1 0.042695 0.000382 0.003996 0.000000 0.011581 0.000000
# 2 0.000382 0.019847 -0.002628 0.000000 -0.002236 0.000000
# 3 0.003996 -0.002628 0.012455 0.000000 0.004268 0.000000
# 4 0.000000 0.000000 0.000000 0.031753 0.000000 0.002735
# 5 0.011581 -0.002236 0.004268 0.000000 0.031725 0.000000
# 6 0.000000 0.000000 0.000000 0.002735 0.000000 0.028351
#
#
# Mechanical properties :
#
#
# Convention : Reuss Voigt Hill
#
# Bulk Modulus (GPa) = 12.73918 19.01432 15.87675
# Shear Modulus (GPa) = 26.38645 31.61599 29.00122
#
# Velocity S-wave (km/s) = 3.54764 3.88331 3.71927
# Velocity P-wave (km/s) = 4.78093 5.40150 5.10067
#
# Compressibility (1/GPa) = 0.07849802
#
# Stress axis : x y z
#
# Youngs Moduli (GPa) = 23.42184 50.38482 80.28816
#
# Poissons Ratio (x) = -0.01922 -0.32086
# Poissons Ratio (y) = -0.00894 0.21096
# Poissons Ratio (z) = -0.09360 0.13239
#
# Static dielectric constant tensor:
#      x y z
#    x 1.751400 0.000000 0.041730 
#    y 0.000000 1.706990 0.000000 
#    z 0.041730 0.000000 1.677180 
# 
# From -- ./inp_files/353502.got.cif
#   From: 2010.05.17/outbox.cif.g08.bks.cpg/sg12_177_cif.got.tgz:353502.got - 2010.06.03 13:09:07.
