data_PCOD9217125
_publ_section_title
;
Structure prediction by ZEFSAII (Michael W. Deem and Ramdas Pophale) SiO2 
 PCOD9217125
Probable space group: C 2/M
;
_chemical_formula_sum "Si O2"
_cell_formula_units_Z 60
_cell_length_a 18.913557
_cell_length_b 15.182748
_cell_length_c 23.910219
_cell_angle_alpha 90.000000
_cell_angle_beta 23.671292
_cell_angle_gamma 90.000000
_cell_volume 2756.644294
_symmetry_space_group_name_H-M "C 2/M"
_symmetry_group_IT_number 12
_symmetry_cell_setting 'monoclinic'
loop_
_space_group_symop_operation_xyz
x,y,z
-x,y,-z
-x,-y,-z
x,-y,z
1/2+x,1/2+y,z
1/2-x,1/2+y,-z
1/2-x,1/2-y,-z
1/2+x,1/2-y,z
loop_
_atom_site_type_symbol
_atom_site_label
_atom_site_fract_x
_atom_site_fract_y
_atom_site_fract_z
Si Si1 0.000000 0.835231 0.500000
Si Si2 0.892237 0.603532 0.922494
Si Si3 0.658319 0.744271 0.757785
Si Si4 0.509992 0.398351 0.783314
Si Si5 0.643445 0.898806 0.184842
Si Si6 0.941903 0.904758 0.659944
Si Si7 0.302203 0.747085 0.144242
Si Si8 0.256238 0.855247 0.500356
O O1 0.837960 0.774996 0.597455
O O2 0.930625 0.892108 0.601724
O O3 0.936370 0.500000 0.899396
O O4 0.886915 0.619743 0.859019
O O5 0.028454 0.671333 0.850991
O O6 0.692061 0.619669 0.087590
O O7 0.563328 0.666743 0.794002
O O8 0.716858 0.716351 0.777562
O O9 0.514546 0.500000 0.798049
O O10 0.647927 0.383967 0.633450
O O11 0.772508 0.829622 0.120978
O O12 0.456097 0.886771 0.351628
O O13 0.703310 0.000000 0.146201
O O14 0.836876 0.824692 0.763239
O O15 0.144671 0.896096 0.530464
O O16 0.874299 0.000000 0.726642
O O17 0.500000 0.782171 0.000000
O O18 0.250000 0.750000 0.500000
#
# Coordination Sequence:
#
# PCOD9217125 Si02
#       8
#     4   8   8   8   8   8   8   8
#     4  10  23  42  59  92 126 174 221 256 315 392
#     4  10  23  43  70 100 128 170 226 281 331 385
#     4  11  24  40  66  92 132 175 216 264 332 391
#     4  11  24  41  66 100 132 166 216 275 333 387
#     4  11  23  43  70  98 129 173 226 276 327 387
#     4  11  23  40  64  91 127 168 211 267 326 387
#     4  11  26  42  61  95 133 176 218 260 324 398
#     4  12  23  41  68  97 129 165 214 280 332 386
#
# _framework density 21.765594
#
# number of rings (size 3 to 8) (size 9 to 14) (size 15 to 20)
#    0.000    1.067    1.333    5.000    3.733    4.800 
#    0.000    0.333    0.000    0.000    0.000    0.000 
#    0.000    0.000    0.000    0.000    0.000    0.000 
#
# Total GULP energy -167881.737314 kJ/mol
# GULP energy per Si atom -5596.057910 kJ/mol
# Density = 2.171605 g / cm^3
# Si number density = 21.765594 Si / 1000 Ang^3
#
#
#
# Elastic Constant Matrix: (Units=GPa)
#
#
# Indices 1 2 3 4 5 6 
#
# 1 79.9385 40.6005 2.8418 0.0049 1.6753 -0.0051
# 2 40.6005 116.2669 10.1256 0.0109 -13.6194 0.0036
# 3 2.8418 10.1256 86.8548 -0.0064 -4.4515 -0.0007
# 4 0.0049 0.0109 -0.0064 15.0236 0.0024 -2.6415
# 5 1.6753 -13.6194 -4.4515 0.0024 38.1941 0.0043
# 6 -0.0051 0.0036 -0.0007 -2.6415 0.0043 3.0483
#
#
#
# Elastic Compliance Matrix: (Units=1/GPa)
#
#
# Indices 1 2 3 4 5 6 
#
# 1 0.015473 -0.005723 0.000022 0.000007 -0.002717 0.000043
# 2 -0.005723 0.011161 -0.000902 -0.000015 0.004126 -0.000042
# 3 0.000022 -0.000902 0.011671 0.000007 0.001037 0.000008
# 4 0.000007 -0.000015 0.000007 0.078526 -0.000017 0.068048
# 5 -0.002717 0.004126 0.001037 -0.000017 0.027893 -0.000064
# 6 0.000043 -0.000042 0.000008 0.068048 -0.000064 0.387021
#
#
# Mechanical properties :
#
#
# Convention : Reuss Voigt Hill
#
# Bulk Modulus (GPa) = 39.84517 43.35511 41.60014
# Shear Modulus (GPa) = 9.03637 26.55269 17.79453
#
# Velocity S-wave (km/s) = 2.03978 3.49655 2.86239
# Velocity P-wave (km/s) = 4.88813 6.02192 5.48440
#
# Compressibility (1/GPa) = 0.02509714
#
# Stress axis : x y z
#
# Youngs Moduli (GPa) = 64.63045 89.59500 85.68140
#
# Poissons Ratio (x) = 0.51277 -0.00186
# Poissons Ratio (y) = 0.36989 0.07733
# Poissons Ratio (z) = -0.00140 0.08086
#
# Static dielectric constant tensor:
#      x y z
#    x 1.785530 0.000000 0.035430 
#    y 0.000000 1.774400 0.000010 
#    z 0.035430 0.000010 1.805380 
# 
# From -- ./inp_files/366540.got.cif
#   From: 2010.05.17/outbox.cif.g08.bks.cpg/sg12_184_cif.got.tgz:366540.got - 2010.06.03 13:09:07.
