data_PCOD9217583
_publ_section_title
;
Structure prediction by ZEFSAII (Michael W. Deem and Ramdas Pophale) SiO2 
 PCOD9217583
Probable space group: C 2/M
;
_chemical_formula_sum "Si O2"
_cell_formula_units_Z 44
_cell_length_a 11.208177
_cell_length_b 24.292315
_cell_length_c 12.191941
_cell_angle_alpha 90.000000
_cell_angle_beta 37.012032
_cell_angle_gamma 90.000000
_cell_volume 1998.300345
_symmetry_space_group_name_H-M "C 2/M"
_symmetry_group_IT_number 12
_symmetry_cell_setting 'monoclinic'
loop_
_space_group_symop_operation_xyz
x,y,z
-x,y,-z
-x,-y,-z
x,-y,z
1/2+x,1/2+y,z
1/2-x,1/2+y,-z
1/2-x,1/2-y,-z
1/2+x,1/2-y,z
loop_
_atom_site_type_symbol
_atom_site_label
_atom_site_fract_x
_atom_site_fract_y
_atom_site_fract_z
Si Si1 0.470609 0.408874 0.746016
Si Si2 0.151631 0.500000 0.290387
Si Si3 0.270316 0.000000 0.206287
Si Si4 0.176762 0.717786 0.284436
Si Si5 0.264871 0.000000 0.468119
Si Si6 0.297802 0.389657 0.107324
Si Si7 0.930752 0.218068 0.307710
O O1 0.333396 0.444229 0.763868
O O2 0.665928 0.447622 0.600487
O O3 0.549502 0.346540 0.674662
O O4 0.334819 0.404801 0.954751
O O5 0.273237 0.445039 0.193347
O O6 0.000000 0.500000 0.500000
O O7 0.001103 0.500000 0.299423
O O8 0.227854 0.000000 0.366478
O O9 0.500000 0.000000 0.000000
O O10 0.145302 0.656453 0.256950
O O11 0.369663 0.723901 0.223269
O O12 0.000000 0.728261 0.500000
O O13 0.132652 0.756242 0.211335
O O14 0.500000 0.363596 0.000000
O O15 0.750000 0.250000 0.500000
#
# Coordination Sequence:
#
# PCOD9217583 Si02
#       7
#     8   4   4   8   4   8   8
#     4  11  23  44  69 101 132 186 224 291 352 411
#     4  12  25  38  67 102 129 186 225 277 357 414
#     4  11  25  49  67 103 143 177 233 286 353 424
#     4  10  23  44  67  98 134 187 235 293 343 419
#     4  11  25  43  73  95 137 171 234 278 348 425
#     4  12  23  41  64  95 143 170 228 286 344 410
#     4  10  23  43  70  97 138 180 245 286 356 415
#
# _framework density 22.018712000000001
#
# number of rings (size 3 to 8) (size 9 to 14) (size 15 to 20)
#    0.000    1.091    1.818    5.182    5.091    5.091 
#    3.273    0.000    0.000    0.000    0.000    0.000 
#    0.000    0.000    0.000    0.000    0.000    0.000 
#
# Total GULP energy -122497.543647 kJ/mol
# GULP energy per Si atom -5568.070166 kJ/mol
# Density = 2.196860 g / cm^3
# Si number density = 22.018712 Si / 1000 Ang^3
#
#
#
# Elastic Constant Matrix: (Units=GPa)
#
#
# Indices 1 2 3 4 5 6 
#
# 1 154.2228 48.0588 34.2698 0.0000 23.9418 0.0000
# 2 48.0588 166.2396 30.6534 0.0000 12.5413 0.0000
# 3 34.2698 30.6534 69.8462 0.0000 20.0156 0.0000
# 4 0.0000 0.0000 0.0000 43.6575 0.0000 3.1731
# 5 23.9418 12.5413 20.0156 0.0000 45.9052 0.0000
# 6 0.0000 0.0000 0.0000 3.1731 0.0000 20.2228
#
#
#
# Elastic Compliance Matrix: (Units=1/GPa)
#
#
# Indices 1 2 3 4 5 6 
#
# 1 0.007946 -0.001652 -0.002417 0.000000 -0.002639 0.000000
# 2 -0.001652 0.006904 -0.002201 0.000000 -0.000065 0.000000
# 3 -0.002417 -0.002201 0.018211 0.000000 -0.006078 0.000000
# 4 0.000000 0.000000 0.000000 0.023170 0.000000 -0.003635
# 5 -0.002639 -0.000065 -0.006078 0.000000 0.025828 0.000000
# 6 0.000000 0.000000 0.000000 -0.003635 0.000000 0.050020
#
#
# Mechanical properties :
#
#
# Convention : Reuss Voigt Hill
#
# Bulk Modulus (GPa) = 48.73265 68.47471 58.60368
# Shear Modulus (GPa) = 33.01239 40.44553 36.72896
#
# Velocity S-wave (km/s) = 3.87626 4.29052 4.08864
# Velocity P-wave (km/s) = 6.49726 7.46396 6.99732
#
# Compressibility (1/GPa) = 0.02052012
#
# Stress axis : x y z
#
# Youngs Moduli (GPa) = 125.85279 144.84898 54.91243
#
# Poissons Ratio (x) = 0.23933 0.13274
# Poissons Ratio (y) = 0.20794 0.12084
# Poissons Ratio (z) = 0.30422 0.31875
#
# Static dielectric constant tensor:
#      x y z
#    x 1.976670 0.000000 -0.042300 
#    y 0.000000 1.780250 0.000000 
#    z -0.042300 0.000000 1.830080 
# 
# From -- ./inp_files/135775.got.cif
#   From: 2010.05.17/outbox.cif.g08.bks.cpg/sg12_68_cif.got.tgz:135775.got - 2010.06.03 13:09:07.
