data_PCOD9217382
_publ_section_title
;
Structure prediction by ZEFSAII (Michael W. Deem and Ramdas Pophale) SiO2 
 PCOD9217382
Probable space group: C 2/M
;
_chemical_formula_sum "Si O2"
_cell_formula_units_Z 36
_cell_length_a 9.185220
_cell_length_b 21.511703
_cell_length_c 7.849852
_cell_angle_alpha 90.000000
_cell_angle_beta 84.708494
_cell_angle_gamma 90.000000
_cell_volume 1544.440111
_symmetry_space_group_name_H-M "C 2/M"
_symmetry_group_IT_number 12
_symmetry_cell_setting 'monoclinic'
loop_
_space_group_symop_operation_xyz
x,y,z
-x,y,-z
-x,-y,-z
x,-y,z
1/2+x,1/2+y,z
1/2-x,1/2+y,-z
1/2-x,1/2-y,-z
1/2+x,1/2-y,z
loop_
_atom_site_type_symbol
_atom_site_label
_atom_site_fract_x
_atom_site_fract_y
_atom_site_fract_z
Si Si1 0.558756 0.666682 0.251967
Si Si2 0.000000 0.726493 0.500000
Si Si3 0.707784 0.116851 0.541408
Si Si4 0.849751 0.368809 0.086348
Si Si5 0.312894 0.431588 0.192230
O O1 0.498505 0.730468 0.333620
O O2 0.632389 0.629793 0.401959
O O3 0.707892 0.675688 0.126275
O O4 0.436198 0.622143 0.187659
O O5 0.138736 0.681381 0.484616
O O6 0.623784 0.102307 0.727271
O O7 0.721974 0.073431 0.378217
O O8 0.791446 0.418424 0.956414
O O9 0.000000 0.340999 0.000000
O O10 0.379774 0.500000 0.173148
#
# Coordination Sequence:
#
# PCOD9217382 Si02
#       5
#     8   4   8   8   8
#     4  10  23  42  73 105 136 189 230 287 361 406
#     4  12  20  48  76 104 146 184 230 304 344 432
#     4  10  24  43  72 102 142 183 233 284 361 404
#     4  10  24  46  64 101 143 185 230 285 344 420
#     4  12  25  46  74 104 141 186 241 292 346 423
#
# _framework density 23.309418999999998
#
# number of rings (size 3 to 8) (size 9 to 14) (size 15 to 20)
#    1.333    0.000    2.222    2.667    0.000    4.889 
#    0.000   16.111    0.000    0.000    0.000    0.000 
#    0.000    0.000    0.000    0.000    0.000    0.000 
#
# Total GULP energy -100356.481953 kJ/mol
# GULP energy per Si atom -5575.360109 kJ/mol
# Density = 2.325637 g / cm^3
# Si number density = 23.309419 Si / 1000 Ang^3
#
#
#
# Elastic Constant Matrix: (Units=GPa)
#
#
# Indices 1 2 3 4 5 6 
#
# 1 102.8459 39.6376 35.0677 0.0000 -24.8840 0.0000
# 2 39.6376 95.6687 42.7605 0.0000 0.5176 0.0000
# 3 35.0677 42.7605 133.6995 0.0000 -14.4680 0.0000
# 4 0.0000 0.0000 0.0000 -21.7247 0.0000 6.1293
# 5 -24.8840 0.5176 -14.4680 0.0000 47.2665 0.0000
# 6 0.0000 0.0000 0.0000 6.1293 0.0000 78.6416
#
#
#
# Elastic Compliance Matrix: (Units=1/GPa)
#
#
# Indices 1 2 3 4 5 6 
#
# 1 0.013838 -0.005234 -0.001201 0.000000 0.006975 0.000000
# 2 -0.005234 0.014263 -0.003624 0.000000 -0.004021 0.000000
# 3 -0.001201 -0.003624 0.009194 0.000000 0.002222 0.000000
# 4 0.000000 0.000000 0.000000 -0.045040 0.000000 0.003510
# 5 0.006975 -0.004021 0.002222 0.000000 0.025553 0.000000
# 6 0.000000 0.000000 0.000000 0.003510 0.000000 0.012442
#
#
# Mechanical properties :
#
#
# Convention : Reuss Voigt Hill
#
# Bulk Modulus (GPa) = 58.21835 63.01618 60.61726
# Shear Modulus (GPa) = 89.13858 35.15322 62.14590
#
# Velocity S-wave (km/s) = 6.19068 3.88766 5.16906
# Velocity P-wave (km/s) = 8.72524 6.87351 7.85414
#
# Compressibility (1/GPa) = 0.01717671
#
# Stress axis : x y z
#
# Youngs Moduli (GPa) = 72.26693 70.11186 108.76903
#
# Poissons Ratio (x) = 0.36699 0.13059
# Poissons Ratio (y) = 0.37827 0.39417
# Poissons Ratio (z) = 0.08676 0.25408
#
# Static dielectric constant tensor:
#      x y z
#    x 1.876560 0.000000 -0.036920 
#    y 0.000000 1.797800 0.000000 
#    z -0.036920 0.000000 2.057180 
# 
# From -- ./inp_files/47915.got.cif
#   From: 2010.05.17/outbox.cif.g08.bks.cpg/sg12_24_cif.got.tgz:47915.got - 2010.06.03 13:09:07.
