data_PCOD9217965
_publ_section_title
;
Structure prediction by ZEFSAII (Michael W. Deem and Ramdas Pophale) SiO2 
 PCOD9217965
Probable space group: C 2/M
;
_chemical_formula_sum "Si O2"
_cell_formula_units_Z 32
_cell_length_a 9.357167
_cell_length_b 18.796520
_cell_length_c 16.164843
_cell_angle_alpha 90.000000
_cell_angle_beta 32.013318
_cell_angle_gamma 90.000000
_cell_volume 1507.177979
_symmetry_space_group_name_H-M "C 2/M"
_symmetry_group_IT_number 12
_symmetry_cell_setting 'monoclinic'
loop_
_space_group_symop_operation_xyz
x,y,z
-x,y,-z
-x,-y,-z
x,-y,z
1/2+x,1/2+y,z
1/2-x,1/2+y,-z
1/2-x,1/2-y,-z
1/2+x,1/2-y,z
loop_
_atom_site_type_symbol
_atom_site_label
_atom_site_fract_x
_atom_site_fract_y
_atom_site_fract_z
Si Si1 0.794246 0.657526 0.487073
Si Si2 0.284634 0.380414 0.824879
Si Si3 0.885447 0.500000 0.221072
Si Si4 0.500000 0.735583 0.500000
Si Si5 0.061347 0.500000 0.617643
Si Si6 0.450719 0.500000 0.873105
O O1 0.522141 0.669308 0.675146
O O2 0.724318 0.682885 0.428462
O O3 0.851760 0.574151 0.465725
O O4 0.024662 0.707359 0.412863
O O5 0.214336 0.431922 0.781745
O O6 0.403096 0.431780 0.837725
O O7 0.000000 0.350930 0.000000
O O8 0.816416 0.500000 0.350535
O O9 0.208178 0.500000 0.056608
O O10 0.739815 0.500000 0.771813
#
# Coordination Sequence:
#
# PCOD9217965 Si02
#       6
#     8   8   4   4   4   4
#     4  11  22  38  58  83 111 145 186 225 274 326
#     4   9  18  34  54  76 109 148 181 219 272 329
#     4   9  18  31  50  84 119 138 168 231 287 310
#     4  10  24  40  54  78 120 148 168 228 292 324
#     4  12  21  32  61  90 106 138 194 234 255 322
#     4   9  18  31  50  84 119 138 168 231 287 310
#
# _framework density 21.231732999999998
#
# number of rings (size 3 to 8) (size 9 to 14) (size 15 to 20)
#    0.000    2.000    0.000    6.375    0.000    3.000 
#    0.000    1.250    0.000   12.000    0.000    0.000 
#    0.000    0.000    0.000    0.000    0.000    0.000 
#
# Total GULP energy -89161.998605 kJ/mol
# GULP energy per Si atom -5572.624913 kJ/mol
# Density = 2.118341 g / cm^3
# Si number density = 21.231733 Si / 1000 Ang^3
#
#
#
# Elastic Constant Matrix: (Units=GPa)
#
#
# Indices 1 2 3 4 5 6 
#
# 1 120.2185 16.4589 11.2723 -0.0037 -8.7700 0.0083
# 2 16.4589 108.9602 3.2539 -0.0019 -3.0048 0.0028
# 3 11.2723 3.2539 61.8561 -0.0116 -16.5695 0.0067
# 4 -0.0037 -0.0019 -0.0116 9.0823 0.0014 3.9982
# 5 -8.7700 -3.0048 -16.5695 0.0014 29.9531 -0.0051
# 6 0.0083 0.0028 0.0067 3.9982 -0.0051 13.3285
#
#
#
# Elastic Compliance Matrix: (Units=1/GPa)
#
#
# Indices 1 2 3 4 5 6 
#
# 1 0.008719 -0.001235 -0.001025 0.000004 0.001862 -0.000005
# 2 -0.001235 0.009382 -0.000133 0.000002 0.000506 -0.000002
# 3 -0.001025 -0.000133 0.019108 0.000028 0.010257 -0.000013
# 4 0.000004 0.000002 0.000028 0.126856 0.000004 -0.038053
# 5 0.001862 0.000506 0.010257 0.000004 0.039655 0.000008
# 6 -0.000005 -0.000002 -0.000013 -0.038053 0.000008 0.086442
#
#
# Mechanical properties :
#
#
# Convention : Reuss Voigt Hill
#
# Bulk Modulus (GPa) = 30.84257 39.22278 35.03267
# Shear Modulus (GPa) = 16.35286 27.80942 22.08114
#
# Velocity S-wave (km/s) = 2.77827 3.62305 3.22841
# Velocity P-wave (km/s) = 4.98497 6.00131 5.51660
#
# Compressibility (1/GPa) = 0.03242272
#
# Stress axis : x y z
#
# Youngs Moduli (GPa) = 114.68893 106.58534 52.33458
#
# Poissons Ratio (x) = 0.13165 0.05365
# Poissons Ratio (y) = 0.14165 0.00696
# Poissons Ratio (z) = 0.11758 0.01417
#
# Static dielectric constant tensor:
#      x y z
#    x 1.794910 0.000000 0.001160 
#    y 0.000000 1.787260 0.000000 
#    z 0.001160 0.000000 1.792210 
# 
# From -- ./inp_files/119586.got.cif
#   From: 2010.05.17/outbox.cif.g08.bks.cpg/sg12_60_cif.got.tgz:119586.got - 2010.06.03 13:09:07.
