data_PCOD9217631
_publ_section_title
;
Structure prediction by ZEFSAII (Michael W. Deem and Ramdas Pophale) SiO2 
 PCOD9217631
Probable space group: C 2/M
;
_chemical_formula_sum "Si O2"
_cell_formula_units_Z 52
_cell_length_a 19.923945
_cell_length_b 19.788447
_cell_length_c 11.714870
_cell_angle_alpha 90.000000
_cell_angle_beta 150.801733
_cell_angle_gamma 90.000000
_cell_volume 2253.180184
_symmetry_space_group_name_H-M "C 2/M"
_symmetry_group_IT_number 12
_symmetry_cell_setting 'monoclinic'
loop_
_space_group_symop_operation_xyz
x,y,z
-x,y,-z
-x,-y,-z
x,-y,z
1/2+x,1/2+y,z
1/2-x,1/2+y,-z
1/2-x,1/2-y,-z
1/2+x,1/2-y,z
loop_
_atom_site_type_symbol
_atom_site_label
_atom_site_fract_x
_atom_site_fract_y
_atom_site_fract_z
Si Si1 0.350304 0.691615 0.689250
Si Si2 0.500643 0.000000 0.791974
Si Si3 0.285253 0.627568 0.973124
Si Si4 0.582462 0.237387 0.905819
Si Si5 0.131014 0.632199 0.522475
Si Si6 0.270134 0.107828 0.847268
Si Si7 0.922996 0.926014 0.631558
O O1 0.250000 0.750000 0.500000
O O2 0.497431 0.726301 0.880232
O O3 0.277632 0.658581 0.690999
O O4 0.352241 0.629679 0.603699
O O5 0.412706 0.938709 0.598446
O O6 0.605185 0.941097 0.001713
O O7 0.159248 0.624623 0.698649
O O8 0.345935 0.703967 0.061478
O O9 0.245347 0.603286 0.039376
O O10 0.413707 0.582932 0.122337
O O11 0.480321 0.189813 0.679113
O O12 0.691982 0.185514 0.121050
O O13 0.133138 0.086230 0.579016
O O14 0.881878 0.000000 0.609533
#
# Coordination Sequence:
#
# PCOD9217631 Si02
#       7
#     8   4   8   8   8   8   8
#     4   9  21  45  68  94 133 174 221 284 332 400
#     4  10  24  43  66  99 125 180 216 276 343 392
#     4  11  25  40  69  95 134 183 217 287 334 395
#     4   9  22  41  65  99 125 176 221 277 342 383
#     4  10  23  44  66  96 133 166 231 273 336 408
#     4  11  23  44  66  96 138 169 230 277 331 412
#     4  11  25  43  66 101 135 178 226 271 348 403
#
# _framework density 23.078491
#
# number of rings (size 3 to 8) (size 9 to 14) (size 15 to 20)
#    0.000    1.846    0.769    0.923    9.692    6.154 
#    8.308    3.846    0.000    0.000    0.000    0.000 
#    0.000    0.000    0.000    0.000    0.000    0.000 
#
# Total GULP energy -144775.677002 kJ/mol
# GULP energy per Si atom -5568.295269 kJ/mol
# Density = 2.302596 g / cm^3
# Si number density = 23.078491 Si / 1000 Ang^3
#
#
#
# Elastic Constant Matrix: (Units=GPa)
#
#
# Indices 1 2 3 4 5 6 
#
# 1 36.2629 -12.8164 -3.1879 0.0000 -5.0318 0.0000
# 2 -12.8164 130.9127 12.9337 0.0000 -0.4775 0.0000
# 3 -3.1879 12.9337 101.6025 0.0000 -0.1852 0.0000
# 4 0.0000 0.0000 0.0000 20.0285 0.0000 0.5151
# 5 -5.0318 -0.4775 -0.1852 0.0000 22.0524 0.0000
# 6 0.0000 0.0000 0.0000 0.5151 0.0000 10.4760
#
#
#
# Elastic Compliance Matrix: (Units=1/GPa)
#
#
# Indices 1 2 3 4 5 6 
#
# 1 0.029585 0.002864 0.000576 0.000000 0.006818 0.000000
# 2 0.002864 0.008014 -0.000929 0.000000 0.000819 0.000000
# 3 0.000576 -0.000929 0.009979 0.000000 0.000195 0.000000
# 4 0.000000 0.000000 0.000000 0.049992 0.000000 -0.002458
# 5 0.006818 0.000819 0.000195 0.000000 0.046921 0.000000
# 6 0.000000 0.000000 0.000000 -0.002458 0.000000 0.095577
#
#
# Mechanical properties :
#
#
# Convention : Reuss Voigt Hill
#
# Bulk Modulus (GPa) = 19.01085 29.18187 24.09636
# Shear Modulus (GPa) = 19.79576 28.63463 24.21520
#
# Velocity S-wave (km/s) = 2.93193 3.52625 3.24273
# Velocity P-wave (km/s) = 4.44038 5.40845 4.94814
#
# Compressibility (1/GPa) = 0.05260153
#
# Stress axis : x y z
#
# Youngs Moduli (GPa) = 33.80049 124.78403 100.21107
#
# Poissons Ratio (x) = -0.35743 -0.05773
# Poissons Ratio (y) = -0.09682 0.09307
# Poissons Ratio (z) = -0.01947 0.11590
#
# Static dielectric constant tensor:
#      x y z
#    x 1.898300 0.000000 0.000280 
#    y 0.000000 1.818910 0.000000 
#    z 0.000280 0.000000 1.914810 
# 
# From -- ./inp_files/169864.got.cif
#   From: 2010.05.17/outbox.cif.g08.bks.cpg/sg12_85_cif.got.tgz:169864.got - 2010.06.03 13:09:07.
