data_PCOD9217926
_publ_section_title
;
Structure prediction by ZEFSAII (Michael W. Deem and Ramdas Pophale) SiO2 
 PCOD9217926
Probable space group: C 2/M
;
_chemical_formula_sum "Si O2"
_cell_formula_units_Z 40
_cell_length_a 18.723726
_cell_length_b 26.738326
_cell_length_c 13.034532
_cell_angle_alpha 90.000000
_cell_angle_beta 161.341088
_cell_angle_gamma 90.000000
_cell_volume 2087.766123
_symmetry_space_group_name_H-M "C 2/M"
_symmetry_group_IT_number 12
_symmetry_cell_setting 'monoclinic'
loop_
_space_group_symop_operation_xyz
x,y,z
-x,y,-z
-x,-y,-z
x,-y,z
1/2+x,1/2+y,z
1/2-x,1/2+y,-z
1/2-x,1/2-y,-z
1/2+x,1/2-y,z
loop_
_atom_site_type_symbol
_atom_site_label
_atom_site_fract_x
_atom_site_fract_y
_atom_site_fract_z
Si Si1 0.497766 0.632040 0.231112
Si Si2 0.265864 0.688474 0.742488
Si Si3 0.545863 0.132474 0.262018
Si Si4 0.178049 0.942004 0.835185
Si Si5 0.322104 0.696244 0.345001
O O1 0.717372 0.617568 0.464796
O O2 0.415279 0.588890 0.194874
O O3 0.578616 0.677950 0.412470
O O4 0.309488 0.652278 0.897904
O O5 0.090721 0.665876 0.424017
O O6 0.210286 0.744522 0.699924
O O7 0.500000 0.691279 0.000000
O O8 0.399214 0.085276 0.095221
O O9 0.402618 0.166290 0.988488
O O10 0.000000 0.939460 0.500000
O O11 0.214918 0.000000 0.910731
O O12 0.500000 0.682053 0.500000
#
# Coordination Sequence:
#
# PCOD9217926 Si02
#       5
#     8   8   8   8   8
#     4  11  22  41  62  88 124 159 199 245 296 350
#     4  10  24  38  58  91 125 163 200 236 289 361
#     4  11  22  41  62  88 124 159 199 245 296 350
#     4  11  24  43  64  92 117 146 205 257 300 356
#     4  12  22  36  60  92 125 163 205 237 286 355
#
# _framework density 19.159233
#
# number of rings (size 3 to 8) (size 9 to 14) (size 15 to 20)
#    0.000    1.000    4.000    3.000    2.800    5.600 
#    0.000    4.000    0.000    3.600    0.000    0.000 
#    0.000    0.000    0.000    0.000    0.000    0.000 
#
# Total GULP energy -111849.104660 kJ/mol
# GULP energy per Si atom -5592.455233 kJ/mol
# Density = 1.911563 g / cm^3
# Si number density = 19.159233 Si / 1000 Ang^3
#
#
#
# Elastic Constant Matrix: (Units=GPa)
#
#
# Indices 1 2 3 4 5 6 
#
# 1 94.9665 44.9374 18.2097 0.0001 0.8593 0.0001
# 2 44.9374 134.2423 17.5149 0.0000 6.4493 -0.0002
# 3 18.2097 17.5149 44.4735 0.0010 -11.9902 0.0004
# 4 0.0001 0.0000 0.0010 -3.4546 0.0002 -4.3569
# 5 0.8593 6.4493 -11.9902 0.0002 34.8272 0.0002
# 6 0.0001 -0.0002 0.0004 -4.3569 0.0002 3.3265
#
#
#
# Elastic Compliance Matrix: (Units=1/GPa)
#
#
# Indices 1 2 3 4 5 6 
#
# 1 0.013138 -0.003804 -0.004166 0.000000 -0.001054 0.000000
# 2 -0.003804 0.009205 -0.002758 -0.000001 -0.002560 0.000000
# 3 -0.004166 -0.002758 0.028046 0.000005 0.010269 0.000003
# 4 0.000000 -0.000001 0.000005 -0.109160 0.000003 -0.142970
# 5 -0.001054 -0.002560 0.010269 0.000003 0.032749 0.000001
# 6 0.000000 0.000000 0.000003 -0.142970 0.000001 0.113361
#
#
# Mechanical properties :
#
#
# Convention : Reuss Voigt Hill
#
# Bulk Modulus (GPa) = 34.56112 48.33403 41.44758
# Shear Modulus (GPa) = 42.21599 19.80787 31.01193
#
# Velocity S-wave (km/s) = 4.69916 3.21885 4.02760
# Velocity P-wave (km/s) = 6.89354 6.25276 6.58095
#
# Compressibility (1/GPa) = 0.02893425
#
# Stress axis : x y z
#
# Youngs Moduli (GPa) = 76.11358 108.63154 35.65620
#
# Poissons Ratio (x) = 0.41322 0.14853
# Poissons Ratio (y) = 0.28953 0.09834
# Poissons Ratio (z) = 0.31705 0.29962
#
# Static dielectric constant tensor:
#      x y z
#    x 1.675690 0.000000 0.011450 
#    y 0.000000 1.620850 0.000000 
#    z 0.011450 0.000000 1.669720 
# 
# From -- ./inp_files/40401.got.cif
#   From: 2010.05.17/outbox.cif.g08.bks.cpg/sg12_21_cif.got.tgz:40401.got - 2010.06.03 13:09:07.
