data_PCOD9217194
_publ_section_title
;
Structure prediction by ZEFSAII (Michael W. Deem and Ramdas Pophale) SiO2 
 PCOD9217194
Probable space group: C 2/M
;
_chemical_formula_sum "Si O2"
_cell_formula_units_Z 32
_cell_length_a 18.974443
_cell_length_b 13.967778
_cell_length_c 5.335930
_cell_angle_alpha 90.000000
_cell_angle_beta 115.112721
_cell_angle_gamma 90.000000
_cell_volume 1280.509347
_symmetry_space_group_name_H-M "C 2/M"
_symmetry_group_IT_number 12
_symmetry_cell_setting 'monoclinic'
loop_
_space_group_symop_operation_xyz
x,y,z
-x,y,-z
-x,-y,-z
x,-y,z
1/2+x,1/2+y,z
1/2-x,1/2+y,-z
1/2-x,1/2-y,-z
1/2+x,1/2-y,z
loop_
_atom_site_type_symbol
_atom_site_label
_atom_site_fract_x
_atom_site_fract_y
_atom_site_fract_z
Si Si1 0.231224 0.609835 0.194937
Si Si2 0.349948 0.751458 0.284520
Si Si3 0.051100 0.108541 0.832858
Si Si4 0.925270 0.605057 0.710940
O O1 0.255291 0.500000 0.197843
O O2 0.302097 0.677744 0.385770
O O3 0.154926 0.610095 0.252844
O O4 0.203785 0.662729 0.899234
O O5 0.382762 0.686703 0.110361
O O6 0.420273 0.805813 0.521549
O O7 0.000000 0.108630 0.500000
O O8 0.082144 0.000000 0.909461
O O9 0.000000 0.128979 0.000000
O O10 0.926655 0.500000 0.585925
O O11 0.000000 0.610234 0.000000
#
# Coordination Sequence:
#
# PCOD9217194 Si02
#       4
#     8   8   8   8
#     4  10  23  42  63  97 138 180 233 292 351 418
#     4  11  23  39  70  97 131 186 237 286 354 427
#     4  10  24  44  67 101 142 183 233 293 353 419
#     4  10  23  42  66 101 142 182 233 295 355 420
#
# _framework density 24.990055000000002
#
# number of rings (size 3 to 8) (size 9 to 14) (size 15 to 20)
#    0.000    1.750    0.000    2.250    7.000    0.000 
#    0.000    3.750    0.000    4.500    0.000    0.000 
#    0.000    0.000    0.000    0.000    0.000    0.000 
#
# Total GULP energy -89616.057822 kJ/mol
# GULP energy per Si atom -5601.003614 kJ/mol
# Density = 2.493318 g / cm^3
# Si number density = 24.990055 Si / 1000 Ang^3
#
#
#
# Elastic Constant Matrix: (Units=GPa)
#
#
# Indices 1 2 3 4 5 6 
#
# 1 147.4628 72.7330 31.6324 0.0000 -11.9161 0.0000
# 2 72.7330 223.9122 50.5908 0.0000 4.8355 0.0000
# 3 31.6324 50.5908 61.4340 0.0000 -3.2089 0.0000
# 4 0.0000 0.0000 0.0000 4.5034 0.0000 29.6366
# 5 -11.9161 4.8355 -3.2089 0.0000 29.4245 0.0000
# 6 0.0000 0.0000 0.0000 29.6366 0.0000 -10.6793
#
#
#
# Elastic Compliance Matrix: (Units=1/GPa)
#
#
# Indices 1 2 3 4 5 6 
#
# 1 0.008765 -0.002396 -0.002347 0.000000 0.003687 0.000000
# 2 -0.002396 0.006200 -0.003999 0.000000 -0.002425 0.000000
# 3 -0.002347 -0.003999 0.020883 0.000000 0.001984 0.000000
# 4 0.000000 0.000000 0.000000 0.011527 0.000000 0.031990
# 5 0.003687 -0.002425 0.001984 0.000000 0.036093 0.000000
# 6 0.000000 0.000000 0.000000 0.031990 0.000000 -0.004861
#
#
# Mechanical properties :
#
#
# Convention : Reuss Voigt Hill
#
# Bulk Modulus (GPa) = 54.45562 82.52459 68.49011
# Shear Modulus (GPa) = 48.91748 23.17325 36.04536
#
# Velocity S-wave (km/s) = 4.42914 3.04846 3.80200
# Velocity P-wave (km/s) = 6.92781 6.74429 6.83667
#
# Compressibility (1/GPa) = 0.01836358
#
# Stress axis : x y z
#
# Youngs Moduli (GPa) = 114.09323 161.28236 47.88661
#
# Poissons Ratio (x) = 0.38650 0.11239
# Poissons Ratio (y) = 0.27341 0.19149
# Poissons Ratio (z) = 0.26777 0.64492
#
# Static dielectric constant tensor:
#      x y z
#    x 1.988360 0.000000 0.019920 
#    y 0.000000 1.950340 0.000000 
#    z 0.019920 0.000000 2.012010 
# 
# From -- ./inp_files/14595.got.cif
#   From: 2010.05.17/outbox.cif.g08.bks.cpg/sg12_8_cif.got.tgz:14595.got - 2010.06.03 13:09:07.
