data_PCOD9217192
_publ_section_title
;
Structure prediction by ZEFSAII (Michael W. Deem and Ramdas Pophale) SiO2 
 PCOD9217192
Probable space group: C 2/M
;
_chemical_formula_sum "Si O2"
_cell_formula_units_Z 64
_cell_length_a 19.345087
_cell_length_b 13.793472
_cell_length_c 25.457084
_cell_angle_alpha 90.000000
_cell_angle_beta 152.520069
_cell_angle_gamma 90.000000
_cell_volume 3134.484991
_symmetry_space_group_name_H-M "C 2/M"
_symmetry_group_IT_number 12
_symmetry_cell_setting 'monoclinic'
loop_
_space_group_symop_operation_xyz
x,y,z
-x,y,-z
-x,-y,-z
x,-y,z
1/2+x,1/2+y,z
1/2-x,1/2+y,-z
1/2-x,1/2-y,-z
1/2+x,1/2-y,z
loop_
_atom_site_type_symbol
_atom_site_label
_atom_site_fract_x
_atom_site_fract_y
_atom_site_fract_z
Si Si1 0.132622 0.807528 0.651051
Si Si2 0.815701 0.891525 0.420538
Si Si3 0.136977 0.116897 0.955081
Si Si4 0.820537 0.614186 0.875531
Si Si5 0.580910 0.386965 0.104287
Si Si6 0.626022 0.186088 0.387267
Si Si7 0.845509 0.224318 0.143559
Si Si8 0.068211 0.392851 0.650609
O O1 0.207115 0.821316 0.644521
O O2 0.246947 0.834108 0.774799
O O3 0.059996 0.701035 0.608376
O O4 0.987607 0.877301 0.554684
O O5 0.707607 0.871880 0.396162
O O6 0.793677 0.000000 0.385849
O O7 0.135108 0.160760 0.895713
O O8 0.985757 0.146441 0.885170
O O9 0.156514 0.000000 0.966734
O O10 0.268083 0.173740 0.074740
O O11 0.778781 0.500000 0.846010
O O12 0.754437 0.666640 0.882091
O O13 0.000000 0.618793 0.000000
O O14 0.535931 0.500000 0.074515
O O15 0.757390 0.386460 0.215261
O O16 0.500000 0.339738 0.000000
O O17 0.750000 0.250000 0.500000
O O18 0.501899 0.253642 0.276811
O O19 0.539542 0.122939 0.372518
O O20 0.043201 0.500000 0.610729
#
# Coordination Sequence:
#
# PCOD9217192 Si02
#       8
#     8   8   8   8   8   8   8   8
#     4  11  23  43  69  98 132 166 222 276 329 394
#     4  11  24  44  72  95 127 175 226 279 329 386
#     4  10  23  42  63  95 134 170 218 272 334 405
#     4  11  24  42  66  96 131 169 215 272 336 399
#     4   9  19  35  60  90 121 166 215 261 319 383
#     4  12  24  44  66  99 136 177 226 278 331 394
#     4  11  24  40  67  95 131 178 220 272 338 394
#     4  11  23  40  65  96 132 170 215 272 324 393
#
# _framework density 20.418026999999999
#
# number of rings (size 3 to 8) (size 9 to 14) (size 15 to 20)
#    0.000    1.250    2.500    3.000    3.500    3.000 
#    0.000    3.125    0.000    0.000    0.000    0.000 
#    0.000    0.000    0.000    0.000    0.000    0.000 
#
# Total GULP energy -178736.102294 kJ/mol
# GULP energy per Si atom -5585.503197 kJ/mol
# Density = 2.037155 g / cm^3
# Si number density = 20.418027 Si / 1000 Ang^3
#
#
#
# Elastic Constant Matrix: (Units=GPa)
#
#
# Indices 1 2 3 4 5 6 
#
# 1 114.7464 49.2174 30.4604 -0.0003 3.4945 0.0002
# 2 49.2174 138.4645 21.5617 0.0006 -7.0349 0.0001
# 3 30.4604 21.5617 83.3768 0.0012 0.1726 0.0004
# 4 -0.0003 0.0006 0.0012 18.3719 0.0004 4.7178
# 5 3.4945 -7.0349 0.1726 0.0004 28.2369 0.0002
# 6 0.0002 0.0001 0.0004 4.7178 0.0002 28.3933
#
#
#
# Elastic Compliance Matrix: (Units=1/GPa)
#
#
# Indices 1 2 3 4 5 6 
#
# 1 0.011158 -0.003591 -0.003143 0.000001 -0.002256 0.000000
# 2 -0.003591 0.008783 -0.000965 0.000000 0.002639 0.000000
# 3 -0.003143 -0.000965 0.013391 -0.000001 0.000067 0.000000
# 4 0.000001 0.000000 -0.000001 0.056857 -0.000001 -0.009447
# 5 -0.002256 0.002639 0.000067 -0.000001 0.036351 0.000000
# 6 0.000000 0.000000 0.000000 -0.009447 0.000000 0.036789
#
#
# Mechanical properties :
#
#
# Convention : Reuss Voigt Hill
#
# Bulk Modulus (GPa) = 55.75945 59.89631 57.82788
# Shear Modulus (GPa) = 27.06997 30.69031 28.88014
#
# Velocity S-wave (km/s) = 3.64509 3.88119 3.76499
# Velocity P-wave (km/s) = 6.71444 7.03445 6.87631
#
# Compressibility (1/GPa) = 0.01793418
#
# Stress axis : x y z
#
# Youngs Moduli (GPa) = 89.61843 113.85708 74.67505
#
# Poissons Ratio (x) = 0.40892 0.23471
# Poissons Ratio (y) = 0.32186 0.07204
# Poissons Ratio (z) = 0.28168 0.10984
#
# Static dielectric constant tensor:
#      x y z
#    x 1.726710 0.000000 0.002820 
#    y 0.000000 1.767570 0.000000 
#    z 0.002820 0.000000 1.703990 
# 
# From -- ./inp_files/344110.got.cif
#   From: 2010.05.17/outbox.cif.g08.bks.cpg/sg12_173_cif.got.tgz:344110.got - 2010.06.03 13:09:07.
