data_PCOD9217439
_publ_section_title
;
Structure prediction by ZEFSAII (Michael W. Deem and Ramdas Pophale) SiO2 
 PCOD9217439
Probable space group: C 2/M
;
_chemical_formula_sum "Si O2"
_cell_formula_units_Z 48
_cell_length_a 9.289977
_cell_length_b 16.053748
_cell_length_c 28.069467
_cell_angle_alpha 90.000000
_cell_angle_beta 36.721451
_cell_angle_gamma 90.000000
_cell_volume 2503.065207
_symmetry_space_group_name_H-M "C 2/M"
_symmetry_group_IT_number 12
_symmetry_cell_setting 'monoclinic'
loop_
_space_group_symop_operation_xyz
x,y,z
-x,y,-z
-x,-y,-z
x,-y,z
1/2+x,1/2+y,z
1/2-x,1/2+y,-z
1/2-x,1/2-y,-z
1/2+x,1/2-y,z
loop_
_atom_site_type_symbol
_atom_site_label
_atom_site_fract_x
_atom_site_fract_y
_atom_site_fract_z
Si Si1 0.260169 0.317162 0.953232
Si Si2 0.010559 0.735001 0.199245
Si Si3 0.511843 0.745778 0.690746
Si Si4 0.367065 0.402530 0.586125
Si Si5 0.877804 0.904596 0.081368
Si Si6 0.783731 0.092694 0.415323
O O1 0.404227 0.284094 0.869478
O O2 0.416136 0.391512 0.933969
O O3 0.250000 0.250000 0.000000
O O4 0.000000 0.336816 0.000000
O O5 0.724440 0.740762 0.279029
O O6 0.092794 0.767426 0.228556
O O7 0.140305 0.646319 0.158036
O O8 0.658863 0.832575 0.647489
O O9 0.669022 0.667455 0.633336
O O10 0.500000 0.389866 0.500000
O O11 0.282094 0.500000 0.609888
O O12 0.561758 0.393551 0.577250
O O13 0.816073 0.000000 0.090837
O O14 0.000000 0.872494 0.000000
O O15 0.500000 0.091816 0.500000
O O16 0.852453 0.000000 0.379086
#
# Coordination Sequence:
#
# PCOD9217439 Si02
#       6
#     8   8   8   8   8   8
#     4  12  20  40  69  90 123 166 212 258 307 382
#     4  12  23  39  62  94 123 167 205 255 321 378
#     4  12  24  39  64  95 128 167 212 257 323 384
#     4  10  23  43  66  91 125 170 213 257 310 377
#     4  11  24  42  65  92 123 166 216 264 317 379
#     4  10  23  43  65  90 125 168 214 260 310 374
#
# _framework density 19.176487999999999
#
# number of rings (size 3 to 8) (size 9 to 14) (size 15 to 20)
#    0.000    0.833    6.667    0.500    2.333    3.000 
#    0.000    0.833    0.000    0.000    0.000    0.000 
#    0.000    0.000    0.000    0.000    0.000    0.000 
#
# Total GULP energy -133820.833926 kJ/mol
# GULP energy per Si atom -5575.868080 kJ/mol
# Density = 1.913284 g / cm^3
# Si number density = 19.176488 Si / 1000 Ang^3
#
#
#
# Elastic Constant Matrix: (Units=GPa)
#
#
# Indices 1 2 3 4 5 6 
#
# 1 89.0991 37.7698 24.1431 -0.0028 -12.2387 0.0042
# 2 37.7698 101.0027 52.5645 -0.0044 0.5492 0.0015
# 3 24.1431 52.5645 79.4373 -0.0093 1.4875 0.0104
# 4 -0.0028 -0.0044 -0.0093 16.2698 0.0042 -1.6610
# 5 -12.2387 0.5492 1.4875 0.0042 49.9909 -0.0055
# 6 0.0042 0.0015 0.0104 -1.6610 -0.0055 18.3678
#
#
#
# Elastic Compliance Matrix: (Units=1/GPa)
#
#
# Indices 1 2 3 4 5 6 
#
# 1 0.013998 -0.004584 -0.001287 -0.000001 0.003516 -0.000001
# 2 -0.004584 0.016603 -0.009574 -0.000001 -0.001020 0.000005
# 3 -0.001287 -0.009574 0.019330 0.000007 -0.000785 -0.000009
# 4 -0.000001 -0.000001 0.000007 0.062036 -0.000005 0.005610
# 5 0.003516 -0.001020 -0.000785 -0.000005 0.020899 0.000006
# 6 -0.000001 0.000005 -0.000009 0.005610 0.000006 0.054950
#
#
# Mechanical properties :
#
#
# Convention : Reuss Voigt Hill
#
# Bulk Modulus (GPa) = 52.51873 55.38820 53.95346
# Shear Modulus (GPa) = 22.21691 27.26316 24.74004
#
# Velocity S-wave (km/s) = 3.40744 3.77463 3.59573
# Velocity P-wave (km/s) = 6.55190 6.92410 6.74057
#
# Compressibility (1/GPa) = 0.01904083
#
# Stress axis : x y z
#
# Youngs Moduli (GPa) = 71.43724 60.22980 51.73377
#
# Poissons Ratio (x) = 0.27609 0.06658
# Poissons Ratio (y) = 0.32747 0.49531
# Poissons Ratio (z) = 0.09194 0.57665
#
# Static dielectric constant tensor:
#      x y z
#    x 2.264350 -0.000080 -0.619200 
#    y -0.000080 1.669940 0.000080 
#    z -0.619200 0.000080 2.283710 
# 
# From -- ./inp_files/300942.got.cif
#   From: 2010.05.17/outbox.cif.g08.bks.cpg/sg12_151_cif.got.tgz:300942.got - 2010.06.03 13:09:07.
