data_PCOD9217488
_publ_section_title
;
Structure prediction by ZEFSAII (Michael W. Deem and Ramdas Pophale) SiO2 
 PCOD9217488
Probable space group: C 2/M
;
_chemical_formula_sum "Si O2"
_cell_formula_units_Z 24
_cell_length_a 5.127714
_cell_length_b 27.705795
_cell_length_c 7.778116
_cell_angle_alpha 90.000000
_cell_angle_beta 68.411390
_cell_angle_gamma 90.000000
_cell_volume 1027.499354
_symmetry_space_group_name_H-M "C 2/M"
_symmetry_group_IT_number 12
_symmetry_cell_setting 'monoclinic'
loop_
_space_group_symop_operation_xyz
x,y,z
-x,y,-z
-x,-y,-z
x,-y,z
1/2+x,1/2+y,z
1/2-x,1/2+y,-z
1/2-x,1/2-y,-z
1/2+x,1/2-y,z
loop_
_atom_site_type_symbol
_atom_site_label
_atom_site_fract_x
_atom_site_fract_y
_atom_site_fract_z
Si Si1 0.790100 0.769782 0.294305
Si Si2 0.826462 0.362562 0.879976
Si Si3 0.185308 0.445574 0.626112
O O1 0.750000 0.750000 0.500000
O O2 0.622396 0.735169 0.206746
O O3 0.689677 0.823087 0.269671
O O4 0.012387 0.408602 0.782873
O O5 0.500000 0.374139 0.000000
O O6 0.000000 0.343002 0.000000
O O7 0.500000 0.428876 0.500000
O O8 0.212738 0.500000 0.693167
O O9 0.000000 0.448779 0.500000
#
# Coordination Sequence:
#
# PCOD9217488 Si02
#       3
#     8   8   8
#     4  10  23  43  66  96 132 191 234 281 339 418
#     4  12  26  43  69 108 143 180 231 297 357 409
#     4  10  23  45  73 103 138 186 236 279 340 429
#
# _framework density 23.357683000000002
#
# number of rings (size 3 to 8) (size 9 to 14) (size 15 to 20)
#    0.000    1.333    0.000    4.000    4.667    5.333 
#    0.000    0.000    0.000    0.000    0.000    0.000 
#    0.000    0.000    0.000    0.000    0.000    0.000 
#
# Total GULP energy -66976.827608 kJ/mol
# GULP energy per Si atom -5581.402301 kJ/mol
# Density = 2.330452 g / cm^3
# Si number density = 23.357683 Si / 1000 Ang^3
#
#
#
# Elastic Constant Matrix: (Units=GPa)
#
#
# Indices 1 2 3 4 5 6 
#
# 1 235.6553 56.7980 64.0748 0.0000 -18.7459 0.0000
# 2 56.7980 135.8403 80.1474 0.0000 -28.9905 0.0000
# 3 64.0748 80.1474 115.6146 0.0000 -24.0370 0.0000
# 4 0.0000 0.0000 0.0000 49.9451 0.0000 -17.7193
# 5 -18.7459 -28.9905 -24.0370 0.0000 43.8587 0.0000
# 6 0.0000 0.0000 0.0000 -17.7193 0.0000 37.4420
#
#
#
# Elastic Compliance Matrix: (Units=1/GPa)
#
#
# Indices 1 2 3 4 5 6 
#
# 1 0.005053 -0.000705 -0.002211 0.000000 0.000482 0.000000
# 2 -0.000705 0.013193 -0.007905 0.000000 0.004086 0.000000
# 3 -0.002211 -0.007905 0.015882 0.000000 0.002534 0.000000
# 4 0.000000 0.000000 0.000000 0.024062 0.000000 0.011387
# 5 0.000482 0.004086 0.002534 0.000000 0.027096 0.000000
# 6 0.000000 0.000000 0.000000 0.011387 0.000000 0.032097
#
#
# Mechanical properties :
#
#
# Convention : Reuss Voigt Hill
#
# Bulk Modulus (GPa) = 80.10231 98.79452 89.44842
# Shear Modulus (GPa) = 34.91927 45.32182 40.12054
#
# Velocity S-wave (km/s) = 3.87069 4.40971 4.14896
# Velocity P-wave (km/s) = 7.37188 8.26532 7.83135
#
# Compressibility (1/GPa) = 0.01248403
#
# Stress axis : x y z
#
# Youngs Moduli (GPa) = 197.89961 75.79953 62.96503
#
# Poissons Ratio (x) = 0.05346 0.13924
# Poissons Ratio (y) = 0.13957 0.49774
# Poissons Ratio (z) = 0.43764 0.59920
#
# Static dielectric constant tensor:
#      x y z
#    x 0.696870 0.000000 0.265330 
#    y 0.000000 1.926680 0.000000 
#    z 0.265330 0.000000 2.847730 
# 
# From -- ./inp_files/33529.got.cif
#   From: 2010.05.17/outbox.cif.g08.bks.cpg/sg12_17_cif.got.tgz:33529.got - 2010.06.03 13:09:07.
