data_PCOD9217783
_publ_section_title
;
Structure prediction by ZEFSAII (Michael W. Deem and Ramdas Pophale) SiO2 
 PCOD9217783
Probable space group: C 2/M
;
_chemical_formula_sum "Si O2"
_cell_formula_units_Z 32
_cell_length_a 13.688730
_cell_length_b 18.096012
_cell_length_c 13.744188
_cell_angle_alpha 90.000000
_cell_angle_beta 158.554185
_cell_angle_gamma 90.000000
_cell_volume 1244.791010
_symmetry_space_group_name_H-M "C 2/M"
_symmetry_group_IT_number 12
_symmetry_cell_setting 'monoclinic'
loop_
_space_group_symop_operation_xyz
x,y,z
-x,y,-z
-x,-y,-z
x,-y,z
1/2+x,1/2+y,z
1/2-x,1/2+y,-z
1/2-x,1/2-y,-z
1/2+x,1/2-y,z
loop_
_atom_site_type_symbol
_atom_site_label
_atom_site_fract_x
_atom_site_fract_y
_atom_site_fract_z
Si Si1 0.707799 0.764814 0.276246
Si Si2 0.657198 0.584159 0.543228
Si Si3 0.703195 0.917229 0.770057
Si Si4 0.094392 0.826776 0.866802
O O1 0.674173 0.705313 0.330223
O O2 0.000000 0.768155 0.500000
O O3 0.637515 0.848532 0.245831
O O4 0.500000 0.744017 0.000000
O O5 0.500000 0.577378 0.500000
O O6 0.745147 0.500000 0.600174
O O7 0.482202 0.622057 0.295340
O O8 0.500000 0.888710 0.500000
O O9 0.608518 0.000000 0.705161
O O10 0.737666 0.873461 0.900604
O O11 0.000000 0.921147 0.000000
O O12 0.250000 0.750000 0.000000
#
# Coordination Sequence:
#
# PCOD9217783 Si02
#       4
#     8   8   8   8
#     4  11  25  47  75 106 145 190 241 305 369 430
#     4  10  23  45  70 101 146 197 245 294 354 430
#     4  10  24  47  73 103 143 189 237 296 364 433
#     4  12  25  43  75 113 148 190 242 302 367 432
#
# _framework density 25.707127
#
# number of rings (size 3 to 8) (size 9 to 14) (size 15 to 20)
#    0.000    1.250    0.000    5.250    0.000   11.500 
#    0.000    7.500    0.000    2.250    0.000    0.000 
#    0.000    0.000    0.000    0.000    0.000    0.000 
#
# Total GULP energy -89585.377391 kJ/mol
# GULP energy per Si atom -5599.086087 kJ/mol
# Density = 2.564862 g / cm^3
# Si number density = 25.707127 Si / 1000 Ang^3
#
#
#
# Elastic Constant Matrix: (Units=GPa)
#
#
# Indices 1 2 3 4 5 6 
#
# 1 129.1296 67.6513 56.0509 0.0001 -33.9843 -0.0003
# 2 67.6513 225.3379 8.3051 -0.0001 -30.5256 -0.0010
# 3 56.0509 8.3051 107.9792 0.0049 -17.7375 -0.0067
# 4 0.0001 -0.0001 0.0049 33.4648 0.0021 29.9118
# 5 -33.9843 -30.5256 -17.7375 0.0021 56.4078 -0.0027
# 6 -0.0003 -0.0010 -0.0067 29.9118 -0.0027 -104.9578
#
#
#
# Elastic Compliance Matrix: (Units=1/GPa)
#
#
# Indices 1 2 3 4 5 6 
#
# 1 0.013044 -0.003113 -0.005818 0.000000 0.004344 0.000000
# 2 -0.003113 0.005532 0.001449 0.000000 0.001574 0.000000
# 3 -0.005818 0.001449 0.012361 -0.000001 0.001166 -0.000001
# 4 0.000000 0.000000 -0.000001 0.023816 -0.000001 0.006787
# 5 0.004344 0.001574 0.001166 -0.000001 0.021564 -0.000001
# 6 0.000000 0.000000 -0.000001 0.006787 -0.000001 -0.007593
#
#
# Mechanical properties :
#
#
# Convention : Reuss Voigt Hill
#
# Bulk Modulus (GPa) = 62.60434 80.71791 71.66113
# Shear Modulus (GPa) = 56.17252 19.01223 37.59238
#
# Velocity S-wave (km/s) = 4.67957 2.72245 3.82819
# Velocity P-wave (km/s) = 7.32145 6.43036 6.89033
#
# Compressibility (1/GPa) = 0.01597333
#
# Stress axis : x y z
#
# Youngs Moduli (GPa) = 76.66467 180.76006 80.89889
#
# Poissons Ratio (x) = 0.56272 0.47066
# Poissons Ratio (y) = 0.23866 -0.11722
# Poissons Ratio (z) = 0.44602 -0.26192
#
# Static dielectric constant tensor:
#      x y z
#    x 2.098510 0.000000 0.071660 
#    y 0.000000 2.043180 0.000000 
#    z 0.071660 0.000000 1.979790 
# 
# From -- ./inp_files/217823.got.cif
#   From: 2010.05.17/outbox.cif.g08.bks.cpg/sg12_109_cif.got.tgz:217823.got - 2010.06.03 13:09:07.
