data_PCOD9217682
_publ_section_title
;
Structure prediction by ZEFSAII (Michael W. Deem and Ramdas Pophale) SiO2 
 PCOD9217682
Probable space group: C 2/M
;
_chemical_formula_sum "Si O2"
_cell_formula_units_Z 64
_cell_length_a 10.405251
_cell_length_b 15.607675
_cell_length_c 24.431053
_cell_angle_alpha 90.000000
_cell_angle_beta 39.348771
_cell_angle_gamma 90.000000
_cell_volume 2515.643929
_symmetry_space_group_name_H-M "C 2/M"
_symmetry_group_IT_number 12
_symmetry_cell_setting 'monoclinic'
loop_
_space_group_symop_operation_xyz
x,y,z
-x,y,-z
-x,-y,-z
x,-y,z
1/2+x,1/2+y,z
1/2-x,1/2+y,-z
1/2-x,1/2-y,-z
1/2+x,1/2-y,z
loop_
_atom_site_type_symbol
_atom_site_label
_atom_site_fract_x
_atom_site_fract_y
_atom_site_fract_z
Si Si1 0.912124 0.404252 0.786712
Si Si2 0.455031 0.407563 0.891761
Si Si3 0.483686 0.262875 0.646721
Si Si4 0.017894 0.595311 0.060375
Si Si5 0.547703 0.767466 0.829240
Si Si6 0.907595 0.593836 0.440777
Si Si7 0.649553 0.402597 0.398682
Si Si8 0.185828 0.908151 0.632064
O O1 0.939194 0.500000 0.800914
O O2 0.680182 0.401242 0.842892
O O3 0.955521 0.332916 0.816611
O O4 0.103401 0.394696 0.681314
O O5 0.449469 0.500000 0.863803
O O6 0.420380 0.318964 0.872544
O O7 0.259082 0.408383 0.995366
O O8 0.267069 0.234216 0.739023
O O9 0.618985 0.185874 0.578784
O O10 0.428985 0.331866 0.617702
O O11 0.573447 0.318524 0.666918
O O12 0.933576 0.500000 0.102214
O O13 0.934669 0.676543 0.120959
O O14 0.000000 0.602830 0.000000
O O15 0.855891 0.500000 0.432305
O O16 0.145373 0.592251 0.376886
O O17 0.799833 0.593441 0.535445
O O18 0.500000 0.393491 0.500000
O O19 0.614508 0.500000 0.390017
O O20 0.075198 0.000000 0.671865
#
# Coordination Sequence:
#
# PCOD9217682 Si02
#       8
#     8   8   8   8   8   8   8   8
#     4   9  20  41  67  97 133 171 222 273 321 389
#     4  10  23  44  68  97 134 174 216 265 328 399
#     4  11  22  36  63  93 122 165 219 265 320 385
#     4  10  23  45  72 102 134 169 213 267 332 404
#     4  11  24  40  67  98 134 169 214 268 335 388
#     4   9  20  39  59  85 124 168 217 272 324 377
#     4   9  19  36  59  91 131 173 215 270 329 378
#     4   9  19  38  61  84 119 170 222 268 319 382
#
# _framework density 25.440801
#
# number of rings (size 3 to 8) (size 9 to 14) (size 15 to 20)
#    0.000    2.250    0.000    2.250    3.500    4.500 
#    2.250    1.875    0.000    0.750    0.000    0.000 
#    0.000    0.000    0.000    0.000    0.000    0.000 
#
# Total GULP energy -178736.233113 kJ/mol
# GULP energy per Si atom -5585.507285 kJ/mol
# Density = 2.538290 g / cm^3
# Si number density = 25.440801 Si / 1000 Ang^3
#
#
#
# Elastic Constant Matrix: (Units=GPa)
#
#
# Indices 1 2 3 4 5 6 
#
# 1 63.8112 15.2666 21.6470 -0.0004 -17.0423 -0.0001
# 2 15.2666 181.2883 32.2046 -0.0004 19.0852 -0.0001
# 3 21.6470 32.2046 82.0870 0.0010 -9.7596 0.0000
# 4 -0.0004 -0.0004 0.0010 -56.9617 0.0017 -19.6889
# 5 -17.0423 19.0852 -9.7596 0.0017 39.8044 0.0003
# 6 -0.0001 -0.0001 0.0000 -19.6889 0.0003 27.4934
#
#
#
# Elastic Compliance Matrix: (Units=1/GPa)
#
#
# Indices 1 2 3 4 5 6 
#
# 1 0.019544 -0.001935 -0.003388 0.000000 0.008465 0.000000
# 2 -0.001935 0.006640 -0.002649 0.000000 -0.004662 0.000000
# 3 -0.003388 -0.002649 0.014517 0.000000 0.003379 0.000000
# 4 0.000000 0.000000 0.000000 -0.014072 0.000001 -0.010078
# 5 0.008465 -0.004662 0.003379 0.000001 0.031811 0.000000
# 6 0.000000 0.000000 0.000000 -0.010078 0.000000 0.029155
#
#
# Mechanical properties :
#
#
# Convention : Reuss Voigt Hill
#
# Bulk Modulus (GPa) = 40.39374 51.71367 46.05371
# Shear Modulus (GPa) = 44.72543 19.27178 31.99860
#
# Velocity S-wave (km/s) = 4.19742 2.75528 3.55035
# Velocity P-wave (km/s) = 6.27719 5.52207 5.91170
#
# Compressibility (1/GPa) = 0.02475631
#
# Stress axis : x y z
#
# Youngs Moduli (GPa) = 51.16539 150.59250 68.88569
#
# Poissons Ratio (x) = 0.29141 0.23341
# Poissons Ratio (y) = 0.09901 0.18249
# Poissons Ratio (z) = 0.17337 0.39895
#
# Static dielectric constant tensor:
#      x y z
#    x 2.094170 0.000000 0.012380 
#    y 0.000000 2.024510 0.000000 
#    z 0.012380 0.000000 2.010110 
# 
# From -- ./inp_files/358414.got.cif
#   From: 2010.05.17/outbox.cif.g08.bks.cpg/sg12_180_cif.got.tgz:358414.got - 2010.06.03 13:09:07.
