data_PCOD9217530
_publ_section_title
;
Structure prediction by ZEFSAII (Michael W. Deem and Ramdas Pophale) SiO2 
 PCOD9217530
Probable space group: C 2/M
;
_chemical_formula_sum "Si O2"
_cell_formula_units_Z 52
_cell_length_a 10.536035
_cell_length_b 7.699391
_cell_length_c 28.042344
_cell_angle_alpha 90.000000
_cell_angle_beta 104.006223
_cell_angle_gamma 90.000000
_cell_volume 2207.192681
_symmetry_space_group_name_H-M "C 2/M"
_symmetry_group_IT_number 12
_symmetry_cell_setting 'monoclinic'
loop_
_space_group_symop_operation_xyz
x,y,z
-x,y,-z
-x,-y,-z
x,-y,z
1/2+x,1/2+y,z
1/2-x,1/2+y,-z
1/2-x,1/2-y,-z
1/2+x,1/2-y,z
loop_
_atom_site_type_symbol
_atom_site_label
_atom_site_fract_x
_atom_site_fract_y
_atom_site_fract_z
Si Si1 0.689206 0.000000 0.217326
Si Si2 0.372991 0.800757 0.277452
Si Si3 0.101086 0.203415 0.612954
Si Si4 0.513990 0.208672 0.055331
Si Si5 0.485952 0.304775 0.798167
Si Si6 0.695816 0.205911 0.885619
Si Si7 0.314082 0.792547 0.556486
O O1 0.768704 0.154689 0.253808
O O2 0.595711 0.153461 0.185413
O O3 0.402526 0.791723 0.335901
O O4 0.496228 0.749918 0.255343
O O5 0.338616 0.000000 0.262022
O O6 0.216603 0.271310 0.589350
O O7 0.960242 0.221735 0.575249
O O8 0.125701 0.000000 0.623541
O O9 0.395772 0.265981 0.078705
O O10 0.654867 0.258459 0.088556
O O11 0.506880 0.000000 0.053024
O O12 0.500000 0.275022 0.000000
O O13 0.437707 0.500000 0.799341
O O14 0.632269 0.299676 0.834067
O O15 0.682161 0.000000 0.876940
O O16 0.250000 0.750000 0.500000
O O17 0.322709 0.000000 0.561448
#
# Coordination Sequence:
#
# PCOD9217530 Si02
#       7
#     4   8   8   8   8   8   8
#     4  12  26  48  72 100 143 185 240 286 360 414
#     4  12  26  46  72 104 142 187 234 295 350 422
#     4  11  25  45  69 102 140 183 233 289 350 420
#     4  10  23  43  67  97 136 179 230 290 352 417
#     4  12  26  46  71 102 143 188 234 294 348 425
#     4  11  24  42  67 101 137 180 235 288 348 422
#     4  11  25  44  69 100 138 180 233 291 350 417
#
# _framework density 23.559336999999999
#
# number of rings (size 3 to 8) (size 9 to 14) (size 15 to 20)
#    0.000    0.769    3.077    2.769    4.308    5.846 
#    0.000    0.000    0.000    0.000    0.000    0.000 
#    0.000    0.000    0.000    0.000    0.000    0.000 
#
# Total GULP energy -145111.066227 kJ/mol
# GULP energy per Si atom -5581.194855 kJ/mol
# Density = 2.350572 g / cm^3
# Si number density = 23.559337 Si / 1000 Ang^3
#
#
#
# Elastic Constant Matrix: (Units=GPa)
#
#
# Indices 1 2 3 4 5 6 
#
# 1 93.7880 11.8421 2.2509 0.0000 0.6136 0.0000
# 2 11.8421 163.7595 7.4617 0.0000 -0.0825 0.0000
# 3 2.2509 7.4617 80.9121 0.0000 -13.7408 0.0000
# 4 0.0000 0.0000 0.0000 63.3095 0.0000 -1.1048
# 5 0.6136 -0.0825 -13.7408 0.0000 42.0328 0.0000
# 6 0.0000 0.0000 0.0000 -1.1048 0.0000 23.0582
#
#
#
# Elastic Compliance Matrix: (Units=1/GPa)
#
#
# Indices 1 2 3 4 5 6 
#
# 1 0.010767 -0.000766 -0.000271 0.000000 -0.000247 0.000000
# 2 -0.000766 0.006188 -0.000577 0.000000 -0.000165 0.000000
# 3 -0.000271 -0.000577 0.013150 0.000000 0.004302 0.000000
# 4 0.000000 0.000000 0.000000 0.015809 0.000000 0.000757
# 5 -0.000247 -0.000165 0.004302 0.000000 0.025200 0.000000
# 6 0.000000 0.000000 0.000000 0.000757 0.000000 0.043405
#
#
# Mechanical properties :
#
#
# Convention : Reuss Voigt Hill
#
# Bulk Modulus (GPa) = 37.20735 42.39657 39.80196
# Shear Modulus (GPa) = 39.46084 46.80710 43.13397
#
# Velocity S-wave (km/s) = 4.09706 4.46216 4.28350
# Velocity P-wave (km/s) = 6.18131 6.67702 6.43394
#
# Compressibility (1/GPa) = 0.02687641
#
# Stress axis : x y z
#
# Youngs Moduli (GPa) = 92.87441 161.59883 76.04324
#
# Poissons Ratio (x) = 0.12385 0.02060
# Poissons Ratio (y) = 0.07118 0.04391
# Poissons Ratio (z) = 0.02515 0.09331
#
# Static dielectric constant tensor:
#      x y z
#    x 2.009860 0.000000 -0.039930 
#    y 0.000000 1.864970 0.000000 
#    z -0.039930 0.000000 1.876950 
# 
# From -- ./inp_files/357361.got.cif
#   From: 2010.05.17/outbox.cif.g08.bks.cpg/sg12_179_cif.got.tgz:357361.got - 2010.06.03 13:09:07.
