data_PCOD9217956
_publ_section_title
;
Structure prediction by ZEFSAII (Michael W. Deem and Ramdas Pophale) SiO2 
 PCOD9217956
Probable space group: C 2/M
;
_chemical_formula_sum "Si O2"
_cell_formula_units_Z 30
_cell_length_a 10.422994
_cell_length_b 24.020990
_cell_length_c 4.965071
_cell_angle_alpha 90.000000
_cell_angle_beta 85.244502
_cell_angle_gamma 90.000000
_cell_volume 1238.828642
_symmetry_space_group_name_H-M "C 2/M"
_symmetry_group_IT_number 12
_symmetry_cell_setting 'monoclinic'
loop_
_space_group_symop_operation_xyz
x,y,z
-x,y,-z
-x,-y,-z
x,-y,z
1/2+x,1/2+y,z
1/2-x,1/2+y,-z
1/2-x,1/2-y,-z
1/2+x,1/2-y,z
loop_
_atom_site_type_symbol
_atom_site_label
_atom_site_fract_x
_atom_site_fract_y
_atom_site_fract_z
Si Si1 0.086526 0.280388 0.249049
Si Si2 0.000000 0.826874 0.500000
Si Si3 0.500000 0.000000 0.000000
Si Si4 0.293704 0.371679 0.156086
Si Si5 0.721982 0.060904 0.667187
O O1 0.214284 0.314434 0.175257
O O2 0.000000 0.307924 0.500000
O O3 0.101250 0.217086 0.350351
O O4 0.000000 0.278649 0.000000
O O5 0.072482 0.860654 0.716543
O O6 0.417322 0.047577 0.182880
O O7 0.221012 0.414799 0.368976
O O8 0.292547 0.398154 0.861752
O O9 0.787703 0.000000 0.649426
#
# Coordination Sequence:
#
# PCOD9217956 Si02
#       5
#     8   4   2   8   8
#     4  10  24  39  65  96 133 169 222 276 317 386
#     4  10  28  42  67  94 145 170 230 258 320 408
#     4   8  24  42  68  92 136 158 212 294 308 380
#     4  12  24  43  68 100 131 185 210 271 335 386
#     4  10  25  42  68  99 130 164 222 276 330 385
#
# _framework density 24.216425000000001
#
# number of rings (size 3 to 8) (size 9 to 14) (size 15 to 20)
#    1.600    0.000    0.000    3.200    9.333    2.133 
#    0.000    4.000    0.000    0.000    0.000    0.000 
#    0.000    0.000    0.000    0.000    0.000    0.000 
#
# Total GULP energy -83664.532023 kJ/mol
# GULP energy per Si atom -5577.635468 kJ/mol
# Density = 2.416131 g / cm^3
# Si number density = 24.216425 Si / 1000 Ang^3
#
#
#
# Elastic Constant Matrix: (Units=GPa)
#
#
# Indices 1 2 3 4 5 6 
#
# 1 57.6856 19.3664 4.3963 0.0000 -3.3903 0.0000
# 2 19.3664 86.5272 10.2966 0.0000 -4.8058 0.0000
# 3 4.3963 10.2966 130.5954 0.0000 -0.7518 0.0000
# 4 0.0000 0.0000 0.0000 -2.5168 0.0000 -16.0983
# 5 -3.3903 -4.8058 -0.7518 0.0000 34.7558 0.0000
# 6 0.0000 0.0000 0.0000 -16.0983 0.0000 -0.7050
#
#
#
# Elastic Compliance Matrix: (Units=1/GPa)
#
#
# Indices 1 2 3 4 5 6 
#
# 1 0.018810 -0.004104 -0.000302 0.000000 0.001261 0.000000
# 2 -0.004104 0.012651 -0.000852 0.000000 0.001331 0.000000
# 3 -0.000302 -0.000852 0.007735 0.000000 0.000020 0.000000
# 4 0.000000 0.000000 0.000000 0.002739 0.000000 -0.062546
# 5 0.001261 0.001331 0.000020 0.000000 0.029080 0.000000
# 6 0.000000 0.000000 0.000000 -0.062546 0.000000 0.009778
#
#
# Mechanical properties :
#
#
# Convention : Reuss Voigt Hill
#
# Bulk Modulus (GPa) = 34.86788 38.10297 36.48543
# Shear Modulus (GPa) = 49.56927 22.35675 35.96301
#
# Velocity S-wave (km/s) = 4.52921 3.04173 3.85784
# Velocity P-wave (km/s) = 6.46385 5.30138 5.91126
#
# Compressibility (1/GPa) = 0.02867969
#
# Stress axis : x y z
#
# Youngs Moduli (GPa) = 53.16228 79.04595 129.28792
#
# Poissons Ratio (x) = 0.32441 0.03909
# Poissons Ratio (y) = 0.21818 0.11010
# Poissons Ratio (z) = 0.01608 0.06732
#
# Static dielectric constant tensor:
#      x y z
#    x 1.978880 0.000000 -0.008460 
#    y 0.000000 1.957580 0.000000 
#    z -0.008460 0.000000 1.953200 
# 
# From -- ./inp_files/7318.got.cif
#   From: 2010.05.17/outbox.cif.g08.bks.cpg/sg12_4_cif.got.tgz:7318.got - 2010.06.03 13:09:07.
