data_PCOD9217329
_publ_section_title
;
Structure prediction by ZEFSAII (Michael W. Deem and Ramdas Pophale) SiO2 
 PCOD9217329
Probable space group: C 2/M
;
_chemical_formula_sum "Si O2"
_cell_formula_units_Z 48
_cell_length_a 29.648897
_cell_length_b 13.958552
_cell_length_c 5.250684
_cell_angle_alpha 90.000000
_cell_angle_beta 116.421789
_cell_angle_gamma 90.000000
_cell_volume 1946.036781
_symmetry_space_group_name_H-M "C 2/M"
_symmetry_group_IT_number 12
_symmetry_cell_setting 'monoclinic'
loop_
_space_group_symop_operation_xyz
x,y,z
-x,y,-z
-x,-y,-z
x,-y,z
1/2+x,1/2+y,z
1/2-x,1/2+y,-z
1/2-x,1/2-y,-z
1/2+x,1/2-y,z
loop_
_atom_site_type_symbol
_atom_site_label
_atom_site_fract_x
_atom_site_fract_y
_atom_site_fract_z
Si Si1 0.530198 0.115092 0.318564
Si Si2 0.623306 0.769315 0.657144
Si Si3 0.139013 0.890713 0.308193
Si Si4 0.709015 0.884113 0.146931
Si Si5 0.232449 0.113738 0.205412
Si Si6 0.942405 0.894189 0.267362
O O1 0.500000 0.141767 0.500000
O O2 0.587050 0.151745 0.441522
O O3 0.530824 0.000000 0.312968
O O4 0.500000 0.153016 0.000000
O O5 0.648313 0.696672 0.519861
O O6 0.583910 0.698142 0.688592
O O7 0.659998 0.826863 0.935514
O O8 0.175312 0.871863 0.155857
O O9 0.152337 0.000000 0.428812
O O10 0.079943 0.891835 0.077329
O O11 0.730359 0.853875 0.474625
O O12 0.701090 0.000000 0.127428
O O13 0.749604 0.858444 0.029163
O O14 0.238419 0.000000 0.218968
O O15 0.000000 0.891174 0.500000
O O16 0.923761 0.000000 0.310592
#
# Coordination Sequence:
#
# PCOD9217329 Si02
#       6
#     8   8   8   8   8   8
#     4  10  24  45  68  96 133 176 220 274 334 396
#     4  12  25  37  68  98 133 172 225 275 333 398
#     4  10  24  43  66  96 132 177 226 278 335 398
#     4  10  23  42  67  99 138 177 219 273 330 397
#     4   9  21  43  67  94 136 182 220 269 333 395
#     4  10  24  45  66  93 131 175 226 281 340 397
#
# _framework density 24.665514000000002
#
# number of rings (size 3 to 8) (size 9 to 14) (size 15 to 20)
#    0.000    1.833    0.000    1.500    9.333    1.333 
#    0.000    7.500    0.000    0.000    0.000    0.000 
#    0.000    0.000    0.000    0.000    0.000    0.000 
#
# Total GULP energy -134159.296423 kJ/mol
# GULP energy per Si atom -5589.970684 kJ/mol
# Density = 2.460937 g / cm^3
# Si number density = 24.665514 Si / 1000 Ang^3
#
#
#
# Elastic Constant Matrix: (Units=GPa)
#
#
# Indices 1 2 3 4 5 6 
#
# 1 48.4083 23.9951 18.4313 0.0000 18.9266 0.0000
# 2 23.9951 112.2868 12.1986 0.0000 11.9068 0.0000
# 3 18.4313 12.1986 100.0379 0.0000 31.1440 0.0000
# 4 0.0000 0.0000 0.0000 31.3504 0.0000 14.2389
# 5 18.9266 11.9068 31.1440 0.0000 52.2721 0.0000
# 6 0.0000 0.0000 0.0000 14.2389 0.0000 24.1000
#
#
#
# Elastic Compliance Matrix: (Units=1/GPa)
#
#
# Indices 1 2 3 4 5 6 
#
# 1 0.026638 -0.004690 -0.002045 0.000000 -0.007358 0.000000
# 2 -0.004690 0.009979 -0.000213 0.000000 -0.000448 0.000000
# 3 -0.002045 -0.000213 0.012466 0.000000 -0.006638 0.000000
# 4 0.000000 0.000000 0.000000 0.043596 0.000000 -0.025758
# 5 -0.007358 -0.000448 -0.006638 0.000000 0.025852 0.000000
# 6 0.000000 0.000000 0.000000 -0.025758 0.000000 0.056712
#
#
# Mechanical properties :
#
#
# Convention : Reuss Voigt Hill
#
# Bulk Modulus (GPa) = 28.42104 41.10923 34.76514
# Shear Modulus (GPa) = 24.89200 35.28503 30.08851
#
# Velocity S-wave (km/s) = 3.18021 3.78635 3.49644
# Velocity P-wave (km/s) = 5.00326 5.98483 5.51592
#
# Compressibility (1/GPa) = 0.03518520
#
# Stress axis : x y z
#
# Youngs Moduli (GPa) = 37.54045 100.21404 80.22096
#
# Poissons Ratio (x) = 0.47000 0.16407
# Poissons Ratio (y) = 0.17606 0.01711
# Poissons Ratio (z) = 0.07678 0.02138
#
# Static dielectric constant tensor:
#      x y z
#    x 1.966640 0.000000 -0.046870 
#    y 0.000000 1.942550 0.000000 
#    z -0.046870 0.000000 2.015320 
# 
# From -- ./inp_files/31596.got.cif
#   From: 2010.05.17/outbox.cif.g08.bks.cpg/sg12_16_cif.got.tgz:31596.got - 2010.06.03 13:09:07.
