data_PCOD9217076
_publ_section_title
;
Structure prediction by ZEFSAII (Michael W. Deem and Ramdas Pophale) SiO2 
 PCOD9217076
Probable space group: C 2/M
;
_chemical_formula_sum "Si O2"
_cell_formula_units_Z 58
_cell_length_a 20.810566
_cell_length_b 16.123183
_cell_length_c 11.140917
_cell_angle_alpha 90.000000
_cell_angle_beta 42.813829
_cell_angle_gamma 90.000000
_cell_volume 2540.508949
_symmetry_space_group_name_H-M "C 2/M"
_symmetry_group_IT_number 12
_symmetry_cell_setting 'monoclinic'
loop_
_space_group_symop_operation_xyz
x,y,z
-x,y,-z
-x,-y,-z
x,-y,z
1/2+x,1/2+y,z
1/2-x,1/2+y,-z
1/2-x,1/2-y,-z
1/2+x,1/2-y,z
loop_
_atom_site_type_symbol
_atom_site_label
_atom_site_fract_x
_atom_site_fract_y
_atom_site_fract_z
Si Si1 0.717093 0.407461 0.920087
Si Si2 0.757503 0.198513 0.691365
Si Si3 0.573285 0.848659 0.055817
Si Si4 0.109728 0.091706 0.815686
Si Si5 0.400316 0.637543 0.685534
Si Si6 0.628742 0.235294 0.658050
Si Si7 0.000000 0.500000 0.000000
Si Si8 0.911829 0.667725 0.699290
O O1 0.758109 0.500000 0.867284
O O2 0.664074 0.398602 0.866639
O O3 0.805063 0.346104 0.803281
O O4 0.647497 0.399424 0.129726
O O5 0.824699 0.139504 0.679125
O O6 0.698603 0.182096 0.647468
O O7 0.832251 0.263785 0.531085
O O8 0.664615 0.207889 0.901542
O O9 0.476466 0.797217 0.183413
O O10 0.582813 0.875401 0.179595
O O11 0.561049 0.926834 0.986513
O O12 0.127846 0.170070 0.706621
O O13 0.133451 0.000000 0.731860
O O14 0.000000 0.091797 0.000000
O O15 0.500000 0.602672 0.500000
O O16 0.421529 0.732775 0.694894
O O17 0.000000 0.637837 0.500000
#
# Coordination Sequence:
#
# PCOD9217076 Si02
#       8
#     8   8   8   8   8   8   2   8
#     4  11  25  44  66  99 137 179 224 280 349 407
#     4  11  23  42  68 105 133 187 230 283 348 403
#     4  12  25  47  72 104 144 184 231 290 343 414
#     4  10  23  41  66  97 133 178 226 281 337 404
#     4  11  24  42  69 103 133 173 235 284 337 417
#     4  11  23  42  70 100 138 180 234 278 342 417
#     4  12  28  48  70 108 140 186 238 282 342 412
#     4  11  25  44  74 103 134 182 228 286 341 406
#
# _framework density 22.830071
#
# number of rings (size 3 to 8) (size 9 to 14) (size 15 to 20)
#    0.000    0.966    2.759    3.724    6.759    1.655 
#    1.241    0.000    0.000    0.000    0.000    0.000 
#    0.000    0.000    0.000    0.000    0.000    0.000 
#
# Total GULP energy -161607.476837 kJ/mol
# GULP energy per Si atom -5572.671615 kJ/mol
# Density = 2.277811 g / cm^3
# Si number density = 22.830071 Si / 1000 Ang^3
#
#
#
# Elastic Constant Matrix: (Units=GPa)
#
#
# Indices 1 2 3 4 5 6 
#
# 1 90.4126 24.9585 28.0595 0.0000 -17.4890 0.0000
# 2 24.9585 88.7877 34.6909 0.0000 -0.0770 0.0000
# 3 28.0595 34.6909 167.2354 0.0000 -18.6539 0.0000
# 4 0.0000 0.0000 0.0000 -32.5412 0.0000 26.9720
# 5 -17.4890 -0.0770 -18.6539 0.0000 47.3270 0.0000
# 6 0.0000 0.0000 0.0000 26.9720 0.0000 4.9413
#
#
#
# Elastic Compliance Matrix: (Units=1/GPa)
#
#
# Indices 1 2 3 4 5 6 
#
# 1 0.013148 -0.003291 -0.001027 0.000000 0.004448 0.000000
# 2 -0.003291 0.013128 -0.002410 0.000000 -0.002145 0.000000
# 3 -0.001027 -0.002410 0.006913 0.000000 0.002341 0.000000
# 4 0.000000 0.000000 0.000000 -0.005563 0.000000 0.030364
# 5 0.004448 -0.002145 0.002341 0.000000 0.023693 0.000000
# 6 0.000000 0.000000 0.000000 0.030364 0.000000 0.036634
#
#
# Mechanical properties :
#
#
# Convention : Reuss Voigt Hill
#
# Bulk Modulus (GPa) = 50.67806 57.98373 54.33089
# Shear Modulus (GPa) = 46.30198 21.19388 33.74793
#
# Velocity S-wave (km/s) = 4.50834 3.05016 3.84894
# Velocity P-wave (km/s) = 7.02470 6.15286 6.60318
#
# Compressibility (1/GPa) = 0.01973240
#
# Stress axis : x y z
#
# Youngs Moduli (GPa) = 76.05654 76.17463 144.65335
#
# Poissons Ratio (x) = 0.25067 0.14859
# Poissons Ratio (y) = 0.25028 0.34865
# Poissons Ratio (z) = 0.07813 0.18360
#
# Static dielectric constant tensor:
#      x y z
#    x 1.914870 0.000000 -0.024960 
#    y 0.000000 1.877380 0.000000 
#    z -0.024960 0.000000 1.891230 
# 
# From -- ./inp_files/168936.got.cif
#   From: 2010.05.17/outbox.cif.g08.bks.cpg/sg12_85_cif.got.tgz:168936.got - 2010.06.03 13:09:07.
