data_PCOD9217884
_publ_section_title
;
Structure prediction by ZEFSAII (Michael W. Deem and Ramdas Pophale) SiO2 
 PCOD9217884
Probable space group: C 2/M
;
_chemical_formula_sum "Si O2"
_cell_formula_units_Z 56
_cell_length_a 8.727857
_cell_length_b 22.664031
_cell_length_c 26.055376
_cell_angle_alpha 90.000000
_cell_angle_beta 31.651943
_cell_angle_gamma 90.000000
_cell_volume 2704.587666
_symmetry_space_group_name_H-M "C 2/M"
_symmetry_group_IT_number 12
_symmetry_cell_setting 'monoclinic'
loop_
_space_group_symop_operation_xyz
x,y,z
-x,y,-z
-x,-y,-z
x,-y,z
1/2+x,1/2+y,z
1/2-x,1/2+y,-z
1/2-x,1/2-y,-z
1/2+x,1/2-y,z
loop_
_atom_site_type_symbol
_atom_site_label
_atom_site_fract_x
_atom_site_fract_y
_atom_site_fract_z
Si Si1 0.635338 0.381235 0.379940
Si Si2 0.347933 0.000000 0.602733
Si Si3 0.792908 0.677353 0.798907
Si Si4 0.375880 0.602071 0.735024
Si Si5 0.789232 0.696205 0.450902
Si Si6 0.025615 0.799347 0.772524
Si Si7 0.806448 0.500000 0.386041
Si Si8 0.245896 0.065735 0.886718
O O1 0.595928 0.372742 0.330618
O O2 0.320073 0.367295 0.494573
O O3 0.781119 0.442687 0.356277
O O4 0.898496 0.336597 0.317743
O O5 0.500000 0.000000 0.500000
O O6 0.494455 0.000000 0.618930
O O7 0.140572 0.056891 0.663692
O O8 0.543811 0.686002 0.827569
O O9 0.729039 0.620692 0.852484
O O10 0.864666 0.737336 0.808720
O O11 0.384633 0.651426 0.776164
O O12 0.062666 0.570449 0.822979
O O13 0.500000 0.707047 0.500000
O O14 0.750000 0.750000 0.500000
O O15 0.131454 0.700380 0.340965
O O16 0.500000 0.500000 0.500000
O O17 0.219088 0.000000 0.870417
O O18 0.000000 0.071318 0.000000
#
# Coordination Sequence:
#
# PCOD9217884 Si02
#       8
#     8   4   8   8   8   8   4   8
#     4  11  23  39  60  86 127 177 236 269 340 384
#     4  12  26  42  61  98 140 187 239 280 341 401
#     4  11  23  42  67  98 132 180 220 286 348 410
#     4  11  25  43  66  99 135 177 230 289 340 408
#     4  12  24  37  56  88 126 184 230 271 318 388
#     4  12  24  43  63 100 144 177 235 285 339 411
#     4  12  26  40  56  82 131 183 237 284 318 398
#     4  10  23  49  79 104 133 174 222 283 360 427
#
# _framework density 20.705559999999998
#
# number of rings (size 3 to 8) (size 9 to 14) (size 15 to 20)
#    0.000    0.714    3.571    4.286    9.000    0.000 
#    1.286    3.571    0.000    1.714    0.000    0.000 
#    0.000    0.000    0.000    0.000    0.000    0.000 
#
# Total GULP energy -155934.921603 kJ/mol
# GULP energy per Si atom -5569.104343 kJ/mol
# Density = 2.065843 g / cm^3
# Si number density = 20.705560 Si / 1000 Ang^3
#
#
#
# Elastic Constant Matrix: (Units=GPa)
#
#
# Indices 1 2 3 4 5 6 
#
# 1 138.2140 73.7594 15.2421 -0.0120 -6.2022 0.0365
# 2 73.7594 156.8998 21.7033 -0.0035 8.7062 -0.0203
# 3 15.2421 21.7033 54.5598 0.0162 3.4121 -0.0533
# 4 -0.0120 -0.0035 0.0162 25.5755 -0.0231 1.6071
# 5 -6.2022 8.7062 3.4121 -0.0231 13.6208 0.0075
# 6 0.0365 -0.0203 -0.0533 1.6071 0.0075 36.9903
#
#
#
# Elastic Compliance Matrix: (Units=1/GPa)
#
#
# Indices 1 2 3 4 5 6 
#
# 1 0.010573 -0.005250 -0.001398 0.000014 0.008521 -0.000018
# 2 -0.005250 0.009540 -0.001826 -0.000008 -0.008031 0.000010
# 3 -0.001398 -0.001826 0.019721 -0.000019 -0.004410 0.000031
# 4 0.000014 -0.000008 -0.000019 0.039207 0.000084 -0.001703
# 5 0.008521 -0.008031 -0.004410 0.000084 0.083535 -0.000040
# 6 -0.000018 0.000010 0.000031 -0.001703 -0.000040 0.027108
#
#
# Mechanical properties :
#
#
# Convention : Reuss Voigt Hill
#
# Bulk Modulus (GPa) = 43.69478 63.45370 53.57424
# Shear Modulus (GPa) = 23.33586 31.16855 27.25220
#
# Velocity S-wave (km/s) = 3.36077 3.88406 3.63185
# Velocity P-wave (km/s) = 6.01735 7.12929 6.59679
#
# Compressibility (1/GPa) = 0.02288603
#
# Stress axis : x y z
#
# Youngs Moduli (GPa) = 94.57643 104.82454 50.70651
#
# Poissons Ratio (x) = 0.55033 0.07091
# Poissons Ratio (y) = 0.49653 0.09258
# Poissons Ratio (z) = 0.13225 0.19140
#
# Static dielectric constant tensor:
#      x y z
#    x 3.249950 0.002410 0.279280 
#    y 0.002410 1.685510 0.000440 
#    z 0.279280 0.000440 1.774380 
# 
# From -- ./inp_files/373160.got.cif
#   From: 2010.05.17/outbox.cif.g08.bks.cpg/sg12_187_cif.got.tgz:373160.got - 2010.06.03 13:09:07.
