data_PCOD9217398
_publ_section_title
;
Structure prediction by ZEFSAII (Michael W. Deem and Ramdas Pophale) SiO2 
 PCOD9217398
Probable space group: C 2/M
;
_chemical_formula_sum "Si O2"
_cell_formula_units_Z 48
_cell_length_a 20.802962
_cell_length_b 8.840441
_cell_length_c 34.334917
_cell_angle_alpha 90.000000
_cell_angle_beta 155.264801
_cell_angle_gamma 90.000000
_cell_volume 2642.121978
_symmetry_space_group_name_H-M "C 2/M"
_symmetry_group_IT_number 12
_symmetry_cell_setting 'monoclinic'
loop_
_space_group_symop_operation_xyz
x,y,z
-x,y,-z
-x,-y,-z
x,-y,z
1/2+x,1/2+y,z
1/2-x,1/2+y,-z
1/2-x,1/2-y,-z
1/2+x,1/2-y,z
loop_
_atom_site_type_symbol
_atom_site_label
_atom_site_fract_x
_atom_site_fract_y
_atom_site_fract_z
Si Si1 0.915367 0.318769 0.392850
Si Si2 0.442973 0.179761 0.209307
Si Si3 0.763789 0.318789 0.393163
Si Si4 0.596234 0.680559 0.897268
Si Si5 0.842377 0.181273 0.891114
Si Si6 0.184596 0.320414 0.208836
O O1 0.904891 0.500000 0.381184
O O2 0.819028 0.284314 0.379306
O O3 0.840696 0.233253 0.315765
O O4 0.091874 0.281329 0.499845
O O5 0.607411 0.232741 0.316018
O O6 0.418777 0.265729 0.155403
O O7 0.303163 0.213220 0.161457
O O8 0.444471 0.000000 0.202830
O O9 0.739629 0.500000 0.381682
O O10 0.599813 0.500000 0.901283
O O11 0.452162 0.742163 0.842275
O O12 0.750000 0.750000 0.000000
O O13 0.825841 0.265262 0.841185
O O14 0.847446 0.000000 0.886744
O O15 0.000000 0.222588 0.000000
O O16 0.169193 0.500000 0.202761
#
# Coordination Sequence:
#
# PCOD9217398 Si02
#       6
#     8   8   8   8   8   8
#     4   9  18  35  59  87 119 158 199 239 294 355
#     4  11  22  37  60  91 120 152 199 247 299 357
#     4   9  18  34  59  88 119 158 197 240 297 354
#     4  12  24  39  60  86 119 154 195 247 298 350
#     4  10  23  43  63  82 115 163 203 242 297 357
#     4  12  24  38  60  91 121 154 199 246 297 353
#
# _framework density 18.167216
#
# number of rings (size 3 to 8) (size 9 to 14) (size 15 to 20)
#    0.000    1.500    1.667    5.500    0.000    3.667 
#    0.000    2.500    0.000    0.000    0.000    0.000 
#    0.000    0.000    0.000    0.000    0.000    0.000 
#
# Total GULP energy -134151.536811 kJ/mol
# GULP energy per Si atom -5589.647367 kJ/mol
# Density = 1.812587 g / cm^3
# Si number density = 18.167216 Si / 1000 Ang^3
#
#
#
# Elastic Constant Matrix: (Units=GPa)
#
#
# Indices 1 2 3 4 5 6 
#
# 1 101.2777 77.5562 72.8033 -0.0002 -7.6477 0.0001
# 2 77.5562 107.3732 79.0912 -0.0001 -5.4269 0.0002
# 3 72.8033 79.0912 158.8472 -0.0002 -3.5336 0.0001
# 4 -0.0002 -0.0001 -0.0002 31.8040 0.0001 0.9819
# 5 -7.6477 -5.4269 -3.5336 0.0001 30.4627 0.0000
# 6 0.0001 0.0002 0.0001 0.9819 0.0000 28.5312
#
#
#
# Elastic Compliance Matrix: (Units=1/GPa)
#
#
# Indices 1 2 3 4 5 6 
#
# 1 0.023620 -0.014189 -0.003695 0.000000 0.002973 0.000000
# 2 -0.014189 0.023328 -0.005112 0.000000 0.000001 0.000000
# 3 -0.003695 -0.005112 0.010520 0.000000 -0.000618 0.000000
# 4 0.000000 0.000000 0.000000 0.031476 0.000000 -0.001083
# 5 0.002973 0.000001 -0.000618 0.000000 0.033502 0.000000
# 6 0.000000 0.000000 0.000000 -0.001083 0.000000 0.035087
#
#
# Mechanical properties :
#
#
# Convention : Reuss Voigt Hill
#
# Bulk Modulus (GPa) = 87.13274 91.82217 89.47746
# Shear Modulus (GPa) = 24.11401 27.36274 25.73838
#
# Velocity S-wave (km/s) = 3.64722 3.88514 3.76806
# Velocity P-wave (km/s) = 8.11184 8.41298 8.26378
#
# Compressibility (1/GPa) = 0.01147674
#
# Stress axis : x y z
#
# Youngs Moduli (GPa) = 42.33727 42.86783 95.05630
#
# Poissons Ratio (x) = 0.60825 0.35119
# Poissons Ratio (y) = 0.60073 0.48590
# Poissons Ratio (z) = 0.15642 0.21913
#
# Static dielectric constant tensor:
#      x y z
#    x 1.590280 0.000000 0.005310 
#    y 0.000000 1.604600 0.000000 
#    z 0.005310 0.000000 1.631590 
# 
# From -- ./inp_files/244764.got.cif
#   From: 2010.05.17/outbox.cif.g08.bks.cpg/sg12_123_cif.got.tgz:244764.got - 2010.06.03 13:09:07.
