data_PCOD9217559
_publ_section_title
;
Structure prediction by ZEFSAII (Michael W. Deem and Ramdas Pophale) SiO2 
 PCOD9217559
Probable space group: C 2/M
;
_chemical_formula_sum "Si O2"
_cell_formula_units_Z 58
_cell_length_a 20.962509
_cell_length_b 18.489945
_cell_length_c 11.314178
_cell_angle_alpha 90.000000
_cell_angle_beta 142.273778
_cell_angle_gamma 90.000000
_cell_volume 2683.333153
_symmetry_space_group_name_H-M "C 2/M"
_symmetry_group_IT_number 12
_symmetry_cell_setting 'monoclinic'
loop_
_space_group_symop_operation_xyz
x,y,z
-x,y,-z
-x,-y,-z
x,-y,z
1/2+x,1/2+y,z
1/2-x,1/2+y,-z
1/2-x,1/2-y,-z
1/2+x,1/2-y,z
loop_
_atom_site_type_symbol
_atom_site_label
_atom_site_fract_x
_atom_site_fract_y
_atom_site_fract_z
Si Si1 0.967268 0.390361 0.157926
Si Si2 0.000000 0.500000 0.000000
Si Si3 0.702739 0.081122 0.892380
Si Si4 0.378899 0.416388 0.344605
Si Si5 0.203354 0.417109 0.476992
Si Si6 0.007241 0.226297 0.869458
Si Si7 0.204805 0.188291 0.576248
Si Si8 0.214497 0.161939 0.194839
O O1 0.891317 0.410068 0.153193
O O2 0.958433 0.305895 0.119443
O O3 0.088261 0.407273 0.361780
O O4 0.950252 0.437335 0.015174
O O5 0.707508 0.138858 0.794662
O O6 0.698570 0.000000 0.835389
O O7 0.808095 0.087770 0.124031
O O8 0.500000 0.398791 0.500000
O O9 0.373952 0.500000 0.379343
O O10 0.329351 0.362667 0.366601
O O11 0.209549 0.500000 0.442328
O O12 0.220708 0.358338 0.400006
O O13 0.282265 0.398011 0.697462
O O14 0.898072 0.207509 0.649678
O O15 0.099642 0.171309 0.973625
O O16 0.000000 0.224963 0.000000
O O17 0.253400 0.262325 0.697012
#
# Coordination Sequence:
#
# PCOD9217559 Si02
#       8
#     8   2   8   8   8   8   8   8
#     4  12  25  41  72 104 137 185 233 301 355 424
#     4  12  24  40  72 106 134 182 240 300 352 424
#     4  11  25  46  69 103 142 191 236 292 366 429
#     4  10  23  43  68  98 138 184 236 292 349 425
#     4  12  25  45  70 106 140 184 238 294 362 427
#     4  12  24  44  70 102 144 180 242 296 358 427
#     4  12  25  44  73 104 139 186 238 295 365 420
#     4  12  26  45  71 100 145 191 236 294 359 433
#
# _framework density 21.614908
#
# number of rings (size 3 to 8) (size 9 to 14) (size 15 to 20)
#    0.000    0.414    4.828    3.724    1.931    3.862 
#    0.000    4.138    0.000    0.000    0.000    0.000 
#    0.000    0.000    0.000    0.000    0.000    0.000 
#
# Total GULP energy -162091.471864 kJ/mol
# GULP energy per Si atom -5589.361099 kJ/mol
# Density = 2.156571 g / cm^3
# Si number density = 21.614908 Si / 1000 Ang^3
#
#
#
# Elastic Constant Matrix: (Units=GPa)
#
#
# Indices 1 2 3 4 5 6 
#
# 1 103.3725 52.5892 12.7961 0.0000 2.9448 0.0000
# 2 52.5892 88.4892 30.4636 0.0000 -3.1975 0.0000
# 3 12.7961 30.4636 82.7152 0.0000 16.0498 0.0000
# 4 0.0000 0.0000 0.0000 -0.6700 0.0000 -1.3654
# 5 2.9448 -3.1975 16.0498 0.0000 30.5983 0.0000
# 6 0.0000 0.0000 0.0000 -1.3654 0.0000 22.7975
#
#
#
# Elastic Compliance Matrix: (Units=1/GPa)
#
#
# Indices 1 2 3 4 5 6 
#
# 1 0.014221 -0.009199 0.001826 0.000000 -0.003288 0.000000
# 2 -0.009199 0.019418 -0.007007 0.000000 0.006590 0.000000
# 3 0.001826 -0.007007 0.016214 0.000000 -0.009413 0.000000
# 4 0.000000 0.000000 0.000000 -1.330172 0.000000 -0.079667
# 5 -0.003288 0.006590 -0.009413 0.000000 0.038624 0.000000
# 6 0.000000 0.000000 0.000000 -0.079667 0.000000 0.039093
#
#
# Mechanical properties :
#
#
# Convention : Reuss Voigt Hill
#
# Bulk Modulus (GPa) = 47.40905 51.80830 49.60867
# Shear Modulus (GPa) = -4.28519 22.46036 9.08759
#
# Velocity S-wave (km/s) = -1.40955 3.22703 2.05267
# Velocity P-wave (km/s) = 4.39682 6.15676 5.34966
#
# Compressibility (1/GPa) = 0.02109302
#
# Stress axis : x y z
#
# Youngs Moduli (GPa) = 70.31713 51.49775 61.67341
#
# Poissons Ratio (x) = 0.47373 -0.11261
# Poissons Ratio (y) = 0.64685 0.43216
# Poissons Ratio (z) = -0.12839 0.36086
#
# Static dielectric constant tensor:
#      x y z
#    x 1.752800 0.000000 0.008160 
#    y 0.000000 1.763400 0.000000 
#    z 0.008160 0.000000 1.841120 
# 
# From -- ./inp_files/169002.got.cif
#   From: 2010.05.17/outbox.cif.g08.bks.cpg/sg12_85_cif.got.tgz:169002.got - 2010.06.03 13:09:07.
