data_PCOD9217389
_publ_section_title
;
Structure prediction by ZEFSAII (Michael W. Deem and Ramdas Pophale) SiO2 
 PCOD9217389
Probable space group: C 2/M
;
_chemical_formula_sum "Si O2"
_cell_formula_units_Z 36
_cell_length_a 21.475474
_cell_length_b 7.672154
_cell_length_c 14.396308
_cell_angle_alpha 90.000000
_cell_angle_beta 50.796258
_cell_angle_gamma 90.000000
_cell_volume 1838.055661
_symmetry_space_group_name_H-M "C 2/M"
_symmetry_group_IT_number 12
_symmetry_cell_setting 'monoclinic'
loop_
_space_group_symop_operation_xyz
x,y,z
-x,y,-z
-x,-y,-z
x,-y,z
1/2+x,1/2+y,z
1/2-x,1/2+y,-z
1/2-x,1/2-y,-z
1/2+x,1/2-y,z
loop_
_atom_site_type_symbol
_atom_site_label
_atom_site_fract_x
_atom_site_fract_y
_atom_site_fract_z
Si Si1 0.805373 0.500000 0.650746
Si Si2 0.183923 0.705311 0.804258
Si Si3 0.467986 0.801070 0.167618
Si Si4 0.643076 0.304083 0.046913
Si Si5 0.125785 0.500000 0.207089
Si Si6 0.566245 0.000000 0.632158
O O1 0.749638 0.329100 0.696040
O O2 0.840725 0.500000 0.721415
O O3 0.875268 0.500000 0.509040
O O4 0.194120 0.500000 0.775080
O O5 0.096076 0.757841 0.847307
O O6 0.184926 0.738189 0.913509
O O7 0.548123 0.696201 0.110275
O O8 0.495587 0.000000 0.116211
O O9 0.422982 0.835418 0.308300
O O10 0.668639 0.500000 0.045514
O O11 0.651287 0.168803 0.123132
O O12 0.028253 0.500000 0.304003
#
# Coordination Sequence:
#
# PCOD9217389 Si02
#       6
#     4   8   8   8   4   4
#     4  12  25  38  61  84 118 166 196 224 293 360
#     4  11  22  38  55  93 126 151 183 238 304 350
#     4   8  18  37  61  86 118 150 184 246 289 330
#     4  11  20  36  63  90 114 154 199 238 289 347
#     4  10  23  43  60  82 118 153 200 255 273 327
#     4   8  19  43  64  82 108 161 200 237 289 329
#
# _framework density 19.585913999999999
#
# number of rings (size 3 to 8) (size 9 to 14) (size 15 to 20)
#    0.667    1.333    3.333    1.000    1.556    5.333 
#    0.000    4.444    0.000    6.667    0.000    0.000 
#    0.000    0.000    0.000    0.000    0.000    0.000 
#
# Total GULP energy -100477.876103 kJ/mol
# GULP energy per Si atom -5582.104228 kJ/mol
# Density = 1.954134 g / cm^3
# Si number density = 19.585914 Si / 1000 Ang^3
#
#
#
# Elastic Constant Matrix: (Units=GPa)
#
#
# Indices 1 2 3 4 5 6 
#
# 1 75.4472 28.0251 28.5624 0.0003 6.3342 -0.0001
# 2 28.0251 102.3862 24.2749 0.0006 -3.8298 -0.0006
# 3 28.5624 24.2749 80.8082 0.0005 -3.2530 -0.0003
# 4 0.0003 0.0006 0.0005 17.6632 -0.0002 -5.8884
# 5 6.3342 -3.8298 -3.2530 -0.0002 24.3851 0.0001
# 6 -0.0001 -0.0006 -0.0003 -5.8884 0.0001 23.9847
#
#
#
# Elastic Compliance Matrix: (Units=1/GPa)
#
#
# Indices 1 2 3 4 5 6 
#
# 1 0.017041 -0.003655 -0.005154 0.000000 -0.005688 0.000000
# 2 -0.003655 0.011337 -0.002015 0.000000 0.002461 0.000000
# 3 -0.005154 -0.002015 0.014923 0.000000 0.003013 0.000000
# 4 0.000000 0.000000 0.000000 0.061662 0.000000 0.015138
# 5 -0.005688 0.002461 0.003013 0.000000 0.043275 0.000000
# 6 0.000000 0.000000 0.000000 0.015138 0.000000 0.045410
#
#
# Mechanical properties :
#
#
# Convention : Reuss Voigt Hill
#
# Bulk Modulus (GPa) = 46.18252 46.70739 46.44496
# Shear Modulus (GPa) = 22.47059 25.05853 23.76456
#
# Velocity S-wave (km/s) = 3.39083 3.58077 3.48710
# Velocity P-wave (km/s) = 6.24187 6.40274 6.32282
#
# Compressibility (1/GPa) = 0.02165321
#
# Stress axis : x y z
#
# Youngs Moduli (GPa) = 58.68267 88.20552 67.00937
#
# Poissons Ratio (x) = 0.32241 0.34538
# Poissons Ratio (y) = 0.21449 0.13500
# Poissons Ratio (z) = 0.30246 0.17771
#
# Static dielectric constant tensor:
#      x y z
#    x 1.715930 0.000000 0.006600 
#    y 0.000000 1.689780 0.000000 
#    z 0.006600 0.000000 1.666400 
# 
# From -- ./inp_files/161867.got.cif
#   From: 2010.05.17/outbox.cif.g08.bks.cpg/sg12_81_cif.got.tgz:161867.got - 2010.06.03 13:09:07.
