data_PCOD9217319
_publ_section_title
;
Structure prediction by ZEFSAII (Michael W. Deem and Ramdas Pophale) SiO2 
 PCOD9217319
Probable space group: C 2/M
;
_chemical_formula_sum "Si O2"
_cell_formula_units_Z 44
_cell_length_a 13.906320
_cell_length_b 14.760893
_cell_length_c 9.272324
_cell_angle_alpha 90.000000
_cell_angle_beta 92.369276
_cell_angle_gamma 90.000000
_cell_volume 1901.700105
_symmetry_space_group_name_H-M "C 2/M"
_symmetry_group_IT_number 12
_symmetry_cell_setting 'monoclinic'
loop_
_space_group_symop_operation_xyz
x,y,z
-x,y,-z
-x,-y,-z
x,-y,z
1/2+x,1/2+y,z
1/2-x,1/2+y,-z
1/2-x,1/2-y,-z
1/2+x,1/2-y,z
loop_
_atom_site_type_symbol
_atom_site_label
_atom_site_fract_x
_atom_site_fract_y
_atom_site_fract_z
Si Si1 0.963341 0.396725 0.336120
Si Si2 0.380766 0.353233 0.888509
Si Si3 0.843693 0.000000 0.473195
Si Si4 0.589520 0.849610 0.097444
Si Si5 0.747408 0.500000 0.946748
Si Si6 0.744489 0.165338 0.603310
Si Si7 0.000312 0.000000 0.253706
O O1 0.951843 0.500000 0.280253
O O2 0.859770 0.350328 0.333510
O O3 0.000000 0.401840 0.500000
O O4 0.043689 0.343832 0.252995
O O5 0.392035 0.253013 0.954207
O O6 0.322937 0.421299 0.986102
O O7 0.317966 0.335657 0.740324
O O8 0.473885 0.409950 0.835996
O O9 0.775769 0.915926 0.500199
O O10 0.925752 0.000000 0.604171
O O11 0.894194 0.000000 0.319121
O O12 0.500000 0.886641 0.000000
O O13 0.676429 0.919330 0.098673
O O14 0.750000 0.250000 0.500000
#
# Coordination Sequence:
#
# PCOD9217319 Si02
#       7
#     8   8   4   8   4   8   4
#     4  11  24  42  65  97 138 169 220 284 340 391
#     4  10  23  42  67  95 132 173 234 281 329 398
#     4   9  18  35  58  88 125 175 226 248 330 414
#     4  12  25  42  72 101 133 180 234 276 338 406
#     4  11  23  44  68  91 126 185 227 275 330 414
#     4  11  22  38  64  94 135 177 220 274 339 404
#     4   8  18  37  62  86 124 176 216 273 326 403
#
# _framework density 23.137191999999999
#
# number of rings (size 3 to 8) (size 9 to 14) (size 15 to 20)
#    0.000    1.455    1.818    3.545    5.091    0.000 
#    0.000    1.818    8.000    0.000    0.000    0.000 
#    0.000    0.000    0.000    0.000    0.000    0.000 
#
# Total GULP energy -122588.370766 kJ/mol
# GULP energy per Si atom -5572.198671 kJ/mol
# Density = 2.308453 g / cm^3
# Si number density = 23.137192 Si / 1000 Ang^3
#
#
#
# Elastic Constant Matrix: (Units=GPa)
#
#
# Indices 1 2 3 4 5 6 
#
# 1 100.3042 49.8935 36.9512 0.0000 -41.4616 0.0000
# 2 49.8935 175.7280 17.8687 0.0000 -30.9445 0.0000
# 3 36.9512 17.8687 64.6964 0.0000 -24.1692 0.0000
# 4 0.0000 0.0000 0.0000 22.3998 0.0000 -8.4760
# 5 -41.4616 -30.9445 -24.1692 0.0000 49.1504 0.0000
# 6 0.0000 0.0000 0.0000 -8.4760 0.0000 21.5541
#
#
#
# Elastic Compliance Matrix: (Units=1/GPa)
#
#
# Indices 1 2 3 4 5 6 
#
# 1 0.017619 -0.002591 -0.005396 0.000000 0.010578 0.000000
# 2 -0.002591 0.006787 0.000472 0.000000 0.002319 0.000000
# 3 -0.005396 0.000472 0.020604 0.000000 0.005877 0.000000
# 4 0.000000 0.000000 0.000000 0.052447 0.000000 0.020624
# 5 0.010578 0.002319 0.005877 0.000000 0.033619 0.000000
# 6 0.000000 0.000000 0.000000 0.020624 0.000000 0.054505
#
#
# Mechanical properties :
#
#
# Convention : Reuss Voigt Hill
#
# Bulk Modulus (GPa) = 33.35598 61.12839 47.24218
# Shear Modulus (GPa) = 23.74128 34.35520 29.04824
#
# Velocity S-wave (km/s) = 3.20677 3.85755 3.54712
# Velocity P-wave (km/s) = 5.30651 6.80575 6.10235
#
# Compressibility (1/GPa) = 0.02997963
#
# Stress axis : x y z
#
# Youngs Moduli (GPa) = 56.75787 147.34757 48.53488
#
# Poissons Ratio (x) = 0.38178 0.26187
# Poissons Ratio (y) = 0.14706 -0.02290
# Poissons Ratio (z) = 0.30624 -0.06952
#
# Static dielectric constant tensor:
#      x y z
#    x 1.946470 0.000000 0.021400 
#    y 0.000000 1.833150 0.000000 
#    z 0.021400 0.000000 1.773170 
# 
# From -- ./inp_files/141996.got.cif
#   From: 2010.05.17/outbox.cif.g08.bks.cpg/sg12_71_cif.got.tgz:141996.got - 2010.06.03 13:09:07.
