data_PCOD9217789
_publ_section_title
;
Structure prediction by ZEFSAII (Michael W. Deem and Ramdas Pophale) SiO2 
 PCOD9217789
Probable space group: C 2/M
;
_chemical_formula_sum "Si O2"
_cell_formula_units_Z 32
_cell_length_a 13.636467
_cell_length_b 10.259176
_cell_length_c 14.140066
_cell_angle_alpha 90.000000
_cell_angle_beta 41.996614
_cell_angle_gamma 90.000000
_cell_volume 1323.573831
_symmetry_space_group_name_H-M "C 2/M"
_symmetry_group_IT_number 12
_symmetry_cell_setting 'monoclinic'
loop_
_space_group_symop_operation_xyz
x,y,z
-x,y,-z
-x,-y,-z
x,-y,z
1/2+x,1/2+y,z
1/2-x,1/2+y,-z
1/2-x,1/2-y,-z
1/2+x,1/2-y,z
loop_
_atom_site_type_symbol
_atom_site_label
_atom_site_fract_x
_atom_site_fract_y
_atom_site_fract_z
Si Si1 0.863309 0.350690 0.466464
Si Si2 0.582607 0.361997 0.341278
Si Si3 0.648257 0.645928 0.020387
Si Si4 0.182880 0.801232 0.777730
O O1 0.868690 0.500000 0.427036
O O2 0.750000 0.250000 0.500000
O O3 0.801808 0.357260 0.618493
O O4 0.014581 0.270214 0.347306
O O5 0.500000 0.369804 0.500000
O O6 0.552874 0.500000 0.313322
O O7 0.752296 0.341367 0.244728
O O8 0.674617 0.500000 0.037310
O O9 0.673699 0.640968 0.889131
O O10 0.750000 0.750000 0.000000
O O11 0.477010 0.685313 0.152512
#
# Coordination Sequence:
#
# PCOD9217789 Si02
#       4
#     8   8   8   8
#     4  11  23  39  65 100 137 179 223 271 333 401
#     4   9  20  39  64  94 129 168 215 271 329 390
#     4  11  25  45  70  99 131 175 227 278 334 397
#     4  10  23  45  70  95 135 179 221 274 333 401
#
# _framework density 24.176964999999999
#
# number of rings (size 3 to 8) (size 9 to 14) (size 15 to 20)
#    0.000    1.750    0.000    3.750    3.500    9.500 
#    0.000    2.500    0.000    0.000    0.000    0.000 
#    0.000    0.000    0.000    0.000    0.000    0.000 
#
# Total GULP energy -89260.674420 kJ/mol
# GULP energy per Si atom -5578.792151 kJ/mol
# Density = 2.412194 g / cm^3
# Si number density = 24.176965 Si / 1000 Ang^3
#
#
#
# Elastic Constant Matrix: (Units=GPa)
#
#
# Indices 1 2 3 4 5 6 
#
# 1 115.7908 93.2934 25.1740 0.0000 -15.9791 0.0000
# 2 93.2934 257.0165 34.9012 0.0000 -35.4334 0.0000
# 3 25.1740 34.9012 94.6052 0.0000 2.4626 0.0000
# 4 0.0000 0.0000 0.0000 -34.2074 0.0000 -8.3056
# 5 -15.9791 -35.4334 2.4626 0.0000 60.2951 0.0000
# 6 0.0000 0.0000 0.0000 -8.3056 0.0000 27.6797
#
#
#
# Elastic Compliance Matrix: (Units=1/GPa)
#
#
# Indices 1 2 3 4 5 6 
#
# 1 0.012519 -0.004167 -0.001818 0.000000 0.000943 0.000000
# 2 -0.004167 0.005887 -0.001126 0.000000 0.002401 0.000000
# 3 -0.001818 -0.001126 0.011511 0.000000 -0.001614 0.000000
# 4 0.000000 0.000000 0.000000 -0.027248 0.000000 -0.008176
# 5 0.000943 0.002401 -0.001614 0.000000 0.018312 0.000000
# 6 0.000000 0.000000 0.000000 -0.008176 0.000000 0.033674
#
#
# Mechanical properties :
#
#
# Convention : Reuss Voigt Hill
#
# Bulk Modulus (GPa) = 63.71316 86.01664 74.86490
# Shear Modulus (GPa) = 67.46629 31.68975 49.57802
#
# Velocity S-wave (km/s) = 5.28827 3.62434 4.53330
# Velocity P-wave (km/s) = 7.98109 7.29175 7.64419
#
# Compressibility (1/GPa) = 0.01569534
#
# Stress axis : x y z
#
# Youngs Moduli (GPa) = 79.87540 169.85341 86.87074
#
# Poissons Ratio (x) = 0.70786 0.15797
# Poissons Ratio (y) = 0.33288 0.09778
# Poissons Ratio (z) = 0.14525 0.19117
#
# Static dielectric constant tensor:
#      x y z
#    x 2.022150 0.000000 0.012650 
#    y 0.000000 1.984410 0.000000 
#    z 0.012650 0.000000 1.949070 
# 
# From -- ./inp_files/212313.got.cif
#   From: 2010.05.17/outbox.cif.g08.bks.cpg/sg12_107_cif.got.tgz:212313.got - 2010.06.03 13:09:07.
