data_PCOD9217297
_publ_section_title
;
Structure prediction by ZEFSAII (Michael W. Deem and Ramdas Pophale) SiO2 
 PCOD9217297
Probable space group: C 2/M
;
_chemical_formula_sum "Si O2"
_cell_formula_units_Z 48
_cell_length_a 16.526652
_cell_length_b 15.404274
_cell_length_c 10.802028
_cell_angle_alpha 90.000000
_cell_angle_beta 57.701722
_cell_angle_gamma 90.000000
_cell_volume 2324.507365
_symmetry_space_group_name_H-M "C 2/M"
_symmetry_group_IT_number 12
_symmetry_cell_setting 'monoclinic'
loop_
_space_group_symop_operation_xyz
x,y,z
-x,y,-z
-x,-y,-z
x,-y,z
1/2+x,1/2+y,z
1/2-x,1/2+y,-z
1/2-x,1/2-y,-z
1/2+x,1/2-y,z
loop_
_atom_site_type_symbol
_atom_site_label
_atom_site_fract_x
_atom_site_fract_y
_atom_site_fract_z
Si Si1 0.290643 0.097611 0.681608
Si Si2 0.109436 0.897525 0.370144
Si Si3 0.427232 0.408601 0.173250
Si Si4 0.205402 0.397682 0.615713
Si Si5 0.843215 0.739833 0.836811
Si Si6 0.970565 0.721506 0.167386
O O1 0.177576 0.094149 0.799277
O O2 0.296501 0.116021 0.530432
O O3 0.329538 0.174086 0.733783
O O4 0.330372 0.000000 0.672396
O O5 0.191174 0.878693 0.407511
O O6 0.133874 0.834629 0.236550
O O7 0.000000 0.880622 0.500000
O O8 0.117137 0.000000 0.333784
O O9 0.435255 0.500000 0.239258
O O10 0.442375 0.319286 0.230726
O O11 0.500000 0.410747 0.000000
O O12 0.187146 0.500000 0.652376
O O13 0.120110 0.340158 0.740345
O O14 0.933260 0.701328 0.837356
O O15 0.750000 0.750000 0.000000
O O16 0.000000 0.722929 0.000000
#
# Coordination Sequence:
#
# PCOD9217297 Si02
#       6
#     8   8   8   8   8   8
#     4  10  23  42  66  93 128 172 217 271 325 385
#     4  10  24  45  69 100 136 174 220 278 342 404
#     4   9  18  35  59  87 119 159 208 258 317 381
#     4  10  23  44  68  95 129 173 223 271 328 399
#     4  12  26  42  65 100 136 174 223 275 333 397
#     4  11  24  41  65  95 130 176 218 270 329 392
#
# _framework density 20.649536999999999
#
# number of rings (size 3 to 8) (size 9 to 14) (size 15 to 20)
#    0.000    1.667    0.000    4.000    4.667    3.667 
#    0.000    1.667    0.000    0.000    0.000    0.000 
#    0.000    0.000    0.000    0.000    0.000    0.000 
#
# Total GULP energy -134068.747103 kJ/mol
# GULP energy per Si atom -5586.197796 kJ/mol
# Density = 2.060254 g / cm^3
# Si number density = 20.649537 Si / 1000 Ang^3
#
#
#
# Elastic Constant Matrix: (Units=GPa)
#
#
# Indices 1 2 3 4 5 6 
#
# 1 135.7269 71.0050 60.7115 0.0000 -12.1370 0.0000
# 2 71.0050 100.1025 76.3024 0.0000 -8.3686 0.0000
# 3 60.7115 76.3024 105.1863 0.0000 -14.2631 0.0000
# 4 0.0000 0.0000 0.0000 30.1145 0.0000 -7.7355
# 5 -12.1370 -8.3686 -14.2631 0.0000 30.0787 0.0000
# 6 0.0000 0.0000 0.0000 -7.7355 0.0000 30.6961
#
#
#
# Elastic Compliance Matrix: (Units=1/GPa)
#
#
# Indices 1 2 3 4 5 6 
#
# 1 0.011974 -0.007311 -0.001313 0.000000 0.002175 0.000000
# 2 -0.007311 0.026878 -0.015672 0.000000 -0.002903 0.000000
# 3 -0.001313 -0.015672 0.022411 0.000000 0.005737 0.000000
# 4 0.000000 0.000000 0.000000 0.035505 0.000000 0.008947
# 5 0.002175 -0.002903 0.005737 0.000000 0.036037 0.000000
# 6 0.000000 0.000000 0.000000 0.008947 0.000000 0.034832
#
#
# Mechanical properties :
#
#
# Convention : Reuss Voigt Hill
#
# Bulk Modulus (GPa) = 78.91091 84.11704 81.51397
# Shear Modulus (GPa) = 22.68063 27.04432 24.86248
#
# Velocity S-wave (km/s) = 3.31775 3.62288 3.47366
# Velocity P-wave (km/s) = 7.27832 7.63704 7.45983
#
# Compressibility (1/GPa) = 0.01267252
#
# Stress axis : x y z
#
# Youngs Moduli (GPa) = 83.51269 37.20455 44.62109
#
# Poissons Ratio (x) = 0.27200 0.05859
# Poissons Ratio (y) = 0.61056 0.69928
# Poissons Ratio (z) = 0.10965 0.58306
#
# Static dielectric constant tensor:
#      x y z
#    x 1.633180 0.000000 -0.077000 
#    y 0.000000 1.779290 0.000000 
#    z -0.077000 0.000000 1.698650 
# 
# From -- ./inp_files/143520.got.cif
#   From: 2010.05.17/outbox.cif.g08.bks.cpg/sg12_72_cif.got.tgz:143520.got - 2010.06.03 13:09:07.
