data_PCOD9217866
_publ_section_title
;
Structure prediction by ZEFSAII (Michael W. Deem and Ramdas Pophale) SiO2 
 PCOD9217866
Probable space group: C 2/M
;
_chemical_formula_sum "Si O2"
_cell_formula_units_Z 52
_cell_length_a 16.008074
_cell_length_b 19.382561
_cell_length_c 14.332759
_cell_angle_alpha 90.000000
_cell_angle_beta 29.728368
_cell_angle_gamma 90.000000
_cell_volume 2205.282523
_symmetry_space_group_name_H-M "C 2/M"
_symmetry_group_IT_number 12
_symmetry_cell_setting 'monoclinic'
loop_
_space_group_symop_operation_xyz
x,y,z
-x,y,-z
-x,-y,-z
x,-y,z
1/2+x,1/2+y,z
1/2-x,1/2+y,-z
1/2-x,1/2-y,-z
1/2+x,1/2-y,z
loop_
_atom_site_type_symbol
_atom_site_label
_atom_site_fract_x
_atom_site_fract_y
_atom_site_fract_z
Si Si1 0.808077 0.256631 0.838827
Si Si2 0.121386 0.391553 0.308713
Si Si3 0.407510 0.500000 0.329828
Si Si4 0.237068 0.000000 0.146460
Si Si5 0.710963 0.746673 0.430647
Si Si6 0.631508 0.610009 0.790580
Si Si7 0.296487 0.360645 0.709603
Si Si8 0.509501 0.000000 0.714266
O O1 0.765895 0.333700 0.848722
O O2 0.739363 0.196370 0.840653
O O3 0.008433 0.251033 0.628800
O O4 0.750000 0.250000 0.000000
O O5 0.224146 0.430019 0.289825
O O6 0.036030 0.435352 0.309745
O O7 0.000000 0.353113 0.500000
O O8 0.553337 0.500000 0.268688
O O9 0.425451 0.566578 0.244231
O O10 0.207352 0.500000 0.551703
O O11 0.253266 0.933729 0.198468
O O12 0.381359 0.000000 0.926220
O O13 0.750000 0.750000 0.500000
O O14 0.802022 0.814101 0.300586
O O15 0.762714 0.675151 0.329569
O O16 0.500000 0.615336 0.000000
O O17 0.500000 0.364379 0.500000
#
# Coordination Sequence:
#
# PCOD9217866 Si02
#       8
#     8   8   4   4   8   8   8   4
#     4  11  22  40  69 100 139 187 241 299 372 453
#     4  12  20  42  66  96 144 198 239 309 391 435
#     4  12  26  44  71 118 153 188 257 310 370 465
#     4  12  27  47  80 104 148 211 246 303 383 461
#     4  11  25  43  69 101 140 185 248 311 362 436
#     4  12  25  42  67 107 149 190 246 314 380 450
#     4  10  23  47  72 100 141 199 249 298 379 447
#     4  12  24  42  73 108 151 201 251 312 381 450
#
# _framework density 23.579744000000002
#
# number of rings (size 3 to 8) (size 9 to 14) (size 15 to 20)
#    0.000    0.615    4.615    3.462    6.462    0.000 
#    0.000    0.000    6.769    0.923    0.000    0.000 
#    0.000    0.000    0.000    0.000    0.000    0.000 
#
# Total GULP energy -145028.286704 kJ/mol
# GULP energy per Si atom -5578.011027 kJ/mol
# Density = 2.352608 g / cm^3
# Si number density = 23.579744 Si / 1000 Ang^3
#
#
#
# Elastic Constant Matrix: (Units=GPa)
#
#
# Indices 1 2 3 4 5 6 
#
# 1 113.4838 60.9744 36.4215 -0.0139 25.4387 0.0272
# 2 60.9744 171.5946 50.3787 -0.0171 32.1518 0.0245
# 3 36.4215 50.3787 124.6287 -0.0254 36.8433 0.0232
# 4 -0.0139 -0.0171 -0.0254 18.9700 0.0134 15.2273
# 5 25.4387 32.1518 36.8433 0.0134 44.8785 -0.0244
# 6 0.0272 0.0245 0.0232 15.2273 -0.0244 26.0397
#
#
#
# Elastic Compliance Matrix: (Units=1/GPa)
#
#
# Indices 1 2 3 4 5 6 
#
# 1 0.011636 -0.003169 -0.001110 0.000030 -0.003414 -0.000029
# 2 -0.003169 0.007882 -0.001481 0.000017 -0.002635 -0.000015
# 3 -0.001110 -0.001481 0.011154 0.000056 -0.007467 -0.000047
# 4 0.000030 0.000017 0.000056 0.099351 -0.000136 -0.058098
# 5 -0.003414 -0.002635 -0.007467 -0.000136 0.032235 0.000122
# 6 -0.000029 -0.000015 -0.000047 -0.058098 0.000122 0.072377
#
#
# Mechanical properties :
#
#
# Convention : Reuss Voigt Hill
#
# Bulk Modulus (GPa) = 52.21468 78.36181 65.28825
# Shear Modulus (GPa) = 19.79877 35.43981 27.61929
#
# Velocity S-wave (km/s) = 2.90082 3.88103 3.42616
# Velocity P-wave (km/s) = 5.78028 7.30671 6.58785
#
# Compressibility (1/GPa) = 0.01915170
#
# Stress axis : x y z
#
# Youngs Moduli (GPa) = 85.93850 126.86538 89.65014
#
# Poissons Ratio (x) = 0.40206 0.09953
# Poissons Ratio (y) = 0.27235 0.13280
# Poissons Ratio (z) = 0.09541 0.18792
#
# Static dielectric constant tensor:
#      x y z
#    x 2.113840 -0.000170 -0.210240 
#    y -0.000170 1.925690 0.000090 
#    z -0.210240 0.000090 2.010780 
# 
# From -- ./inp_files/227411.got.cif
#   From: 2010.05.17/outbox.cif.g08.bks.cpg/sg12_114_cif.got.tgz:227411.got - 2010.06.03 13:09:07.
