data_PCOD9217700
_publ_section_title
;
Structure prediction by ZEFSAII (Michael W. Deem and Ramdas Pophale) SiO2 
 PCOD9217700
Probable space group: C 2/M
;
_chemical_formula_sum "Si O2"
_cell_formula_units_Z 48
_cell_length_a 10.851984
_cell_length_b 22.730454
_cell_length_c 9.116753
_cell_angle_alpha 90.000000
_cell_angle_beta 88.816375
_cell_angle_gamma 90.000000
_cell_volume 2248.354393
_symmetry_space_group_name_H-M "C 2/M"
_symmetry_group_IT_number 12
_symmetry_cell_setting 'monoclinic'
loop_
_space_group_symop_operation_xyz
x,y,z
-x,y,-z
-x,-y,-z
x,-y,z
1/2+x,1/2+y,z
1/2-x,1/2+y,-z
1/2-x,1/2-y,-z
1/2+x,1/2-y,z
loop_
_atom_site_type_symbol
_atom_site_label
_atom_site_fract_x
_atom_site_fract_y
_atom_site_fract_z
Si Si1 0.129354 0.434529 0.074111
Si Si2 0.681932 0.330949 0.903366
Si Si3 0.925426 0.170671 0.785963
Si Si4 0.621296 0.910628 0.412534
Si Si5 0.173020 0.275605 0.365672
Si Si6 0.869002 0.066820 0.586413
O O1 0.167966 0.500000 0.023980
O O2 0.228405 0.383521 0.051985
O O3 0.112125 0.434376 0.248989
O O4 0.000000 0.420397 0.000000
O O5 0.560416 0.353049 0.821819
O O6 0.745079 0.288579 0.782548
O O7 0.633388 0.307325 0.059648
O O8 0.925923 0.226529 0.678430
O O9 0.855128 0.117475 0.708446
O O10 0.500000 0.930336 0.500000
O O11 0.621592 0.839501 0.405836
O O12 0.751079 0.928339 0.482444
O O13 0.250000 0.250000 0.500000
O O14 0.000000 0.077253 0.500000
O O15 0.873367 0.000000 0.644922
#
# Coordination Sequence:
#
# PCOD9217700 Si02
#       6
#     8   8   8   8   8   8
#     4  10  23  44  69  93 132 179 220 272 335 403
#     4  10  25  45  63 100 136 171 220 278 333 402
#     4  11  24  42  69  97 135 173 221 273 338 402
#     4  11  25  42  65 101 133 168 227 285 334 397
#     4  11  23  41  69  95 132 175 217 271 333 407
#     4  11  24  42  68  99 136 179 226 284 345 408
#
# _framework density 21.348946000000002
#
# number of rings (size 3 to 8) (size 9 to 14) (size 15 to 20)
#    0.000    1.333    1.667    3.000    4.667    4.000 
#   15.000    1.667    0.000    0.000    0.000    0.000 
#    0.000    0.000    0.000    0.000    0.000    0.000 
#
# Total GULP energy -134033.186389 kJ/mol
# GULP energy per Si atom -5584.716100 kJ/mol
# Density = 2.130035 g / cm^3
# Si number density = 21.348946 Si / 1000 Ang^3
#
#
#
# Elastic Constant Matrix: (Units=GPa)
#
#
# Indices 1 2 3 4 5 6 
#
# 1 122.8865 24.2629 44.1426 0.0000 28.6850 0.0000
# 2 24.2629 116.3269 25.2812 0.0000 20.2650 0.0000
# 3 44.1426 25.2812 77.5332 0.0000 20.9081 0.0000
# 4 0.0000 0.0000 0.0000 0.8986 0.0000 6.0265
# 5 28.6850 20.2650 20.9081 0.0000 43.0037 0.0000
# 6 0.0000 0.0000 0.0000 6.0265 0.0000 17.9021
#
#
#
# Elastic Compliance Matrix: (Units=1/GPa)
#
#
# Indices 1 2 3 4 5 6 
#
# 1 0.011102 -0.000412 -0.004882 0.000000 -0.004838 0.000000
# 2 -0.000412 0.009701 -0.002037 0.000000 -0.003306 0.000000
# 3 -0.004882 -0.002037 0.017499 0.000000 -0.004291 0.000000
# 4 0.000000 0.000000 0.000000 -0.884866 0.000000 0.297879
# 5 -0.004838 -0.003306 -0.004291 0.000000 0.030125 0.000000
# 6 0.000000 0.000000 0.000000 0.297879 0.000000 -0.044418
#
#
# Mechanical properties :
#
#
# Convention : Reuss Voigt Hill
#
# Bulk Modulus (GPa) = 42.30140 56.01332 49.15736
# Shear Modulus (GPa) = -5.96434 27.23155 10.63360
#
# Velocity S-wave (km/s) = -1.67326 3.57535 2.23420
# Velocity P-wave (km/s) = 4.01550 6.58318 5.45263
#
# Compressibility (1/GPa) = 0.02363988
#
# Stress axis : x y z
#
# Youngs Moduli (GPa) = 90.07575 103.08127 57.14747
#
# Poissons Ratio (x) = 0.04245 0.27898
# Poissons Ratio (y) = 0.03710 0.11642
# Poissons Ratio (z) = 0.43973 0.20999
#
# Static dielectric constant tensor:
#      x y z
#    x 1.796170 0.000000 -0.049650 
#    y 0.000000 1.788250 0.000000 
#    z -0.049650 0.000000 1.772390 
# 
# From -- ./inp_files/50694.got.cif
#   From: 2010.05.17/outbox.cif.g08.bks.cpg/sg12_26_cif.got.tgz:50694.got - 2010.06.03 13:09:07.
