data_PCOD9217607
_publ_section_title
;
Structure prediction by ZEFSAII (Michael W. Deem and Ramdas Pophale) SiO2 
 PCOD9217607
Probable space group: C 2/M
;
_chemical_formula_sum "Si O2"
_cell_formula_units_Z 34
_cell_length_a 28.844433
_cell_length_b 7.741089
_cell_length_c 10.318162
_cell_angle_alpha 90.000000
_cell_angle_beta 131.430697
_cell_angle_gamma 90.000000
_cell_volume 1727.375433
_symmetry_space_group_name_H-M "C 2/M"
_symmetry_group_IT_number 12
_symmetry_cell_setting 'monoclinic'
loop_
_space_group_symop_operation_xyz
x,y,z
-x,y,-z
-x,-y,-z
x,-y,z
1/2+x,1/2+y,z
1/2-x,1/2+y,-z
1/2-x,1/2-y,-z
1/2+x,1/2-y,z
loop_
_atom_site_type_symbol
_atom_site_label
_atom_site_fract_x
_atom_site_fract_y
_atom_site_fract_z
Si Si1 0.299403 0.302387 0.701617
Si Si2 0.500000 0.500000 0.500000
Si Si3 0.222537 0.206005 0.809060
Si Si4 0.917707 0.688813 0.417779
Si Si5 0.398883 0.000000 0.870968
Si Si6 0.523853 0.000000 0.251186
O O1 0.319252 0.500000 0.717180
O O2 0.250000 0.250000 0.500000
O O3 0.264365 0.285745 0.773686
O O4 0.355517 0.167608 0.802038
O O5 0.446570 0.347480 0.396500
O O6 0.152987 0.277319 0.676338
O O7 0.221574 0.000000 0.788777
O O8 0.250000 0.250000 0.000000
O O9 0.922333 0.500000 0.359176
O O10 0.956616 0.661272 0.622448
O O11 0.433549 0.000000 0.797083
O O12 0.453183 0.000000 0.077587
#
# Coordination Sequence:
#
# PCOD9217607 Si02
#       6
#     8   2   8   8   4   4
#     4  12  24  43  71 103 135 176 227 282 340 403
#     4  12  22  42  66  94 122 182 228 258 330 408
#     4  12  24  44  68 103 139 179 223 286 350 404
#     4  10  23  44  64  92 133 175 221 272 332 402
#     4  11  22  47  66 101 132 173 230 275 336 400
#     4   9  24  45  69  90 139 179 215 284 333 399
#
# _framework density 19.683040999999999
#
# number of rings (size 3 to 8) (size 9 to 14) (size 15 to 20)
#    0.706    0.235    3.529    3.882    0.000    1.882 
#    8.471    1.176    0.000    0.000    0.000    0.000 
#    0.000    0.000    0.000    0.000    0.000    0.000 
#
# Total GULP energy -94733.022251 kJ/mol
# GULP energy per Si atom -5572.530721 kJ/mol
# Density = 1.963824 g / cm^3
# Si number density = 19.683041 Si / 1000 Ang^3
#
#
#
# Elastic Constant Matrix: (Units=GPa)
#
#
# Indices 1 2 3 4 5 6 
#
# 1 107.4811 50.8206 49.4281 0.0000 22.0692 0.0000
# 2 50.8206 199.8191 36.1482 0.0000 22.3409 0.0000
# 3 49.4281 36.1482 133.5073 0.0000 16.2526 0.0000
# 4 0.0000 0.0000 0.0000 29.7487 0.0000 10.2396
# 5 22.0692 22.3409 16.2526 0.0000 41.8874 0.0000
# 6 0.0000 0.0000 0.0000 10.2396 0.0000 33.8729
#
#
#
# Elastic Compliance Matrix: (Units=1/GPa)
#
#
# Indices 1 2 3 4 5 6 
#
# 1 0.012869 -0.002137 -0.003673 0.000000 -0.004215 0.000000
# 2 -0.002137 0.005850 -0.000577 0.000000 -0.001770 0.000000
# 3 -0.003673 -0.000577 0.009166 0.000000 -0.001314 0.000000
# 4 0.000000 0.000000 0.000000 0.037519 0.000000 -0.011342
# 5 -0.004215 -0.001770 -0.001314 0.000000 0.027548 0.000000
# 6 0.000000 0.000000 0.000000 -0.011342 0.000000 0.032951
#
#
# Mechanical properties :
#
#
# Convention : Reuss Voigt Hill
#
# Bulk Modulus (GPa) = 66.17577 79.28902 72.73240
# Shear Modulus (GPa) = 34.79105 41.39582 38.09344
#
# Velocity S-wave (km/s) = 4.20880 4.59096 4.40403
# Velocity P-wave (km/s) = 7.57049 8.27483 7.93049
#
# Compressibility (1/GPa) = 0.01511127
#
# Stress axis : x y z
#
# Youngs Moduli (GPa) = 77.70569 170.92613 109.09707
#
# Poissons Ratio (x) = 0.36533 0.40067
# Poissons Ratio (y) = 0.16608 0.06298
# Poissons Ratio (z) = 0.28538 0.09867
#
# Static dielectric constant tensor:
#      x y z
#    x 1.682790 0.000000 -0.009030 
#    y 0.000000 1.690670 0.000000 
#    z -0.009030 0.000000 1.681030 
# 
# From -- ./inp_files/108415.got.cif
#   From: 2010.05.17/outbox.cif.g08.bks.cpg/sg12_55_cif.got.tgz:108415.got - 2010.06.03 13:09:07.
