data_PCOD9217021
_publ_section_title
;
Structure prediction by ZEFSAII (Michael W. Deem and Ramdas Pophale) SiO2 
 PCOD9217021
Probable space group: C 2/M
;
_chemical_formula_sum "Si O2"
_cell_formula_units_Z 64
_cell_length_a 15.114617
_cell_length_b 17.931584
_cell_length_c 17.910329
_cell_angle_alpha 90.000000
_cell_angle_beta 41.566414
_cell_angle_gamma 90.000000
_cell_volume 3220.714837
_symmetry_space_group_name_H-M "C 2/M"
_symmetry_group_IT_number 12
_symmetry_cell_setting 'monoclinic'
loop_
_space_group_symop_operation_xyz
x,y,z
-x,y,-z
-x,-y,-z
x,-y,z
1/2+x,1/2+y,z
1/2-x,1/2+y,-z
1/2-x,1/2-y,-z
1/2+x,1/2-y,z
loop_
_atom_site_type_symbol
_atom_site_label
_atom_site_fract_x
_atom_site_fract_y
_atom_site_fract_z
Si Si1 0.774045 0.838951 0.492439
Si Si2 0.269627 0.917231 0.070042
Si Si3 0.116156 0.133037 0.025665
Si Si4 0.344388 0.843388 0.590123
Si Si5 0.248210 0.173438 0.330691
Si Si6 0.561567 0.588404 0.336055
Si Si7 0.319468 0.586582 0.171245
Si Si8 0.517619 0.787612 0.073612
O O1 0.750000 0.750000 0.500000
O O2 0.711090 0.869675 0.455541
O O3 0.713857 0.858660 0.611688
O O4 0.927649 0.865094 0.402967
O O5 0.191806 0.910668 0.041636
O O6 0.163653 0.902990 0.202568
O O7 0.324836 0.000000 0.046088
O O8 0.385175 0.857011 0.994472
O O9 0.972973 0.096562 0.099361
O O10 0.085567 0.217412 0.071362
O O11 0.196392 0.129732 0.897123
O O12 0.500000 0.858091 0.500000
O O13 0.318044 0.754553 0.614519
O O14 0.267618 0.881434 0.706849
O O15 0.141796 0.121350 0.355993
O O16 0.379439 0.188500 0.198396
O O17 0.531809 0.500000 0.363794
O O18 0.291714 0.500000 0.175632
O O19 0.500000 0.759315 0.000000
#
# Coordination Sequence:
#
# PCOD9217021 Si02
#       8
#     8   8   8   8   8   8   8   8
#     4  10  23  41  64  94 125 170 221 268 320 382
#     4  11  25  40  62  97 137 174 211 263 327 390
#     4  11  21  42  63  96 129 170 219 267 315 390
#     4  11  23  42  65  92 131 172 216 269 330 391
#     4  11  22  42  64  93 130 172 221 269 322 383
#     4  11  24  42  68  96 129 172 219 269 325 387
#     4  11  22  38  66  92 126 169 213 268 327 382
#     4  12  22  41  66  96 132 171 216 266 326 390
#
# _framework density 19.871365000000001
#
# number of rings (size 3 to 8) (size 9 to 14) (size 15 to 20)
#    0.000    1.000    3.750    4.500    1.750    4.500 
#    0.000    0.000    0.000    0.000    0.000    0.000 
#    0.000    0.000    0.000    0.000    0.000    0.000 
#
# Total GULP energy -178774.775741 kJ/mol
# GULP energy per Si atom -5586.711742 kJ/mol
# Density = 1.982614 g / cm^3
# Si number density = 19.871365 Si / 1000 Ang^3
#
#
#
# Elastic Constant Matrix: (Units=GPa)
#
#
# Indices 1 2 3 4 5 6 
#
# 1 85.6784 34.3093 59.5547 0.0000 13.5638 0.0000
# 2 34.3093 99.1118 35.1988 0.0000 -11.6333 0.0000
# 3 59.5547 35.1988 119.5609 0.0000 11.0969 0.0001
# 4 0.0000 0.0000 0.0000 42.6080 0.0000 2.6751
# 5 13.5638 -11.6333 11.0969 0.0000 28.2691 -0.0001
# 6 0.0000 0.0000 0.0001 2.6751 -0.0001 26.0778
#
#
#
# Elastic Compliance Matrix: (Units=1/GPa)
#
#
# Indices 1 2 3 4 5 6 
#
# 1 0.020798 -0.005463 -0.007905 0.000000 -0.009125 0.000000
# 2 -0.005463 0.013842 -0.002206 0.000000 0.009184 0.000000
# 3 -0.007905 -0.002206 0.013163 0.000000 -0.002282 0.000000
# 4 0.000000 0.000000 0.000000 0.023622 0.000000 -0.002423
# 5 -0.009125 0.009184 -0.002282 0.000000 0.044427 0.000000
# 6 0.000000 0.000000 0.000000 -0.002423 0.000000 0.038595
#
#
# Mechanical properties :
#
#
# Convention : Reuss Voigt Hill
#
# Bulk Modulus (GPa) = 60.04243 62.49744 61.26993
# Shear Modulus (GPa) = 26.15773 31.07687 28.61730
#
# Velocity S-wave (km/s) = 3.63209 3.95891 3.79902
# Velocity P-wave (km/s) = 6.91886 7.23993 7.08121
#
# Compressibility (1/GPa) = 0.01665489
#
# Stress axis : x y z
#
# Youngs Moduli (GPa) = 48.08083 72.24205 75.97287
#
# Poissons Ratio (x) = 0.39469 0.60053
# Poissons Ratio (y) = 0.26269 0.16761
# Poissons Ratio (z) = 0.38006 0.15938
#
# Static dielectric constant tensor:
#      x y z
#    x 1.698320 0.000000 0.031970 
#    y 0.000000 1.647000 0.000000 
#    z 0.031970 0.000000 1.702780 
# 
# From -- ./inp_files/271699.got.cif
#   From: 2010.05.17/outbox.cif.g08.bks.cpg/sg12_136_cif.got.tgz:271699.got - 2010.06.03 13:09:07.
