data_PCOD9217027
_publ_section_title
;
Structure prediction by ZEFSAII (Michael W. Deem and Ramdas Pophale) SiO2 
 PCOD9217027
Probable space group: C 2/M
;
_chemical_formula_sum "Si O2"
_cell_formula_units_Z 48
_cell_length_a 26.575476
_cell_length_b 20.449313
_cell_length_c 10.587834
_cell_angle_alpha 90.000000
_cell_angle_beta 157.775689
_cell_angle_gamma 90.000000
_cell_volume 2176.341339
_symmetry_space_group_name_H-M "C 2/M"
_symmetry_group_IT_number 12
_symmetry_cell_setting 'monoclinic'
loop_
_space_group_symop_operation_xyz
x,y,z
-x,y,-z
-x,-y,-z
x,-y,z
1/2+x,1/2+y,z
1/2-x,1/2+y,-z
1/2-x,1/2-y,-z
1/2+x,1/2-y,z
loop_
_atom_site_type_symbol
_atom_site_label
_atom_site_fract_x
_atom_site_fract_y
_atom_site_fract_z
Si Si1 0.363456 0.664549 0.726445
Si Si2 0.682232 0.425737 0.009258
Si Si3 0.340894 0.924603 0.115775
Si Si4 0.648449 0.076005 0.344067
Si Si5 0.544364 0.300358 0.782405
Si Si6 0.266338 0.704350 0.242996
O O1 0.244405 0.615717 0.476734
O O2 0.322484 0.711204 0.516138
O O3 0.500000 0.629814 0.000000
O O4 0.401238 0.697137 0.947067
O O5 0.628864 0.500000 0.887320
O O6 0.762971 0.415846 0.067542
O O7 0.788781 0.420512 0.370659
O O8 0.572361 0.371700 0.788313
O O9 0.500000 0.914852 0.500000
O O10 0.320998 0.000000 0.028683
O O11 0.279784 0.870254 0.882756
O O12 0.642548 0.000000 0.292148
O O13 0.500000 0.103223 0.000000
O O14 0.389838 0.282757 0.436571
O O15 0.639355 0.250187 0.931111
#
# Coordination Sequence:
#
# PCOD9217027 Si02
#       6
#     8   8   8   8   8   8
#     4   9  20  38  58  87 125 160 203 250 309 368
#     4   9  20  41  62  84 124 163 205 258 307 367
#     4  10  24  43  64  91 125 166 211 260 310 364
#     4   9  18  31  56  89 117 156 204 253 310 367
#     4  10  23  41  64  96 124 162 206 259 312 367
#     4  11  24  40  64  93 126 167 206 254 313 374
#
# _framework density 22.055364000000001
#
# number of rings (size 3 to 8) (size 9 to 14) (size 15 to 20)
#    0.000    2.333    0.000    0.500    4.667    4.333 
#    0.000    5.833    0.000    0.000    0.000    0.000 
#    0.000    0.000    0.000    0.000    0.000    0.000 
#
# Total GULP energy -134131.006820 kJ/mol
# GULP energy per Si atom -5588.791951 kJ/mol
# Density = 2.200517 g / cm^3
# Si number density = 22.055364 Si / 1000 Ang^3
#
#
#
# Elastic Constant Matrix: (Units=GPa)
#
#
# Indices 1 2 3 4 5 6 
#
# 1 99.0364 44.4100 46.6017 0.0000 10.6943 0.0000
# 2 44.4100 71.8057 48.9662 0.0000 26.2597 0.0000
# 3 46.6017 48.9662 135.7864 0.0000 44.7246 0.0000
# 4 0.0000 0.0000 0.0000 48.9702 0.0000 16.3500
# 5 10.6943 26.2597 44.7246 0.0000 47.7641 0.0000
# 6 0.0000 0.0000 0.0000 16.3500 0.0000 12.5361
#
#
#
# Elastic Compliance Matrix: (Units=1/GPa)
#
#
# Indices 1 2 3 4 5 6 
#
# 1 0.015181 -0.008635 -0.003673 0.000000 0.004788 0.000000
# 2 -0.008635 0.024504 -0.002997 0.000000 -0.008732 0.000000
# 3 -0.003673 -0.002997 0.012858 0.000000 -0.009570 0.000000
# 4 0.000000 0.000000 0.000000 0.036172 0.000000 -0.047176
# 5 0.004788 -0.008732 -0.009570 0.000000 0.033626 0.000000
# 6 0.000000 0.000000 0.000000 -0.047176 0.000000 0.141297
#
#
# Mechanical properties :
#
#
# Convention : Reuss Voigt Hill
#
# Bulk Modulus (GPa) = 45.59352 65.17604 55.38478
# Shear Modulus (GPa) = 16.58055 32.96412 24.77234
#
# Velocity S-wave (km/s) = 2.74482 3.87021 3.35504
# Velocity P-wave (km/s) = 5.54640 7.04178 6.33834
#
# Compressibility (1/GPa) = 0.02193294
#
# Stress axis : x y z
#
# Youngs Moduli (GPa) = 65.87252 40.80953 77.77418
#
# Poissons Ratio (x) = 0.35239 0.28567
# Poissons Ratio (y) = 0.56882 0.23306
# Poissons Ratio (z) = 0.24196 0.12229
#
# Static dielectric constant tensor:
#      x y z
#    x 1.815160 0.000000 -0.018880 
#    y 0.000000 1.787550 0.000000 
#    z -0.018880 0.000000 1.800580 
# 
# From -- ./inp_files/184820.got.cif
#   From: 2010.05.17/outbox.cif.g08.bks.cpg/sg12_93_cif.got.tgz:184820.got - 2010.06.03 13:09:07.
