data_PCOD9217396
_publ_section_title
;
Structure prediction by ZEFSAII (Michael W. Deem and Ramdas Pophale) SiO2 
 PCOD9217396
Probable space group: C 2/M
;
_chemical_formula_sum "Si O2"
_cell_formula_units_Z 40
_cell_length_a 12.389077
_cell_length_b 20.873185
_cell_length_c 12.155007
_cell_angle_alpha 90.000000
_cell_angle_beta 145.379373
_cell_angle_gamma 90.000000
_cell_volume 1785.822494
_symmetry_space_group_name_H-M "C 2/M"
_symmetry_group_IT_number 12
_symmetry_cell_setting 'monoclinic'
loop_
_space_group_symop_operation_xyz
x,y,z
-x,y,-z
-x,-y,-z
x,-y,z
1/2+x,1/2+y,z
1/2-x,1/2+y,-z
1/2-x,1/2-y,-z
1/2+x,1/2-y,z
loop_
_atom_site_type_symbol
_atom_site_label
_atom_site_fract_x
_atom_site_fract_y
_atom_site_fract_z
Si Si1 0.286487 0.324240 0.140819
Si Si2 0.769087 0.927329 0.306735
Si Si3 0.285506 0.633314 0.553194
Si Si4 0.093543 0.689489 0.744709
Si Si5 0.218810 0.070952 0.220845
O O1 0.217663 0.378710 0.166164
O O2 0.499443 0.342542 0.279476
O O3 0.311842 0.254901 0.218707
O O4 0.156946 0.316642 0.925015
O O5 0.719926 0.899474 0.384783
O O6 0.000000 0.929096 0.500000
O O7 0.701300 0.000000 0.234584
O O8 0.277953 0.583338 0.646534
O O9 0.133439 0.688316 0.453526
O O10 0.168769 0.627431 0.744364
O O11 0.291257 0.000000 0.253972
O O12 0.000000 0.074846 0.000000
#
# Coordination Sequence:
#
# PCOD9217396 Si02
#       5
#     8   8   8   8   8
#     4  10  23  43  62  95 131 164 208 257 311 372
#     4   9  20  39  64  91 124 165 204 252 310 369
#     4  11  22  40  67  94 124 166 209 262 311 376
#     4  11  24  41  65  95 126 167 211 257 311 376
#     4  11  24  43  66  92 126 168 212 268 325 378
#
# _framework density 22.398644000000001
#
# number of rings (size 3 to 8) (size 9 to 14) (size 15 to 20)
#    0.000    1.600    2.000    1.800    0.000   11.200 
#    0.000    1.000    0.000    0.000    0.000    0.000 
#    0.000    0.000    0.000    0.000    0.000    0.000 
#
# Total GULP energy -111907.419517 kJ/mol
# GULP energy per Si atom -5595.370976 kJ/mol
# Density = 2.234766 g / cm^3
# Si number density = 22.398644 Si / 1000 Ang^3
#
#
#
# Elastic Constant Matrix: (Units=GPa)
#
#
# Indices 1 2 3 4 5 6 
#
# 1 53.9049 25.2757 13.0679 0.0000 -5.9074 0.0000
# 2 25.2757 129.5284 3.0281 0.0000 -4.0518 0.0000
# 3 13.0679 3.0281 74.1915 0.0000 6.3427 0.0000
# 4 0.0000 0.0000 0.0000 10.8232 0.0000 -6.5503
# 5 -5.9074 -4.0518 6.3427 0.0000 39.8923 0.0000
# 6 0.0000 0.0000 0.0000 -6.5503 0.0000 30.0749
#
#
#
# Elastic Compliance Matrix: (Units=1/GPa)
#
#
# Indices 1 2 3 4 5 6 
#
# 1 0.021790 -0.004052 -0.003967 0.000000 0.003446 0.000000
# 2 -0.004052 0.008509 0.000348 0.000000 0.000209 0.000000
# 3 -0.003967 0.000348 0.014406 0.000000 -0.002843 0.000000
# 4 0.000000 0.000000 0.000000 0.106422 0.000000 0.023179
# 5 0.003446 0.000209 -0.002843 0.000000 0.026051 0.000000
# 6 0.000000 0.000000 0.000000 0.023179 0.000000 0.038299
#
#
# Mechanical properties :
#
#
# Convention : Reuss Voigt Hill
#
# Bulk Modulus (GPa) = 34.05410 37.81870 35.93640
# Shear Modulus (GPa) = 20.78079 30.57494 25.67786
#
# Velocity S-wave (km/s) = 3.04924 3.69865 3.38953
# Velocity P-wave (km/s) = 5.25678 5.92967 5.60334
#
# Compressibility (1/GPa) = 0.02936504
#
# Stress axis : x y z
#
# Youngs Moduli (GPa) = 45.89180 117.51830 69.41437
#
# Poissons Ratio (x) = 0.47613 0.27539
# Poissons Ratio (y) = 0.18593 -0.02419
# Poissons Ratio (z) = 0.18207 -0.04095
#
# Static dielectric constant tensor:
#      x y z
#    x 1.795960 0.000000 0.023580 
#    y 0.000000 1.823530 0.000000 
#    z 0.023580 0.000000 1.827330 
# 
# From -- ./inp_files/134165.got.cif
#   From: 2010.05.17/outbox.cif.g08.bks.cpg/sg12_68_cif.got.tgz:134165.got - 2010.06.03 13:09:07.
