data_PCOD9217675
_publ_section_title
;
Structure prediction by ZEFSAII (Michael W. Deem and Ramdas Pophale) SiO2 
 PCOD9217675
Probable space group: C 2/M
;
_chemical_formula_sum "Si O2"
_cell_formula_units_Z 56
_cell_length_a 11.428497
_cell_length_b 18.958331
_cell_length_c 13.951907
_cell_angle_alpha 90.000000
_cell_angle_beta 64.766446
_cell_angle_gamma 90.000000
_cell_volume 2734.441254
_symmetry_space_group_name_H-M "C 2/M"
_symmetry_group_IT_number 12
_symmetry_cell_setting 'monoclinic'
loop_
_space_group_symop_operation_xyz
x,y,z
-x,y,-z
-x,-y,-z
x,-y,z
1/2+x,1/2+y,z
1/2-x,1/2+y,-z
1/2-x,1/2-y,-z
1/2+x,1/2-y,z
loop_
_atom_site_type_symbol
_atom_site_label
_atom_site_fract_x
_atom_site_fract_y
_atom_site_fract_z
Si Si1 0.461457 0.077743 0.213636
Si Si2 0.360906 0.420691 0.500410
Si Si3 0.617467 0.162327 0.033390
Si Si4 0.244798 0.311427 0.689566
Si Si5 0.582131 0.082212 0.378925
Si Si6 0.152011 0.156631 0.695880
Si Si7 0.620793 0.302535 0.159515
O O1 0.584524 0.091927 0.103763
O O2 0.364088 0.140222 0.223933
O O3 0.498418 0.084850 0.311951
O O4 0.406979 0.000000 0.215521
O O5 0.500000 0.427585 0.500000
O O6 0.301554 0.500000 0.520002
O O7 0.292086 0.361984 0.588615
O O8 0.372154 0.388517 0.391168
O O9 0.616574 0.226439 0.110149
O O10 0.500000 0.175057 0.000000
O O11 0.756472 0.160551 0.933605
O O12 0.187049 0.239008 0.669352
O O13 0.348507 0.295970 0.737330
O O14 0.500000 0.109083 0.500000
O O15 0.715241 0.122871 0.311836
O O16 0.612263 0.000000 0.388245
O O17 0.018055 0.159199 0.801889
#
# Coordination Sequence:
#
# PCOD9217675 Si02
#       7
#     8   8   8   8   8   8   8
#     4  11  23  41  65  95 132 174 226 273 326 403
#     4  11  24  41  61  92 137 174 210 268 335 399
#     4  11  22  43  66  95 132 176 219 279 344 396
#     4  12  23  42  64  98 128 175 222 275 331 394
#     4  10  23  44  68  95 133 180 222 267 329 402
#     4  12  23  40  70  97 131 172 227 279 328 396
#     4  11  23  41  67  99 131 163 226 281 341 389
#
# _framework density 20.479503999999999
#
# number of rings (size 3 to 8) (size 9 to 14) (size 15 to 20)
#    0.000    0.857    4.286    3.000    0.000    3.143 
#    0.000    1.429    0.000    1.714    0.000    0.000 
#    0.000    0.000    0.000    0.000    0.000    0.000 
#
# Total GULP energy -156300.029947 kJ/mol
# GULP energy per Si atom -5582.143927 kJ/mol
# Density = 2.043289 g / cm^3
# Si number density = 20.479504 Si / 1000 Ang^3
#
#
#
# Elastic Constant Matrix: (Units=GPa)
#
#
# Indices 1 2 3 4 5 6 
#
# 1 78.8443 34.4027 17.8431 0.0000 -13.0919 0.0000
# 2 34.4027 108.5491 31.1342 0.0000 -4.3862 0.0000
# 3 17.8431 31.1342 71.7615 0.0000 -17.3046 0.0000
# 4 0.0000 0.0000 0.0000 31.5359 0.0000 -14.0226
# 5 -13.0919 -4.3862 -17.3046 0.0000 41.5882 0.0000
# 6 0.0000 0.0000 0.0000 -14.0226 0.0000 57.1156
#
#
#
# Elastic Compliance Matrix: (Units=1/GPa)
#
#
# Indices 1 2 3 4 5 6 
#
# 1 0.015522 -0.004486 -0.000943 0.000000 0.004021 0.000000
# 2 -0.004486 0.011847 -0.004517 0.000000 -0.002042 0.000000
# 3 -0.000943 -0.004517 0.017721 0.000000 0.006600 0.000000
# 4 0.000000 0.000000 0.000000 0.035596 0.000000 0.008739
# 5 0.004021 -0.002042 0.006600 0.000000 0.027842 0.000000
# 6 0.000000 0.000000 0.000000 0.008739 0.000000 0.019654
#
#
# Mechanical properties :
#
#
# Convention : Reuss Voigt Hill
#
# Bulk Modulus (GPa) = 39.68804 47.32387 43.50596
# Shear Modulus (GPa) = 31.95415 37.76629 34.86022
#
# Velocity S-wave (km/s) = 3.95435 4.29896 4.13025
# Velocity P-wave (km/s) = 6.34591 6.91372 6.63589
#
# Compressibility (1/GPa) = 0.02519651
#
# Stress axis : x y z
#
# Youngs Moduli (GPa) = 64.42516 84.40718 56.43032
#
# Poissons Ratio (x) = 0.37868 0.05324
# Poissons Ratio (y) = 0.28903 0.25490
# Poissons Ratio (z) = 0.06079 0.38127
#
# Static dielectric constant tensor:
#      x y z
#    x 1.779560 0.000000 -0.036120 
#    y 0.000000 1.708810 0.000000 
#    z -0.036120 0.000000 1.778520 
# 
# From -- ./inp_files/206568.got.cif
#   From: 2010.05.17/outbox.cif.g08.bks.cpg/sg12_104_cif.got.tgz:206568.got - 2010.06.03 13:09:07.
