data_PCOD9217508
_publ_section_title
;
Structure prediction by ZEFSAII (Michael W. Deem and Ramdas Pophale) SiO2 
 PCOD9217508
Probable space group: C 2/M
;
_chemical_formula_sum "Si O2"
_cell_formula_units_Z 56
_cell_length_a 33.738679
_cell_length_b 18.810729
_cell_length_c 9.793720
_cell_angle_alpha 90.000000
_cell_angle_beta 26.098995
_cell_angle_gamma 90.000000
_cell_volume 2734.377459
_symmetry_space_group_name_H-M "C 2/M"
_symmetry_group_IT_number 12
_symmetry_cell_setting 'monoclinic'
loop_
_space_group_symop_operation_xyz
x,y,z
-x,y,-z
-x,-y,-z
x,-y,z
1/2+x,1/2+y,z
1/2-x,1/2+y,-z
1/2-x,1/2-y,-z
1/2+x,1/2-y,z
loop_
_atom_site_type_symbol
_atom_site_label
_atom_site_fract_x
_atom_site_fract_y
_atom_site_fract_z
Si Si1 0.997277 0.122081 0.165965
Si Si2 0.693148 0.584835 0.107196
Si Si3 0.808927 0.079199 0.362612
Si Si4 0.443333 0.215216 0.051436
Si Si5 0.308752 0.918228 0.011216
Si Si6 0.240662 0.813121 0.708506
Si Si7 0.915072 0.302299 0.836414
O O1 0.904399 0.101977 0.525606
O O2 0.084200 0.090335 0.972483
O O3 0.014309 0.206995 0.107518
O O4 0.000000 0.096761 0.000000
O O5 0.696823 0.500000 0.064477
O O6 0.768660 0.600981 0.988431
O O7 0.712125 0.635780 0.920899
O O8 0.774000 0.086680 0.625152
O O9 0.760597 0.137323 0.420743
O O10 0.785640 0.000000 0.387645
O O11 0.339552 0.220112 0.420273
O O12 0.500000 0.181756 0.000000
O O13 0.441199 0.178154 0.910441
O O14 0.338265 0.000000 0.916434
O O15 0.384995 0.868157 0.836538
O O16 0.167411 0.752420 0.910155
O O17 0.000000 0.266745 0.500000
#
# Coordination Sequence:
#
# PCOD9217508 Si02
#       7
#     8   8   8   8   8   8   8
#     4  11  21  38  64  97 132 173 223 270 327 398
#     4  11  25  42  65 100 141 176 217 273 334 398
#     4  11  21  38  66  93 129 178 219 265 327 396
#     4  11  25  43  67  97 133 173 218 276 336 390
#     4  10  23  43  67  94 126 177 224 267 328 390
#     4  12  25  43  66  97 137 175 217 272 333 395
#     4  12  25  43  68  98 131 171 223 275 324 388
#
# _framework density 20.479982
#
# number of rings (size 3 to 8) (size 9 to 14) (size 15 to 20)
#    0.000    0.857    4.286    3.000    4.000    1.429 
#    0.000    1.429    0.000    2.143    0.000    0.000 
#    0.000    0.000    0.000    0.000    0.000    0.000 
#
# Total GULP energy -156560.388946 kJ/mol
# GULP energy per Si atom -5591.442462 kJ/mol
# Density = 2.043337 g / cm^3
# Si number density = 20.479982 Si / 1000 Ang^3
#
#
#
# Elastic Constant Matrix: (Units=GPa)
#
#
# Indices 1 2 3 4 5 6 
#
# 1 124.0111 42.5267 29.9842 0.0000 -2.7115 0.0000
# 2 42.5267 68.5984 0.1972 0.0000 2.2255 0.0000
# 3 29.9842 0.1972 68.9450 0.0000 -0.2898 0.0000
# 4 0.0000 0.0000 0.0000 18.1121 0.0000 2.0281
# 5 -2.7115 2.2255 -0.2898 0.0000 33.8733 0.0000
# 6 0.0000 0.0000 0.0000 2.0281 0.0000 19.7910
#
#
#
# Elastic Compliance Matrix: (Units=1/GPa)
#
#
# Indices 1 2 3 4 5 6 
#
# 1 0.011870 -0.007389 -0.005135 0.000000 0.001392 0.000000
# 2 -0.007389 0.019208 0.003151 0.000000 -0.001827 0.000000
# 3 -0.005135 0.003151 0.016727 0.000000 -0.000475 0.000000
# 4 0.000000 0.000000 0.000000 0.055853 0.000000 -0.005723
# 5 0.001392 -0.001827 -0.000475 0.000000 0.029749 0.000000
# 6 0.000000 0.000000 0.000000 -0.005723 0.000000 0.051114
#
#
# Mechanical properties :
#
#
# Convention : Reuss Voigt Hill
#
# Bulk Modulus (GPa) = 34.41361 45.21897 39.81629
# Shear Modulus (GPa) = 23.47932 26.94504 25.21218
#
# Velocity S-wave (km/s) = 3.38960 3.63116 3.51246
# Velocity P-wave (km/s) = 5.67091 6.30143 5.99446
#
# Compressibility (1/GPa) = 0.02905827
#
# Stress axis : x y z
#
# Youngs Moduli (GPa) = 84.24840 52.06053 59.78512
#
# Poissons Ratio (x) = 0.38467 0.30700
# Poissons Ratio (y) = 0.62250 -0.18837
# Poissons Ratio (z) = 0.43263 -0.16403
#
# Static dielectric constant tensor:
#      x y z
#    x 1.735270 0.000000 0.001150 
#    y 0.000000 1.725850 0.000000 
#    z 0.001150 0.000000 1.729570 
# 
# From -- ./inp_files/113334.got.cif
#   From: 2010.05.17/outbox.cif.g08.bks.cpg/sg12_57_cif.got.tgz:113334.got - 2010.06.03 13:09:07.
