data_PCOD9217974
_publ_section_title
;
Structure prediction by ZEFSAII (Michael W. Deem and Ramdas Pophale) SiO2 
 PCOD9217974
Probable space group: C 2/M
;
_chemical_formula_sum "Si O2"
_cell_formula_units_Z 36
_cell_length_a 14.012131
_cell_length_b 25.019305
_cell_length_c 5.163061
_cell_angle_alpha 90.000000
_cell_angle_beta 76.802448
_cell_angle_gamma 90.000000
_cell_volume 1762.228386
_symmetry_space_group_name_H-M "C 2/M"
_symmetry_group_IT_number 12
_symmetry_cell_setting 'monoclinic'
loop_
_space_group_symop_operation_xyz
x,y,z
-x,y,-z
-x,-y,-z
x,-y,z
1/2+x,1/2+y,z
1/2-x,1/2+y,-z
1/2-x,1/2-y,-z
1/2+x,1/2-y,z
loop_
_atom_site_type_symbol
_atom_site_label
_atom_site_fract_x
_atom_site_fract_y
_atom_site_fract_z
Si Si1 0.430089 0.000000 0.797601
Si Si2 0.612435 0.666732 0.984167
Si Si3 0.265062 0.650082 0.612071
Si Si4 0.387886 0.790633 0.989875
Si Si5 0.614933 0.108572 0.362355
O O1 0.500000 0.000000 0.500000
O O2 0.371700 0.944557 0.815291
O O3 0.500000 0.000000 0.000000
O O4 0.666871 0.662591 0.675519
O O5 0.614572 0.728612 0.079846
O O6 0.500000 0.651650 0.000000
O O7 0.668356 0.636291 0.180554
O O8 0.192477 0.698479 0.739628
O O9 0.186173 0.606300 0.564352
O O10 0.500000 0.802031 0.000000
O O11 0.363065 0.835538 0.794073
O O12 0.500000 0.111603 0.500000
#
# Coordination Sequence:
#
# PCOD9217974 Si02
#       5
#     4   8   8   8   8
#     4  10  24  40  60  88 129 161 193 243 302 368
#     4  11  26  39  57  84 123 162 208 251 292 341
#     4  12  23  39  60  86 119 164 202 246 295 356
#     4  11  22  36  59  88 125 161 198 240 297 367
#     4  11  23  38  63  90 126 159 200 240 303 367
#
# _framework density 20.42868
#
# number of rings (size 3 to 8) (size 9 to 14) (size 15 to 20)
#    0.000    0.889    4.444    2.667    6.222    0.000 
#    0.000    0.000    0.000    0.000    0.000    4.667 
#    0.000    0.000    0.000    0.000    0.000    0.000 
#
# Total GULP energy -100485.899257 kJ/mol
# GULP energy per Si atom -5582.549959 kJ/mol
# Density = 2.038218 g / cm^3
# Si number density = 20.428680 Si / 1000 Ang^3
#
#
#
# Elastic Constant Matrix: (Units=GPa)
#
#
# Indices 1 2 3 4 5 6 
#
# 1 189.8249 20.5407 74.0172 0.0000 12.2793 0.0000
# 2 20.5407 31.6135 15.7090 0.0000 17.2112 0.0000
# 3 74.0172 15.7090 112.8376 0.0000 8.5709 0.0000
# 4 0.0000 0.0000 0.0000 18.5551 0.0000 7.5725
# 5 12.2793 17.2112 8.5709 0.0000 49.3068 0.0000
# 6 0.0000 0.0000 0.0000 7.5725 0.0000 6.2221
#
#
#
# Elastic Compliance Matrix: (Units=1/GPa)
#
#
# Indices 1 2 3 4 5 6 
#
# 1 0.007263 -0.002419 -0.004413 0.000000 -0.000197 0.000000
# 2 -0.002419 0.042208 -0.003259 0.000000 -0.013564 0.000000
# 3 -0.004413 -0.003259 0.012202 0.000000 0.000115 0.000000
# 4 0.000000 0.000000 0.000000 0.107075 0.000000 -0.130313
# 5 -0.000197 -0.013564 0.000115 0.000000 0.025045 0.000000
# 6 0.000000 0.000000 0.000000 -0.130313 0.000000 0.319312
#
#
# Mechanical properties :
#
#
# Convention : Reuss Voigt Hill
#
# Bulk Modulus (GPa) = 24.10123 61.64552 42.87338
# Shear Modulus (GPa) = 9.13882 29.75075 19.44479
#
# Velocity S-wave (km/s) = 2.11737 3.82032 3.08853
# Velocity P-wave (km/s) = 4.21912 7.04991 5.80957
#
# Compressibility (1/GPa) = 0.04149165
#
# Stress axis : x y z
#
# Youngs Moduli (GPa) = 137.68226 23.69217 81.95584
#
# Poissons Ratio (x) = 0.05731 0.36163
# Poissons Ratio (y) = 0.33307 0.26709
# Poissons Ratio (z) = 0.60753 0.07721
#
# Static dielectric constant tensor:
#      x y z
#    x 1.762770 0.000000 0.020390 
#    y 0.000000 1.753160 0.000000 
#    z 0.020390 0.000000 1.807600 
# 
# From -- ./inp_files/11861.got.cif
#   From: 2010.05.17/outbox.cif.g08.bks.cpg/sg12_6_cif.got.tgz:11861.got - 2010.06.03 13:09:07.
