data_PCOD9217232
_publ_section_title
;
Structure prediction by ZEFSAII (Michael W. Deem and Ramdas Pophale) SiO2 
 PCOD9217232
Probable space group: C 2/M
;
_chemical_formula_sum "Si O2"
_cell_formula_units_Z 64
_cell_length_a 29.841827
_cell_length_b 17.056555
_cell_length_c 12.184062
_cell_angle_alpha 90.000000
_cell_angle_beta 29.822701
_cell_angle_gamma 90.000000
_cell_volume 3084.201729
_symmetry_space_group_name_H-M "C 2/M"
_symmetry_group_IT_number 12
_symmetry_cell_setting 'monoclinic'
loop_
_space_group_symop_operation_xyz
x,y,z
-x,y,-z
-x,-y,-z
x,-y,z
1/2+x,1/2+y,z
1/2-x,1/2+y,-z
1/2-x,1/2-y,-z
1/2+x,1/2-y,z
loop_
_atom_site_type_symbol
_atom_site_label
_atom_site_fract_x
_atom_site_fract_y
_atom_site_fract_z
Si Si1 0.259588 0.910651 0.077043
Si Si2 0.102143 0.877264 0.249400
Si Si3 0.371199 0.656924 0.042895
Si Si4 0.759382 0.193316 0.664806
Si Si5 0.403090 0.202193 0.670773
Si Si6 0.754549 0.410638 0.517397
Si Si7 0.944159 0.585802 0.230929
Si Si8 0.446008 0.246913 0.333764
O O1 0.167523 0.909579 0.203240
O O2 0.249558 0.865651 0.213474
O O3 0.288948 0.000000 0.031284
O O4 0.327947 0.860334 0.857797
O O5 0.110391 0.782301 0.233293
O O6 0.000000 0.896502 0.500000
O O7 0.128669 0.895365 0.068043
O O8 0.302807 0.730987 0.182617
O O9 0.334950 0.608922 0.223788
O O10 0.470894 0.693538 0.842173
O O11 0.733766 0.149550 0.607115
O O12 0.863269 0.220840 0.438347
O O13 0.500000 0.169709 0.500000
O O14 0.407033 0.231813 0.537969
O O15 0.753088 0.500000 0.478927
O O16 0.839591 0.404734 0.419324
O O17 0.955823 0.500000 0.259921
O O18 0.975381 0.660958 0.231504
O O19 0.000000 0.584833 0.000000
#
# Coordination Sequence:
#
# PCOD9217232 Si02
#       8
#     8   8   8   8   8   8   8   8
#     4  12  25  39  65  99 132 172 210 261 332 391
#     4  11  21  43  67  94 127 169 218 267 314 375
#     4  12  23  41  71  97 125 173 226 265 320 388
#     4  12  23  42  64  96 130 171 220 267 319 392
#     4  11  21  42  64  94 129 165 211 262 323 382
#     4  11  26  45  63  94 137 172 213 274 333 378
#     4  10  23  42  64  95 132 169 215 274 333 384
#     4  12  23  38  70  97 124 170 222 268 317 390
#
# _framework density 20.750913000000001
#
# number of rings (size 3 to 8) (size 9 to 14) (size 15 to 20)
#    0.000    0.625    6.250    2.625    1.750    1.500 
#    0.000    6.250    0.000    0.000    0.000    0.000 
#    0.000    0.000    0.000    0.000    0.000    0.000 
#
# Total GULP energy -178946.594725 kJ/mol
# GULP energy per Si atom -5592.081085 kJ/mol
# Density = 2.070368 g / cm^3
# Si number density = 20.750913 Si / 1000 Ang^3
#
#
#
# Elastic Constant Matrix: (Units=GPa)
#
#
# Indices 1 2 3 4 5 6 
#
# 1 23.6698 -6.3685 -9.1070 0.0000 3.9960 0.0000
# 2 -6.3685 50.7272 12.2194 0.0000 -3.1592 0.0000
# 3 -9.1070 12.2194 61.3498 0.0000 6.3142 0.0000
# 4 0.0000 0.0000 0.0000 6.6083 0.0000 4.3501
# 5 3.9960 -3.1592 6.3142 0.0000 33.3595 0.0000
# 6 0.0000 0.0000 0.0000 4.3501 0.0000 11.5674
#
#
#
# Elastic Compliance Matrix: (Units=1/GPa)
#
#
# Indices 1 2 3 4 5 6 
#
# 1 0.047044 0.003835 0.006896 0.000000 -0.006577 0.000000
# 2 0.003835 0.021278 -0.003905 0.000000 0.002295 0.000000
# 3 0.006896 -0.003905 0.018587 0.000000 -0.004714 0.000000
# 4 0.000000 0.000000 0.000000 0.201110 0.000000 -0.075630
# 5 -0.006577 0.002295 -0.004714 0.000000 0.031874 0.000000
# 6 0.000000 0.000000 0.000000 -0.075630 0.000000 0.114892
#
#
# Mechanical properties :
#
#
# Convention : Reuss Voigt Hill
#
# Bulk Modulus (GPa) = 9.94414 14.35939 12.15177
# Shear Modulus (GPa) = 10.99743 19.57390 15.28567
#
# Velocity S-wave (km/s) = 2.30461 3.07462 2.71703
# Velocity P-wave (km/s) = 3.44735 4.42032 3.96380
#
# Compressibility (1/GPa) = 0.10056171
#
# Stress axis : x y z
#
# Youngs Moduli (GPa) = 21.25690 46.99612 53.80211
#
# Poissons Ratio (x) = -0.18024 -0.37104
# Poissons Ratio (y) = -0.08153 0.21010
# Poissons Ratio (z) = -0.14659 0.18352
#
# Static dielectric constant tensor:
#      x y z
#    x 1.772830 0.000000 -0.001370 
#    y 0.000000 1.743470 0.000000 
#    z -0.001370 0.000000 1.745520 
# 
# From -- ./inp_files/190020.got.cif
#   From: 2010.05.17/outbox.cif.g08.bks.cpg/sg12_96_cif.got.tgz:190020.got - 2010.06.03 13:09:07.
