data_PCOD9217041
_publ_section_title
;
Structure prediction by ZEFSAII (Michael W. Deem and Ramdas Pophale) SiO2 
 PCOD9217041
Probable space group: C 2/M
;
_chemical_formula_sum "Si O2"
_cell_formula_units_Z 32
_cell_length_a 21.572919
_cell_length_b 10.069361
_cell_length_c 10.088982
_cell_angle_alpha 90.000000
_cell_angle_beta 38.104547
_cell_angle_gamma 90.000000
_cell_volume 1352.422970
_symmetry_space_group_name_H-M "C 2/M"
_symmetry_group_IT_number 12
_symmetry_cell_setting 'monoclinic'
loop_
_space_group_symop_operation_xyz
x,y,z
-x,y,-z
-x,-y,-z
x,-y,z
1/2+x,1/2+y,z
1/2-x,1/2+y,-z
1/2-x,1/2-y,-z
1/2+x,1/2-y,z
loop_
_atom_site_type_symbol
_atom_site_label
_atom_site_fract_x
_atom_site_fract_y
_atom_site_fract_z
Si Si1 0.861665 0.262194 0.480079
Si Si2 0.620516 0.646918 0.272476
Si Si3 0.646588 0.356740 0.783760
Si Si4 0.414690 0.847438 0.894748
O O1 0.836125 0.184830 0.657677
O O2 0.766717 0.349885 0.599232
O O3 0.877873 0.164076 0.329006
O O4 0.964810 0.340524 0.329521
O O5 0.500000 0.640415 0.500000
O O6 0.653439 0.500000 0.172366
O O7 0.634673 0.761512 0.140341
O O8 0.609499 0.500000 0.894174
O O9 0.605692 0.233369 0.936421
O O10 0.382714 0.000000 0.952899
#
# Coordination Sequence:
#
# PCOD9217041 Si02
#       4
#     8   8   8   8
#     4  10  23  41  65  91 123 160 204 254 305 361
#     4   9  19  38  64  91 120 158 204 253 304 359
#     4  11  24  41  64  93 124 162 205 250 304 364
#     4  11  24  41  63  92 125 162 204 251 304 362
#
# _framework density 23.661235999999999
#
# number of rings (size 3 to 8) (size 9 to 14) (size 15 to 20)
#    0.000    1.750    0.000    3.000    0.000   17.500 
#    0.000    0.000    0.000    0.000    0.000    0.000 
#    0.000    0.000    0.000    0.000    0.000    0.000 
#
# Total GULP energy -89559.782388 kJ/mol
# GULP energy per Si atom -5597.486399 kJ/mol
# Density = 2.360738 g / cm^3
# Si number density = 23.661236 Si / 1000 Ang^3
#
#
#
# Elastic Constant Matrix: (Units=GPa)
#
#
# Indices 1 2 3 4 5 6 
#
# 1 142.6068 61.3239 24.2288 0.0000 25.3476 0.0000
# 2 61.3239 233.0909 50.0671 0.0000 32.6819 0.0000
# 3 24.2288 50.0671 79.5255 0.0000 10.5843 0.0000
# 4 0.0000 0.0000 0.0000 26.1213 0.0000 10.1137
# 5 25.3476 32.6819 10.5843 0.0000 49.3888 0.0000
# 6 0.0000 0.0000 0.0000 10.1137 0.0000 0.8925
#
#
#
# Elastic Compliance Matrix: (Units=1/GPa)
#
#
# Indices 1 2 3 4 5 6 
#
# 1 0.008415 -0.001530 -0.001195 0.000000 -0.003051 0.000000
# 2 -0.001530 0.005612 -0.002756 0.000000 -0.002338 0.000000
# 3 -0.001195 -0.002756 0.014771 0.000000 -0.000728 0.000000
# 4 0.000000 0.000000 0.000000 -0.011302 0.000000 0.128066
# 5 -0.003051 -0.002338 -0.000728 0.000000 0.023517 0.000000
# 6 0.000000 0.000000 0.000000 0.128066 0.000000 -0.330763
#
#
# Mechanical properties :
#
#
# Convention : Reuss Voigt Hill
#
# Bulk Modulus (GPa) = 56.06255 80.71810 68.39033
# Shear Modulus (GPa) = -18.32558 36.58742 9.13092
#
# Velocity S-wave (km/s) = -2.78600 3.93657 1.96657
# Velocity P-wave (km/s) = 3.66008 7.40610 5.84151
#
# Compressibility (1/GPa) = 0.01783722
#
# Stress axis : x y z
#
# Youngs Moduli (GPa) = 118.83127 178.17478 67.70106
#
# Poissons Ratio (x) = 0.27253 0.08089
# Poissons Ratio (y) = 0.18176 0.18660
# Poissons Ratio (z) = 0.14199 0.49109
#
# Static dielectric constant tensor:
#      x y z
#    x 1.885930 0.000000 -0.051010 
#    y 0.000000 1.849680 0.000000 
#    z -0.051010 0.000000 1.918600 
# 
# From -- ./inp_files/138729.got.cif
#   From: 2010.05.17/outbox.cif.g08.bks.cpg/sg12_70_cif.got.tgz:138729.got - 2010.06.03 13:09:07.
