data_PCOD9217528
_publ_section_title
;
Structure prediction by ZEFSAII (Michael W. Deem and Ramdas Pophale) SiO2 
 PCOD9217528
Probable space group: C 2/M
;
_chemical_formula_sum "Si O2"
_cell_formula_units_Z 64
_cell_length_a 17.561007
_cell_length_b 31.245104
_cell_length_c 10.895015
_cell_angle_alpha 90.000000
_cell_angle_beta 31.406890
_cell_angle_gamma 90.000000
_cell_volume 3115.232912
_symmetry_space_group_name_H-M "C 2/M"
_symmetry_group_IT_number 12
_symmetry_cell_setting 'monoclinic'
loop_
_space_group_symop_operation_xyz
x,y,z
-x,y,-z
-x,-y,-z
x,-y,z
1/2+x,1/2+y,z
1/2-x,1/2+y,-z
1/2-x,1/2-y,-z
1/2+x,1/2-y,z
loop_
_atom_site_type_symbol
_atom_site_label
_atom_site_fract_x
_atom_site_fract_y
_atom_site_fract_z
Si Si1 0.653756 0.234027 0.288963
Si Si2 0.634005 0.619134 0.545331
Si Si3 0.451325 0.549602 0.928934
Si Si4 0.103937 0.186406 0.173998
Si Si5 0.423165 0.861728 0.222359
Si Si6 0.145249 0.449824 0.231518
Si Si7 0.837919 0.266192 0.260347
Si Si8 0.215311 0.382792 0.927848
O O1 0.500000 0.209311 0.500000
O O2 0.608897 0.270238 0.249114
O O3 0.725444 0.259706 0.303263
O O4 0.781097 0.200120 0.086993
O O5 0.525642 0.581697 0.731483
O O6 0.545897 0.664414 0.664360
O O7 0.766679 0.617882 0.461482
O O8 0.708377 0.611392 0.310109
O O9 0.492722 0.500000 0.849143
O O10 0.500000 0.560317 0.000000
O O11 0.278965 0.553302 0.142808
O O12 0.177310 0.149650 0.153043
O O13 0.376645 0.814949 0.239853
O O14 0.500000 0.884527 0.000000
O O15 0.555003 0.860866 0.135470
O O16 0.123917 0.500000 0.230296
O O17 0.000000 0.433855 0.500000
O O18 0.188090 0.423913 0.050161
O O19 0.750000 0.250000 0.500000
O O20 0.000000 0.247461 0.000000
#
# Coordination Sequence:
#
# PCOD9217528 Si02
#       8
#     8   8   8   8   8   8   8   8
#     4  11  25  41  66  92 126 176 224 272 328 395
#     4  11  22  42  66  98 126 168 216 269 319 384
#     4  10  23  44  67  95 133 174 209 256 322 385
#     4  11  23  40  66  92 129 168 222 272 331 376
#     4   9  21  39  63  86 125 167 206 257 328 377
#     4  10  23  43  67  97 134 172 211 262 323 385
#     4  11  25  44  65  91 129 173 220 277 331 393
#     4  11  22  41  69  96 128 170 215 268 325 384
#
# _framework density 20.544211000000001
#
# number of rings (size 3 to 8) (size 9 to 14) (size 15 to 20)
#    0.000    1.500    1.250    4.125    8.750    1.000 
#    2.250    1.250    0.000    2.250    0.000    0.000 
#    0.000    0.000    0.000    0.000    0.000    0.000 
#
# Total GULP energy -178292.143805 kJ/mol
# GULP energy per Si atom -5571.629494 kJ/mol
# Density = 2.049745 g / cm^3
# Si number density = 20.544211 Si / 1000 Ang^3
#
#
#
# Elastic Constant Matrix: (Units=GPa)
#
#
# Indices 1 2 3 4 5 6 
#
# 1 63.1862 11.4685 38.9919 0.0003 -23.4512 -0.0002
# 2 11.4685 39.3322 49.7055 0.0000 9.4304 0.0000
# 3 38.9919 49.7055 135.2312 0.0007 -16.9751 -0.0005
# 4 0.0003 0.0000 0.0007 -2.4847 -0.0004 16.7392
# 5 -23.4512 9.4304 -16.9751 -0.0004 35.2499 0.0003
# 6 -0.0002 0.0000 -0.0005 16.7392 0.0003 8.6432
#
#
#
# Elastic Compliance Matrix: (Units=1/GPa)
#
#
# Indices 1 2 3 4 5 6 
#
# 1 0.025653 -0.011120 -0.000845 0.000000 0.019635 0.000000
# 2 -0.011120 0.078088 -0.030915 0.000000 -0.043177 0.000000
# 3 -0.000845 -0.030915 0.021254 0.000000 0.017944 0.000000
# 4 0.000000 0.000000 0.000000 -0.028651 -0.000001 0.055487
# 5 0.019635 -0.043177 0.017944 -0.000001 0.061624 0.000000
# 6 0.000000 0.000000 0.000000 0.055487 0.000000 0.008236
#
#
# Mechanical properties :
#
#
# Convention : Reuss Voigt Hill
#
# Bulk Modulus (GPa) = 25.48783 48.67570 37.08177
# Shear Modulus (GPa) = 18.86482 17.45395 18.15939
#
# Velocity S-wave (km/s) = 3.03356 2.91792 2.97630
# Velocity P-wave (km/s) = 4.97024 5.92426 5.46810
#
# Compressibility (1/GPa) = 0.03923441
#
# Stress axis : x y z
#
# Youngs Moduli (GPa) = 38.98137 12.80609 47.05006
#
# Poissons Ratio (x) = 0.14241 0.03974
# Poissons Ratio (y) = 0.43349 1.45457
# Poissons Ratio (z) = 0.03292 0.39590
#
# Static dielectric constant tensor:
#      x y z
#    x 1.787470 0.000000 0.022100 
#    y 0.000000 1.680410 0.000000 
#    z 0.022100 0.000000 1.857240 
# 
# From -- ./inp_files/161209.got.cif
#   From: 2010.05.17/outbox.cif.g08.bks.cpg/sg12_81_cif.got.tgz:161209.got - 2010.06.03 13:09:07.
