data_PCOD9217338
_publ_section_title
;
Structure prediction by ZEFSAII (Michael W. Deem and Ramdas Pophale) SiO2 
 PCOD9217338
Probable space group: C 2/M
;
_chemical_formula_sum "Si O2"
_cell_formula_units_Z 36
_cell_length_a 14.029942
_cell_length_b 19.408466
_cell_length_c 8.702606
_cell_angle_alpha 90.000000
_cell_angle_beta 136.732795
_cell_angle_gamma 90.000000
_cell_volume 1624.207724
_symmetry_space_group_name_H-M "C 2/M"
_symmetry_group_IT_number 12
_symmetry_cell_setting 'monoclinic'
loop_
_space_group_symop_operation_xyz
x,y,z
-x,y,-z
-x,-y,-z
x,-y,z
1/2+x,1/2+y,z
1/2-x,1/2+y,-z
1/2-x,1/2-y,-z
1/2+x,1/2-y,z
loop_
_atom_site_type_symbol
_atom_site_label
_atom_site_fract_x
_atom_site_fract_y
_atom_site_fract_z
Si Si1 0.500000 0.380138 0.500000
Si Si2 0.000000 0.200360 0.000000
Si Si3 0.377070 0.423446 0.656099
Si Si4 0.954340 0.580792 0.774352
Si Si5 0.724654 0.261414 0.792153
Si Si6 0.000000 0.351360 0.500000
O O1 0.468695 0.425036 0.610602
O O2 0.634898 0.330286 0.668840
O O3 0.062455 0.145154 0.193630
O O4 0.126318 0.250215 0.106636
O O5 0.386860 0.500000 0.743262
O O6 0.213143 0.412604 0.433311
O O7 0.990489 0.500000 0.812858
O O8 0.015800 0.610592 0.684394
O O9 0.000000 0.604797 0.000000
O O10 0.629898 0.198542 0.624225
O O11 0.750000 0.250000 0.000000
#
# Coordination Sequence:
#
# PCOD9217338 Si02
#       6
#     4   4   8   8   8   4
#     4  11  25  44  66 100 135 179 230 278 346 417
#     4  12  23  46  72 102 137 180 230 292 352 424
#     4  11  24  44  70 103 140 179 230 292 355 422
#     4  10  23  42  68 103 140 183 233 285 349 424
#     4  11  25  43  67  99 134 179 231 288 348 415
#     4  11  23  44  68  98 139 183 230 294 346 419
#
# _framework density 22.164652
#
# number of rings (size 3 to 8) (size 9 to 14) (size 15 to 20)
#    0.000    1.111    4.444    1.000    3.111    2.667 
#    0.000    0.000    0.000    0.000    0.000    0.000 
#    0.000    0.000    0.000    0.000    0.000    0.000 
#
# Total GULP energy -100401.949115 kJ/mol
# GULP energy per Si atom -5577.886062 kJ/mol
# Density = 2.211420 g / cm^3
# Si number density = 22.164652 Si / 1000 Ang^3
#
#
#
# Elastic Constant Matrix: (Units=GPa)
#
#
# Indices 1 2 3 4 5 6 
#
# 1 132.0622 37.4669 32.6044 0.0000 23.1717 0.0000
# 2 37.4669 117.6161 37.6848 0.0000 8.4438 0.0000
# 3 32.6044 37.6848 98.0506 0.0000 6.3334 0.0000
# 4 0.0000 0.0000 0.0000 -52.5801 0.0000 -26.7454
# 5 23.1717 8.4438 6.3334 0.0000 47.0826 0.0000
# 6 0.0000 0.0000 0.0000 -26.7454 0.0000 33.5742
#
#
#
# Elastic Compliance Matrix: (Units=1/GPa)
#
#
# Indices 1 2 3 4 5 6 
#
# 1 0.009356 -0.002031 -0.002074 0.000000 -0.003961 0.000000
# 2 -0.002031 0.010211 -0.003223 0.000000 -0.000398 0.000000
# 3 -0.002074 -0.003223 0.012130 0.000000 -0.000033 0.000000
# 4 0.000000 0.000000 0.000000 -0.013534 0.000000 -0.010782
# 5 -0.003961 -0.000398 -0.000033 0.000000 0.023264 0.000000
# 6 0.000000 0.000000 0.000000 -0.010782 0.000000 0.021196
#
#
# Mechanical properties :
#
#
# Convention : Reuss Voigt Hill
#
# Bulk Modulus (GPa) = 58.69235 62.58235 60.63735
# Shear Modulus (GPa) = 60.27082 21.61354 40.94218
#
# Velocity S-wave (km/s) = 5.22028 3.12610 4.30255
# Velocity P-wave (km/s) = 7.92924 6.42857 7.21801
#
# Compressibility (1/GPa) = 0.01703800
#
# Stress axis : x y z
#
# Youngs Moduli (GPa) = 106.88765 97.93763 82.44341
#
# Poissons Ratio (x) = 0.19893 0.17102
# Poissons Ratio (y) = 0.21711 0.26573
# Poissons Ratio (z) = 0.22173 0.31567
#
# Static dielectric constant tensor:
#      x y z
#    x 1.824070 0.000000 -0.007190 
#    y 0.000000 1.818070 0.000000 
#    z -0.007190 0.000000 1.891470 
# 
# From -- ./inp_files/64160.got.cif
#   From: 2010.05.17/outbox.cif.g08.bks.cpg/sg12_33_cif.got.tgz:64160.got - 2010.06.03 13:09:07.
