data_PCOD9217948
_publ_section_title
;
Structure prediction by ZEFSAII (Michael W. Deem and Ramdas Pophale) SiO2 
 PCOD9217948
Probable space group: C 2/M
;
_chemical_formula_sum "Si O2"
_cell_formula_units_Z 32
_cell_length_a 13.585638
_cell_length_b 22.466564
_cell_length_c 9.318431
_cell_angle_alpha 90.000000
_cell_angle_beta 32.352532
_cell_angle_gamma 90.000000
_cell_volume 1522.006269
_symmetry_space_group_name_H-M "C 2/M"
_symmetry_group_IT_number 12
_symmetry_cell_setting 'monoclinic'
loop_
_space_group_symop_operation_xyz
x,y,z
-x,y,-z
-x,-y,-z
x,-y,z
1/2+x,1/2+y,z
1/2-x,1/2+y,-z
1/2-x,1/2-y,-z
1/2+x,1/2-y,z
loop_
_atom_site_type_symbol
_atom_site_label
_atom_site_fract_x
_atom_site_fract_y
_atom_site_fract_z
Si Si1 0.697147 0.567865 0.837208
Si Si2 0.104714 0.677015 0.552752
Si Si3 0.798451 0.194429 0.602656
Si Si4 0.196104 0.846737 0.085633
O O1 0.761687 0.500000 0.749331
O O2 0.825553 0.615618 0.599833
O O3 0.500000 0.571393 0.000000
O O4 0.684099 0.590566 0.017561
O O5 0.210821 0.734724 0.361165
O O6 0.152551 0.676815 0.662743
O O7 0.886809 0.682502 0.800193
O O8 0.790687 0.156943 0.758024
O O9 0.003766 0.184888 0.285553
#
# Coordination Sequence:
#
# PCOD9217948 Si02
#       4
#     8   8   8   8
#     4  11  25  45  66  91 128 174 222 269 316 376
#     4  11  23  40  67  93 133 167 210 261 318 392
#     4  10  24  39  62 102 133 162 202 267 333 375
#     4  11  23  40  64  95 128 168 210 260 320 381
#
# _framework density 21.024881000000001
#
# number of rings (size 3 to 8) (size 9 to 14) (size 15 to 20)
#    0.000    1.250    2.500    2.250   10.500    2.000 
#    0.000    3.750    0.000    3.000    0.000    0.000 
#    0.000    0.000    0.000    0.000    0.000    0.000 
#
# Total GULP energy -89387.685666 kJ/mol
# GULP energy per Si atom -5586.730354 kJ/mol
# Density = 2.097703 g / cm^3
# Si number density = 21.024881 Si / 1000 Ang^3
#
#
#
# Elastic Constant Matrix: (Units=GPa)
#
#
# Indices 1 2 3 4 5 6 
#
# 1 141.9619 37.7088 23.3891 -0.0001 17.4850 0.0000
# 2 37.7088 147.5760 46.7978 0.0000 20.8043 -0.0001
# 3 23.3891 46.7978 65.6899 0.0000 1.9751 0.0001
# 4 -0.0001 0.0000 0.0000 22.7955 0.0000 7.9148
# 5 17.4850 20.8043 1.9751 0.0000 39.9565 -0.0001
# 6 0.0000 -0.0001 0.0001 7.9148 -0.0001 28.1941
#
#
#
# Elastic Compliance Matrix: (Units=1/GPa)
#
#
# Indices 1 2 3 4 5 6 
#
# 1 0.008001 -0.000984 -0.002061 0.000000 -0.002887 0.000000
# 2 -0.000984 0.009662 -0.006404 0.000000 -0.004284 0.000000
# 3 -0.002061 -0.006404 0.020422 0.000000 0.003227 0.000000
# 4 0.000000 0.000000 0.000000 0.048606 0.000000 -0.013645
# 5 -0.002887 -0.004284 0.003227 0.000000 0.028362 0.000000
# 6 0.000000 0.000000 0.000000 -0.013645 0.000000 0.039299
#
#
# Mechanical properties :
#
#
# Convention : Reuss Voigt Hill
#
# Bulk Modulus (GPa) = 52.11874 63.44656 57.78265
# Shear Modulus (GPa) = 27.83253 34.67803 31.25528
#
# Velocity S-wave (km/s) = 3.64234 4.06566 3.85981
# Velocity P-wave (km/s) = 6.52164 7.23062 6.88526
#
# Compressibility (1/GPa) = 0.01918695
#
# Stress axis : x y z
#
# Youngs Moduli (GPa) = 124.99066 103.49429 48.96584
#
# Poissons Ratio (x) = 0.10182 0.10092
# Poissons Ratio (y) = 0.12296 0.31360
# Poissons Ratio (z) = 0.25760 0.66282
#
# Static dielectric constant tensor:
#      x y z
#    x 1.774350 0.000000 0.019480 
#    y 0.000000 1.713590 0.000000 
#    z 0.019480 0.000000 1.815440 
# 
# From -- ./inp_files/63877.got.cif
#   From: 2010.05.17/outbox.cif.g08.bks.cpg/sg12_32_cif.got.tgz:63877.got - 2010.06.03 13:09:07.
