data_PCOD9217415
_publ_section_title
;
Structure prediction by ZEFSAII (Michael W. Deem and Ramdas Pophale) SiO2 
 PCOD9217415
Probable space group: C 2/M
;
_chemical_formula_sum "Si O2"
_cell_formula_units_Z 36
_cell_length_a 8.327279
_cell_length_b 20.003999
_cell_length_c 14.738186
_cell_angle_alpha 90.000000
_cell_angle_beta 42.920250
_cell_angle_gamma 90.000000
_cell_volume 1671.853262
_symmetry_space_group_name_H-M "C 2/M"
_symmetry_group_IT_number 12
_symmetry_cell_setting 'monoclinic'
loop_
_space_group_symop_operation_xyz
x,y,z
-x,y,-z
-x,-y,-z
x,-y,z
1/2+x,1/2+y,z
1/2-x,1/2+y,-z
1/2-x,1/2-y,-z
1/2+x,1/2-y,z
loop_
_atom_site_type_symbol
_atom_site_label
_atom_site_fract_x
_atom_site_fract_y
_atom_site_fract_z
Si Si1 0.976250 0.423591 0.117229
Si Si2 0.967649 0.114753 0.406049
Si Si3 0.000000 0.625982 0.500000
Si Si4 0.840137 0.705952 0.880125
Si Si5 0.167658 0.255650 0.307059
O O1 0.037930 0.500000 0.111517
O O2 0.704270 0.410943 0.258279
O O3 0.144461 0.370926 0.098032
O O4 0.000000 0.411456 0.000000
O O5 0.726821 0.091210 0.454999
O O6 0.000000 0.098688 0.500000
O O7 0.978519 0.195853 0.390767
O O8 0.904710 0.675880 0.616963
O O9 0.720188 0.727005 0.837032
O O10 0.107446 0.722866 0.737671
O O11 0.750000 0.750000 0.000000
#
# Coordination Sequence:
#
# PCOD9217415 Si02
#       5
#     8   8   4   8   8
#     4  10  23  43  64  86 125 175 216 262 328 393
#     4  11  22  38  62  97 131 169 214 265 324 394
#     4  12  20  34  59  94 133 162 206 266 336 378
#     4  11  21  36  61  96 122 158 213 267 323 383
#     4  11  20  34  56  90 132 157 197 268 329 378
#
# _framework density 21.532990000000002
#
# number of rings (size 3 to 8) (size 9 to 14) (size 15 to 20)
#    0.000    1.111    3.333    6.667    0.000    0.444 
#    0.000    0.556    0.000    4.000    0.000    0.000 
#    0.000    0.000    0.000    0.000    0.000    0.000 
#
# Total GULP energy -100384.019928 kJ/mol
# GULP energy per Si atom -5576.889996 kJ/mol
# Density = 2.148398 g / cm^3
# Si number density = 21.532990 Si / 1000 Ang^3
#
#
#
# Elastic Constant Matrix: (Units=GPa)
#
#
# Indices 1 2 3 4 5 6 
#
# 1 107.3241 12.0729 40.1398 -0.0001 -6.6729 0.0000
# 2 12.0729 59.2321 9.0072 0.0000 3.0726 0.0000
# 3 40.1398 9.0072 124.8673 -0.0002 25.1727 -0.0002
# 4 -0.0001 0.0000 -0.0002 -9.8675 0.0001 -16.7173
# 5 -6.6729 3.0726 25.1727 0.0001 40.2179 0.0001
# 6 0.0000 0.0000 -0.0002 -16.7173 0.0001 -3.5365
#
#
#
# Elastic Compliance Matrix: (Units=1/GPa)
#
#
# Indices 1 2 3 4 5 6 
#
# 1 0.011546 -0.001914 -0.004565 0.000000 0.004919 0.000000
# 2 -0.001914 0.017400 -0.000352 0.000000 -0.001427 0.000000
# 3 -0.004565 -0.000352 0.011042 0.000000 -0.007642 0.000000
# 4 0.000000 0.000000 0.000000 0.014460 0.000000 -0.068353
# 5 0.004919 -0.001427 -0.007642 0.000000 0.030573 0.000000
# 6 0.000000 0.000000 0.000000 -0.068353 0.000000 0.040346
#
#
# Mechanical properties :
#
#
# Convention : Reuss Voigt Hill
#
# Bulk Modulus (GPa) = 37.98663 45.98481 41.98572
# Shear Modulus (GPa) = 33.82804 20.70969 27.26887
#
# Velocity S-wave (km/s) = 3.96787 3.10460 3.56248
# Velocity P-wave (km/s) = 6.21863 5.85263 6.03840
#
# Compressibility (1/GPa) = 0.02632505
#
# Stress axis : x y z
#
# Youngs Moduli (GPa) = 86.60843 57.46967 90.56319
#
# Poissons Ratio (x) = 0.11002 0.41345
# Poissons Ratio (y) = 0.16580 0.03190
# Poissons Ratio (z) = 0.39539 0.02024
#
# Static dielectric constant tensor:
#      x y z
#    x 1.986710 0.000000 -0.059150 
#    y 0.000000 1.761000 0.000000 
#    z -0.059150 0.000000 1.792390 
# 
# From -- ./inp_files/119972.got.cif
#   From: 2010.05.17/outbox.cif.g08.bks.cpg/sg12_60_cif.got.tgz:119972.got - 2010.06.03 13:09:07.
