data_PCOD9217308
_publ_section_title
;
Structure prediction by ZEFSAII (Michael W. Deem and Ramdas Pophale) SiO2 
 PCOD9217308
Probable space group: C 2/M
;
_chemical_formula_sum "Si O2"
_cell_formula_units_Z 48
_cell_length_a 9.247622
_cell_length_b 23.509639
_cell_length_c 12.124250
_cell_angle_alpha 90.000000
_cell_angle_beta 114.675873
_cell_angle_gamma 90.000000
_cell_volume 2395.211246
_symmetry_space_group_name_H-M "C 2/M"
_symmetry_group_IT_number 12
_symmetry_cell_setting 'monoclinic'
loop_
_space_group_symop_operation_xyz
x,y,z
-x,y,-z
-x,-y,-z
x,-y,z
1/2+x,1/2+y,z
1/2-x,1/2+y,-z
1/2-x,1/2-y,-z
1/2+x,1/2-y,z
loop_
_atom_site_type_symbol
_atom_site_label
_atom_site_fract_x
_atom_site_fract_y
_atom_site_fract_z
Si Si1 0.156127 0.810447 0.472075
Si Si2 0.442256 0.102595 0.601984
Si Si3 0.234367 0.500000 0.062200
Si Si4 0.350676 0.385734 0.032684
Si Si5 0.984678 0.500000 0.790598
Si Si6 0.355513 0.177728 0.186499
Si Si7 0.962390 0.788448 0.805247
O O1 0.250000 0.750000 0.500000
O O2 0.275863 0.862249 0.540700
O O3 0.092334 0.814220 0.327958
O O4 0.000000 0.807872 0.500000
O O5 0.500000 0.081524 0.500000
O O6 0.450663 0.053747 0.698539
O O7 0.570783 0.149334 0.682077
O O8 0.330301 0.441551 0.097620
O O9 0.125084 0.500000 0.135439
O O10 0.153557 0.500000 0.912216
O O11 0.395979 0.328627 0.110305
O O12 0.500000 0.396526 0.000000
O O13 0.190601 0.370706 0.915351
O O14 0.188256 0.207031 0.162518
O O15 0.478228 0.224402 0.184388
#
# Coordination Sequence:
#
# PCOD9217308 Si02
#       7
#     8   8   4   8   4   8   8
#     4  12  24  39  65  98 133 174 215 262 325 392
#     4  12  24  46  68  96 134 176 225 273 327 403
#     4  11  23  46  69  98 125 171 224 283 334 390
#     4  10  23  42  66  97 132 174 221 272 334 393
#     4  11  27  44  70  97 127 169 226 280 340 386
#     4  11  22  40  65  97 134 172 220 269 324 392
#     4  11  23  39  62 100 135 174 213 266 331 388
#
# _framework density 20.039987
#
# number of rings (size 3 to 8) (size 9 to 14) (size 15 to 20)
#    0.000    0.833    5.000    2.500    2.333    0.000 
#    0.000    1.250    0.000    0.000    0.000    0.000 
#    0.000    0.000    0.000    0.000    0.000    0.000 
#
# Total GULP energy -133932.906500 kJ/mol
# GULP energy per Si atom -5580.537771 kJ/mol
# Density = 1.999438 g / cm^3
# Si number density = 20.039987 Si / 1000 Ang^3
#
#
#
# Elastic Constant Matrix: (Units=GPa)
#
#
# Indices 1 2 3 4 5 6 
#
# 1 63.7597 41.2443 25.8914 0.0000 1.1576 0.0000
# 2 41.2443 93.1145 24.0540 0.0000 -9.9240 0.0000
# 3 25.8914 24.0540 94.9834 0.0000 1.3103 0.0000
# 4 0.0000 0.0000 0.0000 274.0239 0.0000 -22.0537
# 5 1.1576 -9.9240 1.3103 0.0000 26.9185 0.0000
# 6 0.0000 0.0000 0.0000 -22.0537 0.0000 25.5159
#
#
#
# Elastic Compliance Matrix: (Units=1/GPa)
#
#
# Indices 1 2 3 4 5 6 
#
# 1 0.023841 -0.010037 -0.003894 0.000000 -0.004536 0.000000
# 2 -0.010037 0.016258 -0.001471 0.000000 0.006497 0.000000
# 3 -0.003894 -0.001471 0.011975 0.000000 -0.000958 0.000000
# 4 0.000000 0.000000 0.000000 0.003922 0.000000 0.003390
# 5 -0.004536 0.006497 -0.000958 0.000000 0.039786 0.000000
# 6 0.000000 0.000000 0.000000 0.003390 0.000000 0.042121
#
#
# Mechanical properties :
#
#
# Convention : Reuss Voigt Hill
#
# Bulk Modulus (GPa) = 47.01678 48.24856 47.63267
# Shear Modulus (GPa) = 28.44181 76.00285 52.22233
#
# Velocity S-wave (km/s) = 3.77138 6.16506 5.11035
# Velocity P-wave (km/s) = 6.51743 8.64903 7.65776
#
# Compressibility (1/GPa) = 0.02126900
#
# Stress axis : x y z
#
# Youngs Moduli (GPa) = 41.94535 61.50876 83.50499
#
# Poissons Ratio (x) = 0.61739 0.32518
# Poissons Ratio (y) = 0.42102 0.12281
# Poissons Ratio (z) = 0.16334 0.09046
#
# Static dielectric constant tensor:
#      x y z
#    x 1.740180 0.000000 0.043320 
#    y 0.000000 1.711000 0.000000 
#    z 0.043320 0.000000 1.788060 
# 
# From -- ./inp_files/122612.got.cif
#   From: 2010.05.17/outbox.cif.g08.bks.cpg/sg12_62_cif.got.tgz:122612.got - 2010.06.03 13:09:07.
