data_PCOD9217114
_publ_section_title
;
Structure prediction by ZEFSAII (Michael W. Deem and Ramdas Pophale) SiO2 
 PCOD9217114
Probable space group: C 2/M
;
_chemical_formula_sum "Si O2"
_cell_formula_units_Z 40
_cell_length_a 15.218037
_cell_length_b 28.709695
_cell_length_c 7.826925
_cell_angle_alpha 90.000000
_cell_angle_beta 150.585335
_cell_angle_gamma 90.000000
_cell_volume 1679.468860
_symmetry_space_group_name_H-M "C 2/M"
_symmetry_group_IT_number 12
_symmetry_cell_setting 'monoclinic'
loop_
_space_group_symop_operation_xyz
x,y,z
-x,y,-z
-x,-y,-z
x,-y,z
1/2+x,1/2+y,z
1/2-x,1/2+y,-z
1/2-x,1/2-y,-z
1/2+x,1/2-y,z
loop_
_atom_site_type_symbol
_atom_site_label
_atom_site_fract_x
_atom_site_fract_y
_atom_site_fract_z
Si Si1 0.824520 0.393391 0.593141
Si Si2 0.066082 0.450004 0.803434
Si Si3 0.464494 0.716856 0.736906
Si Si4 0.844692 0.126403 0.376496
Si Si5 0.656897 0.189970 0.629980
O O1 0.656854 0.396947 0.436307
O O2 0.800463 0.356811 0.400929
O O3 0.895737 0.441189 0.635899
O O4 0.000000 0.376230 0.000000
O O5 0.153150 0.500000 0.992465
O O6 0.000000 0.451442 0.500000
O O7 0.187671 0.404169 0.027242
O O8 0.332120 0.680042 0.420589
O O9 0.401228 0.768858 0.596258
O O10 0.500000 0.709381 0.000000
O O11 0.656229 0.707033 0.973979
O O12 0.000000 0.123110 0.500000
O O13 0.500000 0.183485 0.500000
#
# Coordination Sequence:
#
# PCOD9217114 Si02
#       5
#     8   8   8   8   8
#     4  10  23  41  70  99 135 180 229 283 341 406
#     4  10  24  48  78 104 130 174 231 287 348 415
#     4  12  26  44  66 100 146 186 236 280 339 402
#     4  11  26  43  67 102 143 178 225 283 345 408
#     4  12  26  42  69  99 141 189 233 288 335 406
#
# _framework density 23.817055
#
# number of rings (size 3 to 8) (size 9 to 14) (size 15 to 20)
#    0.000    1.000    2.000    3.000   14.000    4.000 
#    0.000    0.000    0.000    3.000    0.000    0.000 
#    0.000    0.000    0.000    0.000    0.000    0.000 
#
# Total GULP energy -111663.014075 kJ/mol
# GULP energy per Si atom -5583.150704 kJ/mol
# Density = 2.376285 g / cm^3
# Si number density = 23.817055 Si / 1000 Ang^3
#
#
#
# Elastic Constant Matrix: (Units=GPa)
#
#
# Indices 1 2 3 4 5 6 
#
# 1 179.3264 42.3359 13.6914 0.0000 1.1765 0.0000
# 2 42.3359 111.0232 51.8206 0.0000 -10.6320 0.0000
# 3 13.6914 51.8206 48.0686 0.0000 -5.9171 0.0000
# 4 0.0000 0.0000 0.0000 44.1755 0.0000 -25.2685
# 5 1.1765 -10.6320 -5.9171 0.0000 27.7551 0.0000
# 6 0.0000 0.0000 0.0000 -25.2685 0.0000 33.5026
#
#
#
# Elastic Compliance Matrix: (Units=1/GPa)
#
#
# Indices 1 2 3 4 5 6 
#
# 1 0.006222 -0.003201 0.001535 0.000000 -0.001163 0.000000
# 2 -0.003201 0.019999 -0.020219 0.000000 0.003486 0.000000
# 3 0.001535 -0.020219 0.042313 0.000000 0.001210 0.000000
# 4 0.000000 0.000000 0.000000 0.039813 0.000000 0.030028
# 5 -0.001163 0.003486 0.001210 0.000000 0.037672 0.000000
# 6 0.000000 0.000000 0.000000 0.030028 0.000000 0.052496
#
#
# Mechanical properties :
#
#
# Convention : Reuss Voigt Hill
#
# Bulk Modulus (GPa) = 40.38036 61.56822 50.97429
# Shear Modulus (GPa) = 19.95696 36.45800 28.20748
#
# Velocity S-wave (km/s) = 2.89784 3.91673 3.44516
# Velocity P-wave (km/s) = 5.30922 6.80889 6.10527
#
# Compressibility (1/GPa) = 0.02476451
#
# Stress axis : x y z
#
# Youngs Moduli (GPa) = 160.70829 50.00321 23.63361
#
# Poissons Ratio (x) = 0.16004 -0.03628
# Poissons Ratio (y) = 0.51435 0.47785
# Poissons Ratio (z) = -0.24667 1.01102
#
# Static dielectric constant tensor:
#      x y z
#    x 1.998640 0.000000 0.033290 
#    y 0.000000 1.882390 0.000000 
#    z 0.033290 0.000000 1.966410 
# 
# From -- ./inp_files/79932.got.cif
#   From: 2010.05.17/outbox.cif.g08.bks.cpg/sg12_40_cif.got.tgz:79932.got - 2010.06.03 13:09:07.
