data_PCOD9217590
_publ_section_title
;
Structure prediction by ZEFSAII (Michael W. Deem and Ramdas Pophale) SiO2 
 PCOD9217590
Probable space group: C 2/M
;
_chemical_formula_sum "Si O2"
_cell_formula_units_Z 42
_cell_length_a 20.012152
_cell_length_b 17.517469
_cell_length_c 5.293284
_cell_angle_alpha 90.000000
_cell_angle_beta 73.326097
_cell_angle_gamma 90.000000
_cell_volume 1777.602596
_symmetry_space_group_name_H-M "C 2/M"
_symmetry_group_IT_number 12
_symmetry_cell_setting 'monoclinic'
loop_
_space_group_symop_operation_xyz
x,y,z
-x,y,-z
-x,-y,-z
x,-y,z
1/2+x,1/2+y,z
1/2-x,1/2+y,-z
1/2-x,1/2-y,-z
1/2+x,1/2-y,z
loop_
_atom_site_type_symbol
_atom_site_label
_atom_site_fract_x
_atom_site_fract_y
_atom_site_fract_z
Si Si1 0.652586 0.500000 0.731808
Si Si2 0.800139 0.208124 0.140435
Si Si3 0.692015 0.135025 0.621172
Si Si4 0.566251 0.625683 0.058901
Si Si5 0.244262 0.000000 0.142545
Si Si6 0.500000 0.500000 0.500000
Si Si7 0.037045 0.591190 0.705104
O O1 0.687108 0.500000 0.424082
O O2 0.601461 0.571950 0.807319
O O3 0.706818 0.500000 0.910972
O O4 0.755927 0.147073 0.354573
O O5 0.824311 0.277957 0.288113
O O6 0.750000 0.250000 0.000000
O O7 0.868045 0.175454 0.929776
O O8 0.713287 0.077541 0.828538
O O9 0.619907 0.102404 0.595720
O O10 0.540948 0.566848 0.293874
O O11 0.500000 0.665545 0.000000
O O12 0.025151 0.500000 0.719250
O O13 0.000000 0.624813 0.500000
O O14 0.000000 0.620794 0.000000
#
# Coordination Sequence:
#
# PCOD9217590 Si02
#       7
#     4   8   8   8   4   2   8
#     4  11  24  40  73 108 151 178 252 306 374 442
#     4  11  26  47  68 105 150 200 250 310 376 465
#     4  11  25  45  73 102 144 191 256 307 383 451
#     4  11  25  44  69 105 153 196 253 307 386 444
#     4  12  24  43  77 112 133 196 243 315 371 447
#     4  10  24  40  76 110 144 198 250 324 366 464
#     4  10  23  43  71 108 142 179 241 314 373 440
#
# _framework density 23.627327000000001
#
# number of rings (size 3 to 8) (size 9 to 14) (size 15 to 20)
#    0.000    1.143    2.857    2.286    8.000    3.810 
#    0.000    0.000    0.000    0.000    0.000    0.000 
#    0.000    0.000    0.000    0.000    0.000    0.000 
#
# Total GULP energy -117133.970966 kJ/mol
# GULP energy per Si atom -5577.808141 kJ/mol
# Density = 2.357355 g / cm^3
# Si number density = 23.627327 Si / 1000 Ang^3
#
#
#
# Elastic Constant Matrix: (Units=GPa)
#
#
# Indices 1 2 3 4 5 6 
#
# 1 163.4088 36.1103 44.6668 0.0000 4.3211 0.0000
# 2 36.1103 73.0299 41.7591 0.0000 -6.7442 0.0000
# 3 44.6668 41.7591 105.2500 0.0000 -6.9442 0.0000
# 4 0.0000 0.0000 0.0000 983.8948 0.0000 194.2244
# 5 4.3211 -6.7442 -6.9442 0.0000 40.1021 0.0000
# 6 0.0000 0.0000 0.0000 194.2244 0.0000 59.2748
#
#
#
# Elastic Compliance Matrix: (Units=1/GPa)
#
#
# Indices 1 2 3 4 5 6 
#
# 1 0.007321 -0.002497 -0.002221 0.000000 -0.001593 0.000000
# 2 -0.002497 0.018690 -0.006201 0.000000 0.002338 0.000000
# 3 -0.002221 -0.006201 0.013000 0.000000 0.001448 0.000000
# 4 0.000000 0.000000 0.000000 0.002878 0.000000 -0.009430
# 5 -0.001593 0.002338 0.001448 0.000000 0.025752 0.000000
# 6 0.000000 0.000000 0.000000 -0.009430 0.000000 0.047769
#
#
# Mechanical properties :
#
#
# Convention : Reuss Voigt Hill
#
# Bulk Modulus (GPa) = 58.23735 65.19569 61.71652
# Shear Modulus (GPa) = 34.97208 231.26450 133.11829
#
# Velocity S-wave (km/s) = 3.85145 9.90417 7.51419
# Velocity P-wave (km/s) = 6.66934 12.58743 10.07282
#
# Compressibility (1/GPa) = 0.01717111
#
# Stress axis : x y z
#
# Youngs Moduli (GPa) = 136.59936 53.50591 76.92383
#
# Poissons Ratio (x) = 0.13359 0.17087
# Poissons Ratio (y) = 0.34106 0.47704
# Poissons Ratio (z) = 0.30343 0.33181
#
# Static dielectric constant tensor:
#      x y z
#    x 2.007850 0.000000 0.019290 
#    y 0.000000 1.964200 0.000000 
#    z 0.019290 0.000000 2.018240 
# 
# From -- ./inp_files/20376.got.cif
#   From: 2010.05.17/outbox.cif.g08.bks.cpg/sg12_11_cif.got.tgz:20376.got - 2010.06.03 13:09:07.
