data_PCOD9217730
_publ_section_title
;
Structure prediction by ZEFSAII (Michael W. Deem and Ramdas Pophale) SiO2 
 PCOD9217730
Probable space group: C 2/M
;
_chemical_formula_sum "Si O2"
_cell_formula_units_Z 44
_cell_length_a 23.735284
_cell_length_b 15.940221
_cell_length_c 19.332518
_cell_angle_alpha 90.000000
_cell_angle_beta 163.686873
_cell_angle_gamma 90.000000
_cell_volume 2054.509805
_symmetry_space_group_name_H-M "C 2/M"
_symmetry_group_IT_number 12
_symmetry_cell_setting 'monoclinic'
loop_
_space_group_symop_operation_xyz
x,y,z
-x,y,-z
-x,-y,-z
x,-y,z
1/2+x,1/2+y,z
1/2-x,1/2+y,-z
1/2-x,1/2-y,-z
1/2+x,1/2-y,z
loop_
_atom_site_type_symbol
_atom_site_label
_atom_site_fract_x
_atom_site_fract_y
_atom_site_fract_z
Si Si1 0.734430 0.904102 0.796733
Si Si2 0.789567 0.760014 0.757069
Si Si3 0.500000 0.357119 0.500000
Si Si4 0.131681 0.404483 0.974319
Si Si5 0.161911 0.101532 0.922998
Si Si6 0.748290 0.199555 0.428334
O O1 0.500000 0.904977 0.500000
O O2 0.825048 0.839847 0.847926
O O3 0.810469 0.000000 0.880051
O O4 0.764898 0.876349 0.912573
O O5 0.621967 0.703416 0.593287
O O6 0.735414 0.768142 0.613482
O O7 0.000000 0.712093 0.000000
O O8 0.333902 0.404112 0.258896
O O9 0.060549 0.500000 0.882066
O O10 0.195462 0.371283 0.972978
O O11 0.959356 0.352208 0.809631
O O12 0.941080 0.139190 0.651327
O O13 0.154697 0.000000 0.911497
O O14 0.750000 0.250000 0.500000
#
# Coordination Sequence:
#
# PCOD9217730 Si02
#       6
#     8   8   4   8   8   8
#     4  10  23  44  70  99 134 181 229 280 339 409
#     4  12  24  42  65  99 136 177 224 276 339 407
#     4  12  23  44  67 100 138 176 228 282 337 408
#     4  11  25  45  71 100 136 182 227 280 346 408
#     4  10  23  45  69  97 136 177 225 281 340 403
#     4  12  26  41  67 103 135 176 225 281 341 405
#
# _framework density 21.416301000000001
#
# number of rings (size 3 to 8) (size 9 to 14) (size 15 to 20)
#    0.000    0.909    4.545    1.909    2.545    1.091 
#    0.000    1.818    0.000    0.000    0.000    0.000 
#    0.000    0.000    0.000    0.000    0.000    0.000 
#
# Total GULP energy -122807.050726 kJ/mol
# GULP energy per Si atom -5582.138669 kJ/mol
# Density = 2.136756 g / cm^3
# Si number density = 21.416301 Si / 1000 Ang^3
#
#
#
# Elastic Constant Matrix: (Units=GPa)
#
#
# Indices 1 2 3 4 5 6 
#
# 1 195.5753 52.7813 39.1559 0.0106 -12.3518 -0.0014
# 2 52.7813 58.1337 20.1873 0.0164 4.6789 -0.0058
# 3 39.1559 20.1873 96.2868 0.0258 3.3608 0.0170
# 4 0.0106 0.0164 0.0258 29.3330 0.0120 8.0706
# 5 -12.3518 4.6789 3.3608 0.0120 43.8532 0.0023
# 6 -0.0014 -0.0058 0.0170 8.0706 0.0023 44.2208
#
#
#
# Elastic Compliance Matrix: (Units=1/GPa)
#
#
# Indices 1 2 3 4 5 6 
#
# 1 0.007345 -0.006286 -0.001770 0.000001 0.002875 0.000000
# 2 -0.006286 0.024057 -0.002342 -0.000009 -0.004158 0.000006
# 3 -0.001770 -0.002342 0.011636 -0.000007 -0.001140 -0.000004
# 4 0.000001 -0.000009 -0.000007 0.035894 -0.000008 -0.006551
# 5 0.002875 -0.004158 -0.001140 -0.000008 0.024144 0.000000
# 6 0.000000 0.000006 -0.000004 -0.006551 0.000000 0.023809
#
#
# Mechanical properties :
#
#
# Convention : Reuss Voigt Hill
#
# Bulk Modulus (GPa) = 44.95845 63.80496 54.38170
# Shear Modulus (GPa) = 32.23811 39.33951 35.78881
#
# Velocity S-wave (km/s) = 3.88404 4.29055 4.09235
# Velocity P-wave (km/s) = 6.41502 7.37580 6.91213
#
# Compressibility (1/GPa) = 0.02224276
#
# Stress axis : x y z
#
# Youngs Moduli (GPa) = 136.13863 41.56784 85.93930
#
# Poissons Ratio (x) = 0.26130 0.15207
# Poissons Ratio (y) = 0.85578 0.20130
# Poissons Ratio (z) = 0.24090 0.09737
#
# Static dielectric constant tensor:
#      x y z
#    x 1.752790 -0.000050 -0.077740 
#    y -0.000050 1.777710 -0.000070 
#    z -0.077740 -0.000070 1.777620 
# 
# From -- ./inp_files/285290.got.cif
#   From: 2010.05.17/outbox.cif.g08.bks.cpg/sg12_143_cif.got.tgz:285290.got - 2010.06.03 13:09:07.
