data_PCOD9217946
_publ_section_title
;
Structure prediction by ZEFSAII (Michael W. Deem and Ramdas Pophale) SiO2 
 PCOD9217946
Probable space group: C 2/M
;
_chemical_formula_sum "Si O2"
_cell_formula_units_Z 42
_cell_length_a 12.194478
_cell_length_b 29.794727
_cell_length_c 5.160122
_cell_angle_alpha 90.000000
_cell_angle_beta 78.226816
_cell_angle_gamma 90.000000
_cell_volume 1835.392145
_symmetry_space_group_name_H-M "C 2/M"
_symmetry_group_IT_number 12
_symmetry_cell_setting 'monoclinic'
loop_
_space_group_symop_operation_xyz
x,y,z
-x,y,-z
-x,-y,-z
x,-y,z
1/2+x,1/2+y,z
1/2-x,1/2+y,-z
1/2-x,1/2-y,-z
1/2+x,1/2-y,z
loop_
_atom_site_type_symbol
_atom_site_label
_atom_site_fract_x
_atom_site_fract_y
_atom_site_fract_z
Si Si1 0.879545 0.375160 0.451385
Si Si2 0.318120 0.780131 0.665890
Si Si3 0.925473 0.094308 0.775044
Si Si4 0.109757 0.194682 0.119488
Si Si5 0.000000 0.500000 0.000000
Si Si6 0.314917 0.922767 0.974241
O O1 0.869600 0.322497 0.500525
O O2 0.859127 0.386874 0.164721
O O3 0.000000 0.389744 0.500000
O O4 0.801798 0.402195 0.692162
O O5 0.250000 0.750000 0.500000
O O6 0.400904 0.743359 0.743569
O O7 0.227354 0.799989 0.911902
O O8 0.889043 0.146804 0.733880
O O9 0.811144 0.066829 0.871787
O O10 0.000000 0.078739 0.500000
O O11 0.000000 0.093548 0.000000
O O12 0.000000 0.190712 0.000000
O O13 0.092440 0.461429 0.047564
#
# Coordination Sequence:
#
# PCOD9217946 Si02
#       6
#     8   8   8   8   2   8
#     4  12  25  44  69 102 147 185 240 294 370 426
#     4  11  25  39  60  96 141 192 240 297 341 415
#     4  11  24  45  73 102 144 193 238 295 355 433
#     4  10  24  39  60  93 135 189 244 284 343 408
#     4  12  28  54  84 110 148 182 240 312 388 470
#     4  12  26  49  74 111 139 183 239 301 375 448
#
# _framework density 22.883389999999999
#
# number of rings (size 3 to 8) (size 9 to 14) (size 15 to 20)
#    0.000    0.762    3.810    2.286   13.333    1.524 
#    0.000    0.952    0.000    0.000    0.000    0.000 
#    0.000    0.000    0.000    0.000    0.000    0.000 
#
# Total GULP energy -117086.037843 kJ/mol
# GULP energy per Si atom -5575.525612 kJ/mol
# Density = 2.283131 g / cm^3
# Si number density = 22.883390 Si / 1000 Ang^3
#
#
#
# Elastic Constant Matrix: (Units=GPa)
#
#
# Indices 1 2 3 4 5 6 
#
# 1 87.1010 22.7435 -5.7065 0.0000 -6.8004 0.0000
# 2 22.7435 109.9639 13.7088 0.0000 4.4541 0.0000
# 3 -5.7065 13.7088 59.1450 0.0000 -7.2228 0.0000
# 4 0.0000 0.0000 0.0000 -17.1533 0.0000 25.2827
# 5 -6.8004 4.4541 -7.2228 0.0000 31.1748 0.0000
# 6 0.0000 0.0000 0.0000 25.2827 0.0000 39.9791
#
#
#
# Elastic Compliance Matrix: (Units=1/GPa)
#
#
# Indices 1 2 3 4 5 6 
#
# 1 0.012740 -0.003088 0.002406 0.000000 0.003778 0.000000
# 2 -0.003088 0.010223 -0.003013 0.000000 -0.002832 0.000000
# 3 0.002406 -0.003013 0.018478 0.000000 0.005236 0.000000
# 4 0.000000 0.000000 0.000000 -0.030173 0.000000 0.019081
# 5 0.003778 -0.002832 0.005236 0.000000 0.034519 0.000000
# 6 0.000000 0.000000 0.000000 0.019081 0.000000 0.012946
#
#
# Mechanical properties :
#
#
# Convention : Reuss Voigt Hill
#
# Bulk Modulus (GPa) = 29.36821 35.30016 32.33419
# Shear Modulus (GPa) = 64.53900 25.83107 45.18503
#
# Velocity S-wave (km/s) = 5.31645 3.36343 4.44844
# Velocity P-wave (km/s) = 7.10971 5.52658 6.36754
#
# Compressibility (1/GPa) = 0.03405043
#
# Stress axis : x y z
#
# Youngs Moduli (GPa) = 78.49400 97.81923 54.11935
#
# Poissons Ratio (x) = 0.30206 -0.13022
# Poissons Ratio (y) = 0.24238 0.16308
# Poissons Ratio (z) = -0.18888 0.29476
#
# Static dielectric constant tensor:
#      x y z
#    x 1.810410 0.000000 -0.120100 
#    y 0.000000 2.013060 0.000000 
#    z -0.120100 0.000000 1.801660 
# 
# From -- ./inp_files/8397.got.cif
#   From: 2010.05.17/outbox.cif.g08.bks.cpg/sg12_5_cif.got.tgz:8397.got - 2010.06.03 13:09:07.
