data_PCOD9217165
_publ_section_title
;
Structure prediction by ZEFSAII (Michael W. Deem and Ramdas Pophale) SiO2 
 PCOD9217165
Probable space group: C 2/M
;
_chemical_formula_sum "Si O2"
_cell_formula_units_Z 56
_cell_length_a 15.083897
_cell_length_b 7.876887
_cell_length_c 19.356572
_cell_angle_alpha 90.000000
_cell_angle_beta 102.253655
_cell_angle_gamma 90.000000
_cell_volume 2247.438867
_symmetry_space_group_name_H-M "C 2/M"
_symmetry_group_IT_number 12
_symmetry_cell_setting 'monoclinic'
loop_
_space_group_symop_operation_xyz
x,y,z
-x,y,-z
-x,-y,-z
x,-y,z
1/2+x,1/2+y,z
1/2-x,1/2+y,-z
1/2-x,1/2-y,-z
1/2+x,1/2-y,z
loop_
_atom_site_type_symbol
_atom_site_label
_atom_site_fract_x
_atom_site_fract_y
_atom_site_fract_z
Si Si1 0.291512 0.798412 0.717992
Si Si2 0.693796 0.202127 0.842524
Si Si3 0.462711 0.806505 0.678155
Si Si4 0.967826 0.796786 0.102958
Si Si5 0.853241 0.194992 0.530815
Si Si6 0.638395 0.707401 0.051200
Si Si7 0.618088 0.199795 0.612774
O O1 0.243111 0.764555 0.782169
O O2 0.393761 0.730128 0.723202
O O3 0.222362 0.721179 0.651167
O O4 0.296074 0.000000 0.707239
O O5 0.589851 0.249125 0.839593
O O6 0.760694 0.266563 0.914723
O O7 0.697355 0.000000 0.841327
O O8 0.401723 0.803502 0.597911
O O9 0.555896 0.728709 0.664795
O O10 0.483904 0.000000 0.703029
O O11 0.069380 0.739104 0.101479
O O12 0.029693 0.000000 0.898960
O O13 0.907256 0.734898 0.027480
O O14 0.750000 0.250000 0.500000
O O15 0.898781 0.214969 0.463258
O O16 0.856815 0.000000 0.553599
O O17 0.639157 0.500000 0.049237
O O18 0.598359 0.000000 0.602486
#
# Coordination Sequence:
#
# PCOD9217165 Si02
#       7
#     8   8   8   8   8   8   8
#     4  11  24  42  60  81 113 157 200 239 283 346
#     4  11  22  36  55  83 117 151 190 238 289 339
#     4  10  23  42  63  87 118 152 192 242 297 348
#     4   9  17  35  60  85 113 149 191 233 282 342
#     4  12  23  37  62  92 122 155 193 239 291 346
#     4   8  17  34  58  85 115 150 188 233 284 341
#     4  11  23  41  64  90 119 152 189 242 300 349
#
# _framework density 24.917251
#
# number of rings (size 3 to 8) (size 9 to 14) (size 15 to 20)
#    0.000    1.714    1.429    4.286    0.000    4.571 
#    0.000    6.429    0.000    0.000    0.000    0.000 
#    0.000    0.000    0.000    0.000    0.000    0.000 
#
# Total GULP energy -156579.620392 kJ/mol
# GULP energy per Si atom -5592.129300 kJ/mol
# Density = 2.486054 g / cm^3
# Si number density = 24.917251 Si / 1000 Ang^3
#
#
#
# Elastic Constant Matrix: (Units=GPa)
#
#
# Indices 1 2 3 4 5 6 
#
# 1 154.1529 4.7043 15.4236 0.0000 -34.9461 0.0000
# 2 4.7043 57.9562 -12.5851 0.0000 -2.4608 0.0000
# 3 15.4236 -12.5851 54.9257 0.0000 -26.9613 0.0000
# 4 0.0000 0.0000 0.0000 16.3129 0.0000 -3.7087
# 5 -34.9461 -2.4608 -26.9613 0.0000 53.4152 0.0000
# 6 0.0000 0.0000 0.0000 -3.7087 0.0000 20.7458
#
#
#
# Elastic Compliance Matrix: (Units=1/GPa)
#
#
# Indices 1 2 3 4 5 6 
#
# 1 0.007630 -0.000337 0.000296 0.000000 0.005126 0.000000
# 2 -0.000337 0.018806 0.006276 0.000000 0.003813 0.000000
# 3 0.000296 0.006276 0.026319 0.000000 0.013767 0.000000
# 4 0.000000 0.000000 0.000000 0.063898 0.000000 0.011423
# 5 0.005126 0.003813 0.013767 0.000000 0.029199 0.000000
# 6 0.000000 0.000000 0.000000 0.011423 0.000000 0.050245
#
#
# Mechanical properties :
#
#
# Convention : Reuss Voigt Hill
#
# Bulk Modulus (GPa) = 15.33170 31.34671 23.33921
# Shear Modulus (GPa) = 24.34631 35.39425 29.87028
#
# Velocity S-wave (km/s) = 3.12923 3.77300 3.46610
# Velocity P-wave (km/s) = 4.38435 5.62035 5.04038
#
# Compressibility (1/GPa) = 0.06522432
#
# Stress axis : x y z
#
# Youngs Moduli (GPa) = 131.06708 53.17331 37.99511
#
# Poissons Ratio (x) = 0.01794 -0.01125
# Poissons Ratio (y) = 0.04422 -0.23844
# Poissons Ratio (z) = -0.03882 -0.33370
#
# Static dielectric constant tensor:
#      x y z
#    x 2.031270 0.000000 -0.029190 
#    y 0.000000 1.891030 0.000000 
#    z -0.029190 0.000000 2.043590 
# 
# From -- ./inp_files/309053.got.cif
#   From: 2010.05.17/outbox.cif.g08.bks.cpg/sg12_155_cif.got.tgz:309053.got - 2010.06.03 13:09:07.
