data_PCOD9217210
_publ_section_title
;
Structure prediction by ZEFSAII (Michael W. Deem and Ramdas Pophale) SiO2 
 PCOD9217210
Probable space group: C 2/M
;
_chemical_formula_sum "Si O2"
_cell_formula_units_Z 48
_cell_length_a 25.736045
_cell_length_b 8.304855
_cell_length_c 14.645502
_cell_angle_alpha 90.000000
_cell_angle_beta 139.103745
_cell_angle_gamma 90.000000
_cell_volume 2049.343531
_symmetry_space_group_name_H-M "C 2/M"
_symmetry_group_IT_number 12
_symmetry_cell_setting 'monoclinic'
loop_
_space_group_symop_operation_xyz
x,y,z
-x,y,-z
-x,-y,-z
x,-y,z
1/2+x,1/2+y,z
1/2-x,1/2+y,-z
1/2-x,1/2-y,-z
1/2+x,1/2-y,z
loop_
_atom_site_type_symbol
_atom_site_label
_atom_site_fract_x
_atom_site_fract_y
_atom_site_fract_z
Si Si1 0.671927 0.314076 0.846047
Si Si2 0.077425 0.805486 0.232393
Si Si3 0.918542 0.311642 0.439585
Si Si4 0.083229 0.684419 0.890863
Si Si5 0.663079 0.311573 0.166004
Si Si6 0.180523 0.812275 0.534973
O O1 0.680941 0.500000 0.832823
O O2 0.649026 0.213641 0.726491
O O3 0.602760 0.291647 0.829322
O O4 0.750000 0.250000 0.000000
O O5 0.098817 0.762197 0.157368
O O6 0.150672 0.760056 0.395818
O O7 0.998477 0.729430 0.168279
O O8 0.069865 0.000000 0.226037
O O9 0.925873 0.500000 0.473193
O O10 0.893587 0.213766 0.495351
O O11 0.000000 0.258256 0.500000
O O12 0.082695 0.500000 0.859814
O O13 0.150197 0.713015 0.056893
O O14 0.651563 0.500000 0.129201
O O15 0.747477 0.285929 0.325989
O O16 0.202624 0.000000 0.561696
#
# Coordination Sequence:
#
# PCOD9217210 Si02
#       6
#     8   8   8   8   8   8
#     4  12  25  43  66  91 123 161 204 253 305 363
#     4  10  23  42  64  91 124 163 205 252 305 360
#     4  11  24  42  64  92 125 161 203 251 304 363
#     4  12  25  41  63  92 125 161 204 253 305 363
#     4  11  23  41  64  90 124 164 206 252 304 361
#     4  11  23  40  63  92 125 161 204 252 304 362
#
# _framework density 23.422135000000001
#
# number of rings (size 3 to 8) (size 9 to 14) (size 15 to 20)
#    0.000    0.833    0.000    7.500    0.000    8.667 
#    0.000    0.000    0.000    0.000    0.000    0.000 
#    0.000    0.000    0.000    0.000    0.000    0.000 
#
# Total GULP energy -134524.105942 kJ/mol
# GULP energy per Si atom -5605.171081 kJ/mol
# Density = 2.336883 g / cm^3
# Si number density = 23.422135 Si / 1000 Ang^3
#
#
#
# Elastic Constant Matrix: (Units=GPa)
#
#
# Indices 1 2 3 4 5 6 
#
# 1 66.2237 0.8880 -6.9511 0.0000 -1.2870 0.0000
# 2 0.8880 38.0629 -3.6221 0.0000 -0.9806 0.0000
# 3 -6.9511 -3.6221 75.7424 0.0000 -5.8689 0.0000
# 4 0.0000 0.0000 0.0000 25.7490 0.0000 9.2895
# 5 -1.2870 -0.9806 -5.8689 0.0000 42.8279 0.0000
# 6 0.0000 0.0000 0.0000 9.2895 0.0000 24.1027
#
#
#
# Elastic Compliance Matrix: (Units=1/GPa)
#
#
# Indices 1 2 3 4 5 6 
#
# 1 0.015267 -0.000202 0.001442 0.000000 0.000652 0.000000
# 2 -0.000202 0.026421 0.001305 0.000000 0.000778 0.000000
# 3 0.001442 0.001305 0.013547 0.000000 0.001930 0.000000
# 4 0.000000 0.000000 0.000000 0.045109 0.000000 -0.017385
# 5 0.000652 0.000778 0.001930 0.000000 0.023651 0.000000
# 6 0.000000 0.000000 0.000000 -0.017385 0.000000 0.048190
#
#
# Mechanical properties :
#
#
# Convention : Reuss Voigt Hill
#
# Bulk Modulus (GPa) = 16.57681 17.85095 17.21388
# Shear Modulus (GPa) = 26.70898 31.18355 28.94627
#
# Velocity S-wave (km/s) = 3.38054 3.65275 3.51928
# Velocity P-wave (km/s) = 4.72548 5.04263 4.88663
#
# Compressibility (1/GPa) = 0.06032522
#
# Stress axis : x y z
#
# Youngs Moduli (GPa) = 65.50051 37.84831 73.81758
#
# Poissons Ratio (x) = 0.00765 -0.10644
# Poissons Ratio (y) = 0.01324 -0.09635
# Poissons Ratio (z) = -0.09445 -0.04940
#
# Static dielectric constant tensor:
#      x y z
#    x 1.884080 0.000000 0.045350 
#    y 0.000000 1.794230 0.000000 
#    z 0.045350 0.000000 1.886810 
# 
# From -- ./inp_files/244915.got.cif
#   From: 2010.05.17/outbox.cif.g08.bks.cpg/sg12_123_cif.got.tgz:244915.got - 2010.06.03 13:09:07.
