data_PCOD9217073
_publ_section_title
;
Structure prediction by ZEFSAII (Michael W. Deem and Ramdas Pophale) SiO2 
 PCOD9217073
Probable space group: C 2/M
;
_chemical_formula_sum "Si O2"
_cell_formula_units_Z 32
_cell_length_a 20.633461
_cell_length_b 11.329981
_cell_length_c 8.181765
_cell_angle_alpha 90.000000
_cell_angle_beta 120.972356
_cell_angle_gamma 90.000000
_cell_volume 1639.984313
_symmetry_space_group_name_H-M "C 2/M"
_symmetry_group_IT_number 12
_symmetry_cell_setting 'monoclinic'
loop_
_space_group_symop_operation_xyz
x,y,z
-x,y,-z
-x,-y,-z
x,-y,z
1/2+x,1/2+y,z
1/2-x,1/2+y,-z
1/2-x,1/2-y,-z
1/2+x,1/2-y,z
loop_
_atom_site_type_symbol
_atom_site_label
_atom_site_fract_x
_atom_site_fract_y
_atom_site_fract_z
Si Si1 0.569350 0.500000 0.338997
Si Si2 0.301064 0.311032 0.934364
Si Si3 0.292362 0.131251 0.490234
Si Si4 0.897502 0.000000 0.246426
Si Si5 0.916864 0.747193 0.821121
O O1 0.483000 0.500000 0.290506
O O2 0.611435 0.500000 0.568928
O O3 0.584173 0.382197 0.251263
O O4 0.241992 0.373196 0.735351
O O5 0.357398 0.236323 0.892678
O O6 0.250000 0.250000 0.000000
O O7 0.356662 0.391147 0.110621
O O8 0.250000 0.250000 0.500000
O O9 0.380444 0.163499 0.634399
O O10 0.276920 0.000000 0.543169
O O11 0.000000 0.722816 0.000000
#
# Coordination Sequence:
#
# PCOD9217073 Si02
#       5
#     4   8   8   4   8
#     4  11  22  37  68 105 126 176 220 296 334 410
#     4  11  22  41  62  96 135 175 220 284 336 395
#     4  10  23  41  66  95 134 178 224 273 336 406
#     4  11  21  38  67  98 134 163 238 279 345 391
#     4  11  22  40  67  94 136 176 225 270 344 400
#
# _framework density 19.512381999999999
#
# number of rings (size 3 to 8) (size 9 to 14) (size 15 to 20)
#    0.000    1.250    3.750    2.625    5.250    0.500 
#    9.000    0.000    0.000    1.500    0.000    0.000 
#    0.000    0.000    0.000    0.000    0.000    0.000 
#
# Total GULP energy -89070.136520 kJ/mol
# GULP energy per Si atom -5566.883533 kJ/mol
# Density = 1.946797 g / cm^3
# Si number density = 19.512382 Si / 1000 Ang^3
#
#
#
# Elastic Constant Matrix: (Units=GPa)
#
#
# Indices 1 2 3 4 5 6 
#
# 1 95.0222 19.7440 35.4951 0.0000 0.1749 0.0000
# 2 19.7440 96.5854 28.9002 0.0000 2.6916 0.0000
# 3 35.4951 28.9002 156.3979 0.0000 26.5100 0.0000
# 4 0.0000 0.0000 0.0000 39.1620 0.0000 6.0512
# 5 0.1749 2.6916 26.5100 0.0000 33.1413 0.0000
# 6 0.0000 0.0000 0.0000 6.0512 0.0000 23.2091
#
#
#
# Elastic Compliance Matrix: (Units=1/GPa)
#
#
# Indices 1 2 3 4 5 6 
#
# 1 0.011906 -0.001665 -0.002784 0.000000 0.002299 0.000000
# 2 -0.001665 0.011213 -0.001783 0.000000 0.000524 0.000000
# 3 -0.002784 -0.001783 0.008478 0.000000 -0.006622 0.000000
# 4 0.000000 0.000000 0.000000 0.026607 0.000000 -0.006937
# 5 0.002299 0.000524 -0.006622 0.000000 0.035416 0.000000
# 6 0.000000 0.000000 0.000000 -0.006937 0.000000 0.044895
#
#
# Mechanical properties :
#
#
# Convention : Reuss Voigt Hill
#
# Bulk Modulus (GPa) = 52.26797 57.36491 54.81644
# Shear Modulus (GPa) = 31.77520 36.69357 34.23438
#
# Velocity S-wave (km/s) = 4.03980 4.34121 4.19321
# Velocity P-wave (km/s) = 6.97174 7.38858 7.18319
#
# Compressibility (1/GPa) = 0.01913218
#
# Stress axis : x y z
#
# Youngs Moduli (GPa) = 83.99455 89.18425 117.95594
#
# Poissons Ratio (x) = 0.14847 0.32841
# Poissons Ratio (y) = 0.13983 0.21032
# Poissons Ratio (z) = 0.23385 0.15902
#
# Static dielectric constant tensor:
#      x y z
#    x 1.741130 0.000000 0.004160 
#    y 0.000000 1.695860 0.000000 
#    z 0.004160 0.000000 1.741290 
# 
# From -- ./inp_files/93953.got.cif
#   From: 2010.05.17/outbox.cif.g08.bks.cpg/sg12_47_cif.got.tgz:93953.got - 2010.06.03 13:09:07.
