data_PCOD9217477
_publ_section_title
;
Structure prediction by ZEFSAII (Michael W. Deem and Ramdas Pophale) SiO2 
 PCOD9217477
Probable space group: C 2/M
;
_chemical_formula_sum "Si O2"
_cell_formula_units_Z 40
_cell_length_a 30.239110
_cell_length_b 8.725026
_cell_length_c 15.122349
_cell_angle_alpha 90.000000
_cell_angle_beta 149.145096
_cell_angle_gamma 90.000000
_cell_volume 2046.249913
_symmetry_space_group_name_H-M "C 2/M"
_symmetry_group_IT_number 12
_symmetry_cell_setting 'monoclinic'
loop_
_space_group_symop_operation_xyz
x,y,z
-x,y,-z
-x,-y,-z
x,-y,z
1/2+x,1/2+y,z
1/2-x,1/2+y,-z
1/2-x,1/2-y,-z
1/2+x,1/2-y,z
loop_
_atom_site_type_symbol
_atom_site_label
_atom_site_fract_x
_atom_site_fract_y
_atom_site_fract_z
Si Si1 0.960390 0.182811 0.207171
Si Si2 0.239594 0.182925 0.384304
Si Si3 0.277781 0.183596 0.953707
Si Si4 0.057592 0.316564 0.012832
Si Si5 0.352603 0.315417 0.426827
O O1 0.046335 0.220693 0.410292
O O2 0.948968 0.000000 0.188115
O O3 0.872715 0.258924 0.090453
O O4 0.976362 0.239064 0.134492
O O5 0.250000 0.250000 0.500000
O O6 0.152792 0.252812 0.193914
O O7 0.316562 0.235325 0.452671
O O8 0.234565 0.000000 0.379339
O O9 0.208400 0.230083 0.759470
O O10 0.278010 0.000000 0.957571
O O11 0.250000 0.250000 0.000000
O O12 0.060464 0.500000 0.006032
O O13 0.000000 0.282489 0.000000
O O14 0.345375 0.500000 0.425538
#
# Coordination Sequence:
#
# PCOD9217477 Si02
#       5
#     8   8   8   8   8
#     4  11  23  41  66  96 128 168 216 267 324 387
#     4  12  24  38  61  91 128 171 217 266 318 382
#     4  11  24  44  69  95 130 172 216 273 329 386
#     4  11  23  39  60  90 129 171 215 264 321 383
#     4  10  23  43  66  93 131 171 212 265 326 386
#
# _framework density 19.547955000000002
#
# number of rings (size 3 to 8) (size 9 to 14) (size 15 to 20)
#    0.000    1.000    2.000    4.800    0.000    8.000 
#    0.000    4.000    0.000    0.000    0.000    0.000 
#    0.000    0.000    0.000    0.000    0.000    0.000 
#
# Total GULP energy -111884.821823 kJ/mol
# GULP energy per Si atom -5594.241091 kJ/mol
# Density = 1.950346 g / cm^3
# Si number density = 19.547955 Si / 1000 Ang^3
#
#
#
# Elastic Constant Matrix: (Units=GPa)
#
#
# Indices 1 2 3 4 5 6 
#
# 1 123.7844 41.1623 66.6535 0.0000 -3.8327 0.0000
# 2 41.1623 46.2204 40.9893 0.0000 3.5229 0.0000
# 3 66.6535 40.9893 149.1096 0.0000 13.9899 0.0000
# 4 0.0000 0.0000 0.0000 26.9332 0.0000 0.0893
# 5 -3.8327 3.5229 13.9899 0.0000 28.8910 0.0000
# 6 0.0000 0.0000 0.0000 0.0893 0.0000 38.9699
#
#
#
# Elastic Compliance Matrix: (Units=1/GPa)
#
#
# Indices 1 2 3 4 5 6 
#
# 1 0.013240 -0.008608 -0.003997 0.000000 0.004742 0.000000
# 2 -0.008608 0.034209 -0.005298 0.000000 -0.002748 0.000000
# 3 -0.003997 -0.005298 0.010412 0.000000 -0.004926 0.000000
# 4 0.000000 0.000000 0.000000 0.037129 0.000000 -0.000085
# 5 0.004742 -0.002748 -0.004926 0.000000 0.037962 0.000000
# 6 0.000000 0.000000 0.000000 -0.000085 0.000000 0.025661
#
#
# Mechanical properties :
#
#
# Convention : Reuss Voigt Hill
#
# Bulk Modulus (GPa) = 45.34161 68.52496 56.93329
# Shear Modulus (GPa) = 24.78046 30.31277 27.54662
#
# Velocity S-wave (km/s) = 3.56431 3.94215 3.75798
# Velocity P-wave (km/s) = 6.33912 7.47339 6.92950
#
# Compressibility (1/GPa) = 0.02205480
#
# Stress axis : x y z
#
# Youngs Moduli (GPa) = 75.52859 29.23173 96.04444
#
# Poissons Ratio (x) = 0.25162 0.38389
# Poissons Ratio (y) = 0.65014 0.50888
# Poissons Ratio (z) = 0.30189 0.15488
#
# Static dielectric constant tensor:
#      x y z
#    x 1.662200 0.000000 0.002990 
#    y 0.000000 1.656860 0.000000 
#    z 0.002990 0.000000 1.679840 
# 
# From -- ./inp_files/211197.got.cif
#   From: 2010.05.17/outbox.cif.g08.bks.cpg/sg12_106_cif.got.tgz:211197.got - 2010.06.03 13:09:07.
