data_PCOD9217112
_publ_section_title
;
Structure prediction by ZEFSAII (Michael W. Deem and Ramdas Pophale) SiO2 
 PCOD9217112
Probable space group: C 2/M
;
_chemical_formula_sum "Si O2"
_cell_formula_units_Z 40
_cell_length_a 12.192479
_cell_length_b 15.995084
_cell_length_c 18.834577
_cell_angle_alpha 90.000000
_cell_angle_beta 152.981737
_cell_angle_gamma 90.000000
_cell_volume 1668.601988
_symmetry_space_group_name_H-M "C 2/M"
_symmetry_group_IT_number 12
_symmetry_cell_setting 'monoclinic'
loop_
_space_group_symop_operation_xyz
x,y,z
-x,y,-z
-x,-y,-z
x,-y,z
1/2+x,1/2+y,z
1/2-x,1/2+y,-z
1/2-x,1/2-y,-z
1/2+x,1/2-y,z
loop_
_atom_site_type_symbol
_atom_site_label
_atom_site_fract_x
_atom_site_fract_y
_atom_site_fract_z
Si Si1 0.881942 0.176746 0.620141
Si Si2 0.360875 0.403521 0.350889
Si Si3 0.721496 0.180354 0.821213
Si Si4 0.842279 0.345404 0.065122
Si Si5 0.316379 0.403258 0.728880
O O1 0.750000 0.250000 0.500000
O O2 0.768858 0.144392 0.627607
O O3 0.953574 0.104591 0.607271
O O4 0.128558 0.226158 0.777941
O O5 0.500000 0.366892 0.500000
O O6 0.304573 0.500000 0.332701
O O7 0.106806 0.359353 0.185740
O O8 0.604677 0.133678 0.820962
O O9 0.699097 0.141833 0.730030
O O10 0.000000 0.176438 0.000000
O O11 0.750000 0.250000 0.000000
O O12 0.609762 0.398306 0.907204
O O13 0.245370 0.500000 0.685757
#
# Coordination Sequence:
#
# PCOD9217112 Si02
#       5
#     8   8   8   8   8
#     4  12  26  43  68  95 136 187 236 288 355 430
#     4  11  25  42  66 101 142 180 231 296 359 417
#     4  10  23  41  70  98 135 181 232 279 346 429
#     4  11  21  43  72 105 140 187 236 285 352 432
#     4  11  25  44  70 104 140 178 237 301 353 412
#
# _framework density 23.972162999999998
#
# number of rings (size 3 to 8) (size 9 to 14) (size 15 to 20)
#    0.000    1.000    2.000    4.800    2.800    4.400 
#    0.000    5.000    0.000    0.000    0.000    0.000 
#    0.000    0.000    0.000    0.000    0.000    0.000 
#
# Total GULP energy -111746.968791 kJ/mol
# GULP energy per Si atom -5587.348440 kJ/mol
# Density = 2.391760 g / cm^3
# Si number density = 23.972163 Si / 1000 Ang^3
#
#
#
# Elastic Constant Matrix: (Units=GPa)
#
#
# Indices 1 2 3 4 5 6 
#
# 1 163.9723 37.4737 33.6612 0.0022 -35.9351 -0.0007
# 2 37.4737 112.9259 20.0058 0.0069 -11.7998 0.0000
# 3 33.6612 20.0058 91.8504 0.0073 -15.7678 -0.0025
# 4 0.0022 0.0069 0.0073 23.8001 0.0000 0.4216
# 5 -35.9351 -11.7998 -15.7678 0.0000 41.9203 -0.0016
# 6 -0.0007 0.0000 -0.0025 0.4216 -0.0016 30.0221
#
#
#
# Elastic Compliance Matrix: (Units=1/GPa)
#
#
# Indices 1 2 3 4 5 6 
#
# 1 0.008118 -0.001802 -0.001577 0.000000 0.005859 0.000000
# 2 -0.001802 0.009765 -0.001347 -0.000002 0.000697 0.000000
# 3 -0.001577 -0.001347 0.012252 -0.000003 0.002878 0.000001
# 4 0.000000 -0.000002 -0.000003 0.042027 -0.000002 -0.000590
# 5 0.005859 0.000697 0.002878 -0.000002 0.030156 0.000002
# 6 0.000000 0.000000 0.000001 -0.000590 0.000002 0.033317
#
#
# Mechanical properties :
#
#
# Convention : Reuss Voigt Hill
#
# Bulk Modulus (GPa) = 48.34717 61.22557 54.78637
# Shear Modulus (GPa) = 32.89869 37.65569 35.27719
#
# Velocity S-wave (km/s) = 3.70857 3.96764 3.84029
# Velocity P-wave (km/s) = 6.20885 6.82534 6.52438
#
# Compressibility (1/GPa) = 0.02068373
#
# Stress axis : x y z
#
# Youngs Moduli (GPa) = 123.18088 102.40767 81.61600
#
# Poissons Ratio (x) = 0.18458 0.12869
# Poissons Ratio (y) = 0.22202 0.10991
# Poissons Ratio (z) = 0.19423 0.13791
#
# Static dielectric constant tensor:
#      x y z
#    x 1.997870 0.000000 -0.051420 
#    y 0.000000 1.917340 -0.000010 
#    z -0.051420 -0.000010 2.112040 
# 
# From -- ./inp_files/264441.got.cif
#   From: 2010.05.17/outbox.cif.g08.bks.cpg/sg12_133_cif.got.tgz:264441.got - 2010.06.03 13:09:07.
