data_PCOD9217726
_publ_section_title
;
Structure prediction by ZEFSAII (Michael W. Deem and Ramdas Pophale) SiO2 
 PCOD9217726
Probable space group: C 2/M
;
_chemical_formula_sum "Si O2"
_cell_formula_units_Z 64
_cell_length_a 25.074747
_cell_length_b 14.783837
_cell_length_c 12.417148
_cell_angle_alpha 90.000000
_cell_angle_beta 138.780563
_cell_angle_gamma 90.000000
_cell_volume 3033.154504
_symmetry_space_group_name_H-M "C 2/M"
_symmetry_group_IT_number 12
_symmetry_cell_setting 'monoclinic'
loop_
_space_group_symop_operation_xyz
x,y,z
-x,y,-z
-x,-y,-z
x,-y,z
1/2+x,1/2+y,z
1/2-x,1/2+y,-z
1/2-x,1/2-y,-z
1/2+x,1/2-y,z
loop_
_atom_site_type_symbol
_atom_site_label
_atom_site_fract_x
_atom_site_fract_y
_atom_site_fract_z
Si Si1 0.406247 0.401376 0.642234
Si Si2 0.258894 0.858173 0.714997
Si Si3 0.885585 0.900589 0.867963
Si Si4 0.288039 0.153760 0.378893
Si Si5 0.610197 0.899303 0.259245
Si Si6 0.907045 0.392893 0.372863
Si Si7 0.514649 0.753001 0.856223
Si Si8 0.862782 0.394275 0.064188
O O1 0.445162 0.500000 0.685916
O O2 0.323795 0.401761 0.450116
O O3 0.384681 0.390729 0.736822
O O4 0.461027 0.314297 0.700776
O O5 0.245402 0.754727 0.661120
O O6 0.336712 0.892912 0.767538
O O7 0.281444 0.873651 0.873487
O O8 0.793817 0.899761 0.770469
O O9 0.920895 0.000000 0.944711
O O10 0.934602 0.818388 0.995159
O O11 0.327961 0.116417 0.548061
O O12 0.355910 0.150906 0.390367
O O13 0.545892 0.819315 0.172168
O O14 0.574173 0.000000 0.213223
O O15 0.911869 0.500000 0.406446
O O16 0.860856 0.382675 0.189537
O O17 0.000000 0.361236 0.500000
O O18 0.572596 0.821739 0.881409
O O19 0.885717 0.500000 0.080121
#
# Coordination Sequence:
#
# PCOD9217726 Si02
#       8
#     8   8   8   8   8   8   8   8
#     4  11  23  41  63  90 132 181 220 267 323 386
#     4  12  24  42  62  96 136 172 216 262 327 405
#     4  11  23  40  62  94 132 172 224 274 320 380
#     4  12  22  42  72  95 125 171 225 276 319 380
#     4  12  24  40  66  99 137 178 216 264 326 392
#     4  10  23  44  70  99 127 164 219 278 331 379
#     4  12  24  38  60  94 133 174 219 268 320 389
#     4  11  25  44  64  93 133 172 212 268 330 390
#
# _framework density 21.100144
#
# number of rings (size 3 to 8) (size 9 to 14) (size 15 to 20)
#    0.000    0.625    3.750    5.250    1.750    2.500 
#    0.000    1.250    0.000    0.000    0.000    0.875 
#    0.000    0.000    0.000    0.000    0.000    0.000 
#
# Total GULP energy -178977.823480 kJ/mol
# GULP energy per Si atom -5593.056984 kJ/mol
# Density = 2.105212 g / cm^3
# Si number density = 21.100144 Si / 1000 Ang^3
#
#
#
# Elastic Constant Matrix: (Units=GPa)
#
#
# Indices 1 2 3 4 5 6 
#
# 1 47.8781 5.4130 14.0855 0.0000 8.9881 0.0000
# 2 5.4130 147.2876 11.7258 0.0000 8.3171 0.0000
# 3 14.0855 11.7258 81.8766 0.0000 4.9781 0.0000
# 4 0.0000 0.0000 0.0000 14.1936 0.0000 -9.0792
# 5 8.9881 8.3171 4.9781 0.0000 30.4237 0.0000
# 6 0.0000 0.0000 0.0000 -9.0792 0.0000 -0.2399
#
#
#
# Elastic Compliance Matrix: (Units=1/GPa)
#
#
# Indices 1 2 3 4 5 6 
#
# 1 0.023123 -0.000216 -0.003571 0.000000 -0.006188 0.000000
# 2 -0.000216 0.006962 -0.000856 0.000000 -0.001699 0.000000
# 3 -0.003571 -0.000856 0.013001 0.000000 -0.000838 0.000000
# 4 0.000000 0.000000 0.000000 0.002794 0.000000 -0.105773
# 5 -0.006188 -0.001699 -0.000838 0.000000 0.035299 0.000000
# 6 0.000000 0.000000 0.000000 -0.105773 0.000000 -0.165356
#
#
# Mechanical properties :
#
#
# Convention : Reuss Voigt Hill
#
# Bulk Modulus (GPa) = 29.58649 37.72120 33.65385
# Shear Modulus (GPa) = -78.58701 25.26336 -26.66182
#
# Velocity S-wave (km/s) = -6.10947 3.46397 -3.55855
# Velocity P-wave (km/s) = 5.97621 5.82364 0.94877
#
# Compressibility (1/GPa) = 0.03379921
#
# Stress axis : x y z
#
# Youngs Moduli (GPa) = 43.24707 143.64697 76.91474
#
# Poissons Ratio (x) = 0.03104 0.27464
# Poissons Ratio (y) = 0.00935 0.06588
# Poissons Ratio (z) = 0.15442 0.12303
#
# Static dielectric constant tensor:
#      x y z
#    x 1.725760 0.000000 0.015950 
#    y 0.000000 1.790980 0.000000 
#    z 0.015950 0.000000 1.796120 
# 
# From -- ./inp_files/183824.got.cif
#   From: 2010.05.17/outbox.cif.g08.bks.cpg/sg12_92_cif.got.tgz:183824.got - 2010.06.03 13:09:07.
