data_PCOD9217142
_publ_section_title
;
Structure prediction by ZEFSAII (Michael W. Deem and Ramdas Pophale) SiO2 
 PCOD9217142
Probable space group: C 2/M
;
_chemical_formula_sum "Si O2"
_cell_formula_units_Z 40
_cell_length_a 25.247706
_cell_length_b 14.114201
_cell_length_c 13.910619
_cell_angle_alpha 90.000000
_cell_angle_beta 159.258471
_cell_angle_gamma 90.000000
_cell_volume 1755.558598
_symmetry_space_group_name_H-M "C 2/M"
_symmetry_group_IT_number 12
_symmetry_cell_setting 'monoclinic'
loop_
_space_group_symop_operation_xyz
x,y,z
-x,y,-z
-x,-y,-z
x,-y,z
1/2+x,1/2+y,z
1/2-x,1/2+y,-z
1/2-x,1/2-y,-z
1/2+x,1/2-y,z
loop_
_atom_site_type_symbol
_atom_site_label
_atom_site_fract_x
_atom_site_fract_y
_atom_site_fract_z
Si Si1 0.175031 0.110347 0.319499
Si Si2 0.186614 0.743857 0.597741
Si Si3 0.153292 0.611027 0.716727
Si Si4 0.530000 0.388497 0.663685
Si Si5 0.148850 0.603705 0.190585
O O1 0.284109 0.184442 0.450863
O O2 0.216309 0.112827 0.502726
O O3 0.201963 0.000000 0.335550
O O4 0.000000 0.131357 0.000000
O O5 0.188899 0.663341 0.680019
O O6 0.331165 0.812386 0.849162
O O7 0.055473 0.816508 0.409175
O O8 0.134165 0.500000 0.665375
O O9 0.000000 0.648554 0.500000
O O10 0.293312 0.623772 0.023393
O O11 0.500000 0.372916 0.500000
O O12 0.493618 0.500000 0.624576
O O13 0.151778 0.500000 0.150551
O O14 0.000000 0.611247 0.000000
#
# Coordination Sequence:
#
# PCOD9217142 Si02
#       5
#     8   8   8   8   8
#     4  10  23  42  63  92 133 176 215 262 317 379
#     4  12  23  36  68 100 124 165 220 265 316 375
#     4  10  24  46  68  94 131 170 214 269 327 391
#     4  10  24  46  68  94 131 171 213 267 331 392
#     4  10  23  42  61  90 134 175 212 259 318 381
#
# _framework density 22.784770000000002
#
# number of rings (size 3 to 8) (size 9 to 14) (size 15 to 20)
#    0.000    1.600    0.000    3.000    5.600    3.200 
#    0.000    0.000    0.000    0.000    0.000    0.000 
#    0.000    0.000    0.000    0.000    0.000    0.000 
#
# Total GULP energy -111688.213413 kJ/mol
# GULP energy per Si atom -5584.410671 kJ/mol
# Density = 2.273291 g / cm^3
# Si number density = 22.784770 Si / 1000 Ang^3
#
#
#
# Elastic Constant Matrix: (Units=GPa)
#
#
# Indices 1 2 3 4 5 6 
#
# 1 80.7718 39.6407 16.7915 0.0000 16.5877 0.0000
# 2 39.6407 121.4593 30.9668 0.0000 18.4007 0.0000
# 3 16.7915 30.9668 72.7322 0.0000 21.1388 0.0000
# 4 0.0000 0.0000 0.0000 2.4200 0.0000 18.8706
# 5 16.5877 18.4007 21.1388 0.0000 20.7396 0.0000
# 6 0.0000 0.0000 0.0000 18.8706 0.0000 48.7817
#
#
#
# Elastic Compliance Matrix: (Units=1/GPa)
#
#
# Indices 1 2 3 4 5 6 
#
# 1 0.016283 -0.003975 0.000985 0.000000 -0.010501 0.000000
# 2 -0.003975 0.010753 -0.002574 0.000000 -0.003738 0.000000
# 3 0.000985 -0.002574 0.020153 0.000000 -0.019044 0.000000
# 4 0.000000 0.000000 0.000000 -0.204924 0.000000 0.079272
# 5 -0.010501 -0.003738 -0.019044 0.000000 0.079343 0.000000
# 6 0.000000 0.000000 0.000000 0.079272 0.000000 -0.010166
#
#
# Mechanical properties :
#
#
# Convention : Reuss Voigt Hill
#
# Bulk Modulus (GPa) = 27.73097 49.97349 38.85223
# Shear Modulus (GPa) = -76.43976 26.89253 -24.77362
#
# Velocity S-wave (km/s) = -5.79840 3.43926 -3.30098
# Velocity P-wave (km/s) = 5.71239 6.14425 1.60007
#
# Compressibility (1/GPa) = 0.03606076
#
# Stress axis : x y z
#
# Youngs Moduli (GPa) = 61.41418 92.99766 49.62088
#
# Poissons Ratio (x) = 0.36962 -0.04887
# Poissons Ratio (y) = 0.24409 0.12774
# Poissons Ratio (z) = -0.06049 0.23941
#
# Static dielectric constant tensor:
#      x y z
#    x 1.770750 0.000000 -0.028540 
#    y 0.000000 1.899130 0.000000 
#    z -0.028540 0.000000 1.834670 
# 
# From -- ./inp_files/246656.got.cif
#   From: 2010.05.17/outbox.cif.g08.bks.cpg/sg12_124_cif.got.tgz:246656.got - 2010.06.03 13:09:07.
