data_PCOD9217500
_publ_section_title
;
Structure prediction by ZEFSAII (Michael W. Deem and Ramdas Pophale) SiO2 
 PCOD9217500
Probable space group: C 2/M
;
_chemical_formula_sum "Si O2"
_cell_formula_units_Z 64
_cell_length_a 21.560486
_cell_length_b 22.722394
_cell_length_c 16.104884
_cell_angle_alpha 90.000000
_cell_angle_beta 21.803951
_cell_angle_gamma 90.000000
_cell_volume 2930.551702
_symmetry_space_group_name_H-M "C 2/M"
_symmetry_group_IT_number 12
_symmetry_cell_setting 'monoclinic'
loop_
_space_group_symop_operation_xyz
x,y,z
-x,y,-z
-x,-y,-z
x,-y,z
1/2+x,1/2+y,z
1/2-x,1/2+y,-z
1/2-x,1/2-y,-z
1/2+x,1/2-y,z
loop_
_atom_site_type_symbol
_atom_site_label
_atom_site_fract_x
_atom_site_fract_y
_atom_site_fract_z
Si Si1 0.550057 0.899081 0.842328
Si Si2 0.883674 0.710311 0.496117
Si Si3 0.550188 0.678494 0.345598
Si Si4 0.102322 0.064197 0.538447
Si Si5 0.097940 0.621367 0.135226
Si Si6 0.783845 0.935030 0.053313
Si Si7 0.128351 0.159264 0.918826
Si Si8 0.396486 0.761968 0.250268
O O1 0.736579 0.923357 0.606078
O O2 0.447531 0.918683 0.888204
O O3 0.547089 0.828363 0.834213
O O4 0.500000 0.913292 0.000000
O O5 0.818797 0.673087 0.654272
O O6 0.709284 0.744476 0.698984
O O7 0.015762 0.762570 0.336897
O O8 0.947599 0.665475 0.346728
O O9 0.500000 0.696295 0.500000
O O10 0.429796 0.622513 0.475934
O O11 0.737324 0.657089 0.097485
O O12 0.121307 0.000000 0.472045
O O13 0.941585 0.061013 0.795661
O O14 0.143408 0.590288 0.165604
O O15 0.847383 0.893901 0.047941
O O16 0.737892 0.000000 0.140172
O O17 0.000000 0.145853 0.000000
O O18 0.043911 0.214402 0.072797
O O19 0.250000 0.750000 0.500000
#
# Coordination Sequence:
#
# PCOD9217500 Si02
#       8
#     8   8   8   8   8   8   8   8
#     4  12  23  40  65  97 133 172 224 276 334 395
#     4  11  23  39  61  99 139 172 217 271 332 409
#     4  11  24  40  62  96 133 176 217 274 332 397
#     4  10  23  43  67  90 122 178 231 268 320 392
#     4  11  26  39  64  98 136 178 217 272 341 388
#     4  10  24  48  70  93 134 178 223 274 326 396
#     4  10  24  40  68 103 132 172 219 277 330 392
#     4  11  21  37  65  97 138 172 216 278 338 387
#
# _framework density 21.838891
#
# number of rings (size 3 to 8) (size 9 to 14) (size 15 to 20)
#    0.000    1.250    2.500    3.000    7.000    1.250 
#    0.000    3.750    0.000    0.000    0.000    0.000 
#    0.000    0.000    0.000    0.000    0.000    0.000 
#
# Total GULP energy -178375.031370 kJ/mol
# GULP energy per Si atom -5574.219730 kJ/mol
# Density = 2.178918 g / cm^3
# Si number density = 21.838891 Si / 1000 Ang^3
#
#
#
# Elastic Constant Matrix: (Units=GPa)
#
#
# Indices 1 2 3 4 5 6 
#
# 1 77.9061 26.3663 9.1153 0.0166 -6.0592 0.0003
# 2 26.3663 67.9046 5.5388 -0.0071 1.0025 0.0324
# 3 9.1153 5.5388 62.7815 0.0054 -7.0845 0.0177
# 4 0.0166 -0.0071 0.0054 0.3497 -0.0067 7.9690
# 5 -6.0592 1.0025 -7.0845 -0.0067 32.3187 -0.0217
# 6 0.0003 0.0324 0.0177 7.9690 -0.0217 34.0370
#
#
#
# Elastic Compliance Matrix: (Units=1/GPa)
#
#
# Indices 1 2 3 4 5 6 
#
# 1 0.015180 -0.005821 -0.001383 0.000217 0.002723 -0.000043
# 2 -0.005821 0.017084 -0.000866 -0.000228 -0.001811 0.000036
# 3 -0.001383 -0.000866 0.016590 0.000004 0.003404 -0.000007
# 4 0.000217 -0.000228 0.000004 -0.659593 0.000015 0.154429
# 5 0.002723 -0.001811 0.003404 0.000015 0.032255 0.000017
# 6 -0.000043 0.000036 -0.000007 0.154429 0.000017 -0.006776
#
#
# Mechanical properties :
#
#
# Convention : Reuss Voigt Hill
#
# Bulk Modulus (GPa) = 30.56993 32.29257 31.43125
# Shear Modulus (GPa) = -8.95712 24.51252 7.77770
#
# Velocity S-wave (km/s) = -2.02740 3.35390 1.88921
# Velocity P-wave (km/s) = 2.92367 5.46049 4.37977
#
# Compressibility (1/GPa) = 0.03271189
#
# Stress axis : x y z
#
# Youngs Moduli (GPa) = 65.87727 58.53338 60.27854
#
# Poissons Ratio (x) = 0.34075 0.08337
# Poissons Ratio (y) = 0.38350 0.05222
# Poissons Ratio (z) = 0.09111 0.05071
#
# Static dielectric constant tensor:
#      x y z
#    x 1.979340 -0.000040 0.050920 
#    y -0.000040 1.928640 0.000010 
#    z 0.050920 0.000010 1.819630 
# 
# From -- ./inp_files/290887.got.cif
#   From: 2010.05.17/outbox.cif.g08.bks.cpg/sg12_146_cif.got.tgz:290887.got - 2010.06.03 13:09:07.
