data_PCOD9217418
_publ_section_title
;
Structure prediction by ZEFSAII (Michael W. Deem and Ramdas Pophale) SiO2 
 PCOD9217418
Probable space group: C 2/M
;
_chemical_formula_sum "Si O2"
_cell_formula_units_Z 42
_cell_length_a 35.202915
_cell_length_b 7.601130
_cell_length_c 7.080343
_cell_angle_alpha 90.000000
_cell_angle_beta 56.433486
_cell_angle_gamma 90.000000
_cell_volume 1578.641633
_symmetry_space_group_name_H-M "C 2/M"
_symmetry_group_IT_number 12
_symmetry_cell_setting 'monoclinic'
loop_
_space_group_symop_operation_xyz
x,y,z
-x,y,-z
-x,-y,-z
x,-y,z
1/2+x,1/2+y,z
1/2-x,1/2+y,-z
1/2-x,1/2-y,-z
1/2+x,1/2-y,z
loop_
_atom_site_type_symbol
_atom_site_label
_atom_site_fract_x
_atom_site_fract_y
_atom_site_fract_z
Si Si1 0.407744 0.702687 0.654630
Si Si2 0.312441 0.795159 0.998109
Si Si3 0.500000 0.000000 0.000000
Si Si4 0.879955 0.789480 0.324022
Si Si5 0.533123 0.714053 0.172494
Si Si6 0.782817 0.294443 0.662919
O O1 0.418642 0.500000 0.584247
O O2 0.360709 0.706086 0.905938
O O3 0.393761 0.784140 0.493055
O O4 0.449832 0.762698 0.664939
O O5 0.297034 0.723235 0.832886
O O6 0.323212 0.000000 0.951529
O O7 0.266702 0.781559 0.248445
O O8 0.497895 0.842285 0.169402
O O9 0.921051 0.743131 0.075008
O O10 0.828764 0.730066 0.417424
O O11 0.877401 0.000000 0.338830
O O12 0.524609 0.500000 0.184070
O O13 0.774712 0.500000 0.703854
#
# Coordination Sequence:
#
# PCOD9217418 Si02
#       6
#     8   8   2   8   8   8
#     4   9  18  35  59  84 115 154 193 237 289 342
#     4   9  16  26  45  76 114 154 196 237 277 330
#     4  12  26  44  70  90 116 154 190 244 310 366
#     4   9  18  35  59  84 115 154 193 237 289 342
#     4  10  23  43  64  89 118 148 189 241 298 361
#     4   9  16  26  45  76 114 154 196 237 277 330
#
# _framework density 26.605153000000001
#
# number of rings (size 3 to 8) (size 9 to 14) (size 15 to 20)
#    0.000    2.667    0.000    1.429    2.667    4.571 
#    0.000    2.857    0.000    4.571    0.000    0.000 
#    0.000    0.000    0.000    0.000    0.000    0.000 
#
# Total GULP energy -117136.034301 kJ/mol
# GULP energy per Si atom -5577.906395 kJ/mol
# Density = 2.654460 g / cm^3
# Si number density = 26.605153 Si / 1000 Ang^3
#
#
#
# Elastic Constant Matrix: (Units=GPa)
#
#
# Indices 1 2 3 4 5 6 
#
# 1 159.0524 8.9637 35.1408 0.0000 -7.9556 0.0000
# 2 8.9637 70.9843 14.5266 0.0000 13.8249 0.0000
# 3 35.1408 14.5266 104.6103 0.0000 -21.2489 0.0000
# 4 0.0000 0.0000 0.0000 -19.1101 0.0000 -6.1735
# 5 -7.9556 13.8249 -21.2489 0.0000 52.9829 0.0000
# 6 0.0000 0.0000 0.0000 -6.1735 0.0000 20.3728
#
#
#
# Elastic Compliance Matrix: (Units=1/GPa)
#
#
# Indices 1 2 3 4 5 6 
#
# 1 0.006806 -0.000470 -0.002165 0.000000 0.000276 0.000000
# 2 -0.000470 0.015859 -0.003156 0.000000 -0.005475 0.000000
# 3 -0.002165 -0.003156 0.011786 0.000000 0.005225 0.000000
# 4 0.000000 0.000000 0.000000 -0.047663 0.000000 -0.014443
# 5 0.000276 -0.005475 0.005225 0.000000 0.022440 0.000000
# 6 0.000000 0.000000 0.000000 -0.014443 0.000000 0.044709
#
#
# Mechanical properties :
#
#
# Convention : Reuss Voigt Hill
#
# Bulk Modulus (GPa) = 43.72829 50.21213 46.97021
# Shear Modulus (GPa) = 68.35976 29.25017 48.80497
#
# Velocity S-wave (km/s) = 5.07444 3.31934 4.28766
# Velocity P-wave (km/s) = 7.12776 5.79696 6.49653
#
# Compressibility (1/GPa) = 0.02286849
#
# Stress axis : x y z
#
# Youngs Moduli (GPa) = 146.93246 63.05499 84.84505
#
# Poissons Ratio (x) = 0.02965 0.18367
# Poissons Ratio (y) = 0.06910 0.26780
# Poissons Ratio (z) = 0.31807 0.19902
#
# Static dielectric constant tensor:
#      x y z
#    x 2.146890 0.000000 -0.010380 
#    y 0.000000 1.967250 0.000000 
#    z -0.010380 0.000000 2.248170 
# 
# From -- ./inp_files/107857.got.cif
#   From: 2010.05.17/outbox.cif.g08.bks.cpg/sg12_54_cif.got.tgz:107857.got - 2010.06.03 13:09:07.
