data_PCOD9217830
_publ_section_title
;
Structure prediction by ZEFSAII (Michael W. Deem and Ramdas Pophale) SiO2 
 PCOD9217830
Probable space group: C 2/M
;
_chemical_formula_sum "Si O2"
_cell_formula_units_Z 50
_cell_length_a 17.347705
_cell_length_b 25.426830
_cell_length_c 5.125401
_cell_angle_alpha 90.000000
_cell_angle_beta 112.445184
_cell_angle_gamma 90.000000
_cell_volume 2089.533388
_symmetry_space_group_name_H-M "C 2/M"
_symmetry_group_IT_number 12
_symmetry_cell_setting 'monoclinic'
loop_
_space_group_symop_operation_xyz
x,y,z
-x,y,-z
-x,-y,-z
x,-y,z
1/2+x,1/2+y,z
1/2-x,1/2+y,-z
1/2-x,1/2-y,-z
1/2+x,1/2-y,z
loop_
_atom_site_type_symbol
_atom_site_label
_atom_site_fract_x
_atom_site_fract_y
_atom_site_fract_z
Si Si1 0.721746 0.189581 0.997614
Si Si2 0.397853 0.411742 0.536775
Si Si3 0.000000 0.000000 0.000000
Si Si4 0.402172 0.063603 0.336175
Si Si5 0.385737 0.653394 0.006539
Si Si6 0.551435 0.770838 0.819719
Si Si7 0.294451 0.098439 0.691004
O O1 0.785913 0.155465 0.915938
O O2 0.724037 0.160857 0.281920
O O3 0.750000 0.250000 0.000000
O O4 0.624663 0.191190 0.820177
O O5 0.454743 0.455416 0.749002
O O6 0.413292 0.388000 0.267338
O O7 0.298721 0.427227 0.419787
O O8 0.407940 0.363605 0.747640
O O9 0.500000 0.080163 0.500000
O O10 0.346107 0.084703 0.501918
O O11 0.402119 0.000000 0.345030
O O12 0.353712 0.079898 0.007965
O O13 0.414668 0.712980 0.070370
O O14 0.500000 0.761896 0.500000
O O15 0.500000 0.791343 0.000000
#
# Coordination Sequence:
#
# PCOD9217830 Si02
#       7
#     8   8   2   8   8   8   8
#     4   9  22  45  68 100 138 181 228 279 344 429
#     4  11  26  46  68 101 136 185 235 300 356 417
#     4  12  32  46  72 110 138 174 244 318 352 398
#     4  11  25  44  71 105 144 188 240 296 353 426
#     4  10  23  46  70  91 139 190 232 273 356 433
#     4  11  24  39  67 104 137 179 228 290 344 408
#     4  11  23  45  73 102 142 193 237 289 364 429
#
# _framework density 23.928787
#
# number of rings (size 3 to 8) (size 9 to 14) (size 15 to 20)
#    0.000    1.440    0.000    3.840    5.600    8.320 
#    0.000   13.600    0.000    0.000    0.000    0.000 
#    0.000    0.000    0.000    0.000    0.000    0.000 
#
# Total GULP energy -139390.961249 kJ/mol
# GULP energy per Si atom -5575.638450 kJ/mol
# Density = 2.387432 g / cm^3
# Si number density = 23.928787 Si / 1000 Ang^3
#
#
#
# Elastic Constant Matrix: (Units=GPa)
#
#
# Indices 1 2 3 4 5 6 
#
# 1 134.5716 29.8429 51.7447 0.0000 1.1280 0.0000
# 2 29.8429 101.6079 34.0144 0.0000 11.0540 0.0000
# 3 51.7447 34.0144 143.8298 0.0000 -2.8830 0.0000
# 4 0.0000 0.0000 0.0000 47.9003 0.0000 4.2089
# 5 1.1280 11.0540 -2.8830 0.0000 43.0285 0.0000
# 6 0.0000 0.0000 0.0000 4.2089 0.0000 11.1741
#
#
#
# Elastic Compliance Matrix: (Units=1/GPa)
#
#
# Indices 1 2 3 4 5 6 
#
# 1 0.008878 -0.001672 -0.002798 0.000000 0.000009 0.000000
# 2 -0.001672 0.011382 -0.002151 0.000000 -0.003024 0.000000
# 3 -0.002798 -0.002151 0.008492 0.000000 0.001195 0.000000
# 4 0.000000 0.000000 0.000000 0.021591 0.000000 -0.008133
# 5 0.000009 -0.003024 0.001195 0.000000 0.024097 0.000000
# 6 0.000000 0.000000 0.000000 -0.008133 0.000000 0.092556
#
#
# Mechanical properties :
#
#
# Convention : Reuss Voigt Hill
#
# Bulk Modulus (GPa) = 64.47596 67.91257 66.19426
# Shear Modulus (GPa) = 26.96758 38.04772 32.50765
#
# Velocity S-wave (km/s) = 3.36071 3.99186 3.68980
# Velocity P-wave (km/s) = 6.48557 7.04906 6.77318
#
# Compressibility (1/GPa) = 0.01550966
#
# Stress axis : x y z
#
# Youngs Moduli (GPa) = 112.64286 87.85975 117.75763
#
# Poissons Ratio (x) = 0.14687 0.32952
# Poissons Ratio (y) = 0.18830 0.25329
# Poissons Ratio (z) = 0.31521 0.18898
#
# Static dielectric constant tensor:
#      x y z
#    x 1.972960 0.000000 0.061210 
#    y 0.000000 1.928900 0.000000 
#    z 0.061210 0.000000 1.901500 
# 
# From -- ./inp_files/17745.got.cif
#   From: 2010.05.17/outbox.cif.g08.bks.cpg/sg12_9_cif.got.tgz:17745.got - 2010.06.03 13:09:07.
