data_PCOD9217215
_publ_section_title
;
Structure prediction by ZEFSAII (Michael W. Deem and Ramdas Pophale) SiO2 
 PCOD9217215
Probable space group: C 2/M
;
_chemical_formula_sum "Si O2"
_cell_formula_units_Z 40
_cell_length_a 14.962036
_cell_length_b 8.665515
_cell_length_c 14.722537
_cell_angle_alpha 90.000000
_cell_angle_beta 109.450228
_cell_angle_gamma 90.000000
_cell_volume 1799.897161
_symmetry_space_group_name_H-M "C 2/M"
_symmetry_group_IT_number 12
_symmetry_cell_setting 'monoclinic'
loop_
_space_group_symop_operation_xyz
x,y,z
-x,y,-z
-x,-y,-z
x,-y,z
1/2+x,1/2+y,z
1/2-x,1/2+y,-z
1/2-x,1/2-y,-z
1/2+x,1/2-y,z
loop_
_atom_site_type_symbol
_atom_site_label
_atom_site_fract_x
_atom_site_fract_y
_atom_site_fract_z
Si Si1 0.743383 0.684340 0.737126
Si Si2 0.965776 0.816075 0.326404
Si Si3 0.463720 0.815884 0.122720
Si Si4 0.161460 0.683831 0.415591
Si Si5 0.358128 0.682554 0.930003
O O1 0.749014 0.500000 0.755191
O O2 0.637282 0.720150 0.667288
O O3 0.816742 0.724245 0.682443
O O4 0.769106 0.769835 0.838579
O O5 0.058720 0.749199 0.405420
O O6 0.960045 0.747688 0.222875
O O7 0.975597 0.000000 0.325334
O O8 0.552801 0.737876 0.101667
O O9 0.475872 0.000000 0.127079
O O10 0.373621 0.769294 0.030426
O O11 0.160738 0.500000 0.423071
O O12 0.250000 0.750000 0.500000
O O13 0.361321 0.500000 0.945592
#
# Coordination Sequence:
#
# PCOD9217215 Si02
#       5
#     8   8   8   8   8
#     4  10  23  42  64  91 127 166 204 252 313 370
#     4  11  23  41  65  94 125 162 209 257 306 367
#     4  11  21  36  59  88 127 169 207 251 309 365
#     4  11  24  44  68  92 123 162 203 257 317 372
#     4  11  21  35  60  91 124 165 213 256 299 359
#
# _framework density 22.223490999999999
#
# number of rings (size 3 to 8) (size 9 to 14) (size 15 to 20)
#    0.000    1.200    2.000    6.000    0.000    4.000 
#    0.000    4.000    0.000    0.000    0.000    0.000 
#    0.000    0.000    0.000    0.000    0.000    0.000 
#
# Total GULP energy -111916.007546 kJ/mol
# GULP energy per Si atom -5595.800377 kJ/mol
# Density = 2.217291 g / cm^3
# Si number density = 22.223491 Si / 1000 Ang^3
#
#
#
# Elastic Constant Matrix: (Units=GPa)
#
#
# Indices 1 2 3 4 5 6 
#
# 1 88.1150 26.9284 12.5732 0.0000 29.1461 0.0000
# 2 26.9284 62.1382 15.0515 0.0000 14.2113 0.0000
# 3 12.5732 15.0515 68.7104 0.0000 34.7007 0.0000
# 4 0.0000 0.0000 0.0000 36.0048 0.0000 12.6642
# 5 29.1461 14.2113 34.7007 0.0000 41.1202 0.0000
# 6 0.0000 0.0000 0.0000 12.6642 0.0000 24.5504
#
#
#
# Elastic Compliance Matrix: (Units=1/GPa)
#
#
# Indices 1 2 3 4 5 6 
#
# 1 0.017171 -0.005360 0.005652 0.000000 -0.015088 0.000000
# 2 -0.005360 0.019220 -0.003125 0.000000 -0.000206 0.000000
# 3 0.005652 -0.003125 0.027329 0.000000 -0.025989 0.000000
# 4 0.000000 0.000000 0.000000 0.033930 0.000000 -0.017503
# 5 -0.015088 -0.000206 -0.025989 0.000000 0.057016 0.000000
# 6 0.000000 0.000000 0.000000 -0.017503 0.000000 0.049761
#
#
# Mechanical properties :
#
#
# Convention : Reuss Voigt Hill
#
# Bulk Modulus (GPa) = 17.22538 36.45219 26.83879
# Shear Modulus (GPa) = 21.79169 31.29580 26.54375
#
# Velocity S-wave (km/s) = 3.13480 3.75671 3.45976
# Velocity P-wave (km/s) = 4.56842 5.93762 5.29744
#
# Compressibility (1/GPa) = 0.05805386
#
# Stress axis : x y z
#
# Youngs Moduli (GPa) = 58.23789 52.02908 36.59086
#
# Poissons Ratio (x) = 0.27885 -0.20681
# Poissons Ratio (y) = 0.31213 0.11436
# Poissons Ratio (z) = -0.32915 0.16261
#
# Static dielectric constant tensor:
#      x y z
#    x 1.848810 0.000000 0.035690 
#    y 0.000000 1.734240 0.000000 
#    z 0.035690 0.000000 1.828490 
# 
# From -- ./inp_files/211255.got.cif
#   From: 2010.05.17/outbox.cif.g08.bks.cpg/sg12_106_cif.got.tgz:211255.got - 2010.06.03 13:09:07.
