data_PCOD9217930
_publ_section_title
;
Structure prediction by ZEFSAII (Michael W. Deem and Ramdas Pophale) SiO2 
 PCOD9217930
Probable space group: C 2/M
;
_chemical_formula_sum "Si O2"
_cell_formula_units_Z 32
_cell_length_a 32.480711
_cell_length_b 7.474964
_cell_length_c 4.989816
_cell_angle_alpha 90.000000
_cell_angle_beta 90.672572
_cell_angle_gamma 90.000000
_cell_volume 1211.404665
_symmetry_space_group_name_H-M "C 2/M"
_symmetry_group_IT_number 12
_symmetry_cell_setting 'monoclinic'
loop_
_space_group_symop_operation_xyz
x,y,z
-x,y,-z
-x,-y,-z
x,-y,z
1/2+x,1/2+y,z
1/2-x,1/2+y,-z
1/2-x,1/2-y,-z
1/2+x,1/2-y,z
loop_
_atom_site_type_symbol
_atom_site_label
_atom_site_fract_x
_atom_site_fract_y
_atom_site_fract_z
Si Si1 0.704359 0.500000 0.955702
Si Si2 0.456852 0.781852 0.874355
Si Si3 0.091549 0.717234 0.631195
Si Si4 0.740492 0.000000 0.538323
Si Si5 0.832327 0.699559 0.711861
O O1 0.744774 0.500000 0.155658
O O2 0.678664 0.328484 0.047501
O O3 0.721235 0.500000 0.660524
O O4 0.420433 0.724385 0.073286
O O5 0.458164 0.000000 0.874177
O O6 0.500000 0.721102 0.000000
O O7 0.445235 0.729704 0.573646
O O8 0.093153 0.500000 0.638404
O O9 0.133285 0.772539 0.486868
O O10 0.709732 0.160241 0.453186
O O11 0.845634 0.500000 0.809670
#
# Coordination Sequence:
#
# PCOD9217930 Si02
#       5
#     4   8   8   4   8
#     4  12  22  42  56  84 111 146 189 232 276 334
#     4   9  16  26  46  72 104 137 173 216 263 316
#     4   9  17  30  44  72 104 136 174 217 264 318
#     4  10  24  38  60  80 113 146 187 232 280 326
#     4   9  22  38  58  84 111 150 183 232 278 328
#
# _framework density 26.415617000000001
#
# number of rings (size 3 to 8) (size 9 to 14) (size 15 to 20)
#    0.750    1.750    0.000    2.250    0.000    7.000 
#    0.000    0.000    0.000    0.000    0.000    5.250 
#    0.000    0.000    0.000    0.000    0.000    0.000 
#
# Total GULP energy -89620.633804 kJ/mol
# GULP energy per Si atom -5601.289613 kJ/mol
# Density = 2.635549 g / cm^3
# Si number density = 26.415617 Si / 1000 Ang^3
#
#
#
# Elastic Constant Matrix: (Units=GPa)
#
#
# Indices 1 2 3 4 5 6 
#
# 1 96.5817 7.3747 2.1706 0.0000 -7.2123 0.0000
# 2 7.3747 100.3641 18.8818 0.0000 -8.5536 0.0000
# 3 2.1706 18.8818 101.4184 0.0000 2.0900 0.0000
# 4 0.0000 0.0000 0.0000 14.7320 0.0000 -10.3125
# 5 -7.2123 -8.5536 2.0900 0.0000 38.9439 0.0000
# 6 0.0000 0.0000 0.0000 -10.3125 0.0000 -3.4969
#
#
#
# Elastic Compliance Matrix: (Units=1/GPa)
#
#
# Indices 1 2 3 4 5 6 
#
# 1 0.010539 -0.000590 -0.000154 0.000000 0.001831 0.000000
# 2 -0.000590 0.010582 -0.002005 0.000000 0.002323 0.000000
# 3 -0.000154 -0.002005 0.010258 0.000000 -0.001019 0.000000
# 4 0.000000 0.000000 0.000000 0.022151 0.000000 -0.065325
# 5 0.001831 0.002323 -0.001019 0.000000 0.026582 0.000000
# 6 0.000000 0.000000 0.000000 -0.065325 0.000000 -0.093321
#
#
# Mechanical properties :
#
#
# Convention : Reuss Voigt Hill
#
# Bulk Modulus (GPa) = 38.63653 39.46870 39.05261
# Shear Modulus (GPa) = 5462.51873 28.03162 2745.27518
#
# Velocity S-wave (km/s) = 45.52364 3.26110 32.27256
# Velocity P-wave (km/s) = 52.70541 5.39941 37.46341
#
# Compressibility (1/GPa) = 0.02588224
#
# Stress axis : x y z
#
# Youngs Moduli (GPa) = 94.88481 94.49756 97.48681
#
# Poissons Ratio (x) = 0.05571 0.01497
# Poissons Ratio (y) = 0.05594 0.19550
# Poissons Ratio (z) = 0.01457 0.18951
#
# Static dielectric constant tensor:
#      x y z
#    x 2.069510 0.000000 0.041510 
#    y 0.000000 2.167740 0.000000 
#    z 0.041510 0.000000 1.944120 
# 
# From -- ./inp_files/30259.got.cif
#   From: 2010.05.17/outbox.cif.g08.bks.cpg/sg12_16_cif.got.tgz:30259.got - 2010.06.03 13:09:07.
