data_PCOD9217102
_publ_section_title
;
Structure prediction by ZEFSAII (Michael W. Deem and Ramdas Pophale) SiO2 
 PCOD9217102
Probable space group: C 2/M
;
_chemical_formula_sum "Si O2"
_cell_formula_units_Z 44
_cell_length_a 8.558275
_cell_length_b 16.131015
_cell_length_c 16.550568
_cell_angle_alpha 90.000000
_cell_angle_beta 114.972920
_cell_angle_gamma 90.000000
_cell_volume 2071.248484
_symmetry_space_group_name_H-M "C 2/M"
_symmetry_group_IT_number 12
_symmetry_cell_setting 'monoclinic'
loop_
_space_group_symop_operation_xyz
x,y,z
-x,y,-z
-x,-y,-z
x,-y,z
1/2+x,1/2+y,z
1/2-x,1/2+y,-z
1/2-x,1/2-y,-z
1/2+x,1/2-y,z
loop_
_atom_site_type_symbol
_atom_site_label
_atom_site_fract_x
_atom_site_fract_y
_atom_site_fract_z
Si Si1 0.879808 0.000000 0.552481
Si Si2 0.218851 0.825480 0.432417
Si Si3 0.879815 0.657999 0.776691
Si Si4 0.123210 0.000000 0.947976
Si Si5 0.911685 0.274272 0.317055
Si Si6 0.860192 0.000000 0.238621
Si Si7 0.653820 0.163262 0.970961
O O1 0.000000 0.000000 0.500000
O O2 0.771402 0.084292 0.527894
O O3 0.990280 0.000000 0.660653
O O4 0.250000 0.750000 0.500000
O O5 0.343629 0.816256 0.383358
O O6 0.022071 0.807899 0.361896
O O7 0.758705 0.739013 0.765306
O O8 0.764223 0.579115 0.773248
O O9 0.953763 0.669128 0.702307
O O10 0.055542 0.656066 0.865163
O O11 0.071576 0.000000 0.840321
O O12 0.230541 0.915761 0.983754
O O13 0.000000 0.000000 0.000000
O O14 0.500000 0.163451 0.000000
O O15 0.750000 0.250000 0.000000
#
# Coordination Sequence:
#
# PCOD9217102 Si02
#       7
#     4   8   8   4   8   4   8
#     4  12  26  42  72 106 140 189 234 285 364 430
#     4  11  23  44  68 101 141 183 237 298 358 420
#     4  11  23  42  69  98 140 181 237 286 357 419
#     4  12  28  48  71 105 145 194 241 307 364 427
#     4  10  23  41  68  99 137 188 232 291 355 427
#     4  12  25  47  71 100 145 182 234 300 359 429
#     4  12  24  43  70 103 142 187 239 297 362 426
#
# _framework density 21.243226
#
# number of rings (size 3 to 8) (size 9 to 14) (size 15 to 20)
#    0.000    0.727    3.636    4.091    2.545    2.182 
#    0.000    1.818    0.000    0.000    0.000    0.000 
#    0.000    0.000    0.000    0.000    0.000    0.000 
#
# Total GULP energy -122861.200626 kJ/mol
# GULP energy per Si atom -5584.600028 kJ/mol
# Density = 2.119488 g / cm^3
# Si number density = 21.243226 Si / 1000 Ang^3
#
#
#
# Elastic Constant Matrix: (Units=GPa)
#
#
# Indices 1 2 3 4 5 6 
#
# 1 117.7634 54.3751 22.1715 0.0000 -39.4591 0.0000
# 2 54.3751 157.5028 34.7270 0.0000 -20.5057 0.0000
# 3 22.1715 34.7270 96.8901 0.0000 -7.3219 0.0000
# 4 0.0000 0.0000 0.0000 23.3325 0.0000 1.0577
# 5 -39.4591 -20.5057 -7.3219 0.0000 45.5499 0.0000
# 6 0.0000 0.0000 0.0000 1.0577 0.0000 34.9233
#
#
#
# Elastic Compliance Matrix: (Units=1/GPa)
#
#
# Indices 1 2 3 4 5 6 
#
# 1 0.013548 -0.003085 -0.001227 0.000000 0.010151 0.000000
# 2 -0.003085 0.007952 -0.002101 0.000000 0.000569 0.000000
# 3 -0.001227 -0.002101 0.011341 0.000000 -0.000186 0.000000
# 4 0.000000 0.000000 0.000000 0.042918 0.000000 -0.001300
# 5 0.010151 0.000569 -0.000186 0.000000 0.030974 0.000000
# 6 0.000000 0.000000 0.000000 -0.001300 0.000000 0.028674
#
#
# Mechanical properties :
#
#
# Convention : Reuss Voigt Hill
#
# Bulk Modulus (GPa) = 49.96615 66.07816 58.02216
# Shear Modulus (GPa) = 32.27811 38.15332 35.21572
#
# Velocity S-wave (km/s) = 3.90225 4.24255 4.07595
# Velocity P-wave (km/s) = 6.62385 7.42779 7.03731
#
# Compressibility (1/GPa) = 0.02001355
#
# Stress axis : x y z
#
# Youngs Moduli (GPa) = 73.80951 125.76171 88.17715
#
# Poissons Ratio (x) = 0.38800 0.10823
# Poissons Ratio (y) = 0.22772 0.18526
# Poissons Ratio (z) = 0.09060 0.26422
#
# Static dielectric constant tensor:
#      x y z
#    x 1.756500 0.000000 0.023060 
#    y 0.000000 1.719630 0.000000 
#    z 0.023060 0.000000 1.858100 
# 
# From -- ./inp_files/255536.got.cif
#   From: 2010.05.17/outbox.cif.g08.bks.cpg/sg12_128_cif.got.tgz:255536.got - 2010.06.03 13:09:07.
