data_PCOD9217135
_publ_section_title
;
Structure prediction by ZEFSAII (Michael W. Deem and Ramdas Pophale) SiO2 
 PCOD9217135
Probable space group: C 2/M
;
_chemical_formula_sum "Si O2"
_cell_formula_units_Z 56
_cell_length_a 18.137145
_cell_length_b 8.841431
_cell_length_c 29.157737
_cell_angle_alpha 90.000000
_cell_angle_beta 38.888365
_cell_angle_gamma 90.000000
_cell_volume 2935.418837
_symmetry_space_group_name_H-M "C 2/M"
_symmetry_group_IT_number 12
_symmetry_cell_setting 'monoclinic'
loop_
_space_group_symop_operation_xyz
x,y,z
-x,y,-z
-x,-y,-z
x,-y,z
1/2+x,1/2+y,z
1/2-x,1/2+y,-z
1/2-x,1/2-y,-z
1/2+x,1/2-y,z
loop_
_atom_site_type_symbol
_atom_site_label
_atom_site_fract_x
_atom_site_fract_y
_atom_site_fract_z
Si Si1 0.746411 0.318805 0.139020
Si Si2 0.898476 0.180713 0.147585
Si Si3 0.551387 0.180914 0.424658
Si Si4 0.620752 0.681209 0.567982
Si Si5 0.308538 0.180210 0.286178
Si Si6 0.173039 0.180859 0.996421
Si Si7 0.971141 0.180547 0.285321
O O1 0.760613 0.500000 0.132521
O O2 0.822025 0.246811 0.143131
O O3 0.788212 0.252770 0.070367
O O4 0.608706 0.284961 0.213081
O O5 0.857916 0.254646 0.214661
O O6 0.882828 0.000000 0.157690
O O7 0.035769 0.211647 0.072078
O O8 0.500000 0.213107 0.500000
O O9 0.465200 0.249037 0.428268
O O10 0.679811 0.251828 0.357244
O O11 0.558481 0.000000 0.415786
O O12 0.625266 0.500000 0.560506
O O13 0.750000 0.750000 0.500000
O O14 0.571487 0.714576 0.642617
O O15 0.394010 0.231675 0.285675
O O16 0.301684 0.000000 0.287040
O O17 0.189147 0.000000 0.987022
O O18 0.250000 0.250000 0.000000
O O19 0.955490 0.000000 0.285221
#
# Coordination Sequence:
#
# PCOD9217135 Si02
#       7
#     8   8   8   8   8   8   8
#     4  11  23  40  64  92 122 159 204 253 305 362
#     4  11  24  42  63  88 123 163 202 248 303 363
#     4  11  24  42  64  90 123 163 204 249 304 363
#     4  11  23  40  63  91 124 161 205 254 303 361
#     4  12  25  40  63  93 122 157 203 252 302 359
#     4  11  24  41  62  90 123 161 204 252 307 364
#     4  10  23  42  61  86 122 160 198 245 302 361
#
# _framework density 19.077345000000001
#
# number of rings (size 3 to 8) (size 9 to 14) (size 15 to 20)
#    0.000    1.000    0.000    6.429    0.000   15.429 
#    0.000    0.000    0.000    0.000    0.000    0.000 
#    0.000    0.000    0.000    0.000    0.000    0.000 
#
# Total GULP energy -156753.741755 kJ/mol
# GULP energy per Si atom -5598.347920 kJ/mol
# Density = 1.903392 g / cm^3
# Si number density = 19.077345 Si / 1000 Ang^3
#
#
#
# Elastic Constant Matrix: (Units=GPa)
#
#
# Indices 1 2 3 4 5 6 
#
# 1 218.7236 116.1225 128.5499 0.0001 4.2144 0.0004
# 2 116.1225 115.0968 125.4402 0.0001 -0.0961 0.0010
# 3 128.5499 125.4402 213.3109 0.0000 4.3923 0.0000
# 4 0.0001 0.0001 0.0000 32.5107 0.0000 0.9080
# 5 4.2144 -0.0961 4.3923 0.0000 38.7968 0.0000
# 6 0.0004 0.0010 0.0000 0.9080 0.0000 44.3123
#
#
#
# Elastic Compliance Matrix: (Units=1/GPa)
#
#
# Indices 1 2 3 4 5 6 
#
# 1 0.009895 -0.009773 -0.000194 0.000000 -0.001077 0.000000
# 2 -0.009773 0.033956 -0.014136 0.000000 0.002746 -0.000001
# 3 -0.000194 -0.014136 0.013148 0.000000 -0.001502 0.000000
# 4 0.000000 0.000000 0.000000 0.030777 0.000000 -0.000631
# 5 -0.001077 0.002746 -0.001502 0.000000 0.026069 0.000000
# 6 0.000000 -0.000001 0.000000 -0.000631 0.000000 0.022580
#
#
# Mechanical properties :
#
#
# Convention : Reuss Voigt Hill
#
# Bulk Modulus (GPa) = 113.69759 143.03961 128.36860
# Shear Modulus (GPa) = 26.65773 34.92520 30.79147
#
# Velocity S-wave (km/s) = 3.74217 4.28333 4.02186
# Velocity P-wave (km/s) = 8.85434 9.98019 9.43407
#
# Compressibility (1/GPa) = 0.00879526
#
# Stress axis : x y z
#
# Youngs Moduli (GPa) = 101.05791 29.44952 76.05454
#
# Poissons Ratio (x) = 0.28781 0.01476
# Poissons Ratio (y) = 0.98763 1.07507
# Poissons Ratio (z) = 0.01961 0.41628
#
# Static dielectric constant tensor:
#      x y z
#    x 1.614590 0.000000 -0.002530 
#    y 0.000000 1.645580 0.000000 
#    z -0.002530 0.000000 1.631250 
# 
# From -- ./inp_files/362904.got.cif
#   From: 2010.05.17/outbox.cif.g08.bks.cpg/sg12_182_cif.got.tgz:362904.got - 2010.06.03 13:09:07.
