data_PCOD9217244
_publ_section_title
;
Structure prediction by ZEFSAII (Michael W. Deem and Ramdas Pophale) SiO2 
 PCOD9217244
Probable space group: C 2/M
;
_chemical_formula_sum "Si O2"
_cell_formula_units_Z 42
_cell_length_a 18.975209
_cell_length_b 14.375046
_cell_length_c 13.784535
_cell_angle_alpha 90.000000
_cell_angle_beta 32.355626
_cell_angle_gamma 90.000000
_cell_volume 2012.249850
_symmetry_space_group_name_H-M "C 2/M"
_symmetry_group_IT_number 12
_symmetry_cell_setting 'monoclinic'
loop_
_space_group_symop_operation_xyz
x,y,z
-x,y,-z
-x,-y,-z
x,-y,z
1/2+x,1/2+y,z
1/2-x,1/2+y,-z
1/2-x,1/2-y,-z
1/2+x,1/2-y,z
loop_
_atom_site_type_symbol
_atom_site_label
_atom_site_fract_x
_atom_site_fract_y
_atom_site_fract_z
Si Si1 0.111599 0.899070 0.058527
Si Si2 0.500000 0.000000 0.500000
Si Si3 0.546466 0.808543 0.090804
Si Si4 0.000539 0.855856 0.606466
Si Si5 0.199901 0.387647 0.731306
Si Si6 0.088654 0.349453 0.265031
O O1 0.050620 0.804181 0.086606
O O2 0.075057 0.900028 0.215198
O O3 0.073028 0.000000 0.061716
O O4 0.268937 0.887234 0.868417
O O5 0.486286 0.918609 0.432413
O O6 0.405193 0.847176 0.222399
O O7 0.581426 0.843156 0.157432
O O8 0.649735 0.849589 0.893413
O O9 0.153315 0.852589 0.458899
O O10 0.000000 0.899521 0.500000
O O11 0.935180 0.754884 0.672367
O O12 0.197465 0.500000 0.733664
#
# Coordination Sequence:
#
# PCOD9217244 Si02
#       6
#     8   2   8   8   8   8
#     4  11  23  40  64  92 129 166 213 262 318 374
#     4  12  24  36  68  98 122 172 222 254 302 398
#     4  10  23  42  65  89 133 170 204 271 318 367
#     4  11  22  40  64  94 127 163 209 269 320 369
#     4  11  24  41  67  96 124 165 218 256 320 391
#     4  11  23  39  63  95 130 167 212 265 311 371
#
# _framework density 20.872160000000001
#
# number of rings (size 3 to 8) (size 9 to 14) (size 15 to 20)
#    0.000    1.143    1.905    6.286    2.667    6.095 
#    0.000    1.905    2.095    0.000    0.000    0.000 
#    0.000    0.000    0.000    0.000    0.000    0.000 
#
# Total GULP energy -117068.530049 kJ/mol
# GULP energy per Si atom -5574.691907 kJ/mol
# Density = 2.082465 g / cm^3
# Si number density = 20.872160 Si / 1000 Ang^3
#
#
#
# Elastic Constant Matrix: (Units=GPa)
#
#
# Indices 1 2 3 4 5 6 
#
# 1 32.4231 -2.2800 8.4156 0.0000 -2.1484 0.0000
# 2 -2.2800 139.9240 14.7659 0.0000 -12.9660 0.0000
# 3 8.4156 14.7659 60.4780 0.0000 -6.4387 0.0000
# 4 0.0000 0.0000 0.0000 2.3377 0.0000 -5.9397
# 5 -2.1484 -12.9660 -6.4387 0.0000 19.0313 0.0000
# 6 0.0000 0.0000 0.0000 -5.9397 0.0000 10.1239
#
#
#
# Elastic Compliance Matrix: (Units=1/GPa)
#
#
# Indices 1 2 3 4 5 6 
#
# 1 0.032295 0.001278 -0.004487 0.000000 0.002998 0.000000
# 2 0.001278 0.007788 -0.001555 0.000000 0.004924 0.000000
# 3 -0.004487 -0.001555 0.018021 0.000000 0.004531 0.000000
# 4 0.000000 0.000000 0.000000 -0.871707 0.000000 -0.511436
# 5 0.002998 0.004924 0.004531 0.000000 0.057771 0.000000
# 6 0.000000 0.000000 0.000000 -0.511436 0.000000 -0.201286
#
#
# Mechanical properties :
#
#
# Convention : Reuss Voigt Hill
#
# Bulk Modulus (GPa) = 20.58617 30.51423 25.55020
# Shear Modulus (GPa) = -5.36828 20.42681 7.52927
#
# Velocity S-wave (km/s) = -1.60548 3.13175 1.90136
# Velocity P-wave (km/s) = 2.53922 5.26578 4.13377
#
# Compressibility (1/GPa) = 0.04857629
#
# Stress axis : x y z
#
# Youngs Moduli (GPa) = 30.96427 128.40370 55.48985
#
# Poissons Ratio (x) = -0.16404 0.24896
# Poissons Ratio (y) = -0.03956 0.08629
# Poissons Ratio (z) = 0.13893 0.19967
#
# Static dielectric constant tensor:
#      x y z
#    x 1.741840 0.000000 0.010810 
#    y 0.000000 1.737560 0.000000 
#    z 0.010810 0.000000 1.790510 
# 
# From -- ./inp_files/233599.got.cif
#   From: 2010.05.17/outbox.cif.g08.bks.cpg/sg12_117_cif.got.tgz:233599.got - 2010.06.03 13:09:07.
