data_PCOD9217728
_publ_section_title
;
Structure prediction by ZEFSAII (Michael W. Deem and Ramdas Pophale) SiO2 
 PCOD9217728
Probable space group: C 2/M
;
_chemical_formula_sum "Si O2"
_cell_formula_units_Z 34
_cell_length_a 31.723404
_cell_length_b 10.807049
_cell_length_c 15.292318
_cell_angle_alpha 90.000000
_cell_angle_beta 17.821581
_cell_angle_gamma 90.000000
_cell_volume 1604.568115
_symmetry_space_group_name_H-M "C 2/M"
_symmetry_group_IT_number 12
_symmetry_cell_setting 'monoclinic'
loop_
_space_group_symop_operation_xyz
x,y,z
-x,y,-z
-x,-y,-z
x,-y,z
1/2+x,1/2+y,z
1/2-x,1/2+y,-z
1/2-x,1/2-y,-z
1/2+x,1/2-y,z
loop_
_atom_site_type_symbol
_atom_site_label
_atom_site_fract_x
_atom_site_fract_y
_atom_site_fract_z
Si Si1 0.963876 0.641071 0.674137
Si Si2 0.567108 0.139542 0.771832
Si Si3 0.774133 0.862075 0.115019
Si Si4 0.500000 0.500000 0.000000
Si Si5 0.147970 0.809674 0.844129
O O1 0.914996 0.500000 0.790498
O O2 0.110391 0.660452 0.432904
O O3 0.000000 0.645510 0.500000
O O4 0.856782 0.749573 0.907725
O O5 0.704378 0.219462 0.490666
O O6 0.610076 0.000000 0.665973
O O7 0.500000 0.138002 0.000000
O O8 0.444579 0.189713 0.955222
O O9 0.820308 0.865544 0.124583
O O10 0.799453 0.000000 0.026169
O O11 0.436885 0.393402 0.056820
#
# Coordination Sequence:
#
# PCOD9217728 Si02
#       5
#     8   8   8   2   8
#     4  10  23  44  70  99 133 169 208 263 334 398
#     4  11  24  41  61  88 118 165 221 274 322 374
#     4  11  23  41  65  97 132 170 215 270 320 384
#     4  12  24  40  68  84 132 176 218 264 326 368
#     4  12  24  42  63  90 129 171 218 271 320 370
#
# _framework density 21.189502000000001
#
# number of rings (size 3 to 8) (size 9 to 14) (size 15 to 20)
#    0.000    0.941    3.529    2.824    0.000    4.235 
#    0.000    0.000    0.000    0.000    0.000    0.000 
#    0.000    0.000    0.000    0.000    0.000    0.000 
#
# Total GULP energy -94671.125319 kJ/mol
# GULP energy per Si atom -5568.889725 kJ/mol
# Density = 2.114127 g / cm^3
# Si number density = 21.189502 Si / 1000 Ang^3
#
#
#
# Elastic Constant Matrix: (Units=GPa)
#
#
# Indices 1 2 3 4 5 6 
#
# 1 58.9692 1.7794 9.3382 0.0000 -6.3380 0.0000
# 2 1.7794 104.2499 56.2345 0.0000 10.3847 0.0000
# 3 9.3382 56.2345 104.5036 0.0000 2.3124 0.0000
# 4 0.0000 0.0000 0.0000 27.4819 0.0000 -10.9808
# 5 -6.3380 10.3847 2.3124 0.0000 29.1537 0.0000
# 6 0.0000 0.0000 0.0000 -10.9808 0.0000 2.3697
#
#
#
# Elastic Compliance Matrix: (Units=1/GPa)
#
#
# Indices 1 2 3 4 5 6 
#
# 1 0.017654 0.000295 -0.001822 0.000000 0.003877 0.000000
# 2 0.000295 0.014066 -0.007499 0.000000 -0.004351 0.000000
# 3 -0.001822 -0.007499 0.013741 0.000000 0.001185 0.000000
# 4 0.000000 0.000000 0.000000 -0.042735 0.000000 -0.198023
# 5 0.003877 -0.004351 0.001185 0.000000 0.036600 0.000000
# 6 0.000000 0.000000 0.000000 -0.198023 0.000000 -0.495598
#
#
# Mechanical properties :
#
#
# Convention : Reuss Voigt Hill
#
# Bulk Modulus (GPa) = 36.48396 44.71408 40.59902
# Shear Modulus (GPa) = -11.65274 25.15912 6.75319
#
# Velocity S-wave (km/s) = -2.34760 3.44952 1.78717
# Velocity P-wave (km/s) = 3.14754 6.08386 4.84357
#
# Compressibility (1/GPa) = 0.02740930
#
# Stress axis : x y z
#
# Youngs Moduli (GPa) = 56.64307 71.09377 72.77477
#
# Poissons Ratio (x) = -0.02100 0.13262
# Poissons Ratio (y) = -0.01673 0.54575
# Poissons Ratio (z) = 0.10322 0.53314
#
# Static dielectric constant tensor:
#      x y z
#    x 1.798820 0.000000 -0.002060 
#    y 0.000000 1.797880 0.000000 
#    z -0.002060 0.000000 1.736720 
# 
# From -- ./inp_files/250671.got.cif
#   From: 2010.05.17/outbox.cif.g08.bks.cpg/sg12_126_cif.got.tgz:250671.got - 2010.06.03 13:09:07.
