data_PCOD9217677
_publ_section_title
;
Structure prediction by ZEFSAII (Michael W. Deem and Ramdas Pophale) SiO2 
 PCOD9217677
Probable space group: C 2/M
;
_chemical_formula_sum "Si O2"
_cell_formula_units_Z 24
_cell_length_a 4.641998
_cell_length_b 25.478399
_cell_length_c 8.232180
_cell_angle_alpha 90.000000
_cell_angle_beta 101.469231
_cell_angle_gamma 90.000000
_cell_volume 954.183787
_symmetry_space_group_name_H-M "C 2/M"
_symmetry_group_IT_number 12
_symmetry_cell_setting 'monoclinic'
loop_
_space_group_symop_operation_xyz
x,y,z
-x,y,-z
-x,-y,-z
x,-y,z
1/2+x,1/2+y,z
1/2-x,1/2+y,-z
1/2-x,1/2-y,-z
1/2+x,1/2-y,z
loop_
_atom_site_type_symbol
_atom_site_label
_atom_site_fract_x
_atom_site_fract_y
_atom_site_fract_z
Si Si1 0.535355 0.714221 0.697196
Si Si2 0.785224 0.628959 0.113691
Si Si3 0.784294 0.441828 0.624336
O O1 0.500000 0.704598 0.500000
O O2 0.369894 0.767173 0.737455
O O3 0.390953 0.668248 0.785973
O O4 0.021055 0.592658 0.232614
O O5 0.500000 0.600319 0.000000
O O6 0.000000 0.653146 0.000000
O O7 0.500000 0.418365 0.500000
O O8 0.703282 0.500000 0.682180
O O9 0.000000 0.449137 0.500000
#
# Coordination Sequence:
#
# PCOD9217677 Si02
#       3
#     8   8   8
#     4  10  23  44  68  96 135 186 237 282 335 410
#     4  12  26  41  67 107 144 178 223 291 359 407
#     4  10  23  45  71  97 133 185 236 280 335 413
#
# _framework density 25.152386
#
# number of rings (size 3 to 8) (size 9 to 14) (size 15 to 20)
#    0.000    1.333    0.000    4.000    0.000   13.333 
#    0.000    0.000    0.000    0.000    0.000    0.000 
#    0.000    0.000    0.000    0.000    0.000    0.000 
#
# Total GULP energy -66901.649604 kJ/mol
# GULP energy per Si atom -5575.137467 kJ/mol
# Density = 2.509514 g / cm^3
# Si number density = 25.152386 Si / 1000 Ang^3
#
#
#
# Elastic Constant Matrix: (Units=GPa)
#
#
# Indices 1 2 3 4 5 6 
#
# 1 192.4190 34.4119 72.3924 0.0000 20.0066 0.0000
# 2 34.4119 110.1909 86.6418 0.0000 8.4382 0.0000
# 3 72.3924 86.6418 148.7849 0.0000 11.8088 0.0000
# 4 0.0000 0.0000 0.0000 59.3707 0.0000 -0.5143
# 5 20.0066 8.4382 11.8088 0.0000 76.5861 0.0000
# 6 0.0000 0.0000 0.0000 -0.5143 0.0000 32.4874
#
#
#
# Elastic Compliance Matrix: (Units=1/GPa)
#
#
# Indices 1 2 3 4 5 6 
#
# 1 0.006518 0.000878 -0.003583 0.000000 -0.001247 0.000000
# 2 0.000878 0.016867 -0.010209 0.000000 -0.000514 0.000000
# 3 -0.003583 -0.010209 0.014422 0.000000 -0.000163 0.000000
# 4 0.000000 0.000000 0.000000 0.016846 0.000000 0.000267
# 5 -0.001247 -0.000514 -0.000163 0.000000 0.013465 0.000000
# 6 0.000000 0.000000 0.000000 0.000267 0.000000 0.030785
#
#
# Mechanical properties :
#
#
# Convention : Reuss Voigt Hill
#
# Bulk Modulus (GPa) = 83.48134 93.14300 88.31217
# Shear Modulus (GPa) = 38.84262 50.88542 44.86402
#
# Velocity S-wave (km/s) = 3.93401 4.50275 4.22796
# Velocity P-wave (km/s) = 7.34149 8.00905 7.68253
#
# Compressibility (1/GPa) = 0.01197872
#
# Stress axis : x y z
#
# Youngs Moduli (GPa) = 153.42513 59.28640 69.33714
#
# Poissons Ratio (x) = -0.05203 0.24846
# Poissons Ratio (y) = -0.13464 0.70783
# Poissons Ratio (z) = 0.54978 0.60523
#
# Static dielectric constant tensor:
#      x y z
#    x 1.700090 0.000000 -0.106280 
#    y 0.000000 2.085510 0.000000 
#    z -0.106280 0.000000 1.927230 
# 
# From -- ./inp_files/33628.got.cif
#   From: 2010.05.17/outbox.cif.g08.bks.cpg/sg12_17_cif.got.tgz:33628.got - 2010.06.03 13:09:07.
