data_PCOD9217257
_publ_section_title
;
Structure prediction by ZEFSAII (Michael W. Deem and Ramdas Pophale) SiO2 
 PCOD9217257
Probable space group: C 2/M
;
_chemical_formula_sum "Si O2"
_cell_formula_units_Z 48
_cell_length_a 23.237333
_cell_length_b 11.239375
_cell_length_c 12.971066
_cell_angle_alpha 90.000000
_cell_angle_beta 137.292853
_cell_angle_gamma 90.000000
_cell_volume 2297.707654
_symmetry_space_group_name_H-M "C 2/M"
_symmetry_group_IT_number 12
_symmetry_cell_setting 'monoclinic'
loop_
_space_group_symop_operation_xyz
x,y,z
-x,y,-z
-x,-y,-z
x,-y,z
1/2+x,1/2+y,z
1/2-x,1/2+y,-z
1/2-x,1/2-y,-z
1/2+x,1/2-y,z
loop_
_atom_site_type_symbol
_atom_site_label
_atom_site_fract_x
_atom_site_fract_y
_atom_site_fract_z
Si Si1 0.621877 0.135514 0.702483
Si Si2 0.037819 0.754384 0.779767
Si Si3 0.689809 0.363100 0.110596
Si Si4 0.946525 0.633280 0.836712
Si Si5 0.262874 0.794715 0.633058
Si Si6 0.594975 0.368927 0.526232
O O1 0.575922 0.159262 0.749875
O O2 0.723964 0.142903 0.843403
O O3 0.597163 0.248851 0.598675
O O4 0.602991 0.000000 0.639323
O O5 0.964605 0.700712 0.755363
O O6 0.990792 0.856365 0.652857
O O7 0.114047 0.797185 0.952702
O O8 0.666247 0.500000 0.093618
O O9 0.714952 0.307165 0.253865
O O10 0.979927 0.500000 0.866297
O O11 0.849091 0.630600 0.740210
O O12 0.000000 0.690369 0.000000
O O13 0.250000 0.750000 0.500000
O O14 0.178967 0.858193 0.565596
O O15 0.597773 0.500000 0.580951
#
# Coordination Sequence:
#
# PCOD9217257 Si02
#       6
#     8   8   8   8   8   8
#     4  10  24  45  68  96 130 173 223 269 326 389
#     4  12  22  41  66  95 130 169 218 267 330 386
#     4  10  23  42  65  93 127 168 215 272 326 384
#     4  11  23  40  63  92 128 166 216 269 321 385
#     4  11  22  44  64  93 129 172 215 266 322 393
#     4  11  25  42  67  99 133 173 217 270 330 388
#
# _framework density 20.890387
#
# number of rings (size 3 to 8) (size 9 to 14) (size 15 to 20)
#    0.000    1.167    3.333    2.500    0.000    5.333 
#    0.000    3.333    0.000    0.000    0.000    0.000 
#    0.000    0.000    0.000    0.000    0.000    0.000 
#
# Total GULP energy -133940.932710 kJ/mol
# GULP energy per Si atom -5580.872196 kJ/mol
# Density = 2.084284 g / cm^3
# Si number density = 20.890387 Si / 1000 Ang^3
#
#
#
# Elastic Constant Matrix: (Units=GPa)
#
#
# Indices 1 2 3 4 5 6 
#
# 1 127.3472 33.5462 24.1533 0.0000 4.7789 0.0000
# 2 33.5462 127.6570 29.0635 0.0000 -13.9587 0.0000
# 3 24.1533 29.0635 92.2924 0.0000 9.0734 0.0000
# 4 0.0000 0.0000 0.0000 3.2347 0.0000 8.6450
# 5 4.7789 -13.9587 9.0734 0.0000 31.8900 0.0000
# 6 0.0000 0.0000 0.0000 8.6450 0.0000 11.6013
#
#
#
# Elastic Compliance Matrix: (Units=1/GPa)
#
#
# Indices 1 2 3 4 5 6 
#
# 1 0.008768 -0.002184 -0.001424 0.000000 -0.001865 0.000000
# 2 -0.002184 0.009686 -0.003012 0.000000 0.005424 0.000000
# 3 -0.001424 -0.003012 0.012618 0.000000 -0.004695 0.000000
# 4 0.000000 0.000000 0.000000 -0.311774 0.000000 0.232328
# 5 -0.001865 0.005424 -0.004695 0.000000 0.035347 0.000000
# 6 0.000000 0.000000 0.000000 0.232328 0.000000 -0.086929
#
#
# Mechanical properties :
#
#
# Convention : Reuss Voigt Hill
#
# Bulk Modulus (GPa) = 56.07573 57.86920 56.97246
# Shear Modulus (GPa) = -15.96927 26.71411 5.37242
#
# Velocity S-wave (km/s) = -2.76783 3.57988 1.60540
# Velocity P-wave (km/s) = 4.08492 6.69693 5.54686
#
# Compressibility (1/GPa) = 0.01783303
#
# Stress axis : x y z
#
# Youngs Moduli (GPa) = 114.05374 103.23976 79.25356
#
# Poissons Ratio (x) = 0.22546 0.11282
# Poissons Ratio (y) = 0.24908 0.23871
# Poissons Ratio (z) = 0.16236 0.31095
#
# Static dielectric constant tensor:
#      x y z
#    x 1.748890 0.000000 -0.007920 
#    y 0.000000 1.744240 0.000000 
#    z -0.007920 0.000000 1.777890 
# 
# From -- ./inp_files/165841.got.cif
#   From: 2010.05.17/outbox.cif.g08.bks.cpg/sg12_83_cif.got.tgz:165841.got - 2010.06.03 13:09:07.
