data_PCOD9217869
_publ_section_title
;
Structure prediction by ZEFSAII (Michael W. Deem and Ramdas Pophale) SiO2 
 PCOD9217869
Probable space group: C 2/M
;
_chemical_formula_sum "Si O2"
_cell_formula_units_Z 64
_cell_length_a 18.565982
_cell_length_b 21.651098
_cell_length_c 15.779968
_cell_angle_alpha 90.000000
_cell_angle_beta 24.934718
_cell_angle_gamma 90.000000
_cell_volume 2674.172900
_symmetry_space_group_name_H-M "C 2/M"
_symmetry_group_IT_number 12
_symmetry_cell_setting 'monoclinic'
loop_
_space_group_symop_operation_xyz
x,y,z
-x,y,-z
-x,-y,-z
x,-y,z
1/2+x,1/2+y,z
1/2-x,1/2+y,-z
1/2-x,1/2-y,-z
1/2+x,1/2-y,z
loop_
_atom_site_type_symbol
_atom_site_label
_atom_site_fract_x
_atom_site_fract_y
_atom_site_fract_z
Si Si1 0.805285 0.932299 0.178100
Si Si2 0.896226 0.367224 0.867100
Si Si3 0.303546 0.802000 0.702980
Si Si4 0.654568 0.821940 0.890851
Si Si5 0.274496 0.930531 0.547995
Si Si6 0.843330 0.066435 0.602032
Si Si7 0.499079 0.622782 0.726943
Si Si8 0.117193 0.257067 0.564435
O O1 0.788981 0.862480 0.161113
O O2 0.700028 0.926739 0.378258
O O3 0.762489 0.000000 0.183021
O O4 0.000000 0.937433 0.000000
O O5 0.045793 0.415692 0.687276
O O6 0.969159 0.305727 0.744700
O O7 0.894083 0.353512 0.969433
O O8 0.703973 0.384903 0.045216
O O9 0.500000 0.817878 0.500000
O O10 0.267388 0.738136 0.789728
O O11 0.285762 0.781809 0.622801
O O12 0.735322 0.874678 0.745577
O O13 0.500000 0.796377 0.000000
O O14 0.121789 0.887130 0.677017
O O15 0.218305 0.000000 0.590002
O O16 0.924471 0.075823 0.423544
O O17 0.000000 0.065426 0.500000
O O18 0.752261 0.000000 0.703883
O O19 0.533657 0.689622 0.648142
O O20 0.250000 0.250000 0.500000
#
# Coordination Sequence:
#
# PCOD9217869 Si02
#       8
#     8   8   8   8   8   8   8   8
#     4  10  23  47  73  97 132 177 223 278 348 416
#     4  12  25  42  69 105 134 177 229 286 346 413
#     4  12  24  42  71  99 138 177 227 286 347 407
#     4  12  24  41  67  99 135 180 229 283 337 409
#     4  11  25  46  69  99 139 179 226 283 344 413
#     4  11  23  42  64  92 136 182 224 274 330 399
#     4  12  23  42  70  95 139 178 229 278 345 409
#     4  12  23  44  69  98 138 186 222 287 356 408
#
# _framework density 23.932632999999999
#
# number of rings (size 3 to 8) (size 9 to 14) (size 15 to 20)
#    0.000    0.500    5.000    3.750    0.000    4.000 
#    0.000    0.000    0.000    0.000    0.000    0.000 
#    0.000    0.000    0.000    0.000    0.000    0.000 
#
# Total GULP energy -178929.236032 kJ/mol
# GULP energy per Si atom -5591.538626 kJ/mol
# Density = 2.387816 g / cm^3
# Si number density = 23.932633 Si / 1000 Ang^3
#
#
#
# Elastic Constant Matrix: (Units=GPa)
#
#
# Indices 1 2 3 4 5 6 
#
# 1 69.6598 -4.2294 8.4528 -0.0375 5.6173 -0.0223
# 2 -4.2294 150.7827 25.1829 0.0501 -6.3822 -0.0084
# 3 8.4528 25.1829 104.3276 -0.0485 3.8163 -0.0481
# 4 -0.0375 0.0501 -0.0485 8.5614 0.0536 -63.2874
# 5 5.6173 -6.3822 3.8163 0.0536 34.7750 0.0376
# 6 -0.0223 -0.0084 -0.0481 -63.2874 0.0376 4.7235
#
#
#
# Elastic Compliance Matrix: (Units=1/GPa)
#
#
# Indices 1 2 3 4 5 6 
#
# 1 0.014711 0.000529 -0.001241 -0.000006 -0.002143 -0.000010
# 2 0.000529 0.007004 -0.001785 0.000002 0.001396 0.000008
# 3 -0.001241 -0.001785 0.010162 -0.000009 -0.001242 -0.000011
# 4 -0.000006 0.000002 -0.000009 -0.001191 0.000021 -0.015962
# 5 -0.002143 0.001396 -0.001242 0.000021 0.029495 0.000031
# 6 -0.000010 0.000008 -0.000011 -0.015962 0.000031 -0.002159
#
#
# Mechanical properties :
#
#
# Convention : Reuss Voigt Hill
#
# Bulk Modulus (GPa) = 37.19712 42.62028 39.90870
# Shear Modulus (GPa) = 69.46780 29.30292 49.38536
#
# Velocity S-wave (km/s) = 5.39346 3.50293 4.54752
# Velocity P-wave (km/s) = 7.37306 5.84874 6.65469
#
# Compressibility (1/GPa) = 0.02688380
#
# Stress axis : x y z
#
# Youngs Moduli (GPa) = 67.97614 142.77481 98.40615
#
# Poissons Ratio (x) = -0.07556 0.12215
# Poissons Ratio (y) = -0.03598 0.17561
# Poissons Ratio (z) = 0.08438 0.25479
#
# Static dielectric constant tensor:
#      x y z
#    x 1.998520 0.000020 -0.010800 
#    y 0.000020 1.967210 -0.000020 
#    z -0.010800 -0.000020 1.923700 
# 
# From -- ./inp_files/286431.got.cif
#   From: 2010.05.17/outbox.cif.g08.bks.cpg/sg12_144_cif.got.tgz:286431.got - 2010.06.03 13:09:07.
