data_PCOD9217711
_publ_section_title
;
Structure prediction by ZEFSAII (Michael W. Deem and Ramdas Pophale) SiO2 
 PCOD9217711
Probable space group: C 2/M
;
_chemical_formula_sum "Si O2"
_cell_formula_units_Z 48
_cell_length_a 30.210631
_cell_length_b 8.643977
_cell_length_c 16.578074
_cell_angle_alpha 90.000000
_cell_angle_beta 34.457408
_cell_angle_gamma 90.000000
_cell_volume 2449.432003
_symmetry_space_group_name_H-M "C 2/M"
_symmetry_group_IT_number 12
_symmetry_cell_setting 'monoclinic'
loop_
_space_group_symop_operation_xyz
x,y,z
-x,y,-z
-x,-y,-z
x,-y,z
1/2+x,1/2+y,z
1/2-x,1/2+y,-z
1/2-x,1/2-y,-z
1/2+x,1/2-y,z
loop_
_atom_site_type_symbol
_atom_site_label
_atom_site_fract_x
_atom_site_fract_y
_atom_site_fract_z
Si Si1 0.609118 0.815118 0.029299
Si Si2 0.951244 0.815842 0.343732
Si Si3 0.091777 0.174240 0.878526
Si Si4 0.923226 0.686609 0.563434
Si Si5 0.240649 0.686339 0.104172
Si Si6 0.664530 0.180739 0.616024
O O1 0.533164 0.761341 0.193936
O O2 0.608282 0.000000 0.024143
O O3 0.604795 0.737965 0.947987
O O4 0.688325 0.757415 0.951880
O O5 0.928063 0.762147 0.468130
O O6 0.885391 0.764480 0.378464
O O7 0.960232 0.000000 0.327134
O O8 0.123867 0.287836 0.762623
O O9 0.125454 0.000000 0.819261
O O10 0.000000 0.163189 0.000000
O O11 0.924097 0.500000 0.552416
O O12 0.843434 0.727853 0.730458
O O13 0.000000 0.729630 0.500000
O O14 0.246245 0.500000 0.095307
O O15 0.250000 0.750000 0.000000
O O16 0.750000 0.250000 0.500000
O O17 0.667623 0.000000 0.592496
#
# Coordination Sequence:
#
# PCOD9217711 Si02
#       6
#     8   8   8   8   8   8
#     4  12  25  42  67  96 132 175 223 270 326 391
#     4  12  25  43  67  97 132 171 220 272 329 390
#     4  11  23  42  68  97 132 171 220 273 327 385
#     4  10  23  44  69  97 131 171 214 264 327 393
#     4  11  24  43  69 100 135 170 215 269 328 390
#     4  12  26  44  67  95 133 176 221 270 327 389
#
# _framework density 19.596378999999999
#
# number of rings (size 3 to 8) (size 9 to 14) (size 15 to 20)
#    0.000    0.667    1.667    6.500    2.333    3.667 
#    0.000    0.000    0.000    0.000    0.000    0.000 
#    0.000    0.000    0.000    0.000    0.000    0.000 
#
# Total GULP energy -134309.287412 kJ/mol
# GULP energy per Si atom -5596.220309 kJ/mol
# Density = 1.955178 g / cm^3
# Si number density = 19.596379 Si / 1000 Ang^3
#
#
#
# Elastic Constant Matrix: (Units=GPa)
#
#
# Indices 1 2 3 4 5 6 
#
# 1 176.5983 47.1351 77.0698 -0.0009 0.5361 0.0009
# 2 47.1351 88.2229 12.3427 -0.0011 -3.7442 0.0032
# 3 77.0698 12.3427 94.1061 -0.0010 -2.5804 0.0009
# 4 -0.0009 -0.0011 -0.0010 31.2523 0.0004 3.8686
# 5 0.5361 -3.7442 -2.5804 0.0004 43.4942 -0.0006
# 6 0.0009 0.0032 0.0009 3.8686 -0.0006 38.4027
#
#
#
# Elastic Compliance Matrix: (Units=1/GPa)
#
#
# Indices 1 2 3 4 5 6 
#
# 1 0.010282 -0.004434 -0.007865 0.000000 -0.000975 0.000000
# 2 -0.004434 0.013495 0.001898 0.000001 0.001329 -0.000001
# 3 -0.007865 0.001898 0.016854 0.000000 0.001260 0.000000
# 4 0.000000 0.000001 0.000000 0.032402 0.000000 -0.003264
# 5 -0.000975 0.001329 0.001260 0.000000 0.023193 0.000000
# 6 0.000000 -0.000001 0.000000 -0.003264 0.000000 0.026369
#
#
# Mechanical properties :
#
#
# Convention : Reuss Voigt Hill
#
# Bulk Modulus (GPa) = 50.43743 70.22474 60.33108
# Shear Modulus (GPa) = 33.33213 37.45516 35.39365
#
# Velocity S-wave (km/s) = 4.12871 4.37662 4.25447
# Velocity P-wave (km/s) = 6.96580 7.83920 7.41537
#
# Compressibility (1/GPa) = 0.01982655
#
# Stress axis : x y z
#
# Youngs Moduli (GPa) = 97.26072 74.10231 59.33479
#
# Poissons Ratio (x) = 0.32858 0.46670
# Poissons Ratio (y) = 0.43127 -0.11261
# Poissons Ratio (z) = 0.76500 -0.14064
#
# Static dielectric constant tensor:
#      x y z
#    x 1.661540 0.000000 0.012500 
#    y 0.000000 1.673110 0.000000 
#    z 0.012500 0.000000 1.653370 
# 
# From -- ./inp_files/248791.got.cif
#   From: 2010.05.17/outbox.cif.g08.bks.cpg/sg12_125_cif.got.tgz:248791.got - 2010.06.03 13:09:07.
