data_PCOD9217595
_publ_section_title
;
Structure prediction by ZEFSAII (Michael W. Deem and Ramdas Pophale) SiO2 
 PCOD9217595
Probable space group: C 2/M
;
_chemical_formula_sum "Si O2"
_cell_formula_units_Z 48
_cell_length_a 13.210028
_cell_length_b 23.346920
_cell_length_c 11.500187
_cell_angle_alpha 90.000000
_cell_angle_beta 138.052786
_cell_angle_gamma 90.000000
_cell_volume 2370.851490
_symmetry_space_group_name_H-M "C 2/M"
_symmetry_group_IT_number 12
_symmetry_cell_setting 'monoclinic'
loop_
_space_group_symop_operation_xyz
x,y,z
-x,y,-z
-x,-y,-z
x,-y,z
1/2+x,1/2+y,z
1/2-x,1/2+y,-z
1/2-x,1/2-y,-z
1/2+x,1/2-y,z
loop_
_atom_site_type_symbol
_atom_site_label
_atom_site_fract_x
_atom_site_fract_y
_atom_site_fract_z
Si Si1 0.154719 0.159185 0.694362
Si Si2 0.594702 0.068596 0.434318
Si Si3 0.303190 0.135325 0.282854
Si Si4 0.362471 0.067982 0.799870
Si Si5 0.204533 0.757448 0.326504
Si Si6 0.365300 0.302056 0.065795
O O1 0.209931 0.096086 0.713673
O O2 0.275801 0.201887 0.737729
O O3 0.130537 0.165041 0.809510
O O4 0.000000 0.174379 0.500000
O O5 0.447236 0.105872 0.343833
O O6 0.724647 0.089978 0.635420
O O7 0.622129 0.081923 0.323188
O O8 0.570637 0.000000 0.426203
O O9 0.314353 0.194660 0.364016
O O10 0.192056 0.155885 0.085277
O O11 0.359190 0.000000 0.806519
O O12 0.500000 0.088822 0.000000
O O13 0.250000 0.750000 0.500000
O O14 0.030925 0.778263 0.176199
O O15 0.250000 0.250000 0.000000
#
# Coordination Sequence:
#
# PCOD9217595 Si02
#       6
#     8   8   8   8   8   8
#     4  12  26  42  66  95 133 179 221 274 340 406
#     4  10  23  43  73 103 132 180 231 283 339 405
#     4  11  23  39  66  96 135 172 223 277 336 397
#     4  10  23  44  71 101 131 172 229 286 339 400
#     4  12  26  42  63  95 139 179 224 273 344 408
#     4  12  27  42  62  99 137 180 222 277 338 406
#
# _framework density 20.245891
#
# number of rings (size 3 to 8) (size 9 to 14) (size 15 to 20)
#    0.000    0.833    3.333    3.500   11.667    0.333 
#    0.000    0.833    0.000    8.000    0.000    0.000 
#    0.000    0.000    0.000    0.000    0.000    0.000 
#
# Total GULP energy -133892.041268 kJ/mol
# GULP energy per Si atom -5578.835053 kJ/mol
# Density = 2.019981 g / cm^3
# Si number density = 20.245891 Si / 1000 Ang^3
#
#
#
# Elastic Constant Matrix: (Units=GPa)
#
#
# Indices 1 2 3 4 5 6 
#
# 1 105.4846 30.7213 77.2326 0.0000 -18.2997 0.0000
# 2 30.7213 36.8676 55.6477 0.0000 -5.3461 0.0000
# 3 77.2326 55.6477 154.1436 0.0000 -32.4258 0.0000
# 4 0.0000 0.0000 0.0000 39.3143 0.0000 -2.8890
# 5 -18.2997 -5.3461 -32.4258 0.0000 46.6220 0.0000
# 6 0.0000 0.0000 0.0000 -2.8890 0.0000 46.3290
#
#
#
# Elastic Compliance Matrix: (Units=1/GPa)
#
#
# Indices 1 2 3 4 5 6 
#
# 1 0.015141 -0.003043 -0.006221 0.000000 0.001267 0.000000
# 2 -0.003043 0.064056 -0.023787 0.000000 -0.010393 0.000000
# 3 -0.006221 -0.023787 0.020036 0.000000 0.008765 0.000000
# 4 0.000000 0.000000 0.000000 0.025553 0.000000 0.001593
# 5 0.001267 -0.010393 0.008765 0.000000 0.026851 0.000000
# 6 0.000000 0.000000 0.000000 0.001593 0.000000 0.021684
#
#
# Mechanical properties :
#
#
# Convention : Reuss Voigt Hill
#
# Bulk Modulus (GPa) = 30.18285 69.29991 49.74138
# Shear Modulus (GPa) = 19.96274 35.31267 27.63771
#
# Velocity S-wave (km/s) = 3.14349 4.18088 3.69874
# Velocity P-wave (km/s) = 5.30244 7.59011 6.54697
#
# Compressibility (1/GPa) = 0.03313140
#
# Stress axis : x y z
#
# Youngs Moduli (GPa) = 66.04531 15.61134 49.91067
#
# Poissons Ratio (x) = 0.04750 0.31051
# Poissons Ratio (y) = 0.20096 1.18721
# Poissons Ratio (z) = 0.41089 0.37134
#
# Static dielectric constant tensor:
#      x y z
#    x 1.668070 0.000000 0.013400 
#    y 0.000000 1.739580 0.000000 
#    z 0.013400 0.000000 1.791710 
# 
# From -- ./inp_files/148011.got.cif
#   From: 2010.05.17/outbox.cif.g08.bks.cpg/sg12_75_cif.got.tgz:148011.got - 2010.06.03 13:09:07.
