data_PCOD9217526
_publ_section_title
;
Structure prediction by ZEFSAII (Michael W. Deem and Ramdas Pophale) SiO2 
 PCOD9217526
Probable space group: C 2/M
;
_chemical_formula_sum "Si O2"
_cell_formula_units_Z 56
_cell_length_a 9.289558
_cell_length_b 17.264062
_cell_length_c 26.529306
_cell_angle_alpha 90.000000
_cell_angle_beta 139.413329
_cell_angle_gamma 90.000000
_cell_volume 2768.065492
_symmetry_space_group_name_H-M "C 2/M"
_symmetry_group_IT_number 12
_symmetry_cell_setting 'monoclinic'
loop_
_space_group_symop_operation_xyz
x,y,z
-x,y,-z
-x,-y,-z
x,-y,z
1/2+x,1/2+y,z
1/2-x,1/2+y,-z
1/2-x,1/2-y,-z
1/2+x,1/2-y,z
loop_
_atom_site_type_symbol
_atom_site_label
_atom_site_fract_x
_atom_site_fract_y
_atom_site_fract_z
Si Si1 0.122298 0.863478 0.196992
Si Si2 0.262494 0.586371 0.565356
Si Si3 0.829245 0.173386 0.678323
Si Si4 0.934220 0.590456 0.736798
Si Si5 0.427794 0.323254 0.422951
Si Si6 0.339280 0.807990 0.811145
Si Si7 0.366017 0.911704 0.915074
O O1 0.225277 0.853962 0.280315
O O2 0.311552 0.898072 0.212129
O O3 0.055011 0.776547 0.162734
O O4 0.895362 0.909714 0.142037
O O5 0.323388 0.500000 0.564152
O O6 0.345696 0.603067 0.643726
O O7 0.367058 0.650636 0.557195
O O8 0.000000 0.591231 0.500000
O O9 0.658451 0.237278 0.612983
O O10 0.075697 0.208479 0.744735
O O11 0.890972 0.500000 0.735492
O O12 0.771549 0.621030 0.649158
O O13 0.884653 0.643536 0.772446
O O14 0.500000 0.330032 0.500000
O O15 0.403323 0.857507 0.876835
O O16 0.431834 0.000000 0.920787
O O17 0.500000 0.886205 0.000000
#
# Coordination Sequence:
#
# PCOD9217526 Si02
#       7
#     8   8   8   8   8   8   8
#     4  11  22  41  66  96 125 162 212 260 304 369
#     4  11  26  43  60  86 122 163 212 266 324 380
#     4  11  22  42  66  88 118 168 216 259 309 382
#     4  12  24  40  63  94 125 163 211 265 317 366
#     4  12  26  42  63  89 124 168 213 268 323 371
#     4  11  21  42  68  92 125 166 210 252 309 377
#     4  10  23  43  67  97 132 167 203 248 309 379
#
# _framework density 20.230736
#
# number of rings (size 3 to 8) (size 9 to 14) (size 15 to 20)
#    0.000    0.857    4.286    2.571    2.000    5.714 
#    0.000    0.714    0.000    2.571    0.000    0.000 
#    0.000    0.000    0.000    0.000    0.000    0.000 
#
# Total GULP energy -156564.242635 kJ/mol
# GULP energy per Si atom -5591.580094 kJ/mol
# Density = 2.018469 g / cm^3
# Si number density = 20.230736 Si / 1000 Ang^3
#
#
#
# Elastic Constant Matrix: (Units=GPa)
#
#
# Indices 1 2 3 4 5 6 
#
# 1 102.5627 20.8130 32.5495 0.0000 -14.4029 0.0000
# 2 20.8130 77.8896 34.7508 0.0000 -11.4433 0.0000
# 3 32.5495 34.7508 84.2821 0.0000 -33.0752 0.0002
# 4 0.0000 0.0000 0.0000 25.5577 0.0000 17.2911
# 5 -14.4029 -11.4433 -33.0752 0.0000 26.0531 0.0000
# 6 0.0000 0.0000 0.0002 17.2911 0.0000 52.9528
#
#
#
# Elastic Compliance Matrix: (Units=1/GPa)
#
#
# Indices 1 2 3 4 5 6 
#
# 1 0.011254 -0.001365 -0.003143 0.000000 0.001632 0.000000
# 2 -0.001365 0.015990 -0.007186 0.000000 -0.002854 0.000000
# 3 -0.003143 -0.007186 0.028141 0.000000 0.030832 0.000000
# 4 0.000000 0.000000 0.000000 0.050222 0.000000 -0.016399
# 5 0.001632 -0.002854 0.030832 0.000000 0.077174 0.000000
# 6 0.000000 0.000000 0.000000 -0.016399 0.000000 0.024240
#
#
# Mechanical properties :
#
#
# Convention : Reuss Voigt Hill
#
# Bulk Modulus (GPa) = 31.25255 48.99569 40.12412
# Shear Modulus (GPa) = 20.74047 32.68746 26.71397
#
# Velocity S-wave (km/s) = 3.20534 4.02398 3.63776
# Velocity P-wave (km/s) = 5.40190 6.77207 6.12542
#
# Compressibility (1/GPa) = 0.03199738
#
# Stress axis : x y z
#
# Youngs Moduli (GPa) = 88.85916 62.53856 35.53518
#
# Poissons Ratio (x) = 0.08538 0.11169
# Poissons Ratio (y) = 0.12131 0.25534
# Poissons Ratio (z) = 0.27928 0.44938
#
# Static dielectric constant tensor:
#      x y z
#    x 1.712320 0.000000 0.019170 
#    y 0.000000 1.715530 0.000000 
#    z 0.019170 0.000000 1.709080 
# 
# From -- ./inp_files/356760.got.cif
#   From: 2010.05.17/outbox.cif.g08.bks.cpg/sg12_179_cif.got.tgz:356760.got - 2010.06.03 13:09:07.
