data_PCOD9217058
_publ_section_title
;
Structure prediction by ZEFSAII (Michael W. Deem and Ramdas Pophale) SiO2 
 PCOD9217058
Probable space group: C 2/M
;
_chemical_formula_sum "Si O2"
_cell_formula_units_Z 48
_cell_length_a 10.535280
_cell_length_b 22.133117
_cell_length_c 11.757554
_cell_angle_alpha 90.000000
_cell_angle_beta 120.936080
_cell_angle_gamma 90.000000
_cell_volume 2351.592097
_symmetry_space_group_name_H-M "C 2/M"
_symmetry_group_IT_number 12
_symmetry_cell_setting 'monoclinic'
loop_
_space_group_symop_operation_xyz
x,y,z
-x,y,-z
-x,-y,-z
x,-y,z
1/2+x,1/2+y,z
1/2-x,1/2+y,-z
1/2-x,1/2-y,-z
1/2+x,1/2-y,z
loop_
_atom_site_type_symbol
_atom_site_label
_atom_site_fract_x
_atom_site_fract_y
_atom_site_fract_z
Si Si1 0.405534 0.758656 0.634555
Si Si2 0.264022 0.621254 0.016851
Si Si3 0.324106 0.000000 0.905345
Si Si4 0.664807 0.161435 0.739450
Si Si5 0.852748 0.274102 0.874191
Si Si6 0.960025 0.000000 0.349753
Si Si7 0.944900 0.126849 0.728128
O O1 0.250000 0.750000 0.500000
O O2 0.507046 0.812003 0.629867
O O3 0.379309 0.781228 0.752169
O O4 0.472358 0.689841 0.670646
O O5 0.232530 0.557699 0.056186
O O6 0.192933 0.669295 0.071402
O O7 0.441024 0.629814 0.112560
O O8 0.182478 0.620108 0.858157
O O9 0.220286 0.000000 0.744861
O O10 0.500000 0.000000 0.000000
O O11 0.731925 0.222637 0.825043
O O12 0.777379 0.135801 0.697118
O O13 0.000000 0.250203 0.000000
O O14 0.000000 0.000000 0.500000
O O15 0.023549 0.062885 0.321369
#
# Coordination Sequence:
#
# PCOD9217058 Si02
#       7
#     8   8   4   8   8   4   8
#     4  11  24  39  62  96 136 178 218 280 344 405
#     4  11  20  39  63  95 131 175 220 282 340 407
#     4  10  24  39  63  97 130 167 234 289 329 395
#     4  11  21  38  63  95 136 167 215 277 349 399
#     4  11  20  34  61  89 123 168 219 264 332 407
#     4  10  24  49  73  94 133 189 236 278 339 427
#     4  10  23  41  65  98 129 171 231 273 338 413
#
# _framework density 20.411702999999999
#
# number of rings (size 3 to 8) (size 9 to 14) (size 15 to 20)
#    0.000    1.333    3.333    3.500    0.000    6.000 
#    0.000    2.500    0.000    2.000    0.000    0.000 
#    0.000    0.000    0.000    0.000    0.000    0.000 
#
# Total GULP energy -133662.901905 kJ/mol
# GULP energy per Si atom -5569.287579 kJ/mol
# Density = 2.036524 g / cm^3
# Si number density = 20.411703 Si / 1000 Ang^3
#
#
#
# Elastic Constant Matrix: (Units=GPa)
#
#
# Indices 1 2 3 4 5 6 
#
# 1 83.2695 21.0274 56.0421 0.0000 19.2599 0.0000
# 2 21.0274 69.6167 14.3088 0.0000 -4.7951 0.0000
# 3 56.0421 14.3088 137.7655 0.0000 12.4315 0.0000
# 4 0.0000 0.0000 0.0000 23.9069 0.0000 -0.6670
# 5 19.2599 -4.7951 12.4315 0.0000 40.3358 0.0000
# 6 0.0000 0.0000 0.0000 -0.6670 0.0000 30.6122
#
#
#
# Elastic Compliance Matrix: (Units=1/GPa)
#
#
# Indices 1 2 3 4 5 6 
#
# 1 0.019679 -0.005100 -0.006761 0.000000 -0.007919 0.000000
# 2 -0.005100 0.016206 -0.000002 0.000000 0.004362 0.000000
# 3 -0.006761 -0.000002 0.009996 0.000000 0.000147 0.000000
# 4 0.000000 0.000000 0.000000 0.041854 0.000000 0.000912
# 5 -0.007919 0.004362 0.000147 0.000000 0.029046 0.000000
# 6 0.000000 0.000000 0.000000 0.000912 0.000000 0.032687
#
#
# Mechanical properties :
#
#
# Convention : Reuss Voigt Hill
#
# Bulk Modulus (GPa) = 45.13748 52.60094 48.86921
# Shear Modulus (GPa) = 27.68878 32.25589 29.97234
#
# Velocity S-wave (km/s) = 3.68709 3.97957 3.83611
# Velocity P-wave (km/s) = 6.34726 6.85141 6.60415
#
# Compressibility (1/GPa) = 0.02215454
#
# Stress axis : x y z
#
# Youngs Moduli (GPa) = 50.81580 61.70688 100.04016
#
# Poissons Ratio (x) = 0.31469 0.67637
# Poissons Ratio (y) = 0.25915 0.00023
# Poissons Ratio (z) = 0.34357 0.00014
#
# Static dielectric constant tensor:
#      x y z
#    x 1.998720 0.000000 0.447120 
#    y 0.000000 1.754270 0.000000 
#    z 0.447120 0.000000 2.827840 
# 
# From -- ./inp_files/134980.got.cif
#   From: 2010.05.17/outbox.cif.g08.bks.cpg/sg12_68_cif.got.tgz:134980.got - 2010.06.03 13:09:07.
