data_PCOD9217217
_publ_section_title
;
Structure prediction by ZEFSAII (Michael W. Deem and Ramdas Pophale) SiO2 
 PCOD9217217
Probable space group: C 2/M
;
_chemical_formula_sum "Si O2"
_cell_formula_units_Z 56
_cell_length_a 21.829040
_cell_length_b 15.215520
_cell_length_c 14.168936
_cell_angle_alpha 90.000000
_cell_angle_beta 139.386526
_cell_angle_gamma 90.000000
_cell_volume 3063.431284
_symmetry_space_group_name_H-M "C 2/M"
_symmetry_group_IT_number 12
_symmetry_cell_setting 'monoclinic'
loop_
_space_group_symop_operation_xyz
x,y,z
-x,y,-z
-x,-y,-z
x,-y,z
1/2+x,1/2+y,z
1/2-x,1/2+y,-z
1/2-x,1/2-y,-z
1/2+x,1/2-y,z
loop_
_atom_site_type_symbol
_atom_site_label
_atom_site_fract_x
_atom_site_fract_y
_atom_site_fract_z
Si Si1 0.816811 0.103887 0.500897
Si Si2 0.857516 0.235423 0.097218
Si Si3 0.943466 0.600127 0.090413
Si Si4 0.516034 0.604248 0.630499
Si Si5 0.890285 0.906513 0.985650
Si Si6 0.121391 0.655293 0.193208
Si Si7 0.894708 0.143348 0.788800
O O1 0.915861 0.118018 0.564517
O O2 0.729612 0.147867 0.347329
O O3 0.829064 0.136177 0.621967
O O4 0.799121 0.000000 0.481142
O O5 0.910402 0.325488 0.126496
O O6 0.854127 0.175328 0.000349
O O7 0.912976 0.174662 0.238822
O O8 0.750000 0.250000 0.000000
O O9 0.922177 0.500000 0.094991
O O10 0.053547 0.607603 0.189648
O O11 0.894962 0.619648 0.931569
O O12 0.500000 0.617632 0.500000
O O13 0.542952 0.500000 0.675254
O O14 0.003907 0.897723 0.117751
O O15 0.864231 0.000000 0.998296
O O16 0.858466 0.902633 0.840432
O O17 0.090689 0.756155 0.165297
#
# Coordination Sequence:
#
# PCOD9217217 Si02
#       7
#     8   8   8   8   8   8   8
#     4  11  21  34  57  92 123 157 207 255 309 376
#     4  12  25  41  61  88 122 165 216 259 304 372
#     4  11  22  40  60  85 124 165 204 251 307 369
#     4  10  23  42  64  91 128 168 208 263 318 365
#     4  11  20  37  61  87 121 154 193 252 315 368
#     4  11  20  37  59  89 124 163 202 251 312 373
#     4  11  19  34  59  90 122 157 190 246 315 375
#
# _framework density 18.280156000000002
#
# number of rings (size 3 to 8) (size 9 to 14) (size 15 to 20)
#    0.000    1.000    4.286    5.143    2.000    1.143 
#    0.000    0.000    0.000    0.429    0.000    0.000 
#    0.000    0.000    0.000    0.000    0.000    0.000 
#
# Total GULP energy -156283.128078 kJ/mol
# GULP energy per Si atom -5581.540288 kJ/mol
# Density = 1.823855 g / cm^3
# Si number density = 18.280156 Si / 1000 Ang^3
#
#
#
# Elastic Constant Matrix: (Units=GPa)
#
#
# Indices 1 2 3 4 5 6 
#
# 1 79.4359 45.7148 39.8242 0.0000 -6.2139 0.0000
# 2 45.7148 145.2864 30.0549 0.0000 4.4106 0.0000
# 3 39.8242 30.0549 100.7380 0.0000 -1.1958 0.0000
# 4 0.0000 0.0000 0.0000 27.7985 0.0000 -7.4020
# 5 -6.2139 4.4106 -1.1958 0.0000 24.1900 0.0000
# 6 0.0000 0.0000 0.0000 -7.4020 0.0000 9.0279
#
#
#
# Elastic Compliance Matrix: (Units=1/GPa)
#
#
# Indices 1 2 3 4 5 6 
#
# 1 0.018762 -0.004846 -0.005907 0.000000 0.005411 0.000000
# 2 -0.004846 0.008638 -0.000695 0.000000 -0.002854 0.000000
# 3 -0.005907 -0.000695 0.012460 0.000000 -0.000775 0.000000
# 4 0.000000 0.000000 0.000000 0.046020 0.000000 0.037732
# 5 0.005411 -0.002854 -0.000775 0.000000 0.043212 0.000000
# 6 0.000000 0.000000 0.000000 0.037732 0.000000 0.141705
#
#
# Mechanical properties :
#
#
# Convention : Reuss Voigt Hill
#
# Bulk Modulus (GPa) = 58.94880 61.84980 60.39930
# Shear Modulus (GPa) = 16.70290 26.19437 21.44863
#
# Velocity S-wave (km/s) = 3.02606 3.78953 3.42910
# Velocity P-wave (km/s) = 6.67284 7.28390 6.98505
#
# Compressibility (1/GPa) = 0.01696387
#
# Stress axis : x y z
#
# Youngs Moduli (GPa) = 53.29828 115.76447 80.25505
#
# Poissons Ratio (x) = 0.56098 0.47408
# Poissons Ratio (y) = 0.25828 0.05581
# Poissons Ratio (z) = 0.31484 0.08050
#
# Static dielectric constant tensor:
#      x y z
#    x 1.630480 0.000000 -0.014000 
#    y 0.000000 1.662370 0.000000 
#    z -0.014000 0.000000 1.610860 
# 
# From -- ./inp_files/240435.got.cif
#   From: 2010.05.17/outbox.cif.g08.bks.cpg/sg12_121_cif.got.tgz:240435.got - 2010.06.03 13:09:07.
