data_PCOD9217752
_publ_section_title
;
Structure prediction by ZEFSAII (Michael W. Deem and Ramdas Pophale) SiO2 
 PCOD9217752
Probable space group: C 2/M
;
_chemical_formula_sum "Si O2"
_cell_formula_units_Z 34
_cell_length_a 16.208014
_cell_length_b 15.648821
_cell_length_c 12.254888
_cell_angle_alpha 90.000000
_cell_angle_beta 24.500339
_cell_angle_gamma 90.000000
_cell_volume 1289.001342
_symmetry_space_group_name_H-M "C 2/M"
_symmetry_group_IT_number 12
_symmetry_cell_setting 'monoclinic'
loop_
_space_group_symop_operation_xyz
x,y,z
-x,y,-z
-x,-y,-z
x,-y,z
1/2+x,1/2+y,z
1/2-x,1/2+y,-z
1/2-x,1/2-y,-z
1/2+x,1/2-y,z
loop_
_atom_site_type_symbol
_atom_site_label
_atom_site_fract_x
_atom_site_fract_y
_atom_site_fract_z
Si Si1 0.643267 0.095517 0.591532
Si Si2 0.718900 0.653926 0.352442
Si Si3 0.793917 0.851277 0.946798
Si Si4 0.731663 0.155921 0.255579
Si Si5 0.500000 0.000000 0.000000
O O1 0.711879 0.158828 0.603514
O O2 0.412074 0.106521 0.839842
O O3 0.755256 0.108098 0.341889
O O4 0.668137 0.000000 0.610501
O O5 0.763706 0.743868 0.241523
O O6 0.840560 0.576045 0.158306
O O7 0.515589 0.635495 0.357097
O O8 0.842906 0.875307 0.013566
O O9 0.750000 0.750000 0.000000
O O10 0.500000 0.147568 0.500000
#
# Coordination Sequence:
#
# PCOD9217752 Si02
#       5
#     8   8   8   8   2
#     4  11  25  46  71 111 153 192 250 314 380 448
#     4  12  26  50  70 108 153 190 260 303 374 458
#     4  11  25  46  74 108 142 203 251 307 373 439
#     4  10  23  44  76 109 142 197 250 310 377 446
#     4  12  32  44  74 110 154 206 236 312 390 432
#
# _framework density 26.377009000000001
#
# number of rings (size 3 to 8) (size 9 to 14) (size 15 to 20)
#    0.000    0.941    5.882    0.706    4.941    5.176 
#    0.000    2.941    0.000    0.000    0.000    0.000 
#    0.000    0.000    0.000    0.000    0.000    0.000 
#
# Total GULP energy -95125.466746 kJ/mol
# GULP energy per Si atom -5595.615691 kJ/mol
# Density = 2.631697 g / cm^3
# Si number density = 26.377009 Si / 1000 Ang^3
#
#
#
# Elastic Constant Matrix: (Units=GPa)
#
#
# Indices 1 2 3 4 5 6 
#
# 1 131.8128 -12.8254 21.9915 -0.0064 35.2680 0.0011
# 2 -12.8254 61.6570 -3.6095 -0.0183 1.3616 -0.0107
# 3 21.9915 -3.6095 126.1552 -0.0131 8.6982 -0.0054
# 4 -0.0064 -0.0183 -0.0131 -56.1169 0.0034 -45.3637
# 5 35.2680 1.3616 8.6982 0.0034 54.2542 -0.0010
# 6 0.0011 -0.0107 -0.0054 -45.3637 -0.0010 22.5264
#
#
#
# Elastic Compliance Matrix: (Units=1/GPa)
#
#
# Indices 1 2 3 4 5 6 
#
# 1 0.009624 0.002067 -0.001197 -0.000001 -0.006116 -0.000001
# 2 0.002067 0.016703 0.000242 -0.000005 -0.001801 -0.000002
# 3 -0.001197 0.000242 0.008179 -0.000001 -0.000539 -0.000001
# 4 -0.000001 -0.000005 -0.000001 -0.006781 0.000001 -0.013656
# 5 -0.006116 -0.001801 -0.000539 0.000001 0.022539 0.000002
# 6 -0.000001 -0.000002 -0.000001 -0.013656 0.000002 0.016893
#
#
# Mechanical properties :
#
#
# Convention : Reuss Voigt Hill
#
# Bulk Modulus (GPa) = 27.22610 36.74869 31.98739
# Shear Modulus (GPa) = 64.78707 25.07063 44.92885
#
# Velocity S-wave (km/s) = 4.96138 3.08632 4.13162
# Velocity P-wave (km/s) = 6.56998 5.16361 5.90879
#
# Compressibility (1/GPa) = 0.03672947
#
# Stress axis : x y z
#
# Youngs Moduli (GPa) = 103.91063 59.87080 122.25710
#
# Poissons Ratio (x) = -0.12374 0.14632
# Poissons Ratio (y) = -0.21477 -0.02956
# Poissons Ratio (z) = 0.12436 -0.01448
#
# Static dielectric constant tensor:
#      x y z
#    x 2.832340 -0.000020 2.101920 
#    y -0.000020 1.997020 -0.000050 
#    z 2.101920 -0.000050 8.055040 
# 
# From -- ./inp_files/141731.got.cif
#   From: 2010.05.17/outbox.cif.g08.bks.cpg/sg12_71_cif.got.tgz:141731.got - 2010.06.03 13:09:07.
