data_PCOD9217585
_publ_section_title
;
Structure prediction by ZEFSAII (Michael W. Deem and Ramdas Pophale) SiO2 
 PCOD9217585
Probable space group: C 2/M
;
_chemical_formula_sum "Si O2"
_cell_formula_units_Z 36
_cell_length_a 17.105099
_cell_length_b 8.575764
_cell_length_c 32.278365
_cell_angle_alpha 90.000000
_cell_angle_beta 157.219488
_cell_angle_gamma 90.000000
_cell_volume 1833.359129
_symmetry_space_group_name_H-M "C 2/M"
_symmetry_group_IT_number 12
_symmetry_cell_setting 'monoclinic'
loop_
_space_group_symop_operation_xyz
x,y,z
-x,y,-z
-x,-y,-z
x,-y,z
1/2+x,1/2+y,z
1/2-x,1/2+y,-z
1/2-x,1/2-y,-z
1/2+x,1/2-y,z
loop_
_atom_site_type_symbol
_atom_site_label
_atom_site_fract_x
_atom_site_fract_y
_atom_site_fract_z
Si Si1 0.650928 0.821741 0.492807
Si Si2 0.688487 0.749232 0.264400
Si Si3 0.593842 0.000000 0.151372
Si Si4 0.897116 0.676534 0.683902
Si Si5 0.156419 0.000000 0.809051
Si Si6 0.662842 0.500000 0.906109
O O1 0.750000 0.750000 0.500000
O O2 0.409485 0.825763 0.371350
O O3 0.718187 0.715638 0.564364
O O4 0.722921 0.000000 0.533748
O O5 0.673313 0.857644 0.217273
O O6 0.670673 0.824141 0.301350
O O7 0.491125 0.642321 0.164472
O O8 0.687424 0.000000 0.151812
O O9 0.351694 0.000000 0.028860
O O10 0.977909 0.500000 0.714104
O O11 0.035623 0.833506 0.747080
O O12 0.241040 0.000000 0.897040
#
# Coordination Sequence:
#
# PCOD9217585 Si02
#       6
#     8   8   4   8   4   4
#     4  12  25  40  64  99 137 175 215 267 333 401
#     4  11  24  41  66  94 130 174 220 272 331 389
#     4  12  23  42  67  97 130 169 229 280 334 379
#     4  11  23  42  67  99 136 174 218 263 328 406
#     4  10  23  43  70  98 134 176 218 278 335 385
#     4  10  23  45  68  91 126 179 226 278 327 392
#
# _framework density 19.636087
#
# number of rings (size 3 to 8) (size 9 to 14) (size 15 to 20)
#    0.000    0.889    3.333    3.667    3.111    1.778 
#    2.000    0.000    0.000    2.667    0.000    0.000 
#    0.000    0.000    0.000    0.000    0.000    0.000 
#
# Total GULP energy -100359.833229 kJ/mol
# GULP energy per Si atom -5575.546290 kJ/mol
# Density = 1.959139 g / cm^3
# Si number density = 19.636087 Si / 1000 Ang^3
#
#
#
# Elastic Constant Matrix: (Units=GPa)
#
#
# Indices 1 2 3 4 5 6 
#
# 1 78.6971 28.8117 9.3470 -0.0002 8.1398 0.0000
# 2 28.8117 135.4040 27.1310 0.0000 0.5495 -0.0002
# 3 9.3470 27.1310 80.1393 -0.0001 -4.4704 0.0010
# 4 -0.0002 0.0000 -0.0001 20.0914 0.0000 -11.2477
# 5 8.1398 0.5495 -4.4704 0.0000 23.3591 0.0000
# 6 0.0000 -0.0002 0.0010 -11.2477 0.0000 32.2454
#
#
#
# Elastic Compliance Matrix: (Units=1/GPa)
#
#
# Indices 1 2 3 4 5 6 
#
# 1 0.014399 -0.002842 -0.001004 0.000000 -0.005143 0.000000
# 2 -0.002842 0.008495 -0.002527 0.000000 0.000307 0.000000
# 3 -0.001004 -0.002527 0.013619 0.000000 0.003016 -0.000001
# 4 0.000000 0.000000 0.000000 0.061850 0.000000 0.021574
# 5 -0.005143 0.000307 0.003016 0.000000 0.045172 0.000000
# 6 0.000000 0.000000 -0.000001 0.021574 0.000000 0.038538
#
#
# Mechanical properties :
#
#
# Convention : Reuss Voigt Hill
#
# Bulk Modulus (GPa) = 42.07645 47.20221 44.63933
# Shear Modulus (GPa) = 24.66192 30.40256 27.53224
#
# Velocity S-wave (km/s) = 3.54778 3.93911 3.74856
# Velocity P-wave (km/s) = 6.18522 6.69175 6.44346
#
# Compressibility (1/GPa) = 0.02376627
#
# Stress axis : x y z
#
# Youngs Moduli (GPa) = 69.45160 117.71417 73.42521
#
# Poissons Ratio (x) = 0.33451 0.07373
# Poissons Ratio (y) = 0.19736 0.18558
# Poissons Ratio (z) = 0.06974 0.29752
#
# Static dielectric constant tensor:
#      x y z
#    x 1.653930 0.000000 0.003730 
#    y 0.000000 1.686440 0.000000 
#    z 0.003730 0.000000 1.657050 
# 
# From -- ./inp_files/151574.got.cif
#   From: 2010.05.17/outbox.cif.g08.bks.cpg/sg12_76_cif.got.tgz:151574.got - 2010.06.03 13:09:07.
