data_PCOD9217807
_publ_section_title
;
Structure prediction by ZEFSAII (Michael W. Deem and Ramdas Pophale) SiO2 
 PCOD9217807
Probable space group: C 2/M
;
_chemical_formula_sum "Si O2"
_cell_formula_units_Z 32
_cell_length_a 11.976498
_cell_length_b 15.746123
_cell_length_c 14.903729
_cell_angle_alpha 90.000000
_cell_angle_beta 29.785571
_cell_angle_gamma 90.000000
_cell_volume 1396.178799
_symmetry_space_group_name_H-M "C 2/M"
_symmetry_group_IT_number 12
_symmetry_cell_setting 'monoclinic'
loop_
_space_group_symop_operation_xyz
x,y,z
-x,y,-z
-x,-y,-z
x,-y,z
1/2+x,1/2+y,z
1/2-x,1/2+y,-z
1/2-x,1/2-y,-z
1/2+x,1/2-y,z
loop_
_atom_site_type_symbol
_atom_site_label
_atom_site_fract_x
_atom_site_fract_y
_atom_site_fract_z
Si Si1 0.466087 0.902565 0.816956
Si Si2 0.550567 0.148622 0.558535
Si Si3 0.279897 0.192213 0.210532
Si Si4 0.037260 0.900877 0.228250
O O1 0.487903 0.894925 0.695694
O O2 0.636996 0.843372 0.752445
O O3 0.506577 0.000000 0.816395
O O4 0.215184 0.881009 0.025838
O O5 0.500000 0.101902 0.500000
O O6 0.398895 0.232725 0.659736
O O7 0.819119 0.157603 0.374524
O O8 0.166411 0.117993 0.230596
O O9 0.500000 0.219493 0.000000
O O10 0.971856 0.000000 0.269065
#
# Coordination Sequence:
#
# PCOD9217807 Si02
#       4
#     8   8   8   8
#     4  10  24  47  72  98 132 175 224 280 334 388
#     4  12  28  41  66 101 140 180 221 269 331 403
#     4  10  24  43  73 102 133 171 225 281 336 391
#     4  10  23  45  71  99 133 174 225 278 332 396
#
# _framework density 22.919699999999999
#
# number of rings (size 3 to 8) (size 9 to 14) (size 15 to 20)
#    0.000    1.500    0.000    2.250   10.500    7.000 
#    0.000    5.000    0.000    0.000    0.000    0.000 
#    0.000    0.000    0.000    0.000    0.000    0.000 
#
# Total GULP energy -89546.504478 kJ/mol
# GULP energy per Si atom -5596.656530 kJ/mol
# Density = 2.286753 g / cm^3
# Si number density = 22.919700 Si / 1000 Ang^3
#
#
#
# Elastic Constant Matrix: (Units=GPa)
#
#
# Indices 1 2 3 4 5 6 
#
# 1 -35.7092 108.8737 120.9524 0.4530 32.0016 -1.6567
# 2 108.8737 57.3834 54.6094 -0.2190 -24.0505 0.8012
# 3 120.9524 54.6094 132.2712 -0.1483 -15.6722 0.3927
# 4 0.4530 -0.2190 -0.1483 6.2252 -0.0225 -10.1987
# 5 32.0016 -24.0505 -15.6722 -0.0225 41.0399 0.1391
# 6 -1.6567 0.8012 0.3927 -10.1987 0.1391 66.8212
#
#
#
# Elastic Compliance Matrix: (Units=1/GPa)
#
#
# Indices 1 2 3 4 5 6 
#
# 1 -0.002287 0.006770 -0.000023 0.000239 0.005742 -0.000113
# 2 0.006770 0.017078 -0.013282 -0.000188 -0.000343 0.000013
# 3 -0.000023 -0.013282 0.012720 -0.000034 -0.002909 0.000085
# 4 0.000239 -0.000188 -0.000034 0.214181 -0.000303 0.032699
# 5 0.005742 -0.000343 -0.002909 -0.000303 0.018577 0.000079
# 6 -0.000113 0.000013 0.000085 0.032699 0.000079 0.019952
#
#
# Mechanical properties :
#
#
# Convention : Reuss Voigt Hill
#
# Bulk Modulus (GPa) = 69.25008 80.31294 74.78151
# Shear Modulus (GPa) = 16.77267 14.11794 15.44530
#
# Velocity S-wave (km/s) = 2.70812 2.48457 2.59875
# Velocity P-wave (km/s) = 6.32917 6.58391 6.45780
#
# Compressibility (1/GPa) = 0.01444042
#
# Stress axis : x y z
#
# Youngs Moduli (GPa) = -437.28555 58.55595 78.61798
#
# Poissons Ratio (x) = -0.39641 0.00179
# Poissons Ratio (y) = 2.96029 1.04420
# Poissons Ratio (z) = -0.00998 0.77774
#
# Static dielectric constant tensor:
#      x y z
#    x 1.839360 0.000000 0.017150 
#    y 0.000000 1.823720 0.000010 
#    z 0.017150 0.000010 1.863240 
# 
# From -- ./inp_files/46016.got.cif
#   From: 2010.05.17/outbox.cif.g08.bks.cpg/sg12_24_cif.got.tgz:46016.got - 2010.06.03 13:09:07.
