data_PCOD9217922
_publ_section_title
;
Structure prediction by ZEFSAII (Michael W. Deem and Ramdas Pophale) SiO2 
 PCOD9217922
Probable space group: C 2/M
;
_chemical_formula_sum "Si O2"
_cell_formula_units_Z 48
_cell_length_a 15.001098
_cell_length_b 26.523556
_cell_length_c 9.088600
_cell_angle_alpha 90.000000
_cell_angle_beta 42.805401
_cell_angle_gamma 90.000000
_cell_volume 2457.242047
_symmetry_space_group_name_H-M "C 2/M"
_symmetry_group_IT_number 12
_symmetry_cell_setting 'monoclinic'
loop_
_space_group_symop_operation_xyz
x,y,z
-x,y,-z
-x,-y,-z
x,-y,z
1/2+x,1/2+y,z
1/2-x,1/2+y,-z
1/2-x,1/2-y,-z
1/2+x,1/2-y,z
loop_
_atom_site_type_symbol
_atom_site_label
_atom_site_fract_x
_atom_site_fract_y
_atom_site_fract_z
Si Si1 0.170066 0.771265 0.456424
Si Si2 0.275596 0.444436 0.787168
Si Si3 0.621982 0.842939 0.960144
Si Si4 0.533462 0.334822 0.118919
Si Si5 0.984773 0.943785 0.273983
Si Si6 0.186663 0.296168 0.166441
O O1 0.250000 0.750000 0.500000
O O2 0.262075 0.810440 0.256298
O O3 0.140288 0.726685 0.377004
O O4 0.042796 0.801417 0.667887
O O5 0.214773 0.500000 0.869762
O O6 0.173696 0.399551 0.913649
O O7 0.362126 0.441659 0.533974
O O8 0.383875 0.440434 0.785251
O O9 0.500000 0.839238 0.000000
O O10 0.594098 0.821936 0.157671
O O11 0.483291 0.392298 0.184958
O O12 0.500000 0.312228 0.000000
O O13 0.688894 0.332419 0.954051
O O14 0.983794 0.000000 0.205701
O O15 0.250000 0.250000 0.000000
#
# Coordination Sequence:
#
# PCOD9217922 Si02
#       6
#     8   8   8   8   8   8
#     4  11  24  40  58  84 122 157 192 254 295 350
#     4   9  17  33  59  87 114 150 193 246 305 354
#     4  11  23  39  57  84 119 157 208 245 286 355
#     4  12  22  38  64  88 117 156 203 243 307 364
#     4   9  18  34  58  89 119 148 191 250 311 359
#     4  10  24  38  56  85 117 158 199 241 296 353
#
# _framework density 19.534096999999999
#
# number of rings (size 3 to 8) (size 9 to 14) (size 15 to 20)
#    0.000    1.667    5.000    1.000    4.667    3.333 
#    0.000    0.000    0.000    0.000    0.000    0.000 
#    0.000    8.000    0.000    0.000    0.000    0.667 
#
# Total GULP energy -133997.814355 kJ/mol
# GULP energy per Si atom -5583.242265 kJ/mol
# Density = 1.948964 g / cm^3
# Si number density = 19.534097 Si / 1000 Ang^3
#
#
#
# Elastic Constant Matrix: (Units=GPa)
#
#
# Indices 1 2 3 4 5 6 
#
# 1 107.9457 34.6240 40.2999 0.0000 13.1464 0.0000
# 2 34.6240 124.9851 52.7709 0.0000 9.4298 0.0000
# 3 40.2999 52.7709 87.7403 0.0000 15.3446 0.0000
# 4 0.0000 0.0000 0.0000 24.2117 0.0000 -1.0780
# 5 13.1464 9.4298 15.3446 0.0000 30.1522 0.0000
# 6 0.0000 0.0000 0.0000 -1.0780 0.0000 28.0871
#
#
#
# Elastic Compliance Matrix: (Units=1/GPa)
#
#
# Indices 1 2 3 4 5 6 
#
# 1 0.011503 -0.001276 -0.004071 0.000000 -0.002545 0.000000
# 2 -0.001276 0.010866 -0.005985 0.000000 0.000204 0.000000
# 3 -0.004071 -0.005985 0.017814 0.000000 -0.005419 0.000000
# 4 0.000000 0.000000 0.000000 0.041373 0.000000 0.001588
# 5 -0.002545 0.000204 -0.005419 0.000000 0.036969 0.000000
# 6 0.000000 0.000000 0.000000 0.001588 0.000000 0.035664
#
#
# Mechanical properties :
#
#
# Convention : Reuss Voigt Hill
#
# Bulk Modulus (GPa) = 57.07830 64.00675 60.54252
# Shear Modulus (GPa) = 27.36834 29.35529 28.36181
#
# Velocity S-wave (km/s) = 3.74713 3.88077 3.81453
# Velocity P-wave (km/s) = 6.92853 7.27449 7.10362
#
# Compressibility (1/GPa) = 0.01751979
#
# Stress axis : x y z
#
# Youngs Moduli (GPa) = 86.93476 92.03083 56.13410
#
# Poissons Ratio (x) = 0.11741 0.22853
# Poissons Ratio (y) = 0.11090 0.33596
# Poissons Ratio (z) = 0.35392 0.55080
#
# Static dielectric constant tensor:
#      x y z
#    x 1.720610 0.000000 0.002260 
#    y 0.000000 1.699910 0.000000 
#    z 0.002260 0.000000 1.689230 
# 
# From -- ./inp_files/52780.got.cif
#   From: 2010.05.17/outbox.cif.g08.bks.cpg/sg12_27_cif.got.tgz:52780.got - 2010.06.03 13:09:07.
