data_PCOD9217327
_publ_section_title
;
Structure prediction by ZEFSAII (Michael W. Deem and Ramdas Pophale) SiO2 
 PCOD9217327
Probable space group: C 2/M
;
_chemical_formula_sum "Si O2"
_cell_formula_units_Z 32
_cell_length_a 11.336377
_cell_length_b 18.489842
_cell_length_c 14.091120
_cell_angle_alpha 90.000000
_cell_angle_beta 147.835256
_cell_angle_gamma 90.000000
_cell_volume 1572.369917
_symmetry_space_group_name_H-M "C 2/M"
_symmetry_group_IT_number 12
_symmetry_cell_setting 'monoclinic'
loop_
_space_group_symop_operation_xyz
x,y,z
-x,y,-z
-x,-y,-z
x,-y,z
1/2+x,1/2+y,z
1/2-x,1/2+y,-z
1/2-x,1/2-y,-z
1/2+x,1/2-y,z
loop_
_atom_site_type_symbol
_atom_site_label
_atom_site_fract_x
_atom_site_fract_y
_atom_site_fract_z
Si Si1 0.343517 0.878153 0.149525
Si Si2 0.330796 0.000000 0.298807
Si Si3 0.000000 0.766848 0.000000
Si Si4 0.388679 0.500000 0.119464
Si Si5 0.741769 0.846494 0.297351
Si Si6 0.341868 0.500000 0.300499
O O1 0.582727 0.849801 0.280774
O O2 0.359584 0.930409 0.251527
O O3 0.251475 0.929014 0.002409
O O4 0.165028 0.816763 0.051086
O O5 0.500000 0.000000 0.500000
O O6 0.090292 0.000000 0.182863
O O7 0.849712 0.716588 0.831184
O O8 0.455717 0.500000 0.275041
O O9 0.717769 0.924082 0.228122
O O10 0.000000 0.836893 0.500000
O O11 0.500000 0.500000 0.500000
#
# Coordination Sequence:
#
# PCOD9217327 Si02
#       6
#     8   4   4   4   8   4
#     4  11  23  46  68  99 141 175 231 278 336 414
#     4  11  24  39  72 109 130 181 229 283 342 397
#     4  12  24  46  66 102 138 186 226 276 344 406
#     4  11  21  43  74  97 133 183 220 283 348 393
#     4  11  26  43  68  99 135 181 227 283 341 404
#     4  10  23  42  67  99 132 165 227 283 335 400
#
# _framework density 20.351444999999998
#
# number of rings (size 3 to 8) (size 9 to 14) (size 15 to 20)
#    0.000    1.000    2.500    4.500    7.000    3.500 
#    0.000    0.000    0.000    0.000    0.000    0.000 
#    0.000    0.000    0.000    0.000    0.000    0.000 
#
# Total GULP energy -89450.060475 kJ/mol
# GULP energy per Si atom -5590.628780 kJ/mol
# Density = 2.030512 g / cm^3
# Si number density = 20.351445 Si / 1000 Ang^3
#
#
#
# Elastic Constant Matrix: (Units=GPa)
#
#
# Indices 1 2 3 4 5 6 
#
# 1 153.5464 52.6582 68.3822 -0.0001 15.3161 -0.0002
# 2 52.6582 149.0090 61.7659 -0.0001 5.4634 -0.0001
# 3 68.3822 61.7659 135.0702 0.0003 10.0565 -0.0002
# 4 -0.0001 -0.0001 0.0003 23.9198 0.0000 18.2008
# 5 15.3161 5.4634 10.0565 0.0000 51.9465 -0.0003
# 6 -0.0002 -0.0001 -0.0002 18.2008 -0.0003 16.3212
#
#
#
# Elastic Compliance Matrix: (Units=1/GPa)
#
#
# Indices 1 2 3 4 5 6 
#
# 1 0.008837 -0.001553 -0.003635 0.000001 -0.001739 -0.000001
# 2 -0.001553 0.008554 -0.003138 0.000000 0.000166 0.000000
# 3 -0.003635 -0.003138 0.010729 -0.000001 -0.000675 0.000002
# 4 0.000001 0.000000 -0.000001 0.276020 -0.000001 -0.307808
# 5 -0.001739 0.000166 -0.000675 -0.000001 0.019877 0.000002
# 6 -0.000001 0.000000 0.000002 -0.307808 0.000002 0.404527
#
#
# Mechanical properties :
#
#
# Convention : Reuss Voigt Hill
#
# Bulk Modulus (GPa) = 87.18452 89.24871 88.21662
# Shear Modulus (GPa) = 6.67540 35.42545 21.05042
#
# Velocity S-wave (km/s) = 1.81306 4.17668 3.21961
# Velocity P-wave (km/s) = 6.87862 8.19808 7.56716
#
# Compressibility (1/GPa) = 0.01146993
#
# Stress axis : x y z
#
# Youngs Moduli (GPa) = 113.15699 116.89886 93.20584
#
# Poissons Ratio (x) = 0.18151 0.33877
# Poissons Ratio (y) = 0.17570 0.29249
# Poissons Ratio (z) = 0.41128 0.36684
#
# Static dielectric constant tensor:
#      x y z
#    x 1.734940 0.000000 0.024510 
#    y 0.000000 1.718880 0.000000 
#    z 0.024510 0.000000 1.735360 
# 
# From -- ./inp_files/205894.got.cif
#   From: 2010.05.17/outbox.cif.g08.bks.cpg/sg12_103_cif.got.tgz:205894.got - 2010.06.03 13:09:07.
