data_PCOD9217861
_publ_section_title
;
Structure prediction by ZEFSAII (Michael W. Deem and Ramdas Pophale) SiO2 
 PCOD9217861
Probable space group: C 2/M
;
_chemical_formula_sum "Si O2"
_cell_formula_units_Z 50
_cell_length_a 22.682146
_cell_length_b 9.390318
_cell_length_c 13.353609
_cell_angle_alpha 90.000000
_cell_angle_beta 58.911237
_cell_angle_gamma 90.000000
_cell_volume 2435.699552
_symmetry_space_group_name_H-M "C 2/M"
_symmetry_group_IT_number 12
_symmetry_cell_setting 'monoclinic'
loop_
_space_group_symop_operation_xyz
x,y,z
-x,y,-z
-x,-y,-z
x,-y,z
1/2+x,1/2+y,z
1/2-x,1/2+y,-z
1/2-x,1/2-y,-z
1/2+x,1/2-y,z
loop_
_atom_site_type_symbol
_atom_site_label
_atom_site_fract_x
_atom_site_fract_y
_atom_site_fract_z
Si Si1 0.802475 0.332004 0.664788
Si Si2 0.920913 0.251461 0.954106
Si Si3 0.687685 0.834143 0.104676
Si Si4 0.500000 0.000000 0.000000
Si Si5 0.436988 0.332902 0.481950
Si Si6 0.443227 0.654395 0.242639
Si Si7 0.662571 0.173843 0.788258
O O1 0.793206 0.500000 0.648699
O O2 0.811013 0.319269 0.777442
O O3 0.871226 0.266226 0.557494
O O4 0.736720 0.235259 0.693863
O O5 0.882187 0.279559 0.884531
O O6 0.962821 0.380664 0.963680
O O7 0.983845 0.147404 0.877833
O O8 0.861196 0.239486 0.090579
O O9 0.694837 0.000000 0.072326
O O10 0.750000 0.750000 0.000000
O O11 0.500000 0.294432 0.500000
O O12 0.419735 0.500000 0.517375
O O13 0.456897 0.322720 0.347930
O O14 0.407860 0.500000 0.261048
O O15 0.394719 0.778273 0.241724
O O16 0.661678 0.000000 0.802631
#
# Coordination Sequence:
#
# PCOD9217861 Si02
#       7
#     8   8   8   2   8   8   8
#     4  11  25  42  63  98 132 167 212 272 327 376
#     4  12  21  39  64  94 132 170 219 259 322 390
#     4  11  23  38  61  92 131 169 211 262 319 384
#     4  12  20  40  62  96 130 176 216 270 308 402
#     4  10  23  47  70  91 123 170 219 264 320 394
#     4  11  25  41  65  96 128 167 217 275 328 379
#     4  12  23  41  67  94 130 175 215 262 325 399
#
# _framework density 20.527984
#
# number of rings (size 3 to 8) (size 9 to 14) (size 15 to 20)
#    0.000    0.800    4.800    1.920    0.000    4.800 
#    0.000    0.000    0.000    0.000    0.000    0.000 
#    0.000    0.000    0.000    0.000    0.000    0.000 
#
# Total GULP energy -139248.651164 kJ/mol
# GULP energy per Si atom -5569.946047 kJ/mol
# Density = 2.048126 g / cm^3
# Si number density = 20.527984 Si / 1000 Ang^3
#
#
#
# Elastic Constant Matrix: (Units=GPa)
#
#
# Indices 1 2 3 4 5 6 
#
# 1 115.8898 41.1986 12.2819 0.0000 -13.9673 0.0000
# 2 41.1986 79.2805 39.2693 0.0000 -17.0605 0.0000
# 3 12.2819 39.2693 71.8633 0.0000 -20.9637 0.0000
# 4 0.0000 0.0000 0.0000 73.2315 0.0000 -28.2656
# 5 -13.9673 -17.0605 -20.9637 0.0000 29.7824 0.0000
# 6 0.0000 0.0000 0.0000 -28.2656 0.0000 47.7725
#
#
#
# Elastic Compliance Matrix: (Units=1/GPa)
#
#
# Indices 1 2 3 4 5 6 
#
# 1 0.010980 -0.006225 0.002500 0.000000 0.003343 0.000000
# 2 -0.006225 0.021230 -0.009867 0.000000 0.002297 0.000000
# 3 0.002500 -0.009867 0.022114 0.000000 0.011086 0.000000
# 4 0.000000 0.000000 0.000000 0.017697 0.000000 0.010471
# 5 0.003343 0.002297 0.011086 0.000000 0.044264 0.000000
# 6 0.000000 0.000000 0.000000 0.010471 0.000000 0.027128
#
#
# Mechanical properties :
#
#
# Convention : Reuss Voigt Hill
#
# Bulk Modulus (GPa) = 36.84557 50.28149 43.56353
# Shear Modulus (GPa) = 27.83325 41.77619 34.80472
#
# Velocity S-wave (km/s) = 3.68621 4.51609 4.12208
# Velocity P-wave (km/s) = 6.00878 7.19310 6.62745
#
# Compressibility (1/GPa) = 0.02714031
#
# Stress axis : x y z
#
# Youngs Moduli (GPa) = 91.07713 47.10394 45.22060
#
# Poissons Ratio (x) = 0.29320 -0.11306
# Poissons Ratio (y) = 0.56692 0.44619
# Poissons Ratio (z) = -0.22771 0.46478
#
# Static dielectric constant tensor:
#      x y z
#    x 1.715650 0.000000 -0.016260 
#    y 0.000000 1.723900 0.000000 
#    z -0.016260 0.000000 1.778590 
# 
# From -- ./inp_files/237265.got.cif
#   From: 2010.05.17/outbox.cif.g08.bks.cpg/sg12_119_cif.got.tgz:237265.got - 2010.06.03 13:09:07.
