data_PCOD9217815
_publ_section_title
;
Structure prediction by ZEFSAII (Michael W. Deem and Ramdas Pophale) SiO2 
 PCOD9217815
Probable space group: C 2/M
;
_chemical_formula_sum "Si O2"
_cell_formula_units_Z 48
_cell_length_a 16.501864
_cell_length_b 18.230013
_cell_length_c 8.497455
_cell_angle_alpha 90.000000
_cell_angle_beta 118.765742
_cell_angle_gamma 90.000000
_cell_volume 2240.823405
_symmetry_space_group_name_H-M "C 2/M"
_symmetry_group_IT_number 12
_symmetry_cell_setting 'monoclinic'
loop_
_space_group_symop_operation_xyz
x,y,z
-x,y,-z
-x,-y,-z
x,-y,z
1/2+x,1/2+y,z
1/2-x,1/2+y,-z
1/2-x,1/2-y,-z
1/2+x,1/2-y,z
loop_
_atom_site_type_symbol
_atom_site_label
_atom_site_fract_x
_atom_site_fract_y
_atom_site_fract_z
Si Si1 0.756714 0.679345 0.620854
Si Si2 0.253906 0.420239 0.662677
Si Si3 0.587106 0.631251 0.980947
Si Si4 0.149621 0.281968 0.974986
Si Si5 0.074899 0.417653 0.705679
Si Si6 0.893416 0.082430 0.349827
O O1 0.750000 0.750000 0.500000
O O2 0.784214 0.613748 0.531659
O O3 0.664312 0.647111 0.619769
O O4 0.826228 0.694436 0.826163
O O5 0.296582 0.500000 0.676699
O O6 0.329717 0.370440 0.817114
O O7 0.170893 0.425760 0.704492
O O8 0.500000 0.605323 0.000000
O O9 0.579115 0.714226 0.912744
O O10 0.610847 0.587849 0.844116
O O11 0.099883 0.350130 0.843136
O O12 0.250000 0.250000 0.000000
O O13 0.051880 0.500000 0.750009
O O14 0.000000 0.399900 0.500000
O O15 0.000000 0.088888 0.500000
O O16 0.860855 0.000000 0.363773
#
# Coordination Sequence:
#
# PCOD9217815 Si02
#       6
#     8   8   8   8   8   8
#     4  12  23  41  68  96 139 182 229 284 348 422
#     4  11  23  42  68  98 136 180 226 285 348 419
#     4  12  25  42  68 104 139 182 230 288 357 425
#     4  12  23  45  68  97 136 181 234 286 352 417
#     4  10  23  45  73 102 137 185 237 288 351 422
#     4  11  25  43  66  99 139 181 229 286 347 423
#
# _framework density 21.420696
#
# number of rings (size 3 to 8) (size 9 to 14) (size 15 to 20)
#    0.000    0.667    5.000    2.000    0.000    7.333 
#    3.000    0.000    0.000    3.500    0.000    0.000 
#    0.000    0.000    0.000    0.000    0.000    0.000 
#
# Total GULP energy -133896.572444 kJ/mol
# GULP energy per Si atom -5579.023852 kJ/mol
# Density = 2.137194 g / cm^3
# Si number density = 21.420696 Si / 1000 Ang^3
#
#
#
# Elastic Constant Matrix: (Units=GPa)
#
#
# Indices 1 2 3 4 5 6 
#
# 1 39.8864 21.4985 -2.9050 0.0000 -5.4728 0.0000
# 2 21.4985 146.5686 67.7306 0.0000 -10.9388 0.0000
# 3 -2.9050 67.7306 113.6078 0.0000 -4.6638 0.0000
# 4 0.0000 0.0000 0.0000 78.0687 0.0000 -21.6786
# 5 -5.4728 -10.9388 -4.6638 0.0000 34.7992 0.0000
# 6 0.0000 0.0000 0.0000 -21.6786 0.0000 29.8845
#
#
#
# Elastic Compliance Matrix: (Units=1/GPa)
#
#
# Indices 1 2 3 4 5 6 
#
# 1 0.029152 -0.006126 0.004532 0.000000 0.003266 0.000000
# 2 -0.006126 0.010878 -0.006577 0.000000 0.001575 0.000000
# 3 0.004532 -0.006577 0.012855 0.000000 0.000368 0.000000
# 4 0.000000 0.000000 0.000000 0.016040 0.000000 0.011636
# 5 0.003266 0.001575 0.000368 0.000000 0.029794 0.000000
# 6 0.000000 0.000000 0.000000 0.011636 0.000000 0.041903
#
#
# Mechanical properties :
#
#
# Convention : Reuss Voigt Hill
#
# Bulk Modulus (GPa) = 27.36685 52.52344 39.94514
# Shear Modulus (GPa) = 29.56023 42.79973 36.17998
#
# Velocity S-wave (km/s) = 3.71884 4.47481 4.11423
# Velocity P-wave (km/s) = 5.58958 7.16043 6.42320
#
# Compressibility (1/GPa) = 0.03654057
#
# Stress axis : x y z
#
# Youngs Moduli (GPa) = 34.30353 91.92548 77.79348
#
# Poissons Ratio (x) = 0.56317 -0.35255
# Poissons Ratio (y) = 0.21016 0.51168
# Poissons Ratio (z) = -0.15546 0.60464
#
# Static dielectric constant tensor:
#      x y z
#    x 1.787660 0.000000 -0.037300 
#    y 0.000000 2.062660 0.000000 
#    z -0.037300 0.000000 1.759010 
# 
# From -- ./inp_files/75452.got.cif
#   From: 2010.05.17/outbox.cif.g08.bks.cpg/sg12_38_cif.got.tgz:75452.got - 2010.06.03 13:09:07.
