data_PCOD9217628
_publ_section_title
;
Structure prediction by ZEFSAII (Michael W. Deem and Ramdas Pophale) SiO2 
 PCOD9217628
Probable space group: C 2/M
;
_chemical_formula_sum "Si O2"
_cell_formula_units_Z 48
_cell_length_a 17.412016
_cell_length_b 20.648685
_cell_length_c 6.392116
_cell_angle_alpha 90.000000
_cell_angle_beta 112.400310
_cell_angle_gamma 90.000000
_cell_volume 2124.778560
_symmetry_space_group_name_H-M "C 2/M"
_symmetry_group_IT_number 12
_symmetry_cell_setting 'monoclinic'
loop_
_space_group_symop_operation_xyz
x,y,z
-x,y,-z
-x,-y,-z
x,-y,z
1/2+x,1/2+y,z
1/2-x,1/2+y,-z
1/2-x,1/2-y,-z
1/2+x,1/2-y,z
loop_
_atom_site_type_symbol
_atom_site_label
_atom_site_fract_x
_atom_site_fract_y
_atom_site_fract_z
Si Si1 0.410300 0.135920 0.422744
Si Si2 0.084229 0.924316 0.979397
Si Si3 0.156630 0.262247 0.957490
Si Si4 0.760218 0.921548 0.570566
Si Si5 0.878856 0.856516 0.374553
Si Si6 0.568415 0.743538 0.252394
O O1 0.500000 0.099816 0.500000
O O2 0.378400 0.170850 0.175411
O O3 0.331318 0.099536 0.443934
O O4 0.434300 0.196170 0.596618
O O5 0.085891 0.913122 0.732677
O O6 0.083969 0.000000 0.020072
O O7 0.170929 0.903163 0.179476
O O8 0.000000 0.899173 0.000000
O O9 0.118284 0.201418 0.793748
O O10 0.250000 0.250000 0.000000
O O11 0.149679 0.254218 0.197217
O O12 0.794901 0.883922 0.399240
O O13 0.761473 0.000000 0.539507
O O14 0.927539 0.821479 0.611158
O O15 0.500000 0.747003 0.000000
#
# Coordination Sequence:
#
# PCOD9217628 Si02
#       6
#     8   8   8   8   8   8
#     4  11  23  43  67  96 139 180 225 283 332 398
#     4  10  23  44  66  94 134 179 225 278 337 398
#     4  11  22  38  62  95 130 169 214 271 345 399
#     4  11  25  44  68  98 134 182 233 280 332 394
#     4  11  23  39  65  97 133 170 219 280 336 406
#     4  11  23  40  63  99 134 171 216 270 345 404
#
# _framework density 22.590591
#
# number of rings (size 3 to 8) (size 9 to 14) (size 15 to 20)
#    0.000    1.167    1.667    4.500    0.000    7.667 
#    0.000    2.500    0.000    2.000    0.000    0.000 
#    0.000    0.000    0.000    0.000    0.000    0.000 
#
# Total GULP energy -133880.570250 kJ/mol
# GULP energy per Si atom -5578.357094 kJ/mol
# Density = 2.253917 g / cm^3
# Si number density = 22.590591 Si / 1000 Ang^3
#
#
#
# Elastic Constant Matrix: (Units=GPa)
#
#
# Indices 1 2 3 4 5 6 
#
# 1 192.2669 18.7705 39.1784 0.0000 -10.0922 0.0000
# 2 18.7705 58.9427 6.8098 0.0000 -0.5004 0.0000
# 3 39.1784 6.8098 82.2372 0.0000 -14.9795 0.0000
# 4 0.0000 0.0000 0.0000 23.5008 0.0000 -2.0864
# 5 -10.0922 -0.5004 -14.9795 0.0000 40.2953 0.0000
# 6 0.0000 0.0000 0.0000 -2.0864 0.0000 31.8378
#
#
#
# Elastic Compliance Matrix: (Units=1/GPa)
#
#
# Indices 1 2 3 4 5 6 
#
# 1 0.005910 -0.001578 -0.002594 0.000000 0.000496 0.000000
# 2 -0.001578 0.017555 -0.000787 0.000000 -0.000470 0.000000
# 3 -0.002594 -0.000787 0.014310 0.000000 0.004660 0.000000
# 4 0.000000 0.000000 0.000000 0.042801 0.000000 0.002805
# 5 0.000496 -0.000470 0.004660 0.000000 0.026668 0.000000
# 6 0.000000 0.000000 0.000000 0.002805 0.000000 0.031593
#
#
# Mechanical properties :
#
#
# Convention : Reuss Voigt Hill
#
# Bulk Modulus (GPa) = 35.90020 51.44046 43.67033
# Shear Modulus (GPa) = 31.63727 37.03932 34.33829
#
# Velocity S-wave (km/s) = 3.74634 4.05358 3.90298
# Velocity P-wave (km/s) = 5.88554 6.68796 6.29954
#
# Compressibility (1/GPa) = 0.02785500
#
# Stress axis : x y z
#
# Youngs Moduli (GPa) = 169.20805 56.96336 69.88114
#
# Poissons Ratio (x) = 0.08989 0.18130
# Poissons Ratio (y) = 0.26702 0.05503
# Poissons Ratio (z) = 0.43901 0.04486
#
# Static dielectric constant tensor:
#      x y z
#    x 2.224210 0.000000 -0.065880 
#    y 0.000000 2.448880 0.000000 
#    z -0.065880 0.000000 1.772660 
# 
# From -- ./inp_files/16951.got.cif
#   From: 2010.05.17/outbox.cif.g08.bks.cpg/sg12_9_cif.got.tgz:16951.got - 2010.06.03 13:09:07.
