data_PCOD9217193
_publ_section_title
;
Structure prediction by ZEFSAII (Michael W. Deem and Ramdas Pophale) SiO2 
 PCOD9217193
Probable space group: C 2/M
;
_chemical_formula_sum "Si O2"
_cell_formula_units_Z 40
_cell_length_a 7.656513
_cell_length_b 13.566410
_cell_length_c 23.055416
_cell_angle_alpha 90.000000
_cell_angle_beta 141.145906
_cell_angle_gamma 90.000000
_cell_volume 1502.351080
_symmetry_space_group_name_H-M "C 2/M"
_symmetry_group_IT_number 12
_symmetry_cell_setting 'monoclinic'
loop_
_space_group_symop_operation_xyz
x,y,z
-x,y,-z
-x,-y,-z
x,-y,z
1/2+x,1/2+y,z
1/2-x,1/2+y,-z
1/2-x,1/2-y,-z
1/2+x,1/2-y,z
loop_
_atom_site_type_symbol
_atom_site_label
_atom_site_fract_x
_atom_site_fract_y
_atom_site_fract_z
Si Si1 0.643722 0.881823 0.785835
Si Si2 0.324897 0.616026 0.142358
Si Si3 0.175193 0.688856 0.407718
Si Si4 0.821879 0.620453 0.078384
Si Si5 0.321838 0.612870 0.646622
O O1 0.434330 0.850971 0.681950
O O2 0.560544 0.849026 0.828193
O O3 0.953986 0.847628 0.847628
O O4 0.652092 0.000000 0.788755
O O5 0.294713 0.500000 0.120986
O O6 0.481341 0.623330 0.245436
O O7 0.015498 0.653977 0.075495
O O8 0.500000 0.670613 0.500000
O O9 0.119653 0.805986 0.386841
O O10 0.982955 0.639211 0.406597
O O11 0.830226 0.500000 0.078056
O O12 0.500000 0.646612 0.000000
O O13 0.340773 0.500000 0.631892
#
# Coordination Sequence:
#
# PCOD9217193 Si02
#       5
#     8   8   8   8   8
#     4   9  19  35  58  89 127 176 220 269 342 397
#     4   8  16  33  54  81 124 167 209 267 326 390
#     4  11  23  41  65  96 131 175 226 276 336 402
#     4   9  17  30  55  92 126 165 220 272 331 405
#     4  10  23  42  63  95 135 175 224 278 335 401
#
# _framework density 26.624936000000002
#
# number of rings (size 3 to 8) (size 9 to 14) (size 15 to 20)
#    0.000    2.600    0.000    2.400    2.800    2.800 
#    0.000    5.000    0.000    1.200    0.000    0.000 
#    0.000    0.000    0.000    0.000    0.000    0.000 
#
# Total GULP energy -112088.848897 kJ/mol
# GULP energy per Si atom -5604.442445 kJ/mol
# Density = 2.656434 g / cm^3
# Si number density = 26.624936 Si / 1000 Ang^3
#
#
#
# Elastic Constant Matrix: (Units=GPa)
#
#
# Indices 1 2 3 4 5 6 
#
# 1 139.6897 25.4851 34.0139 0.0000 28.8338 0.0000
# 2 25.4851 113.7626 8.3147 0.0000 9.4737 0.0000
# 3 34.0139 8.3147 83.3463 0.0001 16.4735 -0.0001
# 4 0.0000 0.0000 0.0001 24.1947 0.0000 19.0442
# 5 28.8338 9.4737 16.4735 0.0000 45.7086 0.0000
# 6 0.0000 0.0000 -0.0001 19.0442 0.0000 61.8686
#
#
#
# Elastic Compliance Matrix: (Units=1/GPa)
#
#
# Indices 1 2 3 4 5 6 
#
# 1 0.008978 -0.001451 -0.002648 0.000000 -0.004409 0.000000
# 2 -0.001451 0.009204 -0.000140 0.000000 -0.000942 0.000000
# 3 -0.002648 -0.000140 0.013735 0.000000 -0.003251 0.000000
# 4 0.000000 0.000000 0.000000 0.054548 0.000000 -0.016791
# 5 -0.004409 -0.000942 -0.003251 0.000000 0.026026 0.000000
# 6 0.000000 0.000000 0.000000 -0.016791 0.000000 0.021332
#
#
# Mechanical properties :
#
#
# Convention : Reuss Voigt Hill
#
# Bulk Modulus (GPa) = 42.66173 52.49179 47.57676
# Shear Modulus (GPa) = 33.30832 44.28672 38.79752
#
# Velocity S-wave (km/s) = 3.54081 4.08285 3.82145
# Velocity P-wave (km/s) = 5.72490 6.47953 6.11387
#
# Compressibility (1/GPa) = 0.02344021
#
# Stress axis : x y z
#
# Youngs Moduli (GPa) = 111.38175 108.64977 72.80538
#
# Poissons Ratio (x) = 0.15761 0.19278
# Poissons Ratio (y) = 0.16157 0.01019
# Poissons Ratio (z) = 0.29493 0.01521
#
# Static dielectric constant tensor:
#      x y z
#    x 2.013970 0.000000 -0.003360 
#    y 0.000000 2.095560 0.000000 
#    z -0.003360 0.000000 2.099600 
# 
# From -- ./inp_files/372688.got.cif
#   From: 2010.05.17/outbox.cif.g08.bks.cpg/sg12_187_cif.got.tgz:372688.got - 2010.06.03 13:09:07.
