data_PCOD9217211
_publ_section_title
;
Structure prediction by ZEFSAII (Michael W. Deem and Ramdas Pophale) SiO2 
 PCOD9217211
Probable space group: C 2/M
;
_chemical_formula_sum "Si O2"
_cell_formula_units_Z 48
_cell_length_a 25.745343
_cell_length_b 8.338605
_cell_length_c 14.612821
_cell_angle_alpha 90.000000
_cell_angle_beta 139.142999
_cell_angle_gamma 90.000000
_cell_volume 2052.196850
_symmetry_space_group_name_H-M "C 2/M"
_symmetry_group_IT_number 12
_symmetry_cell_setting 'monoclinic'
loop_
_space_group_symop_operation_xyz
x,y,z
-x,y,-z
-x,-y,-z
x,-y,z
1/2+x,1/2+y,z
1/2-x,1/2+y,-z
1/2-x,1/2-y,-z
1/2+x,1/2-y,z
loop_
_atom_site_type_symbol
_atom_site_label
_atom_site_fract_x
_atom_site_fract_y
_atom_site_fract_z
Si Si1 0.166650 0.817860 0.502765
Si Si2 0.320732 0.685111 0.800625
Si Si3 0.081001 0.310367 0.558115
Si Si4 0.425350 0.306968 0.106447
Si Si5 0.330745 0.692580 0.154854
Si Si6 0.085184 0.317965 0.229812
O O1 0.249403 0.786277 0.663458
O O2 0.100287 0.781610 0.490864
O O3 0.152359 0.705264 0.396933
O O4 0.160376 0.000000 0.462361
O O5 0.295338 0.500000 0.770888
O O6 0.393521 0.705966 0.826917
O O7 0.352737 0.736102 0.941917
O O8 0.076838 0.500000 0.533440
O O9 0.150471 0.274654 0.723812
O O10 0.000000 0.258708 0.500000
O O11 0.434567 0.500000 0.114087
O O12 0.400564 0.263351 0.175954
O O13 0.503876 0.227226 0.171630
O O14 0.329605 0.500000 0.164182
O O15 0.250000 0.750000 0.000000
O O16 0.082955 0.500000 0.194120
#
# Coordination Sequence:
#
# PCOD9217211 Si02
#       6
#     8   8   8   8   8   8
#     4  12  25  42  65  92 124 162 207 256 308 367
#     4  11  23  42  66  92 126 164 205 254 308 365
#     4  11  24  42  64  92 126 163 205 254 309 369
#     4  10  23  42  64  91 124 163 205 253 308 364
#     4  11  23  40  64  93 126 164 208 257 309 366
#     4  12  25  41  63  92 126 163 206 255 307 366
#
# _framework density 23.389569000000002
#
# number of rings (size 3 to 8) (size 9 to 14) (size 15 to 20)
#    0.000    0.833    0.000    7.500    0.000   10.000 
#    0.000    0.000    0.000    0.000    0.000    0.000 
#    0.000    0.000    0.000    0.000    0.000    0.000 
#
# Total GULP energy -134527.232532 kJ/mol
# GULP energy per Si atom -5605.301356 kJ/mol
# Density = 2.333633 g / cm^3
# Si number density = 23.389569 Si / 1000 Ang^3
#
#
#
# Elastic Constant Matrix: (Units=GPa)
#
#
# Indices 1 2 3 4 5 6 
#
# 1 70.3936 -0.4028 -8.0123 0.0000 0.0629 0.0000
# 2 -0.4028 43.4248 -7.4666 0.0000 2.4761 0.0000
# 3 -8.0123 -7.4666 67.7348 0.0000 -4.2172 0.0000
# 4 0.0000 0.0000 0.0000 30.3010 0.0000 7.0544
# 5 0.0629 2.4761 -4.2172 0.0000 44.2884 0.0000
# 6 0.0000 0.0000 0.0000 7.0544 0.0000 26.9953
#
#
#
# Elastic Compliance Matrix: (Units=1/GPa)
#
#
# Indices 1 2 3 4 5 6 
#
# 1 0.014408 0.000429 0.001759 0.000000 0.000123 0.000000
# 2 0.000429 0.023537 0.002579 0.000000 -0.001071 0.000000
# 3 0.001759 0.002579 0.015338 0.000000 0.001314 0.000000
# 4 0.000000 0.000000 0.000000 0.035140 0.000000 -0.009183
# 5 0.000123 -0.001071 0.001314 0.000000 0.022764 0.000000
# 6 0.000000 0.000000 0.000000 -0.009183 0.000000 0.039443
#
#
# Mechanical properties :
#
#
# Convention : Reuss Voigt Hill
#
# Bulk Modulus (GPa) = 15.91929 16.64333 16.28131
# Shear Modulus (GPa) = 30.85752 33.47924 32.16838
#
# Velocity S-wave (km/s) = 3.63614 3.78746 3.71257
# Velocity P-wave (km/s) = 4.94465 5.12422 5.03523
#
# Compressibility (1/GPa) = 0.06281687
#
# Stress axis : x y z
#
# Youngs Moduli (GPa) = 69.40381 42.48677 65.19921
#
# Poissons Ratio (x) = -0.01823 -0.11471
# Poissons Ratio (y) = -0.02978 -0.16812
# Poissons Ratio (z) = -0.12210 -0.10956
#
# Static dielectric constant tensor:
#      x y z
#    x 1.876790 0.000000 0.047110 
#    y 0.000000 1.788610 0.000000 
#    z 0.047110 0.000000 1.879560 
# 
# From -- ./inp_files/244875.got.cif
#   From: 2010.05.17/outbox.cif.g08.bks.cpg/sg12_123_cif.got.tgz:244875.got - 2010.06.03 13:09:07.
