data_PCOD9217035
_publ_section_title
;
Structure prediction by ZEFSAII (Michael W. Deem and Ramdas Pophale) SiO2 
 PCOD9217035
Probable space group: C 2/M
;
_chemical_formula_sum "Si O2"
_cell_formula_units_Z 34
_cell_length_a 9.666380
_cell_length_b 13.163643
_cell_length_c 16.680356
_cell_angle_alpha 90.000000
_cell_angle_beta 49.965248
_cell_angle_gamma 90.000000
_cell_volume 1625.092453
_symmetry_space_group_name_H-M "C 2/M"
_symmetry_group_IT_number 12
_symmetry_cell_setting 'monoclinic'
loop_
_space_group_symop_operation_xyz
x,y,z
-x,y,-z
-x,-y,-z
x,-y,z
1/2+x,1/2+y,z
1/2-x,1/2+y,-z
1/2-x,1/2-y,-z
1/2+x,1/2-y,z
loop_
_atom_site_type_symbol
_atom_site_label
_atom_site_fract_x
_atom_site_fract_y
_atom_site_fract_z
Si Si1 0.500000 0.500000 0.000000
Si Si2 0.480753 0.383143 0.418475
Si Si3 0.232342 0.305804 0.091689
Si Si4 0.317304 0.211609 0.226326
Si Si5 0.796685 0.618452 0.608724
O O1 0.656716 0.410013 0.948776
O O2 0.500000 0.337856 0.500000
O O3 0.425379 0.500000 0.450418
O O4 0.672609 0.373203 0.304105
O O5 0.332670 0.339901 0.413532
O O6 0.308019 0.236440 0.135840
O O7 0.016023 0.316253 0.182657
O O8 0.250000 0.250000 0.000000
O O9 0.243554 0.312647 0.299384
O O10 0.749401 0.500000 0.644131
O O11 0.000000 0.618395 0.500000
#
# Coordination Sequence:
#
# PCOD9217035 Si02
#       5
#     2   8   8   8   8
#     4  12  28  52  78 102 148 188 238 320 382 430
#     4  10  23  42  63  99 145 185 234 288 352 429
#     4  12  27  50  73 108 140 185 245 312 373 441
#     4  12  24  44  72 100 140 186 240 299 361 434
#     4  10  23  41  65 101 141 188 237 289 352 429
#
# _framework density 20.921887000000002
#
# number of rings (size 3 to 8) (size 9 to 14) (size 15 to 20)
#    0.000    0.941    4.706    0.706    6.588    1.882 
#    2.118    1.176    0.000    0.000    0.000    0.000 
#    0.000    0.000    0.000    0.000    0.000    0.000 
#
# Total GULP energy -94717.312505 kJ/mol
# GULP energy per Si atom -5571.606618 kJ/mol
# Density = 2.087427 g / cm^3
# Si number density = 20.921887 Si / 1000 Ang^3
#
#
#
# Elastic Constant Matrix: (Units=GPa)
#
#
# Indices 1 2 3 4 5 6 
#
# 1 126.1263 4.9022 43.0881 0.0000 -12.7863 0.0000
# 2 4.9022 58.5215 18.9563 0.0000 9.5456 0.0000
# 3 43.0881 18.9563 85.3505 -0.0001 -5.0039 0.0000
# 4 0.0000 0.0000 -0.0001 24.8457 0.0000 -19.2839
# 5 -12.7863 9.5456 -5.0039 0.0000 62.6873 0.0000
# 6 0.0000 0.0000 0.0000 -19.2839 0.0000 21.2249
#
#
#
# Elastic Compliance Matrix: (Units=1/GPa)
#
#
# Indices 1 2 3 4 5 6 
#
# 1 0.009754 0.000542 -0.004956 0.000000 0.001511 0.000000
# 2 0.000542 0.019081 -0.004697 0.000000 -0.003170 0.000000
# 3 -0.004956 -0.004697 0.015316 0.000000 0.000927 0.000000
# 4 0.000000 0.000000 0.000000 0.136516 0.000000 0.124032
# 5 0.001511 -0.003170 0.000927 0.000000 0.016817 0.000000
# 6 0.000000 0.000000 0.000000 0.124032 0.000000 0.159804
#
#
# Mechanical properties :
#
#
# Convention : Reuss Voigt Hill
#
# Bulk Modulus (GPa) = 38.56829 44.87684 41.72256
# Shear Modulus (GPa) = 13.01565 35.28833 24.15199
#
# Velocity S-wave (km/s) = 2.49691 4.11137 3.40132
# Velocity P-wave (km/s) = 5.17564 6.63581 5.95068
#
# Compressibility (1/GPa) = 0.02592804
#
# Stress axis : x y z
#
# Youngs Moduli (GPa) = 102.52466 52.40828 65.29190
#
# Poissons Ratio (x) = -0.02839 0.32357
# Poissons Ratio (y) = -0.05554 0.30669
# Poissons Ratio (z) = 0.50809 0.24617
#
# Static dielectric constant tensor:
#      x y z
#    x 1.787240 0.000000 0.021800 
#    y 0.000000 1.750710 0.000000 
#    z 0.021800 0.000000 1.791520 
# 
# From -- ./inp_files/194223.got.cif
#   From: 2010.05.17/outbox.cif.g08.bks.cpg/sg12_98_cif.got.tgz:194223.got - 2010.06.03 13:09:07.
