data_PCOD9217569
_publ_section_title
;
Structure prediction by ZEFSAII (Michael W. Deem and Ramdas Pophale) SiO2 
 PCOD9217569
Probable space group: C 2/M
;
_chemical_formula_sum "Si O2"
_cell_formula_units_Z 40
_cell_length_a 13.621222
_cell_length_b 12.424161
_cell_length_c 10.182676
_cell_angle_alpha 90.000000
_cell_angle_beta 109.844333
_cell_angle_gamma 90.000000
_cell_volume 1620.908616
_symmetry_space_group_name_H-M "C 2/M"
_symmetry_group_IT_number 12
_symmetry_cell_setting 'monoclinic'
loop_
_space_group_symop_operation_xyz
x,y,z
-x,y,-z
-x,-y,-z
x,-y,z
1/2+x,1/2+y,z
1/2-x,1/2+y,-z
1/2-x,1/2-y,-z
1/2+x,1/2-y,z
loop_
_atom_site_type_symbol
_atom_site_label
_atom_site_fract_x
_atom_site_fract_y
_atom_site_fract_z
Si Si1 0.865654 0.706143 0.084822
Si Si2 0.465328 0.623966 0.741890
Si Si3 0.416427 0.829591 0.569360
Si Si4 0.760717 0.663464 0.285693
Si Si5 0.835865 0.384220 0.799841
O O1 0.857804 0.877283 0.778940
O O2 0.888376 0.641720 0.962626
O O3 0.750000 0.750000 0.000000
O O4 0.841068 0.637877 0.205429
O O5 0.493347 0.500000 0.727145
O O6 0.433265 0.701860 0.605518
O O7 0.443912 0.694548 0.147512
O O8 0.500000 0.863748 0.500000
O O9 0.308804 0.860400 0.448919
O O10 0.416268 0.878171 0.714919
O O11 0.747409 0.792521 0.271929
O O12 0.785714 0.500000 0.783393
#
# Coordination Sequence:
#
# PCOD9217569 Si02
#       5
#     8   8   8   8   8
#     4  10  23  45  66 103 148 184 233 306 360 411
#     4  11  24  45  78 109 140 192 247 291 356 436
#     4  11  23  45  70 104 150 187 232 302 359 418
#     4  10  23  45  71 103 153 185 226 304 364 417
#     4  10  23  43  69  96 135 189 237 281 352 433
#
# _framework density 24.677516000000001
#
# number of rings (size 3 to 8) (size 9 to 14) (size 15 to 20)
#    0.000    1.600    2.000    2.400    0.000   15.200 
#    0.000   25.000    0.000    0.000    0.000    0.000 
#    0.000    0.000    0.000    0.000    0.000    0.000 
#
# Total GULP energy -111638.953695 kJ/mol
# GULP energy per Si atom -5581.947685 kJ/mol
# Density = 2.462135 g / cm^3
# Si number density = 24.677516 Si / 1000 Ang^3
#
#
#
# Elastic Constant Matrix: (Units=GPa)
#
#
# Indices 1 2 3 4 5 6 
#
# 1 132.4228 13.7954 51.1773 0.0000 -0.7117 0.0000
# 2 13.7954 129.1061 14.8616 0.0000 6.1117 0.0000
# 3 51.1773 14.8616 178.0179 0.0000 -26.9087 0.0000
# 4 0.0000 0.0000 0.0000 -5.4849 0.0000 5.3759
# 5 -0.7117 6.1117 -26.9087 0.0000 42.0046 0.0000
# 6 0.0000 0.0000 0.0000 5.3759 0.0000 -4.1258
#
#
#
# Elastic Compliance Matrix: (Units=1/GPa)
#
#
# Indices 1 2 3 4 5 6 
#
# 1 0.008628 -0.000546 -0.002658 0.000000 -0.001477 0.000000
# 2 -0.000546 0.007970 -0.000758 0.000000 -0.001655 0.000000
# 3 -0.002658 -0.000758 0.007147 0.000000 0.004644 0.000000
# 4 0.000000 0.000000 0.000000 0.658004 0.000000 0.857364
# 5 -0.001477 -0.001655 0.004644 0.000000 0.026997 0.000000
# 6 0.000000 0.000000 0.000000 0.857364 0.000000 0.874750
#
#
# Mechanical properties :
#
#
# Convention : Reuss Voigt Hill
#
# Bulk Modulus (GPa) = 63.21492 66.57949 64.89720
# Shear Modulus (GPa) = 3.13147 30.45962 16.79555
#
# Velocity S-wave (km/s) = 1.12770 3.51708 2.61166
# Velocity P-wave (km/s) = 5.23141 6.59784 5.95396
#
# Compressibility (1/GPa) = 0.01581905
#
# Stress axis : x y z
#
# Youngs Moduli (GPa) = 115.90491 125.47761 139.92282
#
# Poissons Ratio (x) = 0.06851 0.37192
# Poissons Ratio (y) = 0.06329 0.10613
# Poissons Ratio (z) = 0.30808 0.09517
#
# Static dielectric constant tensor:
#      x y z
#    x 2.044070 0.000000 -0.052020 
#    y 0.000000 1.991120 0.000000 
#    z -0.052020 0.000000 2.038700 
# 
# From -- ./inp_files/84609.got.cif
#   From: 2010.05.17/outbox.cif.g08.bks.cpg/sg12_43_cif.got.tgz:84609.got - 2010.06.03 13:09:07.
