data_PCOD9217128
_publ_section_title
;
Structure prediction by ZEFSAII (Michael W. Deem and Ramdas Pophale) SiO2 
 PCOD9217128
Probable space group: C 2/M
;
_chemical_formula_sum "Si O2"
_cell_formula_units_Z 64
_cell_length_a 17.958998
_cell_length_b 30.068030
_cell_length_c 11.650563
_cell_angle_alpha 90.000000
_cell_angle_beta 149.001632
_cell_angle_gamma 90.000000
_cell_volume 3240.057648
_symmetry_space_group_name_H-M "C 2/M"
_symmetry_group_IT_number 12
_symmetry_cell_setting 'monoclinic'
loop_
_space_group_symop_operation_xyz
x,y,z
-x,y,-z
-x,-y,-z
x,-y,z
1/2+x,1/2+y,z
1/2-x,1/2+y,-z
1/2-x,1/2-y,-z
1/2+x,1/2-y,z
loop_
_atom_site_type_symbol
_atom_site_label
_atom_site_fract_x
_atom_site_fract_y
_atom_site_fract_z
Si Si1 0.329659 0.713981 0.953569
Si Si2 0.670426 0.302929 0.703024
Si Si3 0.161052 0.791574 0.425109
Si Si4 0.049848 0.591694 0.440457
Si Si5 0.850976 0.051042 0.236553
Si Si6 0.960832 0.551222 0.074059
Si Si7 0.667075 0.644394 0.235738
Si Si8 0.271354 0.136567 0.017241
O O1 0.227930 0.756449 0.831136
O O2 0.312287 0.689925 0.808725
O O3 0.496563 0.724520 0.190359
O O4 0.301253 0.674337 0.004110
O O5 0.500000 0.308841 0.500000
O O6 0.693341 0.300198 0.599206
O O7 0.758212 0.343819 0.872676
O O8 0.250000 0.750000 0.500000
O O9 0.186201 0.837599 0.389672
O O10 0.213394 0.609768 0.651552
O O11 0.000000 0.570960 0.500000
O O12 0.021344 0.567920 0.278693
O O13 0.933728 0.631473 0.275773
O O14 0.811440 0.089280 0.092159
O O15 0.000000 0.060531 0.500000
O O16 0.858591 0.000000 0.201728
O O17 0.712649 0.052545 0.138358
O O18 0.009151 0.500000 0.132562
O O19 0.000000 0.571373 0.000000
O O20 0.500000 0.629575 0.000000
#
# Coordination Sequence:
#
# PCOD9217128 Si02
#       8
#     8   8   8   8   8   8   8   8
#     4  11  23  39  57  85 120 169 207 260 315 366
#     4  12  25  37  60  87 119 167 213 263 313 372
#     4  11  24  41  58  80 118 169 209 265 315 377
#     4  11  23  40  66  92 122 168 214 266 310 388
#     4   9  19  38  66  95 126 163 204 262 322 383
#     4   9  20  41  65  96 133 164 202 259 330 388
#     4  10  23  42  60  81 120 165 208 255 321 370
#     4  11  23  38  61  93 125 155 215 263 313 377
#
# _framework density 19.752735999999999
#
# number of rings (size 3 to 8) (size 9 to 14) (size 15 to 20)
#    0.000    1.500    3.750    0.750    3.500    2.250 
#    2.250    0.000    0.000    0.375    0.000    0.000 
#    0.000    0.000    0.000    0.000    0.000    0.000 
#
# Total GULP energy -178317.929355 kJ/mol
# GULP energy per Si atom -5572.435292 kJ/mol
# Density = 1.970778 g / cm^3
# Si number density = 19.752736 Si / 1000 Ang^3
#
#
#
# Elastic Constant Matrix: (Units=GPa)
#
#
# Indices 1 2 3 4 5 6 
#
# 1 104.6608 28.2504 37.7288 0.0000 -18.9629 0.0000
# 2 28.2504 64.4073 27.7632 0.0000 -2.6981 0.0000
# 3 37.7288 27.7632 82.2697 0.0000 1.3731 0.0000
# 4 0.0000 0.0000 0.0000 7.2691 0.0000 13.6109
# 5 -18.9629 -2.6981 1.3731 0.0000 38.1651 0.0000
# 6 0.0000 0.0000 0.0000 13.6109 0.0000 2.9834
#
#
#
# Elastic Compliance Matrix: (Units=1/GPa)
#
#
# Indices 1 2 3 4 5 6 
#
# 1 0.013556 -0.003438 -0.005168 0.000000 0.006678 0.000000
# 2 -0.003438 0.019128 -0.004875 0.000000 -0.000181 0.000000
# 3 -0.005168 -0.004875 0.016229 0.000000 -0.003496 0.000000
# 4 0.000000 0.000000 0.000000 -0.018239 0.000000 0.083212
# 5 0.006678 -0.000181 -0.003496 0.000000 0.029633 0.000000
# 6 0.000000 0.000000 0.000000 0.083212 0.000000 -0.044441
#
#
# Mechanical properties :
#
#
# Convention : Reuss Voigt Hill
#
# Bulk Modulus (GPa) = 45.55860 48.75807 47.15834
# Shear Modulus (GPa) = 99.70990 20.18987 59.94988
#
# Velocity S-wave (km/s) = 7.11257 3.20055 5.51508
# Velocity P-wave (km/s) = 9.51662 6.19643 8.03000
#
# Compressibility (1/GPa) = 0.02194975
#
# Stress axis : x y z
#
# Youngs Moduli (GPa) = 73.76984 52.27847 61.61942
#
# Poissons Ratio (x) = 0.17976 0.31843
# Poissons Ratio (y) = 0.25366 0.30041
# Poissons Ratio (z) = 0.38122 0.25487
#
# Static dielectric constant tensor:
#      x y z
#    x 1.783200 0.000000 -0.054480 
#    y 0.000000 1.713870 0.000000 
#    z -0.054480 0.000000 1.717000 
# 
# From -- ./inp_files/161263.got.cif
#   From: 2010.05.17/outbox.cif.g08.bks.cpg/sg12_81_cif.got.tgz:161263.got - 2010.06.03 13:09:07.
