data_PCOD9217458
_publ_section_title
;
Structure prediction by ZEFSAII (Michael W. Deem and Ramdas Pophale) SiO2 
 PCOD9217458
Probable space group: C 2/M
;
_chemical_formula_sum "Si O2"
_cell_formula_units_Z 64
_cell_length_a 32.785801
_cell_length_b 17.074067
_cell_length_c 12.838436
_cell_angle_alpha 90.000000
_cell_angle_beta 25.702595
_cell_angle_gamma 90.000000
_cell_volume 3116.909677
_symmetry_space_group_name_H-M "C 2/M"
_symmetry_group_IT_number 12
_symmetry_cell_setting 'monoclinic'
loop_
_space_group_symop_operation_xyz
x,y,z
-x,y,-z
-x,-y,-z
x,-y,z
1/2+x,1/2+y,z
1/2-x,1/2+y,-z
1/2-x,1/2-y,-z
1/2+x,1/2-y,z
loop_
_atom_site_type_symbol
_atom_site_label
_atom_site_fract_x
_atom_site_fract_y
_atom_site_fract_z
Si Si1 0.233295 0.911709 0.154311
Si Si2 0.111593 0.863382 0.246801
Si Si3 0.348123 0.666721 0.068568
Si Si4 0.816707 0.203738 0.541270
Si Si5 0.400687 0.183412 0.673154
Si Si6 0.707699 0.410061 0.595710
Si Si7 0.927910 0.588628 0.070541
Si Si8 0.484438 0.219967 0.266424
O O1 0.155333 0.907940 0.243257
O O2 0.206282 0.854890 0.310843
O O3 0.246230 0.000000 0.162226
O O4 0.326164 0.878065 0.885685
O O5 0.131006 0.770971 0.222564
O O6 0.000000 0.875358 0.500000
O O7 0.155899 0.878606 0.031649
O O8 0.263631 0.729545 0.274595
O O9 0.342933 0.611297 0.180384
O O10 0.445969 0.715271 0.845125
O O11 0.817833 0.153195 0.433468
O O12 0.916841 0.242819 0.335490
O O13 0.500000 0.169124 0.500000
O O14 0.418744 0.185666 0.508528
O O15 0.688073 0.500000 0.609364
O O16 0.820279 0.403057 0.353621
O O17 0.939384 0.500000 0.003319
O O18 0.000000 0.598141 0.000000
O O19 0.952086 0.652487 0.928898
#
# Coordination Sequence:
#
# PCOD9217458 Si02
#       8
#     8   8   8   8   8   8   8   8
#     4  12  25  40  65  99 136 175 208 259 333 393
#     4  11  21  43  68  95 126 169 220 267 310 373
#     4  12  23  41  70  97 124 172 230 263 317 386
#     4  12  23  42  66  97 132 173 218 263 319 394
#     4  11  21  42  64  95 130 164 216 268 323 373
#     4  11  26  45  64  95 137 170 210 273 334 382
#     4  10  23  43  65  95 133 168 212 274 333 380
#     4  12  23  38  70  98 125 172 222 268 317 392
#
# _framework density 20.533158
#
# number of rings (size 3 to 8) (size 9 to 14) (size 15 to 20)
#    0.000    0.625    6.250    2.625    1.750    1.500 
#    0.000    4.375    0.000    0.000    0.000    0.000 
#    0.000    0.000    0.000    0.000    0.000    0.000 
#
# Total GULP energy -179077.124707 kJ/mol
# GULP energy per Si atom -5596.160147 kJ/mol
# Density = 2.048642 g / cm^3
# Si number density = 20.533158 Si / 1000 Ang^3
#
#
#
# Elastic Constant Matrix: (Units=GPa)
#
#
# Indices 1 2 3 4 5 6 
#
# 1 62.0585 4.2014 -1.4447 0.0000 10.1210 0.0000
# 2 4.2014 51.3864 14.6131 0.0000 -2.2219 0.0000
# 3 -1.4447 14.6131 44.2634 0.0000 17.1597 0.0000
# 4 0.0000 0.0000 0.0000 93.4629 0.0000 -100.4608
# 5 10.1210 -2.2219 17.1597 0.0000 41.0877 0.0000
# 6 0.0000 0.0000 0.0000 -100.4608 0.0000 127.4637
#
#
#
# Elastic Compliance Matrix: (Units=1/GPa)
#
#
# Indices 1 2 3 4 5 6 
#
# 1 0.017372 -0.002765 0.003814 0.000000 -0.006022 0.000000
# 2 -0.002765 0.022784 -0.009968 0.000000 0.006076 0.000000
# 3 0.003814 -0.009968 0.031715 0.000000 -0.014724 0.000000
# 4 0.000000 0.000000 0.000000 0.070006 0.000000 0.055176
# 5 -0.006022 0.006076 -0.014724 0.000000 0.032299 0.000000
# 6 0.000000 0.000000 0.000000 0.055176 0.000000 0.051332
#
#
# Mechanical properties :
#
#
# Convention : Reuss Voigt Hill
#
# Bulk Modulus (GPa) = 18.50695 21.38311 19.94503
# Shear Modulus (GPa) = 19.13089 61.75876 40.44483
#
# Velocity S-wave (km/s) = 3.05570 5.49025 4.44298
# Velocity P-wave (km/s) = 4.63492 7.11527 6.00456
#
# Compressibility (1/GPa) = 0.05403377
#
# Stress axis : x y z
#
# Youngs Moduli (GPa) = 57.56411 43.89081 31.53045
#
# Poissons Ratio (x) = 0.12138 -0.12027
# Poissons Ratio (y) = 0.15919 0.31429
# Poissons Ratio (z) = -0.21958 0.43749
#
# Static dielectric constant tensor:
#      x y z
#    x 1.668080 0.000000 0.087770 
#    y 0.000000 1.711710 0.000000 
#    z 0.087770 0.000000 1.594310 
# 
# From -- ./inp_files/190019.got.cif
#   From: 2010.05.17/outbox.cif.g08.bks.cpg/sg12_96_cif.got.tgz:190019.got - 2010.06.03 13:09:07.
