data_PCOD9217925
_publ_section_title
;
Structure prediction by ZEFSAII (Michael W. Deem and Ramdas Pophale) SiO2 
 PCOD9217925
Probable space group: C 2/M
;
_chemical_formula_sum "Si O2"
_cell_formula_units_Z 36
_cell_length_a 7.223539
_cell_length_b 12.790021
_cell_length_c 16.499004
_cell_angle_alpha 90.000000
_cell_angle_beta 92.430932
_cell_angle_gamma 90.000000
_cell_volume 1522.958257
_symmetry_space_group_name_H-M "C 2/M"
_symmetry_group_IT_number 12
_symmetry_cell_setting 'monoclinic'
loop_
_space_group_symop_operation_xyz
x,y,z
-x,y,-z
-x,-y,-z
x,-y,z
1/2+x,1/2+y,z
1/2-x,1/2+y,-z
1/2-x,1/2-y,-z
1/2+x,1/2-y,z
loop_
_atom_site_type_symbol
_atom_site_label
_atom_site_fract_x
_atom_site_fract_y
_atom_site_fract_z
Si Si1 0.818547 0.883603 0.909626
Si Si2 0.500000 0.792563 0.000000
Si Si3 0.581869 0.842805 0.745757
Si Si4 0.767790 0.000000 0.439551
Si Si5 0.333223 0.000000 0.386518
Si Si6 0.157794 0.111720 0.710705
O O1 0.958334 0.787264 0.925126
O O2 0.698943 0.872222 0.826423
O O3 0.898151 0.000000 0.915618
O O4 0.673647 0.863110 0.980289
O O5 0.681195 0.898498 0.670907
O O6 0.371318 0.883447 0.743925
O O7 0.568405 0.718745 0.734790
O O8 0.838378 0.097819 0.387119
O O9 0.546574 0.000000 0.419934
O O10 0.793735 0.000000 0.535941
O O11 0.078396 0.000000 0.738749
#
# Coordination Sequence:
#
# PCOD9217925 Si02
#       6
#     8   4   8   4   4   8
#     4  11  21  39  58  84 111 146 180 234 268 342
#     4  10  24  38  58  82 112 144 184 218 292 324
#     4  11  19  36  61  81 115 145 190 226 282 319
#     4   7  16  34  53  77 119 142 191 221 275 319
#     4   9  16  32  57  85 103 157 181 224 279 331
#     4   9  20  37  53  84 113 150 186 232 267 330
#
# _framework density 23.638204999999999
#
# number of rings (size 3 to 8) (size 9 to 14) (size 15 to 20)
#    0.667    1.556    2.222    2.000    0.000    0.889 
#    2.000    5.556    0.000    1.333    0.000    0.000 
#    0.000    0.000    0.000    0.000    0.000    0.000 
#
# Total GULP energy -100586.379856 kJ/mol
# GULP energy per Si atom -5588.132214 kJ/mol
# Density = 2.358440 g / cm^3
# Si number density = 23.638205 Si / 1000 Ang^3
#
#
#
# Elastic Constant Matrix: (Units=GPa)
#
#
# Indices 1 2 3 4 5 6 
#
# 1 48.7717 10.5568 16.5893 0.0000 4.6109 0.0000
# 2 10.5568 166.2854 29.5521 0.0000 -8.3449 0.0000
# 3 16.5893 29.5521 120.6638 0.0000 9.5315 0.0000
# 4 0.0000 0.0000 0.0000 11.7991 0.0000 10.3300
# 5 4.6109 -8.3449 9.5315 0.0000 33.6071 0.0000
# 6 0.0000 0.0000 0.0000 10.3300 0.0000 20.4227
#
#
#
# Elastic Compliance Matrix: (Units=1/GPa)
#
#
# Indices 1 2 3 4 5 6 
#
# 1 0.021838 -0.001062 -0.002542 0.000000 -0.002539 0.000000
# 2 -0.001062 0.006479 -0.001616 0.000000 0.002213 0.000000
# 3 -0.002542 -0.001616 0.009244 0.000000 -0.002674 0.000000
# 4 0.000000 0.000000 0.000000 0.152111 0.000000 -0.076939
# 5 -0.002539 0.002213 -0.002674 0.000000 0.031412 0.000000
# 6 0.000000 0.000000 0.000000 -0.076939 0.000000 0.087882
#
#
# Mechanical properties :
#
#
# Convention : Reuss Voigt Hill
#
# Bulk Modulus (GPa) = 36.86982 49.90192 43.38587
# Shear Modulus (GPa) = 15.22319 31.76729 23.49524
#
# Velocity S-wave (km/s) = 2.54048 3.66990 3.15612
# Velocity P-wave (km/s) = 4.92309 6.25412 5.62809
#
# Compressibility (1/GPa) = 0.02712245
#
# Stress axis : x y z
#
# Youngs Moduli (GPa) = 45.79140 154.33600 108.17991
#
# Poissons Ratio (x) = 0.16392 0.27496
# Poissons Ratio (y) = 0.04864 0.17478
# Poissons Ratio (z) = 0.11639 0.24935
#
# Static dielectric constant tensor:
#      x y z
#    x 1.928240 0.000000 -0.000130 
#    y 0.000000 1.856570 0.000000 
#    z -0.000130 0.000000 1.912940 
# 
# From -- ./inp_files/254820.got.cif
#   From: 2010.05.17/outbox.cif.g08.bks.cpg/sg12_128_cif.got.tgz:254820.got - 2010.06.03 13:09:07.
