data_PCOD9217119
_publ_section_title
;
Structure prediction by ZEFSAII (Michael W. Deem and Ramdas Pophale) SiO2 
 PCOD9217119
Probable space group: C 2/M
;
_chemical_formula_sum "Si O2"
_cell_formula_units_Z 56
_cell_length_a 16.635439
_cell_length_b 29.117462
_cell_length_c 8.971546
_cell_angle_alpha 90.000000
_cell_angle_beta 131.033667
_cell_angle_gamma 90.000000
_cell_volume 3278.030337
_symmetry_space_group_name_H-M "C 2/M"
_symmetry_group_IT_number 12
_symmetry_cell_setting 'monoclinic'
loop_
_space_group_symop_operation_xyz
x,y,z
-x,y,-z
-x,-y,-z
x,-y,z
1/2+x,1/2+y,z
1/2-x,1/2+y,-z
1/2-x,1/2-y,-z
1/2+x,1/2-y,z
loop_
_atom_site_type_symbol
_atom_site_label
_atom_site_fract_x
_atom_site_fract_y
_atom_site_fract_z
Si Si1 0.164849 0.448702 0.623771
Si Si2 0.386394 0.716520 0.781368
Si Si3 0.683112 0.779808 0.037586
Si Si4 0.618925 0.864662 0.105273
Si Si5 0.289421 0.858360 0.458439
Si Si6 0.457878 0.780209 0.607863
Si Si7 0.061909 0.448513 0.820896
O O1 0.208480 0.500000 0.649963
O O2 0.230032 0.404139 0.658938
O O3 0.133218 0.445505 0.758647
O O4 0.057052 0.444408 0.392412
O O5 0.326237 0.749431 0.825363
O O6 0.315700 0.672226 0.668455
O O7 0.400048 0.743462 0.642789
O O8 0.500000 0.707362 0.000000
O O9 0.702014 0.831465 0.118813
O O10 0.750000 0.750000 0.000000
O O11 0.567672 0.788743 0.826391
O O12 0.672005 0.872223 0.330020
O O13 0.500000 0.843892 0.000000
O O14 0.591757 0.909403 0.974624
O O15 0.383900 0.825490 0.506501
O O16 0.500000 0.763283 0.500000
O O17 0.072662 0.500000 0.897747
#
# Coordination Sequence:
#
# PCOD9217119 Si02
#       7
#     8   8   8   8   8   8   8
#     4   9  19  34  53  80 111 145 183 217 266 332
#     4  10  23  42  53  76 111 144 188 234 275 322
#     4  11  22  36  51  76 112 149 184 225 266 323
#     4  12  21  34  50  81 115 145 184 222 266 328
#     4  12  22  34  59  79 109 147 185 230 272 325
#     4  11  22  34  54  79 109 145 182 224 271 322
#     4   9  19  34  51  78 117 148 174 218 269 328
#
# _framework density 17.083428999999999
#
# number of rings (size 3 to 8) (size 9 to 14) (size 15 to 20)
#    0.000    1.429    4.286    2.571    8.000    0.857 
#    0.000    0.000    0.000    0.429    0.000    0.000 
#    0.000    2.857    0.000    0.000    0.000    0.000 
#
# Total GULP energy -156059.800405 kJ/mol
# GULP energy per Si atom -5573.564300 kJ/mol
# Density = 1.704455 g / cm^3
# Si number density = 17.083429 Si / 1000 Ang^3
#
#
#
# Elastic Constant Matrix: (Units=GPa)
#
#
# Indices 1 2 3 4 5 6 
#
# 1 93.2906 60.6034 22.8483 0.0000 -23.4021 0.0000
# 2 60.6034 109.5513 25.3114 0.0000 -12.2861 0.0000
# 3 22.8483 25.3114 57.9303 0.0000 -11.3787 0.0000
# 4 0.0000 0.0000 0.0000 28.1282 0.0000 -0.4351
# 5 -23.4021 -12.2861 -11.3787 0.0000 24.4053 0.0000
# 6 0.0000 0.0000 0.0000 -0.4351 0.0000 23.9590
#
#
#
# Elastic Compliance Matrix: (Units=1/GPa)
#
#
# Indices 1 2 3 4 5 6 
#
# 1 0.020990 -0.009695 -0.001153 0.000000 0.014708 0.000000
# 2 -0.009695 0.014887 -0.003340 0.000000 -0.003360 0.000000
# 3 -0.001153 -0.003340 0.020507 0.000000 0.006774 0.000000
# 4 0.000000 0.000000 0.000000 0.035562 0.000000 0.000646
# 5 0.014708 -0.003360 0.006774 0.000000 0.056545 0.000000
# 6 0.000000 0.000000 0.000000 0.000646 0.000000 0.041750
#
#
# Mechanical properties :
#
#
# Convention : Reuss Voigt Hill
#
# Bulk Modulus (GPa) = 35.70795 53.14426 44.42611
# Shear Modulus (GPa) = 21.93442 25.43245 23.68344
#
# Velocity S-wave (km/s) = 3.58712 3.86258 3.72740
# Velocity P-wave (km/s) = 6.17285 7.14625 6.67731
#
# Compressibility (1/GPa) = 0.02800496
#
# Stress axis : x y z
#
# Youngs Moduli (GPa) = 47.64285 67.17482 48.76383
#
# Poissons Ratio (x) = 0.65128 0.05624
# Poissons Ratio (y) = 0.46191 0.16289
# Poissons Ratio (z) = 0.05495 0.22439
#
# Static dielectric constant tensor:
#      x y z
#    x 1.613300 0.000000 -0.026450 
#    y 0.000000 1.627450 0.000000 
#    z -0.026450 0.000000 1.632040 
# 
# From -- ./inp_files/68307.got.cif
#   From: 2010.05.17/outbox.cif.g08.bks.cpg/sg12_35_cif.got.tgz:68307.got - 2010.06.03 13:09:07.
