data_PCOD9217957
_publ_section_title
;
Structure prediction by ZEFSAII (Michael W. Deem and Ramdas Pophale) SiO2 
 PCOD9217957
Probable space group: C 2/M
;
_chemical_formula_sum "Si O2"
_cell_formula_units_Z 40
_cell_length_a 8.748915
_cell_length_b 17.616135
_cell_length_c 10.231706
_cell_angle_alpha 90.000000
_cell_angle_beta 96.610673
_cell_angle_gamma 90.000000
_cell_volume 1566.447199
_symmetry_space_group_name_H-M "C 2/M"
_symmetry_group_IT_number 12
_symmetry_cell_setting 'monoclinic'
loop_
_space_group_symop_operation_xyz
x,y,z
-x,y,-z
-x,-y,-z
x,-y,z
1/2+x,1/2+y,z
1/2-x,1/2+y,-z
1/2-x,1/2-y,-z
1/2+x,1/2-y,z
loop_
_atom_site_type_symbol
_atom_site_label
_atom_site_fract_x
_atom_site_fract_y
_atom_site_fract_z
Si Si1 0.632497 0.640409 0.131545
Si Si2 0.618501 0.842822 0.358539
Si Si3 0.043787 0.500000 0.222337
Si Si4 0.844391 0.911786 0.568452
Si Si5 0.249695 0.500000 0.998920
Si Si6 0.123896 0.762350 0.782533
O O1 0.632684 0.601764 0.276361
O O2 0.658102 0.574730 0.029861
O O3 0.780404 0.695399 0.140764
O O4 0.482134 0.692538 0.128113
O O5 0.547641 0.922963 0.305648
O O6 0.708209 0.858810 0.501169
O O7 0.753441 0.817239 0.272657
O O8 0.493996 0.776312 0.332047
O O9 0.897659 0.500000 0.112419
O O10 0.192097 0.500000 0.141491
O O11 0.000000 0.897614 0.500000
O O12 0.803354 0.000000 0.541718
#
# Coordination Sequence:
#
# PCOD9217957 Si02
#       6
#     8   8   4   8   4   8
#     4  11  22  43  64  99 131 172 215 262 324 379
#     4  11  22  43  64  99 131 172 215 262 324 379
#     4  11  24  46  71  94 124 169 224 275 320 385
#     4  11  22  36  66  99 138 170 213 268 312 384
#     4  11  24  46  71  94 124 169 224 275 320 385
#     4  10  24  39  65  96 140 166 211 267 320 390
#
# _framework density 25.535491
#
# number of rings (size 3 to 8) (size 9 to 14) (size 15 to 20)
#    0.000    1.200    6.000    0.000    0.000    6.400 
#    0.000   10.000    0.000    0.000    0.000    0.000 
#    0.000    0.000    0.000    0.000    0.000    0.000 
#
# Total GULP energy -112246.653632 kJ/mol
# GULP energy per Si atom -5612.332682 kJ/mol
# Density = 2.547737 g / cm^3
# Si number density = 25.535491 Si / 1000 Ang^3
#
#
#
# Elastic Constant Matrix: (Units=GPa)
#
#
# Indices 1 2 3 4 5 6 
#
# 1 121.5516 52.2378 9.4310 0.0000 -6.5426 0.0000
# 2 52.2378 130.6584 9.7114 0.0000 -12.1980 0.0000
# 3 9.4310 9.7114 59.2698 0.0000 -16.2723 0.0000
# 4 0.0000 0.0000 0.0000 27.7060 0.0000 4.2013
# 5 -6.5426 -12.1980 -16.2723 0.0000 35.0392 0.0000
# 6 0.0000 0.0000 0.0000 4.2013 0.0000 53.3522
#
#
#
# Elastic Compliance Matrix: (Units=1/GPa)
#
#
# Indices 1 2 3 4 5 6 
#
# 1 0.009986 -0.003917 -0.000928 0.000000 0.000070 0.000000
# 2 -0.003917 0.009467 -0.000257 0.000000 0.002445 0.000000
# 3 -0.000928 -0.000257 0.019472 0.000000 0.008780 0.000000
# 4 0.000000 0.000000 0.000000 0.036529 0.000000 -0.002877
# 5 0.000070 0.002445 0.008780 0.000000 0.033481 0.000000
# 6 0.000000 0.000000 0.000000 -0.002877 0.000000 0.018970
#
#
# Mechanical properties :
#
#
# Convention : Reuss Voigt Hill
#
# Bulk Modulus (GPa) = 34.81615 50.47113 42.64364
# Shear Modulus (GPa) = 33.85626 39.22611 36.54119
#
# Velocity S-wave (km/s) = 3.64517 3.92362 3.78695
# Velocity P-wave (km/s) = 5.60182 6.35093 5.98810
#
# Compressibility (1/GPa) = 0.02872230
#
# Stress axis : x y z
#
# Youngs Moduli (GPa) = 100.13943 105.63111 51.35497
#
# Poissons Ratio (x) = 0.41375 0.04765
# Poissons Ratio (y) = 0.39224 0.01318
# Poissons Ratio (z) = 0.09292 0.02710
#
# Static dielectric constant tensor:
#      x y z
#    x 2.014340 0.000000 0.060330 
#    y 0.000000 1.921950 0.000000 
#    z 0.060330 0.000000 2.056240 
# 
# From -- ./inp_files/118963.got.cif
#   From: 2010.05.17/outbox.cif.g08.bks.cpg/sg12_60_cif.got.tgz:118963.got - 2010.06.03 13:09:07.
