data_PCOD9217563
_publ_section_title
;
Structure prediction by ZEFSAII (Michael W. Deem and Ramdas Pophale) SiO2 
 PCOD9217563
Probable space group: C 2/M
;
_chemical_formula_sum "Si O2"
_cell_formula_units_Z 32
_cell_length_a 22.823295
_cell_length_b 15.679934
_cell_length_c 5.090956
_cell_angle_alpha 90.000000
_cell_angle_beta 50.312552
_cell_angle_gamma 90.000000
_cell_volume 1402.015515
_symmetry_space_group_name_H-M "C 2/M"
_symmetry_group_IT_number 12
_symmetry_cell_setting 'monoclinic'
loop_
_space_group_symop_operation_xyz
x,y,z
-x,y,-z
-x,-y,-z
x,-y,z
1/2+x,1/2+y,z
1/2-x,1/2+y,-z
1/2-x,1/2-y,-z
1/2+x,1/2-y,z
loop_
_atom_site_type_symbol
_atom_site_label
_atom_site_fract_x
_atom_site_fract_y
_atom_site_fract_z
Si Si1 0.771795 0.350176 0.432153
Si Si2 0.085634 0.404575 0.643515
Si Si3 0.814078 0.095589 0.813645
Si Si4 0.051670 0.228126 0.592889
O O1 0.750000 0.250000 0.500000
O O2 0.854946 0.373652 0.303998
O O3 0.784155 0.106883 0.194173
O O4 0.753800 0.385634 0.196238
O O5 0.106536 0.500000 0.489899
O O6 0.081605 0.324412 0.458639
O O7 0.000000 0.410977 0.000000
O O8 0.877994 0.165411 0.575209
O O9 0.842514 0.000000 0.691722
O O10 0.000000 0.200099 0.500000
O O11 0.000000 0.228308 0.000000
#
# Coordination Sequence:
#
# PCOD9217563 Si02
#       4
#     8   8   8   8
#     4  12  25  46  73 103 139 189 233 298 355 422
#     4  10  23  43  69 102 140 183 233 291 355 423
#     4  12  26  45  72 105 141 186 239 295 353 422
#     4  11  25  43  69 101 141 189 235 287 352 419
#
# _framework density 22.824283999999999
#
# number of rings (size 3 to 8) (size 9 to 14) (size 15 to 20)
#    0.000    0.750    2.500    4.500    3.500    1.500 
#    0.000    5.000    0.000    0.000    0.000    0.000 
#    0.000    0.000    0.000    0.000    0.000    0.000 
#
# Total GULP energy -89600.465307 kJ/mol
# GULP energy per Si atom -5600.029082 kJ/mol
# Density = 2.277234 g / cm^3
# Si number density = 22.824284 Si / 1000 Ang^3
#
#
#
# Elastic Constant Matrix: (Units=GPa)
#
#
# Indices 1 2 3 4 5 6 
#
# 1 107.4972 17.5977 9.2037 0.0000 -26.3988 0.0000
# 2 17.5977 167.5113 12.4360 0.0000 -30.0463 0.0000
# 3 9.2037 12.4360 71.8550 0.0000 -5.7475 0.0000
# 4 0.0000 0.0000 0.0000 43.0573 0.0000 -14.3181
# 5 -26.3988 -30.0463 -5.7475 0.0000 35.5421 0.0000
# 6 0.0000 0.0000 0.0000 -14.3181 0.0000 27.9774
#
#
#
# Elastic Compliance Matrix: (Units=1/GPa)
#
#
# Indices 1 2 3 4 5 6 
#
# 1 0.011448 0.000425 -0.000842 0.000000 0.008726 0.000000
# 2 0.000425 0.007093 -0.000787 0.000000 0.006184 0.000000
# 3 -0.000842 -0.000787 0.014242 0.000000 0.001012 0.000000
# 4 0.000000 0.000000 0.000000 0.027988 0.000000 0.014324
# 5 0.008726 0.006184 0.001012 0.000000 0.040009 0.000000
# 6 0.000000 0.000000 0.000000 0.014324 0.000000 0.043074
#
#
# Mechanical properties :
#
#
# Convention : Reuss Voigt Hill
#
# Bulk Modulus (GPa) = 32.92243 47.25982 40.09112
# Shear Modulus (GPa) = 31.97209 41.82377 36.89793
#
# Velocity S-wave (km/s) = 3.74678 4.28533 4.02507
# Velocity P-wave (km/s) = 5.75964 6.72579 6.26138
#
# Compressibility (1/GPa) = 0.03037443
#
# Stress axis : x y z
#
# Youngs Moduli (GPa) = 87.35143 140.98721 70.21497
#
# Poissons Ratio (x) = -0.05993 0.05912
# Poissons Ratio (y) = -0.03713 0.05528
# Poissons Ratio (z) = 0.07354 0.11100
#
# Static dielectric constant tensor:
#      x y z
#    x 1.827680 0.000000 -0.019780 
#    y 0.000000 1.856170 0.000000 
#    z -0.019780 0.000000 1.832120 
# 
# From -- ./inp_files/19612.got.cif
#   From: 2010.05.17/outbox.cif.g08.bks.cpg/sg12_10_cif.got.tgz:19612.got - 2010.06.03 13:09:07.
