data_PCOD9217137
_publ_section_title
;
Structure prediction by ZEFSAII (Michael W. Deem and Ramdas Pophale) SiO2 
 PCOD9217137
Probable space group: C 2/M
;
_chemical_formula_sum "Si O2"
_cell_formula_units_Z 56
_cell_length_a 9.545900
_cell_length_b 17.133463
_cell_length_c 26.189455
_cell_angle_alpha 90.000000
_cell_angle_beta 42.401921
_cell_angle_gamma 90.000000
_cell_volume 2888.411967
_symmetry_space_group_name_H-M "C 2/M"
_symmetry_group_IT_number 12
_symmetry_cell_setting 'monoclinic'
loop_
_space_group_symop_operation_xyz
x,y,z
-x,y,-z
-x,-y,-z
x,-y,z
1/2+x,1/2+y,z
1/2-x,1/2+y,-z
1/2-x,1/2-y,-z
1/2+x,1/2-y,z
loop_
_atom_site_type_symbol
_atom_site_label
_atom_site_fract_x
_atom_site_fract_y
_atom_site_fract_z
Si Si1 0.933283 0.181354 0.307720
Si Si2 0.079810 0.817170 0.035969
Si Si3 0.352451 0.167864 0.794691
Si Si4 0.350855 0.093848 0.201542
Si Si5 0.045911 0.408806 0.043436
Si Si6 0.263337 0.712309 0.552155
Si Si7 0.599587 0.907041 0.328705
O O1 0.811782 0.223103 0.386506
O O2 0.782943 0.127364 0.314714
O O3 0.024036 0.252211 0.249438
O O4 0.130833 0.132446 0.274108
O O5 0.882451 0.814370 0.125753
O O6 0.250000 0.750000 0.000000
O O7 0.213585 0.894986 0.009095
O O8 0.000000 0.813772 0.000000
O O9 0.472208 0.122936 0.807508
O O10 0.356958 0.117934 0.741487
O O11 0.413278 0.120393 0.127284
O O12 0.338579 0.000000 0.206161
O O13 0.997793 0.500000 0.053543
O O14 0.000000 0.373763 0.000000
O O15 0.500000 0.690171 0.500000
O O16 0.250000 0.750000 0.500000
O O17 0.108906 0.639057 0.599064
O O18 0.583306 0.000000 0.337813
#
# Coordination Sequence:
#
# PCOD9217137 Si02
#       7
#     8   8   8   8   8   8   8
#     4  11  24  43  69  94 130 172 215 256 322 395
#     4  12  25  40  63  92 125 167 229 283 330 385
#     4  11  24  41  65  92 130 174 219 274 325 390
#     4  11  23  42  64  92 127 169 218 269 322 385
#     4  10  23  42  61  86 124 170 216 268 334 388
#     4  11  23  46  73  99 132 172 212 260 318 388
#     4  11  25  43  67 102 135 170 217 265 323 389
#
# _framework density 19.387816999999998
#
# number of rings (size 3 to 8) (size 9 to 14) (size 15 to 20)
#    0.000    1.000    2.857    3.857    6.000    1.714 
#    0.000    2.143    0.000    0.000    0.000    0.000 
#    0.000    0.000    0.000    0.000    0.000    0.000 
#
# Total GULP energy -156539.792362 kJ/mol
# GULP energy per Si atom -5590.706870 kJ/mol
# Density = 1.934369 g / cm^3
# Si number density = 19.387817 Si / 1000 Ang^3
#
#
#
# Elastic Constant Matrix: (Units=GPa)
#
#
# Indices 1 2 3 4 5 6 
#
# 1 113.9704 40.5486 47.6469 0.0003 -4.6083 0.0002
# 2 40.5486 114.9099 47.8190 -0.0008 1.7050 0.0001
# 3 47.6469 47.8190 141.5972 -0.0054 -5.5767 0.0000
# 4 0.0003 -0.0008 -0.0054 10.7967 -0.0003 -6.1237
# 5 -4.6083 1.7050 -5.5767 -0.0003 39.1212 0.0005
# 6 0.0002 0.0001 0.0000 -6.1237 0.0005 32.1362
#
#
#
# Elastic Compliance Matrix: (Units=1/GPa)
#
#
# Indices 1 2 3 4 5 6 
#
# 1 0.010924 -0.002742 -0.002710 -0.000002 0.001020 0.000000
# 2 -0.002742 0.010848 -0.002788 -0.000001 -0.001193 0.000000
# 3 -0.002710 -0.002788 0.008958 0.000005 0.001079 0.000001
# 4 -0.000002 -0.000001 0.000005 0.103844 0.000001 0.019788
# 5 0.001020 -0.001193 0.001079 0.000001 0.025888 0.000000
# 6 0.000000 0.000000 0.000001 0.019788 0.000000 0.034888
#
#
# Mechanical properties :
#
#
# Convention : Reuss Voigt Hill
#
# Bulk Modulus (GPa) = 70.17206 71.38961 70.78084
# Shear Modulus (GPa) = 23.08626 32.04170 27.56398
#
# Velocity S-wave (km/s) = 3.45448 4.06972 3.77466
# Velocity P-wave (km/s) = 7.22383 7.68019 7.45550
#
# Compressibility (1/GPa) = 0.01425069
#
# Stress axis : x y z
#
# Youngs Moduli (GPa) = 91.54248 92.18342 111.63230
#
# Poissons Ratio (x) = 0.25280 0.30247
# Poissons Ratio (y) = 0.25104 0.31120
# Poissons Ratio (z) = 0.24804 0.25698
#
# Static dielectric constant tensor:
#      x y z
#    x 1.677150 0.000000 0.015420 
#    y 0.000000 1.695510 0.000000 
#    z 0.015420 0.000000 1.668900 
# 
# From -- ./inp_files/356688.got.cif
#   From: 2010.05.17/outbox.cif.g08.bks.cpg/sg12_179_cif.got.tgz:356688.got - 2010.06.03 13:09:07.
