data_PCOD9217062
_publ_section_title
;
Structure prediction by ZEFSAII (Michael W. Deem and Ramdas Pophale) SiO2 
 PCOD9217062
Probable space group: C 2/M
;
_chemical_formula_sum "Si O2"
_cell_formula_units_Z 48
_cell_length_a 15.296897
_cell_length_b 16.386112
_cell_length_c 19.850533
_cell_angle_alpha 90.000000
_cell_angle_beta 151.423379
_cell_angle_gamma 90.000000
_cell_volume 2380.029230
_symmetry_space_group_name_H-M "C 2/M"
_symmetry_group_IT_number 12
_symmetry_cell_setting 'monoclinic'
loop_
_space_group_symop_operation_xyz
x,y,z
-x,y,-z
-x,-y,-z
x,-y,z
1/2+x,1/2+y,z
1/2-x,1/2+y,-z
1/2-x,1/2-y,-z
1/2+x,1/2-y,z
loop_
_atom_site_type_symbol
_atom_site_label
_atom_site_fract_x
_atom_site_fract_y
_atom_site_fract_z
Si Si1 0.153862 0.205574 0.996813
Si Si2 0.000000 0.332476 0.000000
Si Si3 0.391739 0.901664 0.259536
Si Si4 0.235151 0.151893 0.298635
Si Si5 0.225717 0.904943 0.438518
Si Si6 0.000000 0.800744 0.500000
Si Si7 0.394920 0.597264 0.299503
O O1 0.282391 0.148215 0.129247
O O2 0.250000 0.250000 0.000000
O O3 0.065661 0.274264 0.984561
O O4 0.981827 0.154637 0.854505
O O5 0.817364 0.380593 0.855107
O O6 0.311974 0.881323 0.279950
O O7 0.601835 0.870795 0.403639
O O8 0.381832 0.000000 0.242495
O O9 0.273379 0.102756 0.392401
O O10 0.326856 0.239735 0.376446
O O11 0.026050 0.874983 0.326040
O O12 0.224789 0.000000 0.454235
O O13 0.017772 0.857171 0.577437
O O14 0.404110 0.500000 0.314509
#
# Coordination Sequence:
#
# PCOD9217062 Si02
#       7
#     8   4   8   8   8   4   8
#     4  12  26  43  65 101 136 180 229 278 335 407
#     4  12  23  48  65  96 130 174 226 278 343 396
#     4  11  23  43  69  99 140 180 222 280 342 403
#     4  12  22  41  67  97 135 178 220 278 344 403
#     4  10  23  41  66 102 134 172 225 278 337 402
#     4  12  23  40  65  94 128 176 220 270 335 396
#     4  11  25  44  67  94 130 176 227 281 336 401
#
# _framework density 20.167819000000001
#
# number of rings (size 3 to 8) (size 9 to 14) (size 15 to 20)
#    0.000    0.667    5.000    2.000    2.333    4.000 
#    0.000    1.667    0.000    0.000    0.000    0.000 
#    0.000    0.000    0.000    0.000    0.000    0.000 
#
# Total GULP energy -133994.709792 kJ/mol
# GULP energy per Si atom -5583.112908 kJ/mol
# Density = 2.012192 g / cm^3
# Si number density = 20.167819 Si / 1000 Ang^3
#
#
#
# Elastic Constant Matrix: (Units=GPa)
#
#
# Indices 1 2 3 4 5 6 
#
# 1 122.9742 28.4939 57.2992 -0.0121 8.8958 0.0054
# 2 28.4939 56.8901 55.0771 0.0023 11.1091 0.0066
# 3 57.2992 55.0771 165.7119 0.0158 3.0580 0.0016
# 4 -0.0121 0.0023 0.0158 39.6181 0.0102 -8.2131
# 5 8.8958 11.1091 3.0580 0.0102 26.8958 -0.0030
# 6 0.0054 0.0066 0.0016 -8.2131 -0.0030 45.2957
#
#
#
# Elastic Compliance Matrix: (Units=1/GPa)
#
#
# Indices 1 2 3 4 5 6 
#
# 1 0.010034 -0.001875 -0.002805 0.000005 -0.002225 0.000000
# 2 -0.001875 0.029095 -0.008830 0.000003 -0.010393 -0.000004
# 3 -0.002805 -0.008830 0.009876 -0.000005 0.003452 0.000001
# 4 0.000005 0.000003 -0.000005 0.026227 -0.000012 0.004755
# 5 -0.002225 -0.010393 0.003452 -0.000012 0.041817 0.000002
# 6 0.000000 -0.000004 0.000001 0.004755 0.000002 0.022939
#
#
# Mechanical properties :
#
#
# Convention : Reuss Voigt Hill
#
# Bulk Modulus (GPa) = 45.48785 69.70184 57.59485
# Shear Modulus (GPa) = 28.67999 36.00901 32.34450
#
# Velocity S-wave (km/s) = 3.77512 4.23006 4.00905
# Velocity P-wave (km/s) = 6.45025 7.64813 7.07459
#
# Compressibility (1/GPa) = 0.02198389
#
# Stress axis : x y z
#
# Youngs Moduli (GPa) = 99.65709 34.37001 101.25915
#
# Poissons Ratio (x) = 0.06446 0.28406
# Poissons Ratio (y) = 0.18690 0.89412
# Poissons Ratio (z) = 0.27957 0.30349
#
# Static dielectric constant tensor:
#      x y z
#    x 1.719750 0.000000 0.035410 
#    y 0.000000 1.719360 0.000000 
#    z 0.035410 0.000000 1.739990 
# 
# From -- ./inp_files/271821.got.cif
#   From: 2010.05.17/outbox.cif.g08.bks.cpg/sg12_136_cif.got.tgz:271821.got - 2010.06.03 13:09:07.
