data_PCOD9217341
_publ_section_title
;
Structure prediction by ZEFSAII (Michael W. Deem and Ramdas Pophale) SiO2 
 PCOD9217341
Probable space group: C 2/M
;
_chemical_formula_sum "Si O2"
_cell_formula_units_Z 56
_cell_length_a 17.508336
_cell_length_b 23.060334
_cell_length_c 6.148061
_cell_angle_alpha 90.000000
_cell_angle_beta 115.932354
_cell_angle_gamma 90.000000
_cell_volume 2232.330689
_symmetry_space_group_name_H-M "C 2/M"
_symmetry_group_IT_number 12
_symmetry_cell_setting 'monoclinic'
loop_
_space_group_symop_operation_xyz
x,y,z
-x,y,-z
-x,-y,-z
x,-y,z
1/2+x,1/2+y,z
1/2-x,1/2+y,-z
1/2-x,1/2-y,-z
1/2+x,1/2-y,z
loop_
_atom_site_type_symbol
_atom_site_label
_atom_site_fract_x
_atom_site_fract_y
_atom_site_fract_z
Si Si1 0.282120 0.859756 0.985581
Si Si2 0.585719 0.787678 0.119980
Si Si3 0.419710 0.313197 0.236745
Si Si4 0.094225 0.065384 0.011634
Si Si5 0.192727 0.267538 0.631852
Si Si6 0.096589 0.430578 0.571713
Si Si7 0.250380 0.567878 0.451597
O O1 0.161307 0.785725 0.738892
O O2 0.339635 0.816465 0.917944
O O3 0.230770 0.894549 0.737334
O O4 0.344251 0.909205 0.159050
O O5 0.607126 0.784536 0.399623
O O6 0.500000 0.823456 0.000000
O O7 0.570673 0.728016 0.963990
O O8 0.733634 0.819790 0.817642
O O9 0.500000 0.311104 0.500000
O O10 0.405663 0.378843 0.142944
O O11 0.171892 0.073924 0.278865
O O12 0.105545 0.000000 0.931222
O O13 0.000000 0.065976 0.000000
O O14 0.250000 0.250000 0.500000
O O15 0.091664 0.500000 0.559562
O O16 0.157850 0.415504 0.439789
O O17 0.000000 0.409004 0.500000
O O18 0.246653 0.500000 0.392762
#
# Coordination Sequence:
#
# PCOD9217341 Si02
#       7
#     8   8   8   8   8   8   8
#     4  11  25  41  75 106 146 206 255 306 381 458
#     4  11  24  43  70 105 150 195 246 310 381 453
#     4  11  24  47  80 109 149 203 250 318 391 461
#     4  10  24  50  82 116 152 194 256 329 400 470
#     4  11  27  49  71 110 155 196 254 316 378 462
#     4  10  23  42  68 108 154 201 255 313 378 452
#     4  10  23  48  75 110 159 202 255 325 386 455
#
# _framework density 25.085889000000002
#
# number of rings (size 3 to 8) (size 9 to 14) (size 15 to 20)
#    0.000    1.429    1.429    1.714    4.000    6.000 
#    5.143    4.286    0.000    1.714    0.000    0.000 
#    0.000    0.000    0.000    0.000    0.000    0.000 
#
# Total GULP energy -156468.396054 kJ/mol
# GULP energy per Si atom -5588.157002 kJ/mol
# Density = 2.502879 g / cm^3
# Si number density = 25.085889 Si / 1000 Ang^3
#
#
#
# Elastic Constant Matrix: (Units=GPa)
#
#
# Indices 1 2 3 4 5 6 
#
# 1 158.5079 59.8058 35.8596 0.0000 -5.2581 0.0000
# 2 59.8058 144.9792 55.3716 0.0000 -15.9732 0.0000
# 3 35.8596 55.3716 126.6824 0.0000 7.2184 0.0000
# 4 0.0000 0.0000 0.0000 49.8632 0.0000 -8.9154
# 5 -5.2581 -15.9732 7.2184 0.0000 37.4549 0.0000
# 6 0.0000 0.0000 0.0000 -8.9154 0.0000 36.4363
#
#
#
# Elastic Compliance Matrix: (Units=1/GPa)
#
#
# Indices 1 2 3 4 5 6 
#
# 1 0.007563 -0.002752 -0.000942 0.000000 0.000069 0.000000
# 2 -0.002752 0.010019 -0.003864 0.000000 0.004631 0.000000
# 3 -0.000942 -0.003864 0.010061 0.000000 -0.003719 0.000000
# 4 0.000000 0.000000 0.000000 0.020972 0.000000 0.005132
# 5 0.000069 0.004631 -0.003719 0.000000 0.029400 0.000000
# 6 0.000000 0.000000 0.000000 0.005132 0.000000 0.028701
#
#
# Mechanical properties :
#
#
# Convention : Reuss Voigt Hill
#
# Bulk Modulus (GPa) = 79.82940 81.36039 80.59489
# Shear Modulus (GPa) = 39.68015 43.35971 41.51993
#
# Velocity S-wave (km/s) = 3.98146 4.16197 4.07272
# Velocity P-wave (km/s) = 7.28200 7.45649 7.36976
#
# Compressibility (1/GPa) = 0.01252671
#
# Stress axis : x y z
#
# Youngs Moduli (GPa) = 132.22847 99.81121 99.39274
#
# Poissons Ratio (x) = 0.27472 0.09359
# Poissons Ratio (y) = 0.36395 0.38405
# Poissons Ratio (z) = 0.12451 0.38566
#
# Static dielectric constant tensor:
#      x y z
#    x 2.264570 0.000000 0.254210 
#    y 0.000000 2.006500 0.000000 
#    z 0.254210 0.000000 2.275450 
# 
# From -- ./inp_files/18379.got.cif
#   From: 2010.05.17/outbox.cif.g08.bks.cpg/sg12_10_cif.got.tgz:18379.got - 2010.06.03 13:09:07.
