data_PCOD9217665
_publ_section_title
;
Structure prediction by ZEFSAII (Michael W. Deem and Ramdas Pophale) SiO2 
 PCOD9217665
Probable space group: C 2/M
;
_chemical_formula_sum "Si O2"
_cell_formula_units_Z 64
_cell_length_a 30.121300
_cell_length_b 8.973114
_cell_length_c 11.264378
_cell_angle_alpha 90.000000
_cell_angle_beta 95.575738
_cell_angle_gamma 90.000000
_cell_volume 3030.152105
_symmetry_space_group_name_H-M "C 2/M"
_symmetry_group_IT_number 12
_symmetry_cell_setting 'monoclinic'
loop_
_space_group_symop_operation_xyz
x,y,z
-x,y,-z
-x,-y,-z
x,-y,z
1/2+x,1/2+y,z
1/2-x,1/2+y,-z
1/2-x,1/2-y,-z
1/2+x,1/2-y,z
loop_
_atom_site_type_symbol
_atom_site_label
_atom_site_fract_x
_atom_site_fract_y
_atom_site_fract_z
Si Si1 0.863553 0.668854 0.876369
Si Si2 0.722199 0.319539 0.603330
Si Si3 0.577418 0.672494 0.276954
Si Si4 0.242385 0.669848 0.124989
Si Si5 0.992371 0.329761 0.138888
Si Si6 0.052783 0.668083 0.493743
Si Si7 0.397749 0.323594 0.117701
Si Si8 0.137811 0.672728 0.670853
O O1 0.880758 0.500000 0.897630
O O2 0.880513 0.734434 0.757536
O O3 0.810778 0.667146 0.871730
O O4 0.883463 0.772858 0.983424
O O5 0.724062 0.500000 0.596155
O O6 0.750000 0.250000 0.500000
O O7 0.739270 0.274587 0.741680
O O8 0.671562 0.257942 0.592361
O O9 0.582089 0.500000 0.249526
O O10 0.534028 0.743197 0.203654
O O11 0.569128 0.703622 0.411533
O O12 0.259340 0.500000 0.116284
O O13 0.250000 0.750000 0.000000
O O14 0.989807 0.500000 0.183418
O O15 0.946746 0.243635 0.151113
O O16 0.000000 0.335318 0.000000
O O17 0.058969 0.500000 0.443855
O O18 0.086729 0.675522 0.611897
O O19 0.000000 0.684656 0.500000
O O20 0.398208 0.500000 0.130181
O O21 0.363505 0.251321 0.201926
O O22 0.151325 0.500000 0.683999
#
# Coordination Sequence:
#
# PCOD9217665 Si02
#       8
#     8   8   8   8   8   8   8   8
#     4  11  23  41  64  92 127 170 214 262 322 396
#     4  11  25  46  70 102 138 178 228 286 347 410
#     4  12  25  39  61  94 129 164 209 269 329 383
#     4  10  24  44  69  97 130 170 220 276 333 401
#     4  11  22  38  61  87 123 173 217 260 316 388
#     4  10  23  44  68  92 125 172 222 266 317 391
#     4  12  24  39  63  97 134 168 213 273 328 386
#     4  11  24  43  69  98 131 176 224 270 327 397
#
# _framework density 21.121054000000001
#
# number of rings (size 3 to 8) (size 9 to 14) (size 15 to 20)
#    0.000    1.000    1.250    5.250    1.750    6.750 
#    0.000    0.000    0.000    0.000    0.000    0.000 
#    0.000    0.000    0.000    0.000    0.000    0.000 
#
# Total GULP energy -178868.436272 kJ/mol
# GULP energy per Si atom -5589.638633 kJ/mol
# Density = 2.107298 g / cm^3
# Si number density = 21.121054 Si / 1000 Ang^3
#
#
#
# Elastic Constant Matrix: (Units=GPa)
#
#
# Indices 1 2 3 4 5 6 
#
# 1 82.5917 37.3709 22.4652 0.0000 -19.5079 0.0000
# 2 37.3709 106.6952 45.0028 0.0000 -18.8141 0.0000
# 3 22.4652 45.0028 85.4955 0.0000 -11.6292 0.0000
# 4 0.0000 0.0000 0.0000 32.7326 0.0000 -4.3794
# 5 -19.5079 -18.8141 -11.6292 0.0000 33.5666 0.0000
# 6 0.0000 0.0000 0.0000 -4.3794 0.0000 21.0051
#
#
#
# Elastic Compliance Matrix: (Units=1/GPa)
#
#
# Indices 1 2 3 4 5 6 
#
# 1 0.015726 -0.003836 -0.001220 0.000000 0.006567 0.000000
# 2 -0.003836 0.013761 -0.005761 0.000000 0.003488 0.000000
# 3 -0.001220 -0.005761 0.015232 0.000000 0.001339 0.000000
# 4 0.000000 0.000000 0.000000 0.031427 0.000000 0.006552
# 5 0.006567 0.003488 0.001339 0.000000 0.036027 0.000000
# 6 0.000000 0.000000 0.000000 0.006552 0.000000 0.048974
#
#
# Mechanical properties :
#
#
# Convention : Reuss Voigt Hill
#
# Bulk Modulus (GPa) = 43.31762 53.82891 48.57327
# Shear Modulus (GPa) = 26.25006 28.79041 27.52023
#
# Velocity S-wave (km/s) = 3.52922 3.69604 3.61359
# Velocity P-wave (km/s) = 6.09597 6.61480 6.36068
#
# Compressibility (1/GPa) = 0.02308529
#
# Stress axis : x y z
#
# Youngs Moduli (GPa) = 63.58787 72.66913 65.65226
#
# Poissons Ratio (x) = 0.27873 0.08010
# Poissons Ratio (y) = 0.24390 0.37823
# Poissons Ratio (z) = 0.07758 0.41866
#
# Static dielectric constant tensor:
#      x y z
#    x 1.764530 0.000000 0.013880 
#    y 0.000000 1.734590 0.000000 
#    z 0.013880 0.000000 1.831570 
# 
# From -- ./inp_files/187464.got.cif
#   From: 2010.05.17/outbox.cif.g08.bks.cpg/sg12_94_cif.got.tgz:187464.got - 2010.06.03 13:09:07.
