data_PCOD9217846
_publ_section_title
;
Structure prediction by ZEFSAII (Michael W. Deem and Ramdas Pophale) SiO2 
 PCOD9217846
Probable space group: C 2/M
;
_chemical_formula_sum "Si O2"
_cell_formula_units_Z 56
_cell_length_a 9.543928
_cell_length_b 28.337868
_cell_length_c 12.638914
_cell_angle_alpha 90.000000
_cell_angle_beta 127.178803
_cell_angle_gamma 90.000000
_cell_volume 2723.504439
_symmetry_space_group_name_H-M "C 2/M"
_symmetry_group_IT_number 12
_symmetry_cell_setting 'monoclinic'
loop_
_space_group_symop_operation_xyz
x,y,z
-x,y,-z
-x,-y,-z
x,-y,z
1/2+x,1/2+y,z
1/2-x,1/2+y,-z
1/2-x,1/2-y,-z
1/2+x,1/2-y,z
loop_
_atom_site_type_symbol
_atom_site_label
_atom_site_fract_x
_atom_site_fract_y
_atom_site_fract_z
Si Si1 0.791145 0.051021 0.418942
Si Si2 0.779288 0.726214 0.704714
Si Si3 0.147419 0.215649 0.873064
Si Si4 0.319019 0.824082 0.316260
Si Si5 0.214100 0.350130 0.476668
Si Si6 0.524375 0.945288 0.886226
Si Si7 0.819698 0.130245 0.955823
O O1 0.766889 0.097517 0.474579
O O2 0.664452 0.058420 0.259192
O O3 0.000000 0.048301 0.500000
O O4 0.735467 0.000000 0.439379
O O5 0.752841 0.707083 0.811546
O O6 0.643599 0.769375 0.645680
O O7 0.746468 0.688023 0.597863
O O8 0.964538 0.754569 0.776209
O O9 0.250000 0.250000 0.000000
O O10 0.140857 0.165094 0.928495
O O11 0.504295 0.849501 0.391312
O O12 0.215293 0.838961 0.374288
O O13 0.229335 0.835027 0.164239
O O14 0.663792 0.906842 0.906817
O O15 0.584045 0.000000 0.897898
O O16 0.500000 0.937670 0.000000
O O17 0.000000 0.105735 0.000000
#
# Coordination Sequence:
#
# PCOD9217846 Si02
#       7
#     8   8   8   8   8   8   8
#     4  10  23  46  72  98 129 173 234 291 341 412
#     4  12  23  42  63  93 136 181 224 276 333 405
#     4  12  23  37  62  92 128 174 225 270 325 399
#     4  11  23  42  60  95 137 175 224 277 329 415
#     4  11  24  42  67  93 132 179 223 281 349 399
#     4  10  24  45  71 104 139 177 227 291 357 413
#     4  12  23  41  68  98 139 180 226 281 339 413
#
# _framework density 20.561744000000001
#
# number of rings (size 3 to 8) (size 9 to 14) (size 15 to 20)
#    0.000    0.857    5.714    0.857    2.000    2.571 
#    2.571    2.143    0.000    0.000    0.000    0.000 
#    0.000    0.000    0.000    0.000    0.000    0.000 
#
# Total GULP energy -156114.752346 kJ/mol
# GULP energy per Si atom -5575.526870 kJ/mol
# Density = 2.051494 g / cm^3
# Si number density = 20.561744 Si / 1000 Ang^3
#
#
#
# Elastic Constant Matrix: (Units=GPa)
#
#
# Indices 1 2 3 4 5 6 
#
# 1 110.8206 65.0272 55.7759 0.0000 -13.3760 0.0000
# 2 65.0272 148.8900 55.3119 0.0000 -20.7288 0.0000
# 3 55.7759 55.3119 101.2285 0.0000 -23.1188 0.0000
# 4 0.0000 0.0000 0.0000 25.0008 0.0000 -0.5875
# 5 -13.3760 -20.7288 -23.1188 0.0000 48.2062 0.0000
# 6 0.0000 0.0000 0.0000 -0.5875 0.0000 44.2971
#
#
#
# Elastic Compliance Matrix: (Units=1/GPa)
#
#
# Indices 1 2 3 4 5 6 
#
# 1 0.014294 -0.004201 -0.005713 0.000000 -0.000580 0.000000
# 2 -0.004201 0.009772 -0.002618 0.000000 0.001781 0.000000
# 3 -0.005713 -0.002618 0.015540 0.000000 0.004742 0.000000
# 4 0.000000 0.000000 0.000000 0.040011 0.000000 0.000531
# 5 -0.000580 0.001781 0.004742 0.000000 0.023623 0.000000
# 6 0.000000 0.000000 0.000000 0.000531 0.000000 0.022582
#
#
# Mechanical properties :
#
#
# Convention : Reuss Voigt Hill
#
# Bulk Modulus (GPa) = 68.76786 79.24101 74.00443
# Shear Modulus (GPa) = 32.10640 35.82244 33.96442
#
# Velocity S-wave (km/s) = 3.95582 4.17848 4.06868
# Velocity P-wave (km/s) = 7.37441 7.86774 7.62506
#
# Compressibility (1/GPa) = 0.01454168
#
# Stress axis : x y z
#
# Youngs Moduli (GPa) = 69.95909 102.33648 64.35203
#
# Poissons Ratio (x) = 0.42996 0.36762
# Poissons Ratio (y) = 0.29393 0.16845
# Poissons Ratio (z) = 0.39965 0.26789
#
# Static dielectric constant tensor:
#      x y z
#    x 1.783290 0.000000 0.011750 
#    y 0.000000 1.733300 0.000000 
#    z 0.011750 0.000000 1.808480 
# 
# From -- ./inp_files/125844.got.cif
#   From: 2010.05.17/outbox.cif.g08.bks.cpg/sg12_63_cif.got.tgz:125844.got - 2010.06.03 13:09:07.
