data_PCOD9217739
_publ_section_title
;
Structure prediction by ZEFSAII (Michael W. Deem and Ramdas Pophale) SiO2 
 PCOD9217739
Probable space group: C 2/M
;
_chemical_formula_sum "Si O2"
_cell_formula_units_Z 40
_cell_length_a 5.289370
_cell_length_b 16.318719
_cell_length_c 20.052685
_cell_angle_alpha 90.000000
_cell_angle_beta 71.120969
_cell_angle_gamma 90.000000
_cell_volume 1637.748652
_symmetry_space_group_name_H-M "C 2/M"
_symmetry_group_IT_number 12
_symmetry_cell_setting 'monoclinic'
loop_
_space_group_symop_operation_xyz
x,y,z
-x,y,-z
-x,-y,-z
x,-y,z
1/2+x,1/2+y,z
1/2-x,1/2+y,-z
1/2-x,1/2-y,-z
1/2+x,1/2-y,z
loop_
_atom_site_type_symbol
_atom_site_label
_atom_site_fract_x
_atom_site_fract_y
_atom_site_fract_z
Si Si1 0.212682 0.343352 0.530163
Si Si2 0.480008 0.694394 0.741921
Si Si3 0.813901 0.402515 0.956867
Si Si4 0.293748 0.906320 0.329664
Si Si5 0.271467 0.594082 0.180167
O O1 0.500000 0.383816 0.500000
O O2 0.250000 0.250000 0.500000
O O3 0.136554 0.348978 0.613721
O O4 0.000000 0.383084 0.500000
O O5 0.731962 0.751080 0.738470
O O6 0.475074 0.627396 0.682956
O O7 0.476852 0.640677 0.809547
O O8 0.880514 0.500000 0.946870
O O9 0.834076 0.368919 0.879902
O O10 0.500000 0.395315 0.000000
O O11 0.000000 0.367960 0.000000
O O12 0.531215 0.906054 0.254573
O O13 0.261715 0.000000 0.354176
O O14 0.351839 0.500000 0.161754
#
# Coordination Sequence:
#
# PCOD9217739 Si02
#       5
#     8   8   8   8   8
#     4  10  25  44  69  97 137 181 229 277 348 425
#     4  12  26  43  69 100 142 185 242 287 348 426
#     4   9  19  35  62 100 140 183 231 286 353 418
#     4  11  26  46  73 109 144 183 237 298 357 415
#     4  10  23  44  72 106 146 184 238 304 355 413
#
# _framework density 24.423772
#
# number of rings (size 3 to 8) (size 9 to 14) (size 15 to 20)
#    0.000    1.600    2.000    0.600   11.200    0.800 
#    0.000    0.000    0.000    3.600    0.000    0.000 
#    0.000    0.000    0.000    0.000    0.000    0.000 
#
# Total GULP energy -111668.332587 kJ/mol
# GULP energy per Si atom -5583.416629 kJ/mol
# Density = 2.436818 g / cm^3
# Si number density = 24.423772 Si / 1000 Ang^3
#
#
#
# Elastic Constant Matrix: (Units=GPa)
#
#
# Indices 1 2 3 4 5 6 
#
# 1 167.3019 22.0792 59.0708 0.0000 56.7805 0.0000
# 2 22.0792 85.8414 21.6308 0.0000 18.7151 0.0000
# 3 59.0708 21.6308 177.4854 0.0000 52.5019 0.0000
# 4 0.0000 0.0000 0.0000 18.7069 0.0000 22.2774
# 5 56.7805 18.7151 52.5019 0.0000 53.2696 0.0000
# 6 0.0000 0.0000 0.0000 22.2774 0.0000 17.2624
#
#
#
# Elastic Compliance Matrix: (Units=1/GPa)
#
#
# Indices 1 2 3 4 5 6 
#
# 1 0.009377 -0.000243 -0.000226 0.000000 -0.009687 0.000000
# 2 -0.000243 0.012635 -0.000314 0.000000 -0.003870 0.000000
# 3 -0.000226 -0.000314 0.007966 0.000000 -0.007501 0.000000
# 4 0.000000 0.000000 0.000000 -0.099577 0.000000 0.128506
# 5 -0.009687 -0.003870 -0.007501 0.000000 0.037850 0.000000
# 6 0.000000 0.000000 0.000000 0.128506 0.000000 -0.107910
#
#
# Mechanical properties :
#
#
# Convention : Reuss Voigt Hill
#
# Bulk Modulus (GPa) = 35.19584 70.68783 52.94183
# Shear Modulus (GPa) = -38.87336 39.70431 0.41548
#
# Velocity S-wave (km/s) = -3.99384 4.03630 0.41289
# Velocity P-wave (km/s) = 2.61264 7.12231 4.68516
#
# Compressibility (1/GPa) = 0.02841245
#
# Stress axis : x y z
#
# Youngs Moduli (GPa) = 106.64908 79.14616 125.52646
#
# Poissons Ratio (x) = 0.01923 0.02833
# Poissons Ratio (y) = 0.02591 0.03943
# Poissons Ratio (z) = 0.02407 0.02486
#
# Static dielectric constant tensor:
#      x y z
#    x 2.023410 0.000000 -0.059920 
#    y 0.000000 2.017430 0.000000 
#    z -0.059920 0.000000 2.005510 
# 
# From -- ./inp_files/252549.got.cif
#   From: 2010.05.17/outbox.cif.g08.bks.cpg/sg12_127_cif.got.tgz:252549.got - 2010.06.03 13:09:07.
