data_PCOD9217640
_publ_section_title
;
Structure prediction by ZEFSAII (Michael W. Deem and Ramdas Pophale) SiO2 
 PCOD9217640
Probable space group: C 2/M
;
_chemical_formula_sum "Si O2"
_cell_formula_units_Z 26
_cell_length_a 18.321596
_cell_length_b 7.421369
_cell_length_c 10.140411
_cell_angle_alpha 90.000000
_cell_angle_beta 44.515128
_cell_angle_gamma 90.000000
_cell_volume 966.676905
_symmetry_space_group_name_H-M "C 2/M"
_symmetry_group_IT_number 12
_symmetry_cell_setting 'monoclinic'
loop_
_space_group_symop_operation_xyz
x,y,z
-x,y,-z
-x,-y,-z
x,-y,z
1/2+x,1/2+y,z
1/2-x,1/2+y,-z
1/2-x,1/2-y,-z
1/2+x,1/2-y,z
loop_
_atom_site_type_symbol
_atom_site_label
_atom_site_fract_x
_atom_site_fract_y
_atom_site_fract_z
Si Si1 0.836111 0.290867 0.498452
Si Si2 0.660931 0.718036 0.917625
Si Si3 0.049155 0.798110 0.307441
Si Si4 0.000000 0.500000 0.000000
O O1 0.863644 0.500000 0.449067
O O2 0.750000 0.250000 0.500000
O O3 0.945451 0.192855 0.349066
O O4 0.777296 0.256257 0.712364
O O5 0.641714 0.500000 0.932308
O O6 0.636428 0.777601 0.099003
O O7 0.586051 0.841689 0.926762
O O8 0.000000 0.705774 0.500000
O O9 0.080416 0.000000 0.304947
#
# Coordination Sequence:
#
# PCOD9217640 Si02
#       4
#     8   8   8   2
#     4  11  24  40  63  96 131 168 214 273 325 384
#     4  10  24  42  61  95 135 168 212 275 324 386
#     4  10  23  44  67  92 130 175 217 268 328 387
#     4  12  22  36  70  94 122 178 210 260 334 390
#
# _framework density 26.896267000000002
#
# number of rings (size 3 to 8) (size 9 to 14) (size 15 to 20)
#    0.000    1.538    0.000    3.231   10.769    6.769 
#    0.000    0.000    0.000    0.000    0.000    0.000 
#    0.000    0.000    0.000    0.000    0.000    0.000 
#
# Total GULP energy -72500.339994 kJ/mol
# GULP energy per Si atom -5576.949230 kJ/mol
# Density = 2.683505 g / cm^3
# Si number density = 26.896267 Si / 1000 Ang^3
#
#
#
# Elastic Constant Matrix: (Units=GPa)
#
#
# Indices 1 2 3 4 5 6 
#
# 1 81.1431 24.4093 11.9608 0.0000 -14.9729 0.0000
# 2 24.4093 157.5849 10.7751 0.0000 -9.6055 0.0000
# 3 11.9608 10.7751 169.1333 0.0000 -2.9835 0.0000
# 4 0.0000 0.0000 0.0000 13.5278 0.0000 -8.3755
# 5 -14.9729 -9.6055 -2.9835 0.0000 37.7963 0.0000
# 6 0.0000 0.0000 0.0000 -8.3755 0.0000 32.3251
#
#
#
# Elastic Compliance Matrix: (Units=1/GPa)
#
#
# Indices 1 2 3 4 5 6 
#
# 1 0.013900 -0.001796 -0.000781 0.000000 0.004988 0.000000
# 2 -0.001796 0.006702 -0.000283 0.000000 0.000970 0.000000
# 3 -0.000781 -0.000283 0.005987 0.000000 0.000092 0.000000
# 4 0.000000 0.000000 0.000000 0.088046 0.000000 0.022813
# 5 0.004988 0.000970 0.000092 0.000000 0.028687 0.000000
# 6 0.000000 0.000000 0.000000 0.022813 0.000000 0.036847
#
#
# Mechanical properties :
#
#
# Convention : Reuss Voigt Hill
#
# Bulk Modulus (GPa) = 47.91289 55.79465 51.85377
# Shear Modulus (GPa) = 25.92770 40.77759 33.35264
#
# Velocity S-wave (km/s) = 3.10818 3.89794 3.52525
# Velocity P-wave (km/s) = 5.54380 6.40688 5.99090
#
# Compressibility (1/GPa) = 0.02087121
#
# Stress axis : x y z
#
# Youngs Moduli (GPa) = 71.94460 149.20113 167.01928
#
# Poissons Ratio (x) = 0.26790 0.13037
# Poissons Ratio (y) = 0.12918 0.04725
# Poissons Ratio (z) = 0.05616 0.04221
#
# Static dielectric constant tensor:
#      x y z
#    x 2.135260 0.000000 0.146220 
#    y 0.000000 1.965480 0.000000 
#    z 0.146220 0.000000 2.222190 
# 
# From -- ./inp_files/81959.got.cif
#   From: 2010.05.17/outbox.cif.g08.bks.cpg/sg12_41_cif.got.tgz:81959.got - 2010.06.03 13:09:07.
