data_PCOD9217006
_publ_section_title
;
Structure prediction by ZEFSAII (Michael W. Deem and Ramdas Pophale) SiO2 
 PCOD9217006
Probable space group: C 2/M
;
_chemical_formula_sum "Si O2"
_cell_formula_units_Z 40
_cell_length_a 12.329105
_cell_length_b 16.831795
_cell_length_c 18.277591
_cell_angle_alpha 90.000000
_cell_angle_beta 151.133559
_cell_angle_gamma 90.000000
_cell_volume 1831.136792
_symmetry_space_group_name_H-M "C 2/M"
_symmetry_group_IT_number 12
_symmetry_cell_setting 'monoclinic'
loop_
_space_group_symop_operation_xyz
x,y,z
-x,y,-z
-x,-y,-z
x,-y,z
1/2+x,1/2+y,z
1/2-x,1/2+y,-z
1/2-x,1/2-y,-z
1/2+x,1/2-y,z
loop_
_atom_site_type_symbol
_atom_site_label
_atom_site_fract_x
_atom_site_fract_y
_atom_site_fract_z
Si Si1 0.799861 0.675920 0.821966
Si Si2 0.199168 0.161279 0.441264
Si Si3 0.830079 0.361051 0.233523
Si Si4 0.604296 0.413198 0.243497
Si Si5 0.827003 0.341332 0.061455
O O1 0.555668 0.636864 0.689712
O O2 0.738140 0.769470 0.788753
O O3 0.918920 0.653780 0.816368
O O4 0.000000 0.662901 0.000000
O O5 0.250000 0.250000 0.500000
O O6 0.410930 0.116320 0.599551
O O7 0.210717 0.152085 0.360218
O O8 0.691444 0.407925 0.212286
O O9 0.792575 0.364915 0.125021
O O10 0.654199 0.500000 0.303590
O O11 0.340273 0.395802 0.083628
O O12 0.750000 0.250000 0.000000
#
# Coordination Sequence:
#
# PCOD9217006 Si02
#       5
#     8   8   8   8   8
#     4  11  19  37  65  92 129 173 231 284 323 385
#     4  10  23  41  63  96 131 177 231 276 332 403
#     4  11  23  37  62  96 136 176 222 281 334 388
#     4  12  25  43  68 100 138 179 222 276 344 410
#     4  12  21  39  66  96 134 178 230 277 329 396
#
# _framework density 21.844353999999999
#
# number of rings (size 3 to 8) (size 9 to 14) (size 15 to 20)
#    0.000    0.800    6.000    2.400    0.000    4.000 
#    0.000    2.000    0.000    0.000    0.000    4.200 
#    0.000    0.000    0.000    0.000    0.000    0.000 
#
# Total GULP energy -111568.435580 kJ/mol
# GULP energy per Si atom -5578.421779 kJ/mol
# Density = 2.179464 g / cm^3
# Si number density = 21.844354 Si / 1000 Ang^3
#
#
#
# Elastic Constant Matrix: (Units=GPa)
#
#
# Indices 1 2 3 4 5 6 
#
# 1 126.9511 31.7842 58.0545 -0.0031 -1.0183 -0.0007
# 2 31.7842 30.9558 20.1026 -0.0007 -6.5981 -0.0009
# 3 58.0545 20.1026 144.2072 -0.0057 13.9556 -0.0032
# 4 -0.0031 -0.0007 -0.0057 8.2921 -0.0037 -0.7867
# 5 -1.0183 -6.5981 13.9556 -0.0037 52.3077 -0.0010
# 6 -0.0007 -0.0009 -0.0032 -0.7867 -0.0010 9.7912
#
#
#
# Elastic Compliance Matrix: (Units=1/GPa)
#
#
# Indices 1 2 3 4 5 6 
#
# 1 0.011956 -0.010103 -0.003392 0.000001 -0.000137 -0.000001
# 2 -0.010103 0.045960 -0.002958 0.000001 0.006390 0.000003
# 3 -0.003392 -0.002958 0.008987 0.000004 -0.002837 0.000002
# 4 0.000001 0.000001 0.000004 0.121523 0.000008 0.009764
# 5 -0.000137 0.006390 -0.002837 0.000008 0.020678 0.000002
# 6 -0.000001 0.000003 0.000002 0.009764 0.000002 0.102917
#
#
# Mechanical properties :
#
#
# Convention : Reuss Voigt Hill
#
# Bulk Modulus (GPa) = 29.41347 57.99963 43.70655
# Shear Modulus (GPa) = 14.03468 26.88971 20.46219
#
# Velocity S-wave (km/s) = 2.53748 3.51232 3.06392
# Velocity P-wave (km/s) = 4.69886 6.56182 5.70687
#
# Compressibility (1/GPa) = 0.03399802
#
# Stress axis : x y z
#
# Youngs Moduli (GPa) = 83.63688 21.75784 111.27401
#
# Poissons Ratio (x) = 0.21982 0.37742
# Poissons Ratio (y) = 0.84498 0.32916
# Poissons Ratio (z) = 0.28368 0.06436
#
# Static dielectric constant tensor:
#      x y z
#    x 1.867900 0.000000 0.010770 
#    y 0.000000 1.825710 0.000000 
#    z 0.010770 0.000000 1.832910 
# 
# From -- ./inp_files/264444.got.cif
#   From: 2010.05.17/outbox.cif.g08.bks.cpg/sg12_133_cif.got.tgz:264444.got - 2010.06.03 13:09:07.
