data_PCOD9217313
_publ_section_title
;
Structure prediction by ZEFSAII (Michael W. Deem and Ramdas Pophale) SiO2 
 PCOD9217313
Probable space group: C 2/M
;
_chemical_formula_sum "Si O2"
_cell_formula_units_Z 56
_cell_length_a 22.738462
_cell_length_b 22.862765
_cell_length_c 13.946192
_cell_angle_alpha 90.000000
_cell_angle_beta 22.292485
_cell_angle_gamma 90.000000
_cell_volume 2750.224648
_symmetry_space_group_name_H-M "C 2/M"
_symmetry_group_IT_number 12
_symmetry_cell_setting 'monoclinic'
loop_
_space_group_symop_operation_xyz
x,y,z
-x,y,-z
-x,-y,-z
x,-y,z
1/2+x,1/2+y,z
1/2-x,1/2+y,-z
1/2-x,1/2-y,-z
1/2+x,1/2-y,z
loop_
_atom_site_type_symbol
_atom_site_label
_atom_site_fract_x
_atom_site_fract_y
_atom_site_fract_z
Si Si1 0.831581 0.653897 0.614173
Si Si2 0.272517 0.680900 0.437720
Si Si3 0.035902 0.850075 0.183368
Si Si4 0.939538 0.433092 0.198811
Si Si5 0.434658 0.256046 0.702272
Si Si6 0.083613 0.930063 0.275053
Si Si7 0.419761 0.932628 0.816671
O O1 0.741796 0.676660 0.655385
O O2 0.975342 0.695861 0.418311
O O3 0.918025 0.593544 0.462510
O O4 0.711608 0.650901 0.881079
O O5 0.250000 0.750000 0.500000
O O6 0.429195 0.660029 0.252572
O O7 0.156019 0.627824 0.645946
O O8 0.007594 0.798477 0.301243
O O9 0.009107 0.906687 0.289656
O O10 0.870095 0.500000 0.320867
O O11 0.073116 0.428177 0.078411
O O12 0.000000 0.433994 0.000000
O O13 0.500000 0.276636 0.500000
O O14 0.250000 0.250000 0.000000
O O15 0.000000 0.912918 0.500000
O O16 0.084992 0.000000 0.270981
O O17 0.260261 0.906474 0.017221
O O18 0.416761 0.000000 0.794057
#
# Coordination Sequence:
#
# PCOD9217313 Si02
#       7
#     8   8   8   8   8   8   8
#     4  11  24  44  65  91 132 171 225 275 331 407
#     4  11  24  44  63  95 135 181 225 284 349 413
#     4  12  25  42  66  94 131 175 219 272 342 407
#     4   9  20  39  67  96 126 175 233 285 343 412
#     4  12  24  42  66  93 127 173 220 276 332 398
#     4  10  23  42  66  99 136 170 215 276 340 408
#     4   9  20  40  65  93 128 169 214 271 331 399
#
# _framework density 20.361972999999999
#
# number of rings (size 3 to 8) (size 9 to 14) (size 15 to 20)
#    0.000    1.429    2.857    1.714    2.000    2.286 
#    2.571    1.429    0.000    4.286    0.000    0.000 
#    0.000    0.000    0.000    0.000    0.000    0.000 
#
# Total GULP energy -156002.918891 kJ/mol
# GULP energy per Si atom -5571.532818 kJ/mol
# Density = 2.031563 g / cm^3
# Si number density = 20.361973 Si / 1000 Ang^3
#
#
#
# Elastic Constant Matrix: (Units=GPa)
#
#
# Indices 1 2 3 4 5 6 
#
# 1 92.7035 31.5782 52.7036 -0.0028 1.9023 0.0030
# 2 31.5782 101.3814 30.6376 0.0025 3.8461 0.0008
# 3 52.7036 30.6376 87.9960 -0.0022 5.3736 0.0067
# 4 -0.0028 0.0025 -0.0022 19.6551 0.0017 -1.8626
# 5 1.9023 3.8461 5.3736 0.0017 36.8897 -0.0025
# 6 0.0030 0.0008 0.0067 -1.8626 -0.0025 23.9555
#
#
#
# Elastic Compliance Matrix: (Units=1/GPa)
#
#
# Indices 1 2 3 4 5 6 
#
# 1 0.016910 -0.002482 -0.009309 0.000002 0.000743 0.000001
# 2 -0.002482 0.011401 -0.002440 -0.000002 -0.000705 0.000000
# 3 -0.009309 -0.002440 0.017903 0.000001 -0.001874 -0.000004
# 4 0.000002 -0.000002 0.000001 0.051255 -0.000002 0.003985
# 5 0.000743 -0.000705 -0.001874 -0.000002 0.027416 0.000003
# 6 0.000001 0.000000 -0.000004 0.003985 0.000003 0.042054
#
#
# Mechanical properties :
#
#
# Convention : Reuss Voigt Hill
#
# Bulk Modulus (GPa) = 56.33022 56.87997 56.60509
# Shear Modulus (GPa) = 24.83637 27.24417 26.04027
#
# Velocity S-wave (km/s) = 3.49627 3.66183 3.58001
# Velocity P-wave (km/s) = 6.63498 6.77301 6.70435
#
# Compressibility (1/GPa) = 0.01775246
#
# Stress axis : x y z
#
# Youngs Moduli (GPa) = 59.13816 87.71221 55.85526
#
# Poissons Ratio (x) = 0.21770 0.51995
# Poissons Ratio (y) = 0.14678 0.13628
# Poissons Ratio (z) = 0.55051 0.21400
#
# Static dielectric constant tensor:
#      x y z
#    x 1.750010 0.000000 -0.009960 
#    y 0.000000 1.774100 0.000000 
#    z -0.009960 0.000000 1.748180 
# 
# From -- ./inp_files/242132.got.cif
#   From: 2010.05.17/outbox.cif.g08.bks.cpg/sg12_122_cif.got.tgz:242132.got - 2010.06.03 13:09:07.
