data_PCOD9217684
_publ_section_title
;
Structure prediction by ZEFSAII (Michael W. Deem and Ramdas Pophale) SiO2 
 PCOD9217684
Probable space group: C 2/M
;
_chemical_formula_sum "Si O2"
_cell_formula_units_Z 58
_cell_length_a 11.450540
_cell_length_b 17.442549
_cell_length_c 27.528278
_cell_angle_alpha 90.000000
_cell_angle_beta 149.591002
_cell_angle_gamma 90.000000
_cell_volume 2782.983875
_symmetry_space_group_name_H-M "C 2/M"
_symmetry_group_IT_number 12
_symmetry_cell_setting 'monoclinic'
loop_
_space_group_symop_operation_xyz
x,y,z
-x,y,-z
-x,-y,-z
x,-y,z
1/2+x,1/2+y,z
1/2-x,1/2+y,-z
1/2-x,1/2-y,-z
1/2+x,1/2-y,z
loop_
_atom_site_type_symbol
_atom_site_label
_atom_site_fract_x
_atom_site_fract_y
_atom_site_fract_z
Si Si1 0.070145 0.176947 0.626052
Si Si2 0.000000 0.000000 0.500000
Si Si3 0.904459 0.218522 0.261981
Si Si4 0.969504 0.780319 0.047162
Si Si5 0.549965 0.842948 0.461197
Si Si6 0.409962 0.585841 0.849012
Si Si7 0.386319 0.590060 0.731997
Si Si8 0.374530 0.119621 0.655363
O O1 0.191197 0.195348 0.720239
O O2 0.235608 0.121564 0.656086
O O3 0.818795 0.144736 0.548323
O O4 0.019179 0.256251 0.579198
O O5 0.199776 0.932163 0.562114
O O6 0.700917 0.247343 0.154958
O O7 0.017289 0.147257 0.274361
O O8 0.078396 0.289408 0.337557
O O9 0.983566 0.868690 0.068301
O O10 0.750000 0.750000 0.000000
O O11 0.000000 0.768689 0.000000
O O12 0.500000 0.854277 0.500000
O O13 0.388591 0.897919 0.371421
O O14 0.495058 0.500000 0.879863
O O15 0.461824 0.616763 0.813053
O O16 0.131384 0.587326 0.751945
O O17 0.442327 0.500000 0.745667
#
# Coordination Sequence:
#
# PCOD9217684 Si02
#       8
#     8   2   8   8   8   8   8   8
#     4  11  23  36  63  88 123 175 217 270 317 387
#     4  12  28  40  56 100 134 176 236 268 320 378
#     4  11  24  45  68  90 135 172 219 271 349 392
#     4  11  25  43  76 106 129 168 225 286 341 425
#     4  11  21  36  55  90 122 170 231 259 311 368
#     4  10  23  44  68  97 135 176 213 270 347 400
#     4  11  23  41  65  93 132 182 221 266 323 401
#     4  11  24  38  64  90 133 172 223 269 316 386
#
# _framework density 20.84094
#
# number of rings (size 3 to 8) (size 9 to 14) (size 15 to 20)
#    0.000    1.103    3.448    2.483   10.621    0.552 
#    1.241    0.690    0.000    2.483    0.000    0.000 
#    0.000    0.000    0.000    0.000    0.000    0.000 
#
# Total GULP energy -161544.465713 kJ/mol
# GULP energy per Si atom -5570.498818 kJ/mol
# Density = 2.079351 g / cm^3
# Si number density = 20.840940 Si / 1000 Ang^3
#
#
#
# Elastic Constant Matrix: (Units=GPa)
#
#
# Indices 1 2 3 4 5 6 
#
# 1 100.3862 26.6626 21.4956 -0.0004 -18.7671 -0.0001
# 2 26.6626 74.4152 17.5335 -0.0003 1.5927 -0.0001
# 3 21.4956 17.5335 62.1551 -0.0008 -20.7338 -0.0002
# 4 -0.0004 -0.0003 -0.0008 19.9064 -0.0005 -2.3043
# 5 -18.7671 1.5927 -20.7338 -0.0005 34.6565 -0.0001
# 6 -0.0001 -0.0001 -0.0002 -2.3043 -0.0001 15.3789
#
#
#
# Elastic Compliance Matrix: (Units=1/GPa)
#
#
# Indices 1 2 3 4 5 6 
#
# 1 0.012536 -0.004405 -0.000950 0.000000 0.006422 0.000000
# 2 -0.004405 0.016369 -0.005173 0.000000 -0.006233 0.000000
# 3 -0.000950 -0.005173 0.022219 0.000001 0.013016 0.000001
# 4 0.000000 0.000000 0.000001 0.051122 0.000002 0.007660
# 5 0.006422 -0.006233 0.013016 0.000002 0.040406 0.000001
# 6 0.000000 0.000000 0.000001 0.007660 0.000001 0.066172
#
#
# Mechanical properties :
#
#
# Convention : Reuss Voigt Hill
#
# Bulk Modulus (GPa) = 33.26033 40.92667 37.09350
# Shear Modulus (GPa) = 20.84193 25.40602 23.12398
#
# Velocity S-wave (km/s) = 3.16578 3.49527 3.33460
# Velocity P-wave (km/s) = 5.41818 5.99746 5.71516
#
# Compressibility (1/GPa) = 0.03006585
#
# Stress axis : x y z
#
# Youngs Moduli (GPa) = 79.77285 61.09226 45.00737
#
# Poissons Ratio (x) = 0.26911 0.04277
# Poissons Ratio (y) = 0.35140 0.23283
# Poissons Ratio (z) = 0.07581 0.31604
#
# Static dielectric constant tensor:
#      x y z
#    x 1.798450 0.000000 -0.000100 
#    y 0.000000 1.824150 0.000000 
#    z -0.000100 0.000000 1.748880 
# 
# From -- ./inp_files/358804.got.cif
#   From: 2010.05.17/outbox.cif.g08.bks.cpg/sg12_180_cif.got.tgz:358804.got - 2010.06.03 13:09:07.
