data_PCOD9217002
_publ_section_title
;
Structure prediction by ZEFSAII (Michael W. Deem and Ramdas Pophale) SiO2 
 PCOD9217002
Probable space group: C 2/M
;
_chemical_formula_sum "Si O2"
_cell_formula_units_Z 40
_cell_length_a 19.534100
_cell_length_b 8.735747
_cell_length_c 28.897040
_cell_angle_alpha 90.000000
_cell_angle_beta 23.985959
_cell_angle_gamma 90.000000
_cell_volume 2004.568914
_symmetry_space_group_name_H-M "C 2/M"
_symmetry_group_IT_number 12
_symmetry_cell_setting 'monoclinic'
loop_
_space_group_symop_operation_xyz
x,y,z
-x,y,-z
-x,-y,-z
x,-y,z
1/2+x,1/2+y,z
1/2-x,1/2+y,-z
1/2-x,1/2-y,-z
1/2+x,1/2-y,z
loop_
_atom_site_type_symbol
_atom_site_label
_atom_site_fract_x
_atom_site_fract_y
_atom_site_fract_z
Si Si1 0.977514 0.317501 0.961388
Si Si2 0.654598 0.317823 0.103191
Si Si3 0.281800 0.182661 0.715666
Si Si4 0.284810 0.182047 0.341353
Si Si5 0.641723 0.183057 0.524792
O O1 0.011052 0.500000 0.938071
O O2 0.109848 0.236930 0.845809
O O3 0.786294 0.294043 0.063357
O O4 0.000000 0.265362 0.000000
O O5 0.625160 0.500000 0.115684
O O6 0.479797 0.232389 0.218157
O O7 0.750000 0.250000 0.000000
O O8 0.297203 0.257904 0.655592
O O9 0.443171 0.224130 0.647479
O O10 0.279262 0.000000 0.711401
O O11 0.209317 0.257018 0.433925
O O12 0.269204 0.000000 0.353384
O O13 0.750000 0.250000 0.500000
O O14 0.655514 0.000000 0.517639
#
# Coordination Sequence:
#
# PCOD9217002 Si02
#       5
#     8   8   8   8   8
#     4  10  23  41  63  94 129 169 212 257 316 381
#     4  11  22  39  64  96 131 168 209 263 317 376
#     4  11  24  43  67  95 127 166 215 268 320 378
#     4  12  25  42  67  96 128 172 217 262 318 380
#     4  11  26  46  67  96 129 166 212 267 326 383
#
# _framework density 19.954415999999998
#
# number of rings (size 3 to 8) (size 9 to 14) (size 15 to 20)
#    0.000    1.000    2.000    4.200    2.800    6.800 
#    0.000    0.000    0.000    0.000    0.000    0.000 
#    0.000    0.000    0.000    0.000    0.000    0.000 
#
# Total GULP energy -111893.257497 kJ/mol
# GULP energy per Si atom -5594.662875 kJ/mol
# Density = 1.990900 g / cm^3
# Si number density = 19.954416 Si / 1000 Ang^3
#
#
#
# Elastic Constant Matrix: (Units=GPa)
#
#
# Indices 1 2 3 4 5 6 
#
# 1 134.1561 42.2251 14.6699 -0.0006 -10.4389 -0.0005
# 2 42.2251 65.9092 13.6274 -0.0010 -15.0028 0.0002
# 3 14.6699 13.6274 59.4819 -0.0018 -14.6528 0.0001
# 4 -0.0006 -0.0010 -0.0018 35.5446 -0.0007 1.3934
# 5 -10.4389 -15.0028 -14.6528 -0.0007 33.6918 0.0000
# 6 -0.0005 0.0002 0.0001 1.3934 0.0000 33.8830
#
#
#
# Elastic Compliance Matrix: (Units=1/GPa)
#
#
# Indices 1 2 3 4 5 6 
#
# 1 0.009392 -0.005837 -0.001011 0.000000 -0.000129 0.000000
# 2 -0.005837 0.020787 -0.001667 0.000001 0.006723 0.000000
# 3 -0.001011 -0.001667 0.019245 0.000001 0.007314 0.000000
# 4 0.000000 0.000001 0.000001 0.028179 0.000001 -0.001159
# 5 -0.000129 0.006723 0.007314 0.000001 0.035816 0.000000
# 6 0.000000 0.000000 0.000000 -0.001159 0.000000 0.029561
#
#
# Mechanical properties :
#
#
# Convention : Reuss Voigt Hill
#
# Bulk Modulus (GPa) = 30.86956 44.51022 37.68989
# Shear Modulus (GPa) = 29.27292 33.22553 31.24922
#
# Velocity S-wave (km/s) = 3.83428 4.08496 3.96160
# Velocity P-wave (km/s) = 5.92503 6.67859 6.31306
#
# Compressibility (1/GPa) = 0.03239437
#
# Stress axis : x y z
#
# Youngs Moduli (GPa) = 106.47659 48.10711 51.96221
#
# Poissons Ratio (x) = 0.28081 0.05252
# Poissons Ratio (y) = 0.62153 0.08660
# Poissons Ratio (z) = 0.10762 0.08017
#
# Static dielectric constant tensor:
#      x y z
#    x 1.704830 0.000000 -0.035450 
#    y 0.000000 1.670590 0.000000 
#    z -0.035450 0.000000 1.712310 
# 
# From -- ./inp_files/237090.got.cif
#   From: 2010.05.17/outbox.cif.g08.bks.cpg/sg12_119_cif.got.tgz:237090.got - 2010.06.03 13:09:07.
