data_PCOD9217375
_publ_section_title
;
Structure prediction by ZEFSAII (Michael W. Deem and Ramdas Pophale) SiO2 
 PCOD9217375
Probable space group: C 2/M
;
_chemical_formula_sum "Si O2"
_cell_formula_units_Z 20
_cell_length_a 5.477790
_cell_length_b 18.484324
_cell_length_c 8.046391
_cell_angle_alpha 90.000000
_cell_angle_beta 90.656380
_cell_angle_gamma 90.000000
_cell_volume 814.669739
_symmetry_space_group_name_H-M "C 2/M"
_symmetry_group_IT_number 12
_symmetry_cell_setting 'monoclinic'
loop_
_space_group_symop_operation_xyz
x,y,z
-x,y,-z
-x,-y,-z
x,-y,z
1/2+x,1/2+y,z
1/2-x,1/2+y,-z
1/2-x,1/2-y,-z
1/2+x,1/2-y,z
loop_
_atom_site_type_symbol
_atom_site_label
_atom_site_fract_x
_atom_site_fract_y
_atom_site_fract_z
Si Si1 0.257866 0.000000 0.103580
Si Si2 0.749278 0.278917 0.809792
Si Si3 0.543349 0.417798 0.685327
O O1 0.214352 0.069081 0.222560
O O2 0.500000 0.000000 0.000000
O O3 0.000000 0.000000 0.000000
O O4 0.003250 0.255274 0.732865
O O5 0.706304 0.364322 0.793857
O O6 0.250000 0.250000 0.000000
O O7 0.500000 0.390174 0.500000
O O8 0.646480 0.500000 0.668863
#
# Coordination Sequence:
#
# PCOD9217375 Si02
#       3
#     4   8   8
#     4  10  23  42  71 106 136 181 239 296 350 418
#     4  10  23  43  67 102 142 185 236 291 354 425
#     4   9  22  47  72 105 145 188 239 298 358 422
#
# _framework density 24.549824000000001
#
# number of rings (size 3 to 8) (size 9 to 14) (size 15 to 20)
#    1.200    1.200    0.000    0.000    5.600    4.800 
#    0.000   12.000    0.000    0.000    0.000    0.000 
#    0.000    0.000    0.000    0.000    0.000    0.000 
#
# Total GULP energy -55805.237861 kJ/mol
# GULP energy per Si atom -5580.523786 kJ/mol
# Density = 2.449395 g / cm^3
# Si number density = 24.549824 Si / 1000 Ang^3
#
#
#
# Elastic Constant Matrix: (Units=GPa)
#
#
# Indices 1 2 3 4 5 6 
#
# 1 181.1594 55.6483 48.9029 0.0000 -41.1733 0.0000
# 2 55.6483 146.0552 24.0228 0.0000 10.9966 0.0000
# 3 48.9029 24.0228 141.6939 0.0000 -1.2080 0.0000
# 4 0.0000 0.0000 0.0000 35.6363 0.0000 14.5478
# 5 -41.1733 10.9966 -1.2080 0.0000 28.4228 0.0000
# 6 0.0000 0.0000 0.0000 14.5478 0.0000 35.7126
#
#
#
# Elastic Compliance Matrix: (Units=1/GPa)
#
#
# Indices 1 2 3 4 5 6 
#
# 1 0.013059 -0.006021 -0.003306 0.000000 0.021106 0.000000
# 2 -0.006021 0.010045 0.000268 0.000000 -0.012597 0.000000
# 3 -0.003306 0.000268 0.008114 0.000000 -0.004548 0.000000
# 4 0.000000 0.000000 0.000000 0.033659 0.000000 -0.013711
# 5 0.021106 -0.012597 -0.004548 0.000000 0.070437 0.000000
# 6 0.000000 0.000000 0.000000 -0.013711 0.000000 0.033587
#
#
# Mechanical properties :
#
#
# Convention : Reuss Voigt Hill
#
# Bulk Modulus (GPa) = 76.34026 80.67292 78.50659
# Shear Modulus (GPa) = 26.12511 42.64331 34.38421
#
# Velocity S-wave (km/s) = 3.26570 4.17227 3.74650
# Velocity P-wave (km/s) = 6.73671 7.49284 7.12481
#
# Compressibility (1/GPa) = 0.01309925
#
# Stress axis : x y z
#
# Youngs Moduli (GPa) = 76.57625 99.55066 123.23704
#
# Poissons Ratio (x) = 0.59938 0.40746
# Poissons Ratio (y) = 0.46105 -0.03297
# Poissons Ratio (z) = 0.25318 -0.02663
#
# Static dielectric constant tensor:
#      x y z
#    x 2.001660 0.000000 0.040130 
#    y 0.000000 2.067020 0.000000 
#    z 0.040130 0.000000 1.987910 
# 
# From -- ./inp_files/32969.got.cif
#   From: 2010.05.17/outbox.cif.g08.bks.cpg/sg12_17_cif.got.tgz:32969.got - 2010.06.03 13:09:07.
