data_PCOD9217561
_publ_section_title
;
Structure prediction by ZEFSAII (Michael W. Deem and Ramdas Pophale) SiO2 
 PCOD9217561
Probable space group: C 2/M
;
_chemical_formula_sum "Si O2"
_cell_formula_units_Z 32
_cell_length_a 14.087138
_cell_length_b 20.382962
_cell_length_c 10.058990
_cell_angle_alpha 90.000000
_cell_angle_beta 150.135368
_cell_angle_gamma 90.000000
_cell_volume 1438.243350
_symmetry_space_group_name_H-M "C 2/M"
_symmetry_group_IT_number 12
_symmetry_cell_setting 'monoclinic'
loop_
_space_group_symop_operation_xyz
x,y,z
-x,y,-z
-x,-y,-z
x,-y,z
1/2+x,1/2+y,z
1/2-x,1/2+y,-z
1/2-x,1/2-y,-z
1/2+x,1/2-y,z
loop_
_atom_site_type_symbol
_atom_site_label
_atom_site_fract_x
_atom_site_fract_y
_atom_site_fract_z
Si Si1 0.012283 0.576217 0.861438
Si Si2 0.157729 0.202305 0.079119
Si Si3 0.647299 0.333546 0.780228
Si Si4 0.770185 0.072264 0.711779
O O1 0.071967 0.500000 0.933767
O O2 0.816117 0.579500 0.540624
O O3 0.169433 0.620553 0.981609
O O4 0.000000 0.597586 0.000000
O O5 0.282531 0.266127 0.202467
O O6 0.278089 0.138814 0.270232
O O7 0.064956 0.183464 0.824548
O O8 0.000000 0.215594 0.000000
O O9 0.500000 0.365828 0.500000
O O10 0.705996 0.000000 0.683355
O O11 0.000000 0.071175 0.000000
#
# Coordination Sequence:
#
# PCOD9217561 Si02
#       4
#     8   8   8   8
#     4  10  23  43  69 100 137 175 217 274 335 394
#     4  10  24  43  66  95 132 175 225 272 328 391
#     4  11  26  41  64 101 136 174 220 274 332 396
#     4   9  20  40  69  98 126 171 225 270 325 391
#
# _framework density 22.249364
#
# number of rings (size 3 to 8) (size 9 to 14) (size 15 to 20)
#    0.000    2.000    0.000    0.750   14.000    2.500 
#    0.000    2.500    0.000    0.000    0.000    0.000 
#    0.000    0.000    0.000    0.000    0.000    0.000 
#
# Total GULP energy -89348.194732 kJ/mol
# GULP energy per Si atom -5584.262171 kJ/mol
# Density = 2.219872 g / cm^3
# Si number density = 22.249364 Si / 1000 Ang^3
#
#
#
# Elastic Constant Matrix: (Units=GPa)
#
#
# Indices 1 2 3 4 5 6 
#
# 1 133.2248 24.6557 45.1124 0.0000 -18.9856 0.0000
# 2 24.6557 98.1269 8.6721 0.0000 -5.1986 0.0000
# 3 45.1124 8.6721 142.4865 0.0000 -8.5992 0.0000
# 4 0.0000 0.0000 0.0000 22.7950 0.0000 4.4549
# 5 -18.9856 -5.1986 -8.5992 0.0000 32.4270 0.0000
# 6 0.0000 0.0000 0.0000 4.4549 0.0000 -34.1931
#
#
#
# Elastic Compliance Matrix: (Units=1/GPa)
#
#
# Indices 1 2 3 4 5 6 
#
# 1 0.009370 -0.001888 -0.002580 0.000000 0.004499 0.000000
# 2 -0.001888 0.010699 -0.000017 0.000000 0.000605 0.000000
# 3 -0.002580 -0.000017 0.007871 0.000000 0.000574 0.000000
# 4 0.000000 0.000000 0.000000 0.042780 0.000000 0.005574
# 5 0.004499 0.000605 0.000574 0.000000 0.033722 0.000000
# 6 0.000000 0.000000 0.000000 0.005574 0.000000 -0.028519
#
#
# Mechanical properties :
#
#
# Convention : Reuss Voigt Hill
#
# Bulk Modulus (GPa) = 52.71570 58.96872 55.84221
# Shear Modulus (GPa) = 54.81483 23.89899 39.35691
#
# Velocity S-wave (km/s) = 4.96891 3.28097 4.21039
# Velocity P-wave (km/s) = 7.52759 6.39641 6.98494
#
# Compressibility (1/GPa) = 0.01896968
#
# Stress axis : x y z
#
# Youngs Moduli (GPa) = 106.71825 93.46806 127.05161
#
# Poissons Ratio (x) = 0.17647 0.32783
# Poissons Ratio (y) = 0.20149 0.00214
# Poissons Ratio (z) = 0.27537 0.00158
#
# Static dielectric constant tensor:
#      x y z
#    x 1.821530 0.000000 -0.019100 
#    y 0.000000 1.833670 0.000000 
#    z -0.019100 0.000000 1.874690 
# 
# From -- ./inp_files/38710.got.cif
#   From: 2010.05.17/outbox.cif.g08.bks.cpg/sg12_20_cif.got.tgz:38710.got - 2010.06.03 13:09:07.
