data_PCOD9217196
_publ_section_title
;
Structure prediction by ZEFSAII (Michael W. Deem and Ramdas Pophale) SiO2 
 PCOD9217196
Probable space group: C 2/M
;
_chemical_formula_sum "Si O2"
_cell_formula_units_Z 48
_cell_length_a 9.136852
_cell_length_b 26.752819
_cell_length_c 14.672912
_cell_angle_alpha 90.000000
_cell_angle_beta 38.584131
_cell_angle_gamma 90.000000
_cell_volume 2236.827616
_symmetry_space_group_name_H-M "C 2/M"
_symmetry_group_IT_number 12
_symmetry_cell_setting 'monoclinic'
loop_
_space_group_symop_operation_xyz
x,y,z
-x,y,-z
-x,-y,-z
x,-y,z
1/2+x,1/2+y,z
1/2-x,1/2+y,-z
1/2-x,1/2-y,-z
1/2+x,1/2-y,z
loop_
_atom_site_type_symbol
_atom_site_label
_atom_site_fract_x
_atom_site_fract_y
_atom_site_fract_z
Si Si1 0.065610 0.611572 0.570032
Si Si2 0.743193 0.244792 0.173412
Si Si3 0.992486 0.055907 0.612638
Si Si4 0.242017 0.290767 0.583530
Si Si5 0.603758 0.642884 0.847773
Si Si6 0.266342 0.359018 0.839855
O O1 0.243484 0.565893 0.480738
O O2 0.196651 0.655052 0.562107
O O3 0.000000 0.628242 0.500000
O O4 0.816194 0.603976 0.738942
O O5 0.500675 0.224279 0.243544
O O6 0.784538 0.198516 0.221972
O O7 0.697376 0.302812 0.216219
O O8 0.000000 0.246617 0.000000
O O9 0.836905 0.099050 0.733391
O O10 0.000000 0.060231 0.500000
O O11 0.912973 0.000000 0.675236
O O12 0.500000 0.289202 0.500000
O O13 0.250000 0.250000 0.500000
O O14 0.422362 0.635303 0.854970
O O15 0.500000 0.642005 0.000000
O O16 0.000000 0.364160 0.000000
#
# Coordination Sequence:
#
# PCOD9217196 Si02
#       6
#     8   8   8   8   8   8
#     4  11  22  43  67  95 133 172 226 281 348 409
#     4   9  22  40  61  94 141 186 230 267 329 404
#     4  11  26  48  73 101 130 172 231 290 353 415
#     4  11  23  36  60  93 137 180 226 279 334 398
#     4  10  23  42  64 102 142 181 229 269 325 418
#     4  11  24  44  70  99 139 183 227 279 342 399
#
# _framework density 21.458963000000001
#
# number of rings (size 3 to 8) (size 9 to 14) (size 15 to 20)
#    0.000    1.500    1.667    2.000    7.000    6.667 
#    6.000    3.333    0.000    1.000    0.000    0.000 
#    0.000    0.000    0.000    0.000    0.000    0.000 
#
# Total GULP energy -133975.350991 kJ/mol
# GULP energy per Si atom -5582.306291 kJ/mol
# Density = 2.141012 g / cm^3
# Si number density = 21.458963 Si / 1000 Ang^3
#
#
#
# Elastic Constant Matrix: (Units=GPa)
#
#
# Indices 1 2 3 4 5 6 
#
# 1 126.8675 23.2425 42.0280 0.0000 -25.7077 0.0000
# 2 23.2425 96.6101 35.4983 0.0000 -0.2626 0.0000
# 3 42.0280 35.4983 114.2937 0.0000 -18.9254 0.0000
# 4 0.0000 0.0000 0.0000 27.3666 0.0000 -5.4440
# 5 -25.7077 -0.2626 -18.9254 0.0000 40.2397 0.0000
# 6 0.0000 0.0000 0.0000 -5.4440 0.0000 5.9923
#
#
#
# Elastic Compliance Matrix: (Units=1/GPa)
#
#
# Indices 1 2 3 4 5 6 
#
# 1 0.010006 -0.001538 -0.002326 0.000000 0.005289 0.000000
# 2 -0.001538 0.012038 -0.003604 0.000000 -0.002599 0.000000
# 3 -0.002326 -0.003604 0.011359 0.000000 0.003833 0.000000
# 4 0.000000 0.000000 0.000000 0.044602 0.000000 0.040521
# 5 0.005289 -0.002599 0.003833 0.000000 0.030015 0.000000
# 6 0.000000 0.000000 0.000000 0.040521 0.000000 0.203695
#
#
# Mechanical properties :
#
#
# Convention : Reuss Voigt Hill
#
# Bulk Modulus (GPa) = 54.15029 59.92321 57.03675
# Shear Modulus (GPa) = 15.02378 30.51987 22.77182
#
# Velocity S-wave (km/s) = 2.64884 3.77536 3.26111
# Velocity P-wave (km/s) = 5.88594 6.85490 6.38881
#
# Compressibility (1/GPa) = 0.01846712
#
# Stress axis : x y z
#
# Youngs Moduli (GPa) = 99.93746 83.07032 88.03938
#
# Poissons Ratio (x) = 0.12778 0.20478
# Poissons Ratio (y) = 0.15373 0.31726
# Poissons Ratio (z) = 0.23246 0.29935
#
# Static dielectric constant tensor:
#      x y z
#    x 1.843450 0.000000 0.014330 
#    y 0.000000 1.755820 0.000000 
#    z 0.014330 0.000000 1.886340 
# 
# From -- ./inp_files/200135.got.cif
#   From: 2010.05.17/outbox.cif.g08.bks.cpg/sg12_101_cif.got.tgz:200135.got - 2010.06.03 13:09:07.
