data_PCOD9217659
_publ_section_title
;
Structure prediction by ZEFSAII (Michael W. Deem and Ramdas Pophale) SiO2 
 PCOD9217659
Probable space group: C 2/M
;
_chemical_formula_sum "Si O2"
_cell_formula_units_Z 40
_cell_length_a 17.872516
_cell_length_b 24.903935
_cell_length_c 9.225317
_cell_angle_alpha 90.000000
_cell_angle_beta 151.184522
_cell_angle_gamma 90.000000
_cell_volume 1979.125528
_symmetry_space_group_name_H-M "C 2/M"
_symmetry_group_IT_number 12
_symmetry_cell_setting 'monoclinic'
loop_
_space_group_symop_operation_xyz
x,y,z
-x,y,-z
-x,-y,-z
x,-y,z
1/2+x,1/2+y,z
1/2-x,1/2+y,-z
1/2-x,1/2-y,-z
1/2+x,1/2-y,z
loop_
_atom_site_type_symbol
_atom_site_label
_atom_site_fract_x
_atom_site_fract_y
_atom_site_fract_z
Si Si1 0.046590 0.639158 0.241585
Si Si2 0.327919 0.436705 0.775353
Si Si3 0.913047 0.147049 0.130128
Si Si4 0.234130 0.161375 0.815848
Si Si5 0.262685 0.270184 0.687337
O O1 0.182387 0.594928 0.458322
O O2 0.117974 0.689065 0.450897
O O3 0.000000 0.655957 0.000000
O O4 0.886643 0.625596 0.050218
O O5 0.301181 0.500000 0.730471
O O6 0.500000 0.426798 0.000000
O O7 0.341783 0.408560 0.954681
O O8 0.816260 0.167364 0.103795
O O9 0.087629 0.138584 0.478995
O O10 0.900359 0.190853 0.979012
O O11 0.260366 0.219418 0.787895
O O12 0.250000 0.250000 0.500000
#
# Coordination Sequence:
#
# PCOD9217659 Si02
#       5
#     8   8   8   8   8
#     4  11  22  38  63  93 125 162 215 256 306 376
#     4  10  23  44  68  90 119 161 210 271 329 374
#     4  10  24  40  61  90 130 168 212 254 315 375
#     4  11  22  39  59  93 132 170 202 255 308 372
#     4  11  22  36  60  92 132 170 209 251 305 373
#
# _framework density 20.210947000000001
#
# number of rings (size 3 to 8) (size 9 to 14) (size 15 to 20)
#    0.000    1.400    2.000    3.000    2.800    5.200 
#    0.000    5.000    0.000    0.000    0.000    0.000 
#    0.000    0.000    0.000    0.000    0.000    0.000 
#
# Total GULP energy -111587.110693 kJ/mol
# GULP energy per Si atom -5579.355535 kJ/mol
# Density = 2.016495 g / cm^3
# Si number density = 20.210947 Si / 1000 Ang^3
#
#
#
# Elastic Constant Matrix: (Units=GPa)
#
#
# Indices 1 2 3 4 5 6 
#
# 1 96.6630 33.5188 49.0137 0.0000 7.0848 0.0000
# 2 33.5188 75.8947 39.2149 0.0000 3.5104 0.0000
# 3 49.0137 39.2149 119.6073 0.0000 6.8250 0.0000
# 4 0.0000 0.0000 0.0000 13.0005 0.0000 3.1413
# 5 7.0848 3.5104 6.8250 0.0000 34.3021 0.0000
# 6 0.0000 0.0000 0.0000 3.1413 0.0000 22.4170
#
#
#
# Elastic Compliance Matrix: (Units=1/GPa)
#
#
# Indices 1 2 3 4 5 6 
#
# 1 0.014027 -0.003850 -0.004393 0.000000 -0.001629 0.000000
# 2 -0.003850 0.016932 -0.003965 0.000000 -0.000149 0.000000
# 3 -0.004393 -0.003965 0.011517 0.000000 -0.000978 0.000000
# 4 0.000000 0.000000 0.000000 0.079616 0.000000 -0.011157
# 5 -0.001629 -0.000149 -0.000978 0.000000 0.029699 0.000000
# 6 0.000000 0.000000 0.000000 -0.011157 0.000000 0.046172
#
#
# Mechanical properties :
#
#
# Convention : Reuss Voigt Hill
#
# Bulk Modulus (GPa) = 55.37164 59.51775 57.44470
# Shear Modulus (GPa) = 21.89146 25.30508 23.59827
#
# Velocity S-wave (km/s) = 3.29469 3.54227 3.42072
# Velocity P-wave (km/s) = 6.47531 6.80018 6.63973
#
# Compressibility (1/GPa) = 0.01805979
#
# Stress axis : x y z
#
# Youngs Moduli (GPa) = 71.29067 59.05904 86.82976
#
# Poissons Ratio (x) = 0.22737 0.38144
# Poissons Ratio (y) = 0.27446 0.34431
# Poissons Ratio (z) = 0.31318 0.23419
#
# Static dielectric constant tensor:
#      x y z
#    x 1.753430 0.000000 0.030100 
#    y 0.000000 1.700440 0.000000 
#    z 0.030100 0.000000 1.769840 
# 
# From -- ./inp_files/79318.got.cif
#   From: 2010.05.17/outbox.cif.g08.bks.cpg/sg12_40_cif.got.tgz:79318.got - 2010.06.03 13:09:07.
