data_PCOD9217427
_publ_section_title
;
Structure prediction by ZEFSAII (Michael W. Deem and Ramdas Pophale) SiO2 
 PCOD9217427
Probable space group: C 2/M
;
_chemical_formula_sum "Si O2"
_cell_formula_units_Z 40
_cell_length_a 16.521237
_cell_length_b 10.861197
_cell_length_c 10.135943
_cell_angle_alpha 90.000000
_cell_angle_beta 106.915612
_cell_angle_gamma 90.000000
_cell_volume 1740.106275
_symmetry_space_group_name_H-M "C 2/M"
_symmetry_group_IT_number 12
_symmetry_cell_setting 'monoclinic'
loop_
_space_group_symop_operation_xyz
x,y,z
-x,y,-z
-x,-y,-z
x,-y,z
1/2+x,1/2+y,z
1/2-x,1/2+y,-z
1/2-x,1/2-y,-z
1/2+x,1/2-y,z
loop_
_atom_site_type_symbol
_atom_site_label
_atom_site_fract_x
_atom_site_fract_y
_atom_site_fract_z
Si Si1 0.659713 0.803468 0.291997
Si Si2 0.305608 0.134028 0.982675
Si Si3 0.083866 0.135668 0.630409
Si Si4 0.525214 0.736569 0.866906
Si Si5 0.199457 0.365902 0.604309
O O1 0.692294 0.865252 0.174598
O O2 0.559313 0.795124 0.233757
O O3 0.703979 0.668930 0.316735
O O4 0.687820 0.863958 0.441288
O O5 0.276588 0.000000 0.016248
O O6 0.250000 0.250000 0.000000
O O7 0.401026 0.163886 0.073782
O O8 0.059115 0.144084 0.772470
O O9 0.000000 0.148166 0.500000
O O10 0.120528 0.000000 0.619050
O O11 0.143573 0.748095 0.629298
O O12 0.500000 0.686354 0.000000
O O13 0.175080 0.500000 0.644263
#
# Coordination Sequence:
#
# PCOD9217427 Si02
#       5
#     8   8   8   8   8
#     4  10  23  43  65 102 136 177 224 288 342 399
#     4  11  25  45  70  98 136 180 228 281 342 410
#     4  11  24  44  67  97 138 182 226 279 341 403
#     4  10  23  44  69 102 135 176 228 283 339 403
#     4  11  24  42  70 102 137 180 230 283 339 406
#
# _framework density 22.987103000000001
#
# number of rings (size 3 to 8) (size 9 to 14) (size 15 to 20)
#    0.000    1.400    2.000    1.800    0.000   15.600 
#    0.000    4.000    0.000    0.000    0.000    0.000 
#    0.000    0.000    0.000    0.000    0.000    0.000 
#
# Total GULP energy -111835.714735 kJ/mol
# GULP energy per Si atom -5591.785737 kJ/mol
# Density = 2.293478 g / cm^3
# Si number density = 22.987103 Si / 1000 Ang^3
#
#
#
# Elastic Constant Matrix: (Units=GPa)
#
#
# Indices 1 2 3 4 5 6 
#
# 1 108.7477 70.4540 26.4636 0.0000 17.2807 0.0000
# 2 70.4540 201.2658 35.4863 0.0000 -5.3582 0.0000
# 3 26.4636 35.4863 127.7503 0.0000 -1.3445 0.0000
# 4 0.0000 0.0000 0.0000 5.2039 0.0000 -6.9142
# 5 17.2807 -5.3582 -1.3445 0.0000 48.6226 0.0000
# 6 0.0000 0.0000 0.0000 -6.9142 0.0000 17.6361
#
#
#
# Elastic Compliance Matrix: (Units=1/GPa)
#
#
# Indices 1 2 3 4 5 6 
#
# 1 0.013359 -0.004542 -0.001561 0.000000 -0.005292 0.000000
# 2 -0.004542 0.006783 -0.000919 0.000000 0.002336 0.000000
# 3 -0.001561 -0.000919 0.008414 0.000000 0.000686 0.000000
# 4 0.000000 0.000000 0.000000 0.401090 0.000000 0.157248
# 5 -0.005292 0.002336 0.000686 0.000000 0.022724 0.000000
# 6 0.000000 0.000000 0.000000 0.157248 0.000000 0.118351
#
#
# Mechanical properties :
#
#
# Convention : Reuss Voigt Hill
#
# Bulk Modulus (GPa) = 68.91144 78.06351 73.48747
# Shear Modulus (GPa) = 8.48030 34.64985 21.56508
#
# Velocity S-wave (km/s) = 1.92280 3.88669 3.06623
# Velocity P-wave (km/s) = 5.91379 7.36038 6.67638
#
# Compressibility (1/GPa) = 0.01451138
#
# Stress axis : x y z
#
# Youngs Moduli (GPa) = 74.85587 147.43489 118.85521
#
# Poissons Ratio (x) = 0.66964 0.18558
# Poissons Ratio (y) = 0.33999 0.10918
# Poissons Ratio (z) = 0.11688 0.13544
#
# Static dielectric constant tensor:
#      x y z
#    x 1.872010 0.000000 -0.016980 
#    y 0.000000 1.868330 0.000000 
#    z -0.016980 0.000000 1.861340 
# 
# From -- ./inp_files/83666.got.cif
#   From: 2010.05.17/outbox.cif.g08.bks.cpg/sg12_42_cif.got.tgz:83666.got - 2010.06.03 13:09:07.
