data_PCOD9217613
_publ_section_title
;
Structure prediction by ZEFSAII (Michael W. Deem and Ramdas Pophale) SiO2 
 PCOD9217613
Probable space group: C 2/M
;
_chemical_formula_sum "Si O2"
_cell_formula_units_Z 40
_cell_length_a 9.556329
_cell_length_b 17.732392
_cell_length_c 13.743843
_cell_angle_alpha 90.000000
_cell_angle_beta 68.073703
_cell_angle_gamma 90.000000
_cell_volume 2160.517346
_symmetry_space_group_name_H-M "C 2/M"
_symmetry_group_IT_number 12
_symmetry_cell_setting 'monoclinic'
loop_
_space_group_symop_operation_xyz
x,y,z
-x,y,-z
-x,-y,-z
x,-y,z
1/2+x,1/2+y,z
1/2-x,1/2+y,-z
1/2-x,1/2-y,-z
1/2+x,1/2-y,z
loop_
_atom_site_type_symbol
_atom_site_label
_atom_site_fract_x
_atom_site_fract_y
_atom_site_fract_z
Si Si1 0.788920 0.832507 0.948239
Si Si2 0.895170 0.818675 0.242925
Si Si3 0.685345 0.913479 0.164380
Si Si4 0.148190 0.355923 0.776884
Si Si5 0.533570 0.587780 0.378202
O O1 0.684293 0.849847 0.882569
O O2 0.959278 0.831114 0.864503
O O3 0.750000 0.750000 0.000000
O O4 0.760446 0.890758 0.042080
O O5 0.755276 0.858677 0.227152
O O6 0.867721 0.729675 0.257193
O O7 0.937010 0.858163 0.333304
O O8 0.507570 0.898505 0.200373
O O9 0.716782 0.000000 0.179927
O O10 0.291600 0.395303 0.690626
O O11 0.500000 0.600979 0.500000
O O12 0.501470 0.500000 0.363994
#
# Coordination Sequence:
#
# PCOD9217613 Si02
#       5
#     8   8   8   8   8
#     4  11  21  37  59  85 121 166 200 226 286 356
#     4  11  22  39  63  86 119 158 201 246 290 359
#     4  12  24  35  57  93 125 155 199 251 292 344
#     4  11  22  39  63  86 119 158 201 246 290 359
#     4  10  23  44  65  84 115 157 199 250 312 362
#
# _framework density 18.514084
#
# number of rings (size 3 to 8) (size 9 to 14) (size 15 to 20)
#    0.000    1.000    4.000    3.600    0.000    7.200 
#    0.000    1.000    0.000    3.600    0.000    0.000 
#    0.000    0.000    0.000    0.000    0.000    0.000 
#
# Total GULP energy -111852.279936 kJ/mol
# GULP energy per Si atom -5592.613997 kJ/mol
# Density = 1.847195 g / cm^3
# Si number density = 18.514084 Si / 1000 Ang^3
#
#
#
# Elastic Constant Matrix: (Units=GPa)
#
#
# Indices 1 2 3 4 5 6 
#
# 1 54.8566 -27.0799 3.2180 0.0000 9.2815 0.0000
# 2 -27.0799 58.6529 11.0380 0.0000 4.6175 0.0000
# 3 3.2180 11.0380 76.3021 0.0000 4.8173 0.0000
# 4 0.0000 0.0000 0.0000 20.0736 0.0000 -7.0957
# 5 9.2815 4.6175 4.8173 0.0000 12.9540 0.0000
# 6 0.0000 0.0000 0.0000 -7.0957 0.0000 13.0795
#
#
#
# Elastic Compliance Matrix: (Units=1/GPa)
#
#
# Indices 1 2 3 4 5 6 
#
# 1 0.031545 0.017150 -0.002046 0.000000 -0.027954 0.000000
# 2 0.017150 0.027232 -0.003353 0.000000 -0.020748 0.000000
# 3 -0.002046 -0.003353 0.013834 0.000000 -0.002483 0.000000
# 4 0.000000 0.000000 0.000000 0.061637 0.000000 0.033438
# 5 -0.027954 -0.020748 -0.002483 0.000000 0.105545 0.000000
# 6 0.000000 0.000000 0.000000 0.033438 0.000000 0.094596
#
#
# Mechanical properties :
#
#
# Convention : Reuss Voigt Hill
#
# Bulk Modulus (GPa) = 10.40440 18.24043 14.32241
# Shear Modulus (GPa) = 14.58045 22.73045 18.65545
#
# Velocity S-wave (km/s) = 2.80935 3.50771 3.17777
# Velocity P-wave (km/s) = 4.01935 5.12630 4.60620
#
# Compressibility (1/GPa) = 0.09611322
#
# Stress axis : x y z
#
# Youngs Moduli (GPa) = 31.70040 36.72143 72.28621
#
# Poissons Ratio (x) = -0.62978 0.14793
# Poissons Ratio (y) = -0.54367 0.24236
# Poissons Ratio (z) = 0.06487 0.12312
#
# Static dielectric constant tensor:
#      x y z
#    x 1.635890 0.000000 0.003510 
#    y 0.000000 1.884720 0.000000 
#    z 0.003510 0.000000 1.610000 
# 
# From -- ./inp_files/79246.got.cif
#   From: 2010.05.17/outbox.cif.g08.bks.cpg/sg12_40_cif.got.tgz:79246.got - 2010.06.03 13:09:07.
