data_PCOD9217610
_publ_section_title
;
Structure prediction by ZEFSAII (Michael W. Deem and Ramdas Pophale) SiO2 
 PCOD9217610
Probable space group: C 2/M
;
_chemical_formula_sum "Si O2"
_cell_formula_units_Z 36
_cell_length_a 14.212927
_cell_length_b 11.898049
_cell_length_c 12.948498
_cell_angle_alpha 90.000000
_cell_angle_beta 122.834584
_cell_angle_gamma 90.000000
_cell_volume 1839.847185
_symmetry_space_group_name_H-M "C 2/M"
_symmetry_group_IT_number 12
_symmetry_cell_setting 'monoclinic'
loop_
_space_group_symop_operation_xyz
x,y,z
-x,y,-z
-x,-y,-z
x,-y,z
1/2+x,1/2+y,z
1/2-x,1/2+y,-z
1/2-x,1/2-y,-z
1/2+x,1/2-y,z
loop_
_atom_site_type_symbol
_atom_site_label
_atom_site_fract_x
_atom_site_fract_y
_atom_site_fract_z
Si Si1 0.149811 0.256292 0.356930
Si Si2 0.811644 0.500000 0.094409
Si Si3 0.946308 0.178158 0.364003
Si Si4 0.080492 0.500000 0.240011
Si Si5 0.233105 0.000000 0.816666
Si Si6 0.212434 0.626647 0.721881
O O1 0.250000 0.250000 0.500000
O O2 0.119358 0.385926 0.319368
O O3 0.190874 0.195585 0.277063
O O4 0.042923 0.191516 0.337840
O O5 0.778835 0.604636 0.149725
O O6 0.945623 0.500000 0.156391
O O7 0.752102 0.500000 0.949896
O O8 0.898363 0.301217 0.361727
O O9 0.000000 0.130153 0.500000
O O10 0.841879 0.105744 0.263140
O O11 0.148292 0.500000 0.172181
O O12 0.205590 0.500000 0.673983
#
# Coordination Sequence:
#
# PCOD9217610 Si02
#       6
#     8   4   8   4   4   8
#     4  12  24  40  69 101 136 176 215 282 335 398
#     4  10  25  47  69  90 136 185 224 267 327 406
#     4  12  24  43  68 100 136 175 215 282 339 391
#     4  12  23  44  65 103 128 173 236 270 330 398
#     4  12  26  45  66 101 135 175 226 277 335 390
#     4  10  23  44  64  98 131 171 226 258 335 395
#
# _framework density 19.566842999999999
#
# number of rings (size 3 to 8) (size 9 to 14) (size 15 to 20)
#    0.667    0.000    6.667    0.667    3.111    1.333 
#    0.000    2.222    0.000    0.000    0.000    0.000 
#    0.000    0.000    0.000    0.000    0.000    0.000 
#
# Total GULP energy -100472.557419 kJ/mol
# GULP energy per Si atom -5581.808745 kJ/mol
# Density = 1.952231 g / cm^3
# Si number density = 19.566843 Si / 1000 Ang^3
#
#
#
# Elastic Constant Matrix: (Units=GPa)
#
#
# Indices 1 2 3 4 5 6 
#
# 1 167.6571 39.6326 49.1066 0.0000 -22.0193 0.0000
# 2 39.6326 114.9114 57.9158 0.0000 1.2948 0.0000
# 3 49.1066 57.9158 121.3430 0.0000 -12.5821 0.0000
# 4 0.0000 0.0000 0.0000 22.4137 0.0000 2.2205
# 5 -22.0193 1.2948 -12.5821 0.0000 25.8318 0.0000
# 6 0.0000 0.0000 0.0000 2.2205 0.0000 2.1157
#
#
#
# Elastic Compliance Matrix: (Units=1/GPa)
#
#
# Indices 1 2 3 4 5 6 
#
# 1 0.007645 -0.001908 -0.001577 0.000000 0.005844 0.000000
# 2 -0.001908 0.012227 -0.005578 0.000000 -0.004956 0.000000
# 3 -0.001577 -0.005578 0.012039 0.000000 0.004799 0.000000
# 4 0.000000 0.000000 0.000000 0.049793 0.000000 -0.052260
# 5 0.005844 -0.004956 0.004799 0.000000 0.046279 0.000000
# 6 0.000000 0.000000 0.000000 -0.052260 0.000000 0.527514
#
#
# Mechanical properties :
#
#
# Convention : Reuss Voigt Hill
#
# Bulk Modulus (GPa) = 72.53752 77.46904 75.00328
# Shear Modulus (GPa) = 7.37225 27.22265 17.29745
#
# Velocity S-wave (km/s) = 1.94317 3.73401 2.97647
# Velocity P-wave (km/s) = 6.49513 7.63337 7.08714
#
# Compressibility (1/GPa) = 0.01378597
#
# Stress axis : x y z
#
# Youngs Moduli (GPa) = 130.80358 81.78357 83.06075
#
# Poissons Ratio (x) = 0.15601 0.13103
# Poissons Ratio (y) = 0.24951 0.46330
# Poissons Ratio (z) = 0.20634 0.45618
#
# Static dielectric constant tensor:
#      x y z
#    x 1.695210 0.000000 -0.027510 
#    y 0.000000 1.720560 0.000000 
#    z -0.027510 0.000000 1.654240 
# 
# From -- ./inp_files/140683.got.cif
#   From: 2010.05.17/outbox.cif.g08.bks.cpg/sg12_71_cif.got.tgz:140683.got - 2010.06.03 13:09:07.
