data_PCOD9217519
_publ_section_title
;
Structure prediction by ZEFSAII (Michael W. Deem and Ramdas Pophale) SiO2 
 PCOD9217519
Probable space group: C 2/M
;
_chemical_formula_sum "Si O2"
_cell_formula_units_Z 56
_cell_length_a 18.267263
_cell_length_b 17.887821
_cell_length_c 13.685650
_cell_angle_alpha 90.000000
_cell_angle_beta 36.701105
_cell_angle_gamma 90.000000
_cell_volume 2672.615305
_symmetry_space_group_name_H-M "C 2/M"
_symmetry_group_IT_number 12
_symmetry_cell_setting 'monoclinic'
loop_
_space_group_symop_operation_xyz
x,y,z
-x,y,-z
-x,-y,-z
x,-y,z
1/2+x,1/2+y,z
1/2-x,1/2+y,-z
1/2-x,1/2-y,-z
1/2+x,1/2-y,z
loop_
_atom_site_type_symbol
_atom_site_label
_atom_site_fract_x
_atom_site_fract_y
_atom_site_fract_z
Si Si1 0.147871 0.687797 0.132628
Si Si2 0.524771 0.291744 0.576980
Si Si3 0.701440 0.413039 0.890439
Si Si4 0.742621 0.303497 0.663692
Si Si5 0.457671 0.188162 0.157360
Si Si6 0.197170 0.582761 0.558949
Si Si7 0.010144 0.080814 0.742562
O O1 0.059807 0.720011 0.311942
O O2 0.214811 0.615765 0.108228
O O3 0.066118 0.681299 0.121524
O O4 0.250000 0.750000 0.000000
O O5 0.500000 0.327725 0.500000
O O6 0.664677 0.265367 0.423331
O O7 0.486261 0.349277 0.700590
O O8 0.728698 0.500000 0.834349
O O9 0.715398 0.353056 0.788363
O O10 0.561832 0.410810 0.079053
O O11 0.620942 0.265268 0.748203
O O12 0.816207 0.358028 0.512948
O O13 0.367309 0.119624 0.279292
O O14 0.500000 0.186060 0.000000
O O15 0.148510 0.500000 0.591100
O O16 0.343731 0.577817 0.407880
O O17 0.968054 0.000000 0.747562
#
# Coordination Sequence:
#
# PCOD9217519 Si02
#       7
#     8   8   8   8   8   8   8
#     4  12  24  43  66  98 137 181 228 279 341 407
#     4  12  23  40  69 100 131 176 231 275 340 410
#     4  11  25  45  70 105 143 179 224 283 354 413
#     4  12  24  43  70 105 133 176 229 286 341 409
#     4  12  27  42  71 101 132 181 233 286 340 404
#     4  11  24  44  67  96 137 176 222 280 338 404
#     4  10  23  43  67  95 135 178 222 284 339 397
#
# _framework density 20.953258999999999
#
# number of rings (size 3 to 8) (size 9 to 14) (size 15 to 20)
#    0.000    0.571    5.714    2.571    2.000    1.143 
#    0.000    2.857    0.000    0.000    0.000    0.000 
#    0.000    0.000    0.000    0.000    0.000    0.000 
#
# Total GULP energy -156312.649183 kJ/mol
# GULP energy per Si atom -5582.594614 kJ/mol
# Density = 2.090557 g / cm^3
# Si number density = 20.953259 Si / 1000 Ang^3
#
#
#
# Elastic Constant Matrix: (Units=GPa)
#
#
# Indices 1 2 3 4 5 6 
#
# 1 45.6093 14.1855 6.8470 -0.0001 -2.8582 0.0001
# 2 14.1855 108.1393 21.6010 -0.0002 0.2463 0.0003
# 3 6.8470 21.6010 92.6174 -0.0005 2.6300 0.0008
# 4 -0.0001 -0.0002 -0.0005 190.7108 -0.0001 -228.9523
# 5 -2.8582 0.2463 2.6300 -0.0001 34.2591 0.0001
# 6 0.0001 0.0003 0.0008 -228.9523 0.0001 372.1495
#
#
#
# Elastic Compliance Matrix: (Units=1/GPa)
#
#
# Indices 1 2 3 4 5 6 
#
# 1 0.023094 -0.002813 -0.001109 0.000000 0.002032 0.000000
# 2 -0.002813 0.010042 -0.002130 0.000000 -0.000143 0.000000
# 3 -0.001109 -0.002130 0.011403 0.000000 -0.000953 0.000000
# 4 0.000000 0.000000 0.000000 0.020058 0.000000 0.012340
# 5 0.002032 -0.000143 -0.000953 0.000000 0.029433 0.000000
# 6 0.000000 0.000000 0.000000 0.012340 0.000000 0.010279
#
#
# Mechanical properties :
#
#
# Convention : Reuss Voigt Hill
#
# Bulk Modulus (GPa) = 30.83024 36.84810 33.83917
# Shear Modulus (GPa) = 39.30080 133.00605 86.15343
#
# Velocity S-wave (km/s) = 4.33557 7.97592 6.41921
# Velocity P-wave (km/s) = 6.30941 10.12148 8.43365
#
# Compressibility (1/GPa) = 0.03243569
#
# Stress axis : x y z
#
# Youngs Moduli (GPa) = 43.30143 99.58093 87.69666
#
# Poissons Ratio (x) = 0.28007 0.09726
# Poissons Ratio (y) = 0.12179 0.18680
# Poissons Ratio (z) = 0.04802 0.21212
#
# Static dielectric constant tensor:
#      x y z
#    x 1.796450 0.000000 -0.035590 
#    y 0.000000 1.792970 0.000000 
#    z -0.035590 0.000000 1.754130 
# 
# From -- ./inp_files/234657.got.cif
#   From: 2010.05.17/outbox.cif.g08.bks.cpg/sg12_118_cif.got.tgz:234657.got - 2010.06.03 13:09:07.
