data_PCOD9217632
_publ_section_title
;
Structure prediction by ZEFSAII (Michael W. Deem and Ramdas Pophale) SiO2 
 PCOD9217632
Probable space group: C 2/M
;
_chemical_formula_sum "Si O2"
_cell_formula_units_Z 48
_cell_length_a 14.493506
_cell_length_b 26.570168
_cell_length_c 10.329934
_cell_angle_alpha 90.000000
_cell_angle_beta 147.892773
_cell_angle_gamma 90.000000
_cell_volume 2114.331135
_symmetry_space_group_name_H-M "C 2/M"
_symmetry_group_IT_number 12
_symmetry_cell_setting 'monoclinic'
loop_
_space_group_symop_operation_xyz
x,y,z
-x,y,-z
-x,-y,-z
x,-y,z
1/2+x,1/2+y,z
1/2-x,1/2+y,-z
1/2-x,1/2-y,-z
1/2+x,1/2-y,z
loop_
_atom_site_type_symbol
_atom_site_label
_atom_site_fract_x
_atom_site_fract_y
_atom_site_fract_z
Si Si1 0.872622 0.851443 0.954840
Si Si2 0.792376 0.885144 0.269577
Si Si3 0.190768 0.554448 0.673936
Si Si4 0.582098 0.890567 0.288470
Si Si5 0.117593 0.790245 0.783370
Si Si6 0.831409 0.715478 0.485695
O O1 0.755241 0.899462 0.839515
O O2 0.789100 0.806880 0.770182
O O3 0.936529 0.828103 0.163314
O O4 0.000000 0.874410 0.000000
O O5 0.713506 0.889045 0.321178
O O6 0.808219 0.827718 0.236356
O O7 0.000000 0.903126 0.500000
O O8 0.618437 0.905284 0.985244
O O9 0.281935 0.500000 0.789288
O O10 0.166896 0.574144 0.498628
O O11 0.000000 0.547638 0.500000
O O12 0.581600 0.833924 0.347304
O O13 0.958634 0.753987 0.570843
O O14 0.250000 0.750000 0.000000
O O15 0.750000 0.750000 0.500000
#
# Coordination Sequence:
#
# PCOD9217632 Si02
#       6
#     8   8   8   8   8   8
#     4  11  25  41  63  97 133 174 232 279 337 407
#     4  11  24  40  64  95 135 182 230 278 331 405
#     4  10  23  47  76 101 128 169 226 295 359 412
#     4  10  23  44  66  96 136 181 228 282 349 409
#     4  12  25  36  59  94 136 185 228 275 324 400
#     4  11  22  38  58  87 132 184 223 272 329 402
#
# _framework density 22.702216
#
# number of rings (size 3 to 8) (size 9 to 14) (size 15 to 20)
#    0.000    1.167    3.333    2.000    9.333    0.333 
#    0.000    1.667    0.000    2.000    0.000    0.000 
#    0.000    0.000    0.000    0.000    0.000    0.000 
#
# Total GULP energy -133720.948679 kJ/mol
# GULP energy per Si atom -5571.706195 kJ/mol
# Density = 2.265055 g / cm^3
# Si number density = 22.702216 Si / 1000 Ang^3
#
#
#
# Elastic Constant Matrix: (Units=GPa)
#
#
# Indices 1 2 3 4 5 6 
#
# 1 142.2403 15.2601 12.8283 0.0000 -1.4639 0.0000
# 2 15.2601 78.9538 0.0590 0.0000 -4.3778 0.0000
# 3 12.8283 0.0590 75.0996 0.0000 12.0613 0.0000
# 4 0.0000 0.0000 0.0000 -67.9878 0.0000 11.9000
# 5 -1.4639 -4.3778 12.0613 0.0000 36.3334 0.0000
# 6 0.0000 0.0000 0.0000 11.9000 0.0000 80.2661
#
#
#
# Elastic Compliance Matrix: (Units=1/GPa)
#
#
# Indices 1 2 3 4 5 6 
#
# 1 0.007305 -0.001379 -0.001339 0.000000 0.000573 0.000000
# 2 -0.001379 0.013016 -0.000019 0.000000 0.001519 0.000000
# 3 -0.001339 -0.000019 0.014317 0.000000 -0.004809 0.000000
# 4 0.000000 0.000000 0.000000 -0.014336 0.000000 0.002125
# 5 0.000573 0.001519 -0.004809 0.000000 0.029325 0.000000
# 6 0.000000 0.000000 0.000000 0.002125 0.000000 0.012143
#
#
# Mechanical properties :
#
#
# Convention : Reuss Voigt Hill
#
# Bulk Modulus (GPa) = 34.28745 39.17650 36.73197
# Shear Modulus (GPa) = 64.96472 27.59875 46.28173
#
# Velocity S-wave (km/s) = 5.35520 3.49045 4.52003
# Velocity P-wave (km/s) = 7.30571 5.79124 6.59211
#
# Compressibility (1/GPa) = 0.02916519
#
# Stress axis : x y z
#
# Youngs Moduli (GPa) = 136.89365 76.82595 69.84874
#
# Poissons Ratio (x) = 0.10595 0.09351
# Poissons Ratio (y) = 0.18880 0.00130
# Poissons Ratio (z) = 0.18326 0.00143
#
# Static dielectric constant tensor:
#      x y z
#    x 1.957350 0.000000 -0.453730 
#    y 0.000000 2.036650 0.000000 
#    z -0.453730 0.000000 1.509460 
# 
# From -- ./inp_files/149841.got.cif
#   From: 2010.05.17/outbox.cif.g08.bks.cpg/sg12_75_cif.got.tgz:149841.got - 2010.06.03 13:09:07.
