data_PCOD9217049
_publ_section_title
;
Structure prediction by ZEFSAII (Michael W. Deem and Ramdas Pophale) SiO2 
 PCOD9217049
Probable space group: C 2/M
;
_chemical_formula_sum "Si O2"
_cell_formula_units_Z 40
_cell_length_a 17.777888
_cell_length_b 14.013272
_cell_length_c 13.490899
_cell_angle_alpha 90.000000
_cell_angle_beta 33.726220
_cell_angle_gamma 90.000000
_cell_volume 1866.077575
_symmetry_space_group_name_H-M "C 2/M"
_symmetry_group_IT_number 12
_symmetry_cell_setting 'monoclinic'
loop_
_space_group_symop_operation_xyz
x,y,z
-x,y,-z
-x,-y,-z
x,-y,z
1/2+x,1/2+y,z
1/2-x,1/2+y,-z
1/2-x,1/2-y,-z
1/2+x,1/2-y,z
loop_
_atom_site_type_symbol
_atom_site_label
_atom_site_fract_x
_atom_site_fract_y
_atom_site_fract_z
Si Si1 0.411438 0.660773 0.896694
Si Si2 0.897015 0.890457 0.692936
Si Si3 0.708572 0.676478 0.631083
Si Si4 0.197115 0.500000 0.191316
Si Si5 0.861381 0.315826 0.109731
Si Si6 0.890155 0.500000 0.482662
O O1 0.402328 0.667188 0.788631
O O2 0.562868 0.629737 0.763456
O O3 0.292659 0.589622 0.060966
O O4 0.393157 0.759030 0.974291
O O5 0.754533 0.887783 0.793548
O O6 0.000000 0.849493 0.500000
O O7 0.934212 0.000000 0.676596
O O8 0.750000 0.750000 0.500000
O O9 0.689189 0.737479 0.753704
O O10 0.821310 0.595059 0.515276
O O11 0.154702 0.500000 0.352596
O O12 0.052715 0.500000 0.293630
O O13 0.000000 0.357975 0.000000
#
# Coordination Sequence:
#
# PCOD9217049 Si02
#       6
#     8   8   8   4   8   4
#     4  11  22  43  71  93 132 178 227 270 338 399
#     4  11  24  41  63  95 132 174 220 270 335 408
#     4  11  24  44  67 101 134 180 223 277 339 401
#     4  11  23  41  70 104 126 178 230 285 342 383
#     4  10  23  41  65  95 126 172 224 274 330 392
#     4  11  25  43  69 100 141 166 229 295 333 397
#
# _framework density 21.435336
#
# number of rings (size 3 to 8) (size 9 to 14) (size 15 to 20)
#    0.000    1.200    3.000    2.400    0.000    7.600 
#    1.800    0.000    0.000    0.000    0.000    0.000 
#    0.000    0.000    0.000    0.000    0.000    0.000 
#
# Total GULP energy -111807.605153 kJ/mol
# GULP energy per Si atom -5590.380258 kJ/mol
# Density = 2.138655 g / cm^3
# Si number density = 21.435336 Si / 1000 Ang^3
#
#
#
# Elastic Constant Matrix: (Units=GPa)
#
#
# Indices 1 2 3 4 5 6 
#
# 1 128.8854 34.6816 58.5412 0.0000 3.3321 0.0000
# 2 34.6816 42.4816 29.3747 0.0000 -5.2604 0.0000
# 3 58.5412 29.3747 118.0429 0.0000 -12.1440 0.0000
# 4 0.0000 0.0000 0.0000 17.7030 0.0000 -16.4853
# 5 3.3321 -5.2604 -12.1440 0.0000 53.2181 0.0000
# 6 0.0000 0.0000 0.0000 -16.4853 0.0000 21.7375
#
#
#
# Elastic Compliance Matrix: (Units=1/GPa)
#
#
# Indices 1 2 3 4 5 6 
#
# 1 0.011605 -0.006788 -0.004311 0.000000 -0.002381 0.000000
# 2 -0.006788 0.032481 -0.004447 0.000000 0.002621 0.000000
# 3 -0.004311 -0.004447 0.011980 0.000000 0.002564 0.000000
# 4 0.000000 0.000000 0.000000 0.192278 0.000000 0.145820
# 5 -0.002381 0.002621 0.002564 0.000000 0.019784 0.000000
# 6 0.000000 0.000000 0.000000 0.145820 0.000000 0.156591
#
#
# Mechanical properties :
#
#
# Convention : Reuss Voigt Hill
#
# Bulk Modulus (GPa) = 40.04203 59.40056 49.72129
# Shear Modulus (GPa) = 10.77272 29.65253 20.21262
#
# Velocity S-wave (km/s) = 2.24424 3.72337 3.07409
# Velocity P-wave (km/s) = 5.04345 6.80120 5.98718
#
# Compressibility (1/GPa) = 0.02497376
#
# Stress axis : x y z
#
# Youngs Moduli (GPa) = 86.16822 30.78753 83.47352
#
# Poissons Ratio (x) = 0.20899 0.35987
# Poissons Ratio (y) = 0.58493 0.37117
# Poissons Ratio (z) = 0.37148 0.13690
#
# Static dielectric constant tensor:
#      x y z
#    x 1.773500 0.000000 -0.022990 
#    y 0.000000 1.745360 0.000000 
#    z -0.022990 0.000000 1.805340 
# 
# From -- ./inp_files/225571.got.cif
#   From: 2010.05.17/outbox.cif.g08.bks.cpg/sg12_113_cif.got.tgz:225571.got - 2010.06.03 13:09:07.
