data_PCOD9217454
_publ_section_title
;
Structure prediction by ZEFSAII (Michael W. Deem and Ramdas Pophale) SiO2 
 PCOD9217454
Probable space group: C 2/M
;
_chemical_formula_sum "Si O2"
_cell_formula_units_Z 48
_cell_length_a 29.293734
_cell_length_b 8.726645
_cell_length_c 14.730598
_cell_angle_alpha 90.000000
_cell_angle_beta 141.462017
_cell_angle_gamma 90.000000
_cell_volume 2346.138732
_symmetry_space_group_name_H-M "C 2/M"
_symmetry_group_IT_number 12
_symmetry_cell_setting 'monoclinic'
loop_
_space_group_symop_operation_xyz
x,y,z
-x,y,-z
-x,-y,-z
x,-y,z
1/2+x,1/2+y,z
1/2-x,1/2+y,-z
1/2-x,1/2-y,-z
1/2+x,1/2-y,z
loop_
_atom_site_type_symbol
_atom_site_label
_atom_site_fract_x
_atom_site_fract_y
_atom_site_fract_z
Si Si1 0.388038 0.820286 0.570459
Si Si2 0.069169 0.816167 0.543762
Si Si3 0.770053 0.183489 0.129334
Si Si4 0.760004 0.320626 0.614479
Si Si5 0.844945 0.181138 0.905896
Si Si6 0.005301 0.317250 0.903567
O O1 0.436076 0.774966 0.558567
O O2 0.316872 0.713791 0.455905
O O3 0.431605 0.793281 0.731491
O O4 0.367033 0.000000 0.534067
O O5 0.147091 0.774478 0.711391
O O6 0.000000 0.782963 0.500000
O O7 0.069879 0.000000 0.527799
O O8 0.710732 0.243261 0.109526
O O9 0.766690 0.000000 0.121201
O O10 0.750000 0.250000 0.000000
O O11 0.776031 0.500000 0.634396
O O12 0.750000 0.250000 0.500000
O O13 0.820722 0.236653 0.768319
O O14 0.839202 0.000000 0.904754
O O15 0.928226 0.235744 0.044606
O O16 0.019800 0.500000 0.927118
O O17 0.000000 0.265574 0.000000
#
# Coordination Sequence:
#
# PCOD9217454 Si02
#       6
#     8   8   8   8   8   8
#     4  11  23  40  65  97 129 168 216 265 321 384
#     4  10  23  43  66  93 127 170 214 263 325 384
#     4  11  24  43  67  96 131 171 212 269 328 385
#     4  12  24  41  66  95 129 169 213 266 323 383
#     4  12  25  42  66  96 131 172 218 267 320 387
#     4  10  23  43  65  93 132 174 216 267 324 381
#
# _framework density 20.459147999999999
#
# number of rings (size 3 to 8) (size 9 to 14) (size 15 to 20)
#    0.000    1.000    1.667    5.000    2.333    4.000 
#    0.000    0.000    0.000    0.000    0.000    0.000 
#    0.000    0.000    0.000    0.000    0.000    0.000 
#
# Total GULP energy -134290.150274 kJ/mol
# GULP energy per Si atom -5595.422928 kJ/mol
# Density = 2.041258 g / cm^3
# Si number density = 20.459148 Si / 1000 Ang^3
#
#
#
# Elastic Constant Matrix: (Units=GPa)
#
#
# Indices 1 2 3 4 5 6 
#
# 1 83.3563 13.3413 14.4335 0.0000 -1.2241 0.0000
# 2 13.3413 57.7816 28.1174 0.0000 1.6321 0.0000
# 3 14.4335 28.1174 67.5023 0.0000 -6.4792 0.0000
# 4 0.0000 0.0000 0.0000 25.6716 0.0000 -4.4179
# 5 -1.2241 1.6321 -6.4792 0.0000 40.2061 0.0000
# 6 0.0000 0.0000 0.0000 -4.4179 0.0000 35.6422
#
#
#
# Elastic Compliance Matrix: (Units=1/GPa)
#
#
# Indices 1 2 3 4 5 6 
#
# 1 0.012643 -0.002027 -0.001842 0.000000 0.000170 0.000000
# 2 -0.002027 0.022257 -0.009070 0.000000 -0.002427 0.000000
# 3 -0.001842 -0.009070 0.019315 0.000000 0.003425 0.000000
# 4 0.000000 0.000000 0.000000 0.039803 0.000000 0.004934
# 5 0.000170 -0.002427 0.003425 0.000000 0.025527 0.000000
# 6 0.000000 0.000000 0.000000 0.004934 0.000000 0.028668
#
#
# Mechanical properties :
#
#
# Convention : Reuss Voigt Hill
#
# Bulk Modulus (GPa) = 35.29269 35.60272 35.44770
# Shear Modulus (GPa) = 27.24228 30.48717 28.86472
#
# Velocity S-wave (km/s) = 3.65299 3.86443 3.76020
# Velocity P-wave (km/s) = 5.92286 6.11158 6.01796
#
# Compressibility (1/GPa) = 0.02833448
#
# Stress axis : x y z
#
# Youngs Moduli (GPa) = 79.09703 44.92981 51.77278
#
# Poissons Ratio (x) = 0.09109 0.09539
# Poissons Ratio (y) = 0.16036 0.46960
# Poissons Ratio (z) = 0.14574 0.40753
#
# Static dielectric constant tensor:
#      x y z
#    x 1.746300 0.000000 0.014830 
#    y 0.000000 1.682460 0.000000 
#    z 0.014830 0.000000 1.706920 
# 
# From -- ./inp_files/244680.got.cif
#   From: 2010.05.17/outbox.cif.g08.bks.cpg/sg12_123_cif.got.tgz:244680.got - 2010.06.03 13:09:07.
