data_PCOD9217827
_publ_section_title
;
Structure prediction by ZEFSAII (Michael W. Deem and Ramdas Pophale) SiO2 
 PCOD9217827
Probable space group: C 2/M
;
_chemical_formula_sum "Si O2"
_cell_formula_units_Z 64
_cell_length_a 24.572984
_cell_length_b 21.620660
_cell_length_c 18.466687
_cell_angle_alpha 90.000000
_cell_angle_beta 159.379144
_cell_angle_gamma 90.000000
_cell_volume 3455.281446
_symmetry_space_group_name_H-M "C 2/M"
_symmetry_group_IT_number 12
_symmetry_cell_setting 'monoclinic'
loop_
_space_group_symop_operation_xyz
x,y,z
-x,y,-z
-x,-y,-z
x,-y,z
1/2+x,1/2+y,z
1/2-x,1/2+y,-z
1/2-x,1/2-y,-z
1/2+x,1/2-y,z
loop_
_atom_site_type_symbol
_atom_site_label
_atom_site_fract_x
_atom_site_fract_y
_atom_site_fract_z
Si Si1 0.242788 0.572293 0.500141
Si Si2 0.421812 0.227378 0.196829
Si Si3 0.158483 0.291729 0.163605
Si Si4 0.908271 0.375612 0.057136
Si Si5 0.683055 0.573542 0.240487
Si Si6 0.577034 0.427608 0.672752
Si Si7 0.600427 0.349645 0.427140
Si Si8 0.113382 0.320456 0.573254
O O1 0.274538 0.500000 0.532362
O O2 0.274863 0.588995 0.623704
O O3 0.348966 0.609294 0.576922
O O4 0.066242 0.586580 0.258927
O O5 0.419503 0.178439 0.130137
O O6 0.516602 0.288429 0.294828
O O7 0.506038 0.197420 0.371077
O O8 0.250000 0.250000 0.000000
O O9 0.252561 0.326483 0.343817
O O10 0.267966 0.237181 0.269817
O O11 0.118037 0.341808 0.052055
O O12 0.000000 0.265902 0.000000
O O13 0.758910 0.416258 0.890299
O O14 0.714399 0.500000 0.267744
O O15 0.786745 0.618488 0.320226
O O16 0.500000 0.583289 0.000000
O O17 0.500000 0.409155 0.500000
O O18 0.543408 0.500000 0.643333
O O19 0.507730 0.386483 0.650929
O O20 0.000000 0.327523 0.500000
#
# Coordination Sequence:
#
# PCOD9217827 Si02
#       8
#     8   8   8   8   8   8   8   8
#     4  11  24  43  66  94 128 167 216 266 313 378
#     4  11  23  38  62  91 127 163 204 264 319 372
#     4  11  23  39  61  92 131 171 204 257 312 381
#     4  12  22  41  64  91 129 170 209 259 319 376
#     4  10  23  46  69  91 127 170 213 268 329 387
#     4  11  23  39  62  90 128 175 213 252 309 380
#     4  11  23  40  63  92 128 167 215 259 311 372
#     4  11  24  40  66  95 122 165 213 264 325 381
#
# _framework density 18.522369000000001
#
# number of rings (size 3 to 8) (size 9 to 14) (size 15 to 20)
#    0.000    1.000    5.000    1.875    1.750    3.750 
#    0.000    0.625    0.000    0.000    0.000    0.000 
#    0.000    0.000    0.000    0.000    0.000    0.000 
#
# Total GULP energy -178864.737722 kJ/mol
# GULP energy per Si atom -5589.523054 kJ/mol
# Density = 1.848021 g / cm^3
# Si number density = 18.522369 Si / 1000 Ang^3
#
#
#
# Elastic Constant Matrix: (Units=GPa)
#
#
# Indices 1 2 3 4 5 6 
#
# 1 74.9751 37.9994 18.8657 0.0000 18.5580 0.0000
# 2 37.9994 65.5732 13.6478 0.0000 4.1019 0.0000
# 3 18.8657 13.6478 91.8373 0.0000 8.3750 0.0000
# 4 0.0000 0.0000 0.0000 22.7025 0.0000 1.7535
# 5 18.5580 4.1019 8.3750 0.0000 26.9842 0.0000
# 6 0.0000 0.0000 0.0000 1.7535 0.0000 23.6233
#
#
#
# Elastic Compliance Matrix: (Units=1/GPa)
#
#
# Indices 1 2 3 4 5 6 
#
# 1 0.023427 -0.012359 -0.001727 0.000000 -0.013697 0.000000
# 2 -0.012359 0.022335 -0.001282 0.000000 0.005503 0.000000
# 3 -0.001727 -0.001282 0.011637 0.000000 -0.002229 0.000000
# 4 0.000000 0.000000 0.000000 0.044302 0.000000 -0.003288
# 5 -0.013697 0.005503 -0.002229 0.000000 0.046334 0.000000
# 6 0.000000 0.000000 0.000000 -0.003288 0.000000 0.042575
#
#
# Mechanical properties :
#
#
# Convention : Reuss Voigt Hill
#
# Bulk Modulus (GPa) = 37.50566 41.49014 39.49790
# Shear Modulus (GPa) = 21.71709 25.45353 23.58531
#
# Velocity S-wave (km/s) = 3.42786 3.71105 3.57226
# Velocity P-wave (km/s) = 5.99665 6.38836 6.19560
#
# Compressibility (1/GPa) = 0.02666264
#
# Stress axis : x y z
#
# Youngs Moduli (GPa) = 42.68667 44.77286 85.93015
#
# Poissons Ratio (x) = 0.55337 0.14837
# Poissons Ratio (y) = 0.52758 0.11017
# Poissons Ratio (z) = 0.07370 0.05740
#
# Static dielectric constant tensor:
#      x y z
#    x 1.609570 0.000000 -0.010130 
#    y 0.000000 1.612890 0.000000 
#    z -0.010130 0.000000 1.630890 
# 
# From -- ./inp_files/290932.got.cif
#   From: 2010.05.17/outbox.cif.g08.bks.cpg/sg12_146_cif.got.tgz:290932.got - 2010.06.03 13:09:07.
