data_PCOD9217666
_publ_section_title
;
Structure prediction by ZEFSAII (Michael W. Deem and Ramdas Pophale) SiO2 
 PCOD9217666
Probable space group: C 2/M
;
_chemical_formula_sum "Si O2"
_cell_formula_units_Z 56
_cell_length_a 17.487436
_cell_length_b 21.975280
_cell_length_c 9.460408
_cell_angle_alpha 90.000000
_cell_angle_beta 48.338320
_cell_angle_gamma 90.000000
_cell_volume 2716.059217
_symmetry_space_group_name_H-M "C 2/M"
_symmetry_group_IT_number 12
_symmetry_cell_setting 'monoclinic'
loop_
_space_group_symop_operation_xyz
x,y,z
-x,y,-z
-x,-y,-z
x,-y,z
1/2+x,1/2+y,z
1/2-x,1/2+y,-z
1/2-x,1/2-y,-z
1/2+x,1/2-y,z
loop_
_atom_site_type_symbol
_atom_site_label
_atom_site_fract_x
_atom_site_fract_y
_atom_site_fract_z
Si Si1 0.794759 0.624673 0.027573
Si Si2 0.290764 0.571065 0.419933
Si Si3 0.053759 0.735407 0.086388
Si Si4 0.653320 0.754522 0.510117
Si Si5 0.891430 0.569235 0.152340
Si Si6 0.398590 0.622298 0.537120
Si Si7 0.286388 0.339725 0.161387
O O1 0.850272 0.570776 0.043109
O O2 0.688218 0.623919 0.238719
O O3 0.859876 0.684723 0.989725
O O4 0.769151 0.623774 0.895286
O O5 0.278670 0.500000 0.394477
O O6 0.189640 0.593992 0.633359
O O7 0.376863 0.576049 0.435895
O O8 0.310739 0.615251 0.262846
O O9 0.954963 0.719154 0.303761
O O10 0.116512 0.800114 0.015308
O O11 0.000000 0.737203 0.000000
O O12 0.750000 0.750000 0.500000
O O13 0.615533 0.687484 0.518146
O O14 0.702993 0.791294 0.320877
O O15 0.907104 0.500000 0.179787
O O16 0.000000 0.601305 0.000000
O O17 0.500000 0.612522 0.500000
#
# Coordination Sequence:
#
# PCOD9217666 Si02
#       7
#     8   8   8   8   8   8   8
#     4  11  24  38  61  95 129 162 214 261 323 386
#     4  10  23  44  68  92 127 174 223 268 320 385
#     4  12  23  39  64  90 132 167 213 261 319 388
#     4  12  23  40  63  94 130 173 209 258 328 393
#     4   9  20  41  66  90 122 168 219 268 317 378
#     4  11  22  41  66  92 127 168 217 265 318 383
#     4  12  25  41  60  99 136 169 212 269 328 386
#
# _framework density 20.618107999999999
#
# number of rings (size 3 to 8) (size 9 to 14) (size 15 to 20)
#    0.000    1.000    4.286    1.714    6.000    0.857 
#    0.000    0.000    0.000   12.429    0.000    0.000 
#    0.000    0.000    0.000    0.000    0.000    0.000 
#
# Total GULP energy -156014.100423 kJ/mol
# GULP energy per Si atom -5571.932158 kJ/mol
# Density = 2.057118 g / cm^3
# Si number density = 20.618108 Si / 1000 Ang^3
#
#
#
# Elastic Constant Matrix: (Units=GPa)
#
#
# Indices 1 2 3 4 5 6 
#
# 1 124.8707 9.4589 45.0776 0.0000 -13.1982 0.0000
# 2 9.4589 61.5031 5.7123 0.0000 -5.5795 0.0000
# 3 45.0776 5.7123 53.3289 0.0000 -7.5012 0.0000
# 4 0.0000 0.0000 0.0000 32.2313 0.0000 5.2123
# 5 -13.1982 -5.5795 -7.5012 0.0000 38.7677 0.0000
# 6 0.0000 0.0000 0.0000 5.2123 0.0000 10.6137
#
#
#
# Elastic Compliance Matrix: (Units=1/GPa)
#
#
# Indices 1 2 3 4 5 6 
#
# 1 0.011725 -0.000732 -0.009546 0.000000 0.002039 0.000000
# 2 -0.000732 0.016633 -0.000886 0.000000 0.001973 0.000000
# 3 -0.009546 -0.000886 0.027180 0.000000 0.001882 0.000000
# 4 0.000000 0.000000 0.000000 0.033702 0.000000 -0.016551
# 5 0.002039 0.001973 0.001882 0.000000 0.027137 0.000000
# 6 0.000000 0.000000 0.000000 -0.016551 0.000000 0.102345
#
#
# Mechanical properties :
#
#
# Convention : Reuss Voigt Hill
#
# Bulk Modulus (GPa) = 30.10946 40.02226 35.06586
# Shear Modulus (GPa) = 19.83181 28.28613 24.05897
#
# Velocity S-wave (km/s) = 3.10476 3.70795 3.41968
# Velocity P-wave (km/s) = 5.24288 6.14696 5.71283
#
# Compressibility (1/GPa) = 0.03321215
#
# Stress axis : x y z
#
# Youngs Moduli (GPa) = 85.28599 60.12085 36.79182
#
# Poissons Ratio (x) = 0.04399 0.35121
# Poissons Ratio (y) = 0.06240 0.03258
# Poissons Ratio (z) = 0.81413 0.05324
#
# Static dielectric constant tensor:
#      x y z
#    x 1.656140 0.000000 0.121610 
#    y 0.000000 1.784920 0.000000 
#    z 0.121610 0.000000 1.821500 
# 
# From -- ./inp_files/65772.got.cif
#   From: 2010.05.17/outbox.cif.g08.bks.cpg/sg12_33_cif.got.tgz:65772.got - 2010.06.03 13:09:07.
