data_PCOD9217551
_publ_section_title
;
Structure prediction by ZEFSAII (Michael W. Deem and Ramdas Pophale) SiO2 
 PCOD9217551
Probable space group: C 2/M
;
_chemical_formula_sum "Si O2"
_cell_formula_units_Z 50
_cell_length_a 14.132977
_cell_length_b 12.407242
_cell_length_c 15.424171
_cell_angle_alpha 90.000000
_cell_angle_beta 120.382299
_cell_angle_gamma 90.000000
_cell_volume 2333.218510
_symmetry_space_group_name_H-M "C 2/M"
_symmetry_group_IT_number 12
_symmetry_cell_setting 'monoclinic'
loop_
_space_group_symop_operation_xyz
x,y,z
-x,y,-z
-x,-y,-z
x,-y,z
1/2+x,1/2+y,z
1/2-x,1/2+y,-z
1/2-x,1/2-y,-z
1/2+x,1/2-y,z
loop_
_atom_site_type_symbol
_atom_site_label
_atom_site_fract_x
_atom_site_fract_y
_atom_site_fract_z
Si Si1 0.613034 0.126974 0.438501
Si Si2 0.908932 0.168293 0.126416
Si Si3 0.000000 0.000000 0.500000
Si Si4 0.211580 0.379936 0.920303
Si Si5 0.742269 0.266877 0.636810
Si Si6 0.863828 0.875721 0.827059
Si Si7 0.042272 0.825574 0.655076
O O1 0.673133 0.179525 0.549495
O O2 0.696969 0.150877 0.398742
O O3 0.509377 0.205726 0.373273
O O4 0.589175 0.000000 0.436534
O O5 0.885826 0.295917 0.115612
O O6 0.943948 0.137439 0.239735
O O7 0.005281 0.135001 0.106160
O O8 0.792697 0.122596 0.040406
O O9 0.025225 0.905727 0.437662
O O10 0.171067 0.500000 0.886162
O O11 0.290908 0.347382 0.876977
O O12 0.829520 0.201459 0.733290
O O13 0.660849 0.325032 0.665035
O O14 0.838711 0.000000 0.795170
#
# Coordination Sequence:
#
# PCOD9217551 Si02
#       7
#     8   8   2   8   8   8   8
#     4  11  25  43  66  94 133 172 224 271 326 397
#     4  11  23  41  66  98 128 164 220 267 326 393
#     4  12  28  44  66  96 142 176 228 278 316 410
#     4  10  23  43  68  94 128 168 214 274 325 387
#     4  11  23  42  62  99 126 173 218 265 334 384
#     4  11  22  40  67  96 128 166 217 267 323 392
#     4  12  25  43  67  97 133 178 220 270 333 384
#
# _framework density 21.429625000000001
#
# number of rings (size 3 to 8) (size 9 to 14) (size 15 to 20)
#    0.000    0.960    4.800    1.440    3.360    3.840 
#    0.000    0.000    0.000    8.640    0.000    0.000 
#    0.000    0.000    0.000    0.000    0.000    0.000 
#
# Total GULP energy -139475.575125 kJ/mol
# GULP energy per Si atom -5579.023005 kJ/mol
# Density = 2.138085 g / cm^3
# Si number density = 21.429625 Si / 1000 Ang^3
#
#
#
# Elastic Constant Matrix: (Units=GPa)
#
#
# Indices 1 2 3 4 5 6 
#
# 1 57.2004 -2.5145 -13.1348 0.0000 -19.0724 0.0000
# 2 -2.5145 103.0434 7.2325 0.0000 -13.3133 0.0000
# 3 -13.1348 7.2325 88.3077 0.0000 -12.7552 0.0000
# 4 0.0000 0.0000 0.0000 4.0553 0.0000 -7.6940
# 5 -19.0724 -13.3133 -12.7552 0.0000 28.7907 0.0000
# 6 0.0000 0.0000 0.0000 -7.6940 0.0000 27.6431
#
#
#
# Elastic Compliance Matrix: (Units=1/GPa)
#
#
# Indices 1 2 3 4 5 6 
#
# 1 0.026537 0.003010 0.006881 0.000000 0.022019 0.000000
# 2 0.003010 0.010665 0.000614 0.000000 0.007197 0.000000
# 3 0.006881 0.000614 0.013885 0.000000 0.010994 0.000000
# 4 0.000000 0.000000 0.000000 0.522509 0.000000 0.145432
# 5 0.022019 0.007197 0.010994 0.000000 0.057519 0.000000
# 6 0.000000 0.000000 0.000000 0.145432 0.000000 0.076654
#
#
# Mechanical properties :
#
#
# Convention : Reuss Voigt Hill
#
# Bulk Modulus (GPa) = 13.87050 25.74641 19.80845
# Shear Modulus (GPa) = 7.03441 29.22904 18.13172
#
# Velocity S-wave (km/s) = 1.81375 3.69718 2.91194
# Velocity P-wave (km/s) = 3.29741 5.50146 4.53536
#
# Compressibility (1/GPa) = 0.07209547
#
# Stress axis : x y z
#
# Youngs Moduli (GPa) = 37.68361 93.76551 72.01917
#
# Poissons Ratio (x) = -0.28219 -0.49557
# Poissons Ratio (y) = -0.11341 -0.04420
# Poissons Ratio (z) = -0.25930 -0.05755
#
# Static dielectric constant tensor:
#      x y z
#    x 1.794580 0.000000 0.017410 
#    y 0.000000 1.762040 0.000000 
#    z 0.017410 0.000000 1.808760 
# 
# From -- ./inp_files/213477.got.cif
#   From: 2010.05.17/outbox.cif.g08.bks.cpg/sg12_107_cif.got.tgz:213477.got - 2010.06.03 13:09:07.
