data_PCOD9217190
_publ_section_title
;
Structure prediction by ZEFSAII (Michael W. Deem and Ramdas Pophale) SiO2 
 PCOD9217190
Probable space group: C 2/M
;
_chemical_formula_sum "Si O2"
_cell_formula_units_Z 56
_cell_length_a 21.369243
_cell_length_b 15.334901
_cell_length_c 9.205515
_cell_angle_alpha 90.000000
_cell_angle_beta 92.154491
_cell_angle_gamma 90.000000
_cell_volume 3014.470856
_symmetry_space_group_name_H-M "C 2/M"
_symmetry_group_IT_number 12
_symmetry_cell_setting 'monoclinic'
loop_
_space_group_symop_operation_xyz
x,y,z
-x,y,-z
-x,-y,-z
x,-y,z
1/2+x,1/2+y,z
1/2-x,1/2+y,-z
1/2-x,1/2-y,-z
1/2+x,1/2-y,z
loop_
_atom_site_type_symbol
_atom_site_label
_atom_site_fract_x
_atom_site_fract_y
_atom_site_fract_z
Si Si1 0.072760 0.601051 0.548660
Si Si2 0.210634 0.833275 0.552138
Si Si3 0.639681 0.398818 0.261926
Si Si4 0.504183 0.399308 0.825047
Si Si5 0.180261 0.747014 0.057378
Si Si6 0.669262 0.098115 0.297198
Si Si7 0.392553 0.258987 0.241560
O O1 0.085414 0.500000 0.592559
O O2 0.116534 0.619969 0.412777
O O3 0.087924 0.671424 0.672892
O O4 0.000000 0.607621 0.500000
O O5 0.250000 0.750000 0.500000
O O6 0.170252 0.871963 0.417129
O O7 0.263456 0.897339 0.618021
O O8 0.164138 0.802374 0.673896
O O9 0.652761 0.500000 0.232714
O O10 0.564664 0.387356 0.249143
O O11 0.667830 0.336310 0.142178
O O12 0.524193 0.500000 0.800191
O O13 0.551658 0.328832 0.765666
O O14 0.500000 0.388732 0.000000
O O15 0.171106 0.668812 0.170357
O O16 0.250000 0.750000 0.000000
O O17 0.132142 0.738609 0.921065
O O18 0.657378 0.000000 0.243109
#
# Coordination Sequence:
#
# PCOD9217190 Si02
#       7
#     8   8   8   8   8   8   8
#     4  10  24  44  66  95 126 165 217 266 316 374
#     4  12  22  42  64  96 128 162 213 263 314 383
#     4  11  24  43  66  90 129 173 209 260 322 381
#     4  10  23  42  63  95 132 168 211 257 319 387
#     4  12  24  42  61  96 131 163 215 258 308 383
#     4  11  24  44  67  90 128 171 207 261 321 374
#     4  12  24  38  71  94 129 169 207 266 321 371
#
# _framework density 18.577058999999998
#
# number of rings (size 3 to 8) (size 9 to 14) (size 15 to 20)
#    0.000    0.857    5.714    0.429    4.000    2.286 
#    0.000    1.429    0.000    3.000    0.000    0.000 
#    0.000    0.000    0.000    0.000    0.000    0.000 
#
# Total GULP energy -156531.024172 kJ/mol
# GULP energy per Si atom -5590.393720 kJ/mol
# Density = 1.853478 g / cm^3
# Si number density = 18.577059 Si / 1000 Ang^3
#
#
#
# Elastic Constant Matrix: (Units=GPa)
#
#
# Indices 1 2 3 4 5 6 
#
# 1 116.3777 75.8613 72.4193 0.0000 4.5760 0.0000
# 2 75.8613 148.1512 90.0099 0.0000 -5.4996 0.0000
# 3 72.4193 90.0099 132.5591 0.0000 7.5408 0.0000
# 4 0.0000 0.0000 0.0000 23.0049 0.0000 1.2095
# 5 4.5760 -5.4996 7.5408 0.0000 27.1922 0.0000
# 6 0.0000 0.0000 0.0000 1.2095 0.0000 29.9958
#
#
#
# Elastic Compliance Matrix: (Units=1/GPa)
#
#
# Indices 1 2 3 4 5 6 
#
# 1 0.014687 -0.004765 -0.004666 0.000000 -0.002141 0.000000
# 2 -0.004765 0.013620 -0.006957 0.000000 0.005486 0.000000
# 3 -0.004666 -0.006957 0.015091 0.000000 -0.004807 0.000000
# 4 0.000000 0.000000 0.000000 0.043561 0.000000 -0.001756
# 5 -0.002141 0.005486 -0.004807 0.000000 0.039578 0.000000
# 6 0.000000 0.000000 0.000000 -0.001756 0.000000 0.033409
#
#
# Mechanical properties :
#
#
# Convention : Reuss Voigt Hill
#
# Bulk Modulus (GPa) = 94.15694 97.07435 95.61564
# Shear Modulus (GPa) = 25.47595 26.62508 26.05051
#
# Velocity S-wave (km/s) = 3.70721 3.78990 3.74879
# Velocity P-wave (km/s) = 8.31379 8.45692 8.38566
#
# Compressibility (1/GPa) = 0.01062057
#
# Stress axis : x y z
#
# Youngs Moduli (GPa) = 68.08921 73.41958 66.26529
#
# Poissons Ratio (x) = 0.34982 0.30922
# Poissons Ratio (y) = 0.32442 0.46104
# Poissons Ratio (z) = 0.31773 0.51082
#
# Static dielectric constant tensor:
#      x y z
#    x 1.630760 0.000000 0.010090 
#    y 0.000000 1.636520 0.000000 
#    z 0.010090 0.000000 1.617990 
# 
# From -- ./inp_files/86332.got.cif
#   From: 2010.05.17/outbox.cif.g08.bks.cpg/sg12_44_cif.got.tgz:86332.got - 2010.06.03 13:09:07.
