data_PCOD9217350
_publ_section_title
;
Structure prediction by ZEFSAII (Michael W. Deem and Ramdas Pophale) SiO2 
 PCOD9217350
Probable space group: C 2/M
;
_chemical_formula_sum "Si O2"
_cell_formula_units_Z 32
_cell_length_a 12.501509
_cell_length_b 18.950431
_cell_length_c 12.074525
_cell_angle_alpha 90.000000
_cell_angle_beta 150.290325
_cell_angle_gamma 90.000000
_cell_volume 1417.710517
_symmetry_space_group_name_H-M "C 2/M"
_symmetry_group_IT_number 12
_symmetry_cell_setting 'monoclinic'
loop_
_space_group_symop_operation_xyz
x,y,z
-x,y,-z
-x,-y,-z
x,-y,z
1/2+x,1/2+y,z
1/2-x,1/2+y,-z
1/2-x,1/2-y,-z
1/2+x,1/2-y,z
loop_
_atom_site_type_symbol
_atom_site_label
_atom_site_fract_x
_atom_site_fract_y
_atom_site_fract_z
Si Si1 0.250068 0.792947 0.613110
Si Si2 0.500000 0.823361 0.500000
Si Si3 0.927241 0.079052 0.273312
Si Si4 0.298743 0.582486 0.901161
Si Si5 0.500000 0.122446 0.000000
O O1 0.250000 0.750000 0.500000
O O2 0.187619 0.731299 0.641356
O O3 0.078758 0.856459 0.445268
O O4 0.455674 0.829952 0.851678
O O5 0.409170 0.872032 0.320490
O O6 0.025118 0.000000 0.369479
O O7 0.866391 0.090842 0.089546
O O8 0.713926 0.080874 0.157898
O O9 0.247016 0.500000 0.837465
O O10 0.500000 0.599046 0.000000
#
# Coordination Sequence:
#
# PCOD9217350 Si02
#       5
#     8   4   8   8   4
#     4  12  27  43  69 102 138 184 227 288 345 414
#     4  12  23  40  65  96 132 174 226 284 335 406
#     4  11  25  46  70 102 141 184 233 284 347 417
#     4  10  23  42  68  98 135 180 230 289 343 406
#     4  12  25  46  68 102 139 186 234 282 351 408
#
# _framework density 22.571604000000001
#
# number of rings (size 3 to 8) (size 9 to 14) (size 15 to 20)
#    0.000    0.750    2.500    3.750    5.250    5.000 
#    0.000    6.250    0.000    0.000    0.000    0.000 
#    0.000    0.000    0.000    0.000    0.000    0.000 
#
# Total GULP energy -89401.948136 kJ/mol
# GULP energy per Si atom -5587.621758 kJ/mol
# Density = 2.252023 g / cm^3
# Si number density = 22.571604 Si / 1000 Ang^3
#
#
#
# Elastic Constant Matrix: (Units=GPa)
#
#
# Indices 1 2 3 4 5 6 
#
# 1 66.1147 23.7034 6.9837 0.0000 -17.6459 0.0000
# 2 23.7034 162.3926 74.7085 0.0000 0.5334 0.0000
# 3 6.9837 74.7085 92.9918 -0.0001 -15.9981 -0.0001
# 4 0.0000 0.0000 -0.0001 20.4116 -0.0001 -0.4078
# 5 -17.6459 0.5334 -15.9981 -0.0001 32.6196 0.0000
# 6 0.0000 0.0000 -0.0001 -0.4078 0.0000 34.8910
#
#
#
# Elastic Compliance Matrix: (Units=1/GPa)
#
#
# Indices 1 2 3 4 5 6 
#
# 1 0.020077 -0.005305 0.005065 0.000000 0.013431 0.000000
# 2 -0.005305 0.011778 -0.010474 0.000000 -0.008199 0.000000
# 3 0.005065 -0.010474 0.021067 0.000000 0.013243 0.000000
# 4 0.000000 0.000000 0.000000 0.049003 0.000000 0.000573
# 5 0.013431 -0.008199 0.013243 0.000000 0.044551 0.000000
# 6 0.000000 0.000000 0.000000 0.000573 0.000000 0.028667
#
#
# Mechanical properties :
#
#
# Convention : Reuss Voigt Hill
#
# Bulk Modulus (GPa) = 31.75359 59.14338 45.44848
# Shear Modulus (GPa) = 24.14649 31.99134 28.06892
#
# Velocity S-wave (km/s) = 3.27429 3.76882 3.53023
# Velocity P-wave (km/s) = 5.32852 6.72296 6.06594
#
# Compressibility (1/GPa) = 0.03149250
#
# Stress axis : x y z
#
# Youngs Moduli (GPa) = 49.80857 84.90511 47.46854
#
# Poissons Ratio (x) = 0.45038 -0.24041
# Poissons Ratio (y) = 0.26421 0.49720
# Poissons Ratio (z) = -0.25226 0.88933
#
# Static dielectric constant tensor:
#      x y z
#    x 1.804130 0.000000 -0.114510 
#    y 0.000000 1.770270 0.000000 
#    z -0.114510 0.000000 1.756580 
# 
# From -- ./inp_files/145974.got.cif
#   From: 2010.05.17/outbox.cif.g08.bks.cpg/sg12_73_cif.got.tgz:145974.got - 2010.06.03 13:09:07.
