data_PCOD9217317
_publ_section_title
;
Structure prediction by ZEFSAII (Michael W. Deem and Ramdas Pophale) SiO2 
 PCOD9217317
Probable space group: C 2/M
;
_chemical_formula_sum "Si O2"
_cell_formula_units_Z 54
_cell_length_a 26.749647
_cell_length_b 14.816567
_cell_length_c 5.272451
_cell_angle_alpha 90.000000
_cell_angle_beta 97.999911
_cell_angle_gamma 90.000000
_cell_volume 2069.336256
_symmetry_space_group_name_H-M "C 2/M"
_symmetry_group_IT_number 12
_symmetry_cell_setting 'monoclinic'
loop_
_space_group_symop_operation_xyz
x,y,z
-x,y,-z
-x,-y,-z
x,-y,z
1/2+x,1/2+y,z
1/2-x,1/2+y,-z
1/2-x,1/2-y,-z
1/2+x,1/2-y,z
loop_
_atom_site_type_symbol
_atom_site_label
_atom_site_fract_x
_atom_site_fract_y
_atom_site_fract_z
Si Si1 0.953049 0.094875 0.778021
Si Si2 0.099044 0.404091 0.202650
Si Si3 0.742806 0.898286 0.557856
Si Si4 0.000000 0.500000 0.000000
Si Si5 0.374075 0.345542 0.095754
Si Si6 0.339024 0.500000 0.471027
Si Si7 0.806405 0.678670 0.970245
Si Si8 0.946093 0.272088 0.454879
O O1 0.958383 0.183640 0.624906
O O2 0.952548 0.000000 0.631981
O O3 0.899767 0.100552 0.883890
O O4 0.000000 0.091832 0.000000
O O5 0.107950 0.500000 0.341601
O O6 0.093832 0.329106 0.413195
O O7 0.143457 0.381134 0.043549
O O8 0.045212 0.422145 0.029958
O O9 0.801841 0.922195 0.583208
O O10 0.722529 0.856155 0.802843
O O11 0.720116 0.000000 0.509646
O O12 0.726071 0.838591 0.306049
O O13 0.363013 0.418834 0.303970
O O14 0.326675 0.280569 0.013423
O O15 0.418614 0.272242 0.195990
O O16 0.000000 0.323622 0.500000
#
# Coordination Sequence:
#
# PCOD9217317 Si02
#       8
#     8   8   8   2   8   4   8   8
#     4  11  24  44  71 103 150 205 257 310 374 451
#     4  10  23  42  67 107 143 200 245 305 364 460
#     4  10  25  51  76 107 144 191 242 319 391 449
#     4   8  24  36  66  88 154 182 254 282 372 434
#     4  12  26  46  72 110 147 194 256 314 383 453
#     4  10  28  52  74 106 146 187 253 332 386 465
#     4  12  24  47  81 108 147 197 251 312 384 468
#     4  12  26  42  71 108 158 201 250 315 370 452
#
# _framework density 26.095327000000001
#
# number of rings (size 3 to 8) (size 9 to 14) (size 15 to 20)
#    0.889    0.148    3.704    2.222    4.148    1.778 
#    5.333    1.481    0.000    0.000    0.000    0.000 
#    0.000    0.000    0.000    0.000    0.000    0.000 
#
# Total GULP energy -150345.962814 kJ/mol
# GULP energy per Si atom -5568.368993 kJ/mol
# Density = 2.603593 g / cm^3
# Si number density = 26.095327 Si / 1000 Ang^3
#
#
#
# Elastic Constant Matrix: (Units=GPa)
#
#
# Indices 1 2 3 4 5 6 
#
# 1 162.7265 22.9441 41.3318 0.0000 -17.6409 0.0000
# 2 22.9441 137.5020 28.1268 0.0000 -0.6950 0.0000
# 3 41.3318 28.1268 94.3708 0.0000 -18.8868 0.0000
# 4 0.0000 0.0000 0.0000 84.8138 0.0000 0.9453
# 5 -17.6409 -0.6950 -18.8868 0.0000 56.6612 0.0000
# 6 0.0000 0.0000 0.0000 0.9453 0.0000 26.7634
#
#
#
# Elastic Compliance Matrix: (Units=1/GPa)
#
#
# Indices 1 2 3 4 5 6 
#
# 1 0.007045 -0.000630 -0.002636 0.000000 0.001307 0.000000
# 2 -0.000630 0.007829 -0.002226 0.000000 -0.000842 0.000000
# 3 -0.002636 -0.002226 0.013120 0.000000 0.003525 0.000000
# 4 0.000000 0.000000 0.000000 0.011795 0.000000 -0.000417
# 5 0.001307 -0.000842 0.003525 0.000000 0.019220 0.000000
# 6 0.000000 0.000000 0.000000 -0.000417 0.000000 0.037379
#
#
# Mechanical properties :
#
#
# Convention : Reuss Voigt Hill
#
# Bulk Modulus (GPa) = 58.78917 64.37829 61.58373
# Shear Modulus (GPa) = 44.23075 53.79411 49.01243
#
# Velocity S-wave (km/s) = 4.12147 4.54524 4.33853
# Velocity P-wave (km/s) = 6.72504 7.22977 6.98197
#
# Compressibility (1/GPa) = 0.01700994
#
# Stress axis : x y z
#
# Youngs Moduli (GPa) = 141.93658 127.73357 76.21862
#
# Poissons Ratio (x) = 0.08044 0.20095
# Poissons Ratio (y) = 0.08938 0.16967
# Poissons Ratio (z) = 0.37421 0.28434
#
# Static dielectric constant tensor:
#      x y z
#    x 2.138820 0.000000 0.102520 
#    y 0.000000 2.011410 0.000000 
#    z 0.102520 0.000000 2.050100 
# 
# From -- ./inp_files/31527.got.cif
#   From: 2010.05.17/outbox.cif.g08.bks.cpg/sg12_16_cif.got.tgz:31527.got - 2010.06.03 13:09:07.
