data_PCOD9217717
_publ_section_title
;
Structure prediction by ZEFSAII (Michael W. Deem and Ramdas Pophale) SiO2 
 PCOD9217717
Probable space group: C 2/M
;
_chemical_formula_sum "Si O2"
_cell_formula_units_Z 64
_cell_length_a 12.540354
_cell_length_b 14.699263
_cell_length_c 30.575754
_cell_angle_alpha 90.000000
_cell_angle_beta 34.672314
_cell_angle_gamma 90.000000
_cell_volume 3206.305261
_symmetry_space_group_name_H-M "C 2/M"
_symmetry_group_IT_number 12
_symmetry_cell_setting 'monoclinic'
loop_
_space_group_symop_operation_xyz
x,y,z
-x,y,-z
-x,-y,-z
x,-y,z
1/2+x,1/2+y,z
1/2-x,1/2+y,-z
1/2-x,1/2-y,-z
1/2+x,1/2-y,z
loop_
_atom_site_type_symbol
_atom_site_label
_atom_site_fract_x
_atom_site_fract_y
_atom_site_fract_z
Si Si1 0.647694 0.634568 0.358810
Si Si2 0.521582 0.839092 0.400817
Si Si3 0.779775 0.101192 0.435440
Si Si4 0.696465 0.248503 0.201870
Si Si5 0.924883 0.604817 0.340946
Si Si6 0.911046 0.102930 0.295184
Si Si7 0.410106 0.897134 0.187829
Si Si8 0.684735 0.604868 0.908342
O O1 0.608505 0.740538 0.366727
O O2 0.446975 0.595024 0.413869
O O3 0.737468 0.614411 0.375291
O O4 0.797596 0.605197 0.271675
O O5 0.388095 0.841580 0.487949
O O6 0.403588 0.869965 0.398817
O O7 0.706615 0.899550 0.342895
O O8 0.871349 0.132248 0.359085
O O9 0.705449 0.000000 0.452310
O O10 0.575190 0.176595 0.271149
O O11 0.547801 0.319776 0.230432
O O12 0.826259 0.316308 0.186564
O O13 0.804252 0.184062 0.131505
O O14 0.988002 0.500000 0.315711
O O15 0.987949 0.000000 0.269171
O O16 0.627787 0.884655 0.125759
O O17 0.385372 0.000000 0.177919
O O18 0.690330 0.500000 0.888775
O O19 0.500000 0.613077 0.000000
#
# Coordination Sequence:
#
# PCOD9217717 Si02
#       8
#     8   8   8   8   8   8   8   8
#     4  12  23  40  62  88 123 166 225 268 325 387
#     4  12  24  41  58  88 128 170 218 280 336 383
#     4  11  23  40  61  86 120 169 223 276 331 388
#     4  12  22  38  66  98 125 160 213 261 306 366
#     4  12  24  40  62  91 127 166 211 272 334 382
#     4  11  22  40  64  90 125 172 223 268 321 386
#     4  11  21  40  68  94 125 167 212 257 308 380
#     4  10  23  44  70 100 134 169 202 245 310 384
#
# _framework density 19.960671000000001
#
# number of rings (size 3 to 8) (size 9 to 14) (size 15 to 20)
#    0.000    0.625    5.000    3.750    0.000    2.000 
#    2.250    1.250    0.000    1.500    0.000    0.000 
#    0.000    0.000    0.000    0.000    0.000    0.000 
#
# Total GULP energy -178798.389014 kJ/mol
# GULP energy per Si atom -5587.449657 kJ/mol
# Density = 1.991524 g / cm^3
# Si number density = 19.960671 Si / 1000 Ang^3
#
#
#
# Elastic Constant Matrix: (Units=GPa)
#
#
# Indices 1 2 3 4 5 6 
#
# 1 97.4772 26.7171 15.2167 0.0004 -0.7720 -0.0001
# 2 26.7171 157.2632 37.5770 0.0003 2.9292 -0.0002
# 3 15.2167 37.5770 73.7353 0.0009 -11.7798 -0.0004
# 4 0.0004 0.0003 0.0009 63.5110 -0.0002 8.7902
# 5 -0.7720 2.9292 -11.7798 -0.0002 28.1772 0.0001
# 6 -0.0001 -0.0002 -0.0004 8.7902 0.0001 18.4475
#
#
#
# Elastic Compliance Matrix: (Units=1/GPa)
#
#
# Indices 1 2 3 4 5 6 
#
# 1 0.010902 -0.001485 -0.001522 0.000000 -0.000183 0.000000
# 2 -0.001485 0.007605 -0.003967 0.000000 -0.002490 0.000000
# 3 -0.001522 -0.003967 0.017099 0.000000 0.007519 0.000000
# 4 0.000000 0.000000 0.000000 0.016857 0.000000 -0.008032
# 5 -0.000183 -0.002490 0.007519 0.000000 0.038887 0.000000
# 6 0.000000 0.000000 0.000000 -0.008032 0.000000 0.058035
#
#
# Mechanical properties :
#
#
# Convention : Reuss Voigt Hill
#
# Bulk Modulus (GPa) = 46.17316 54.16635 50.16976
# Shear Modulus (GPa) = 29.31621 38.62479 33.97050
#
# Velocity S-wave (km/s) = 3.83652 4.40369 4.12985
# Velocity P-wave (km/s) = 6.54274 7.28368 6.92313
#
# Compressibility (1/GPa) = 0.02165760
#
# Stress axis : x y z
#
# Youngs Moduli (GPa) = 91.72620 131.48655 58.48224
#
# Poissons Ratio (x) = 0.19525 0.08903
# Poissons Ratio (y) = 0.13621 0.23201
# Poissons Ratio (z) = 0.13964 0.52163
#
# Static dielectric constant tensor:
#      x y z
#    x 1.751250 0.000000 0.003780 
#    y 0.000000 1.752380 0.000000 
#    z 0.003780 0.000000 1.672660 
# 
# From -- ./inp_files/358403.got.cif
#   From: 2010.05.17/outbox.cif.g08.bks.cpg/sg12_180_cif.got.tgz:358403.got - 2010.06.03 13:09:07.
