data_PCOD9217242
_publ_section_title
;
Structure prediction by ZEFSAII (Michael W. Deem and Ramdas Pophale) SiO2 
 PCOD9217242
Probable space group: C 2/M
;
_chemical_formula_sum "Si O2"
_cell_formula_units_Z 64
_cell_length_a 31.773850
_cell_length_b 16.698634
_cell_length_c 9.238808
_cell_angle_alpha 90.000000
_cell_angle_beta 42.906706
_cell_angle_gamma 90.000000
_cell_volume 3337.263415
_symmetry_space_group_name_H-M "C 2/M"
_symmetry_group_IT_number 12
_symmetry_cell_setting 'monoclinic'
loop_
_space_group_symop_operation_xyz
x,y,z
-x,y,-z
-x,-y,-z
x,-y,z
1/2+x,1/2+y,z
1/2-x,1/2+y,-z
1/2-x,1/2-y,-z
1/2+x,1/2-y,z
loop_
_atom_site_type_symbol
_atom_site_label
_atom_site_fract_x
_atom_site_fract_y
_atom_site_fract_z
Si Si1 0.532934 0.409322 0.283330
Si Si2 0.769583 0.094934 0.508656
Si Si3 0.285575 0.691482 0.019172
Si Si4 0.683388 0.589204 0.319971
Si Si5 0.863596 0.207032 0.098455
Si Si6 0.183452 0.405787 0.460231
Si Si7 0.553263 0.378686 0.752425
Si Si8 0.569700 0.799712 0.816452
O O1 0.500000 0.367496 0.500000
O O2 0.553431 0.500000 0.267656
O O3 0.476503 0.411078 0.316326
O O4 0.587127 0.359007 0.077243
O O5 0.765018 0.113853 0.691186
O O6 0.815903 0.159648 0.322036
O O7 0.709311 0.101570 0.559873
O O8 0.788192 0.000000 0.448678
O O9 0.326709 0.729459 0.044489
O O10 0.234960 0.635496 0.227816
O O11 0.250000 0.750000 0.000000
O O12 0.325132 0.640600 0.802718
O O13 0.697436 0.500000 0.235760
O O14 0.622575 0.589755 0.574692
O O15 0.900839 0.270783 0.103214
O O16 0.177479 0.500000 0.441841
O O17 0.119268 0.357858 0.617845
O O18 0.561086 0.283157 0.749036
O O19 0.500000 0.401933 0.000000
O O20 0.500000 0.833733 0.000000
#
# Coordination Sequence:
#
# PCOD9217242 Si02
#       8
#     8   8   8   8   8   8   8   8
#     4  11  22  34  52  82 123 168 203 235 287 354
#     4   9  19  34  59  89 119 156 198 247 299 355
#     4  11  25  39  62  90 124 160 198 243 311 370
#     4  11  21  35  56  86 124 161 203 247 293 361
#     4  11  21  38  58  84 123 159 198 249 294 358
#     4  10  23  42  65  89 118 154 201 257 311 362
#     4  11  20  36  54  84 122 161 206 244 286 343
#     4  11  22  40  65  88 115 150 209 256 303 358
#
# _framework density 19.177389999999999
#
# number of rings (size 3 to 8) (size 9 to 14) (size 15 to 20)
#    0.000    1.375    3.750    2.625    1.750    5.750 
#    0.000    0.000    0.000    0.000    0.000    0.875 
#    0.000    0.000    0.000    0.000    0.000    0.000 
#
# Total GULP energy -178301.747914 kJ/mol
# GULP energy per Si atom -5571.929622 kJ/mol
# Density = 1.913374 g / cm^3
# Si number density = 19.177390 Si / 1000 Ang^3
#
#
#
# Elastic Constant Matrix: (Units=GPa)
#
#
# Indices 1 2 3 4 5 6 
#
# 1 93.5777 27.6051 20.4266 0.0000 2.7432 0.0000
# 2 27.6051 46.1195 29.0946 0.0000 -9.8220 0.0000
# 3 20.4266 29.0946 65.4616 0.0000 -5.8394 0.0000
# 4 0.0000 0.0000 0.0000 28.0119 0.0000 -12.8462
# 5 2.7432 -9.8220 -5.8394 0.0000 31.0521 0.0000
# 6 0.0000 0.0000 0.0000 -12.8462 0.0000 61.3309
#
#
#
# Elastic Compliance Matrix: (Units=1/GPa)
#
#
# Indices 1 2 3 4 5 6 
#
# 1 0.013457 -0.008382 -0.000830 0.000000 -0.003996 0.000000
# 2 -0.008382 0.036990 -0.012932 0.000000 0.010009 0.000000
# 3 -0.000830 -0.012932 0.021281 0.000000 -0.000015 0.000000
# 4 0.000000 0.000000 0.000000 0.039493 0.000000 0.008272
# 5 -0.003996 0.010009 -0.000015 0.000000 0.035720 0.000000
# 6 0.000000 0.000000 0.000000 0.008272 0.000000 0.018038
#
#
# Mechanical properties :
#
#
# Convention : Reuss Voigt Hill
#
# Bulk Modulus (GPa) = 36.44325 39.93461 38.18893
# Shear Modulus (GPa) = 22.89232 32.61447 27.75339
#
# Velocity S-wave (km/s) = 3.45876 4.12840 3.80833
# Velocity P-wave (km/s) = 5.91568 6.60257 6.26854
#
# Compressibility (1/GPa) = 0.02743992
#
# Stress axis : x y z
#
# Youngs Moduli (GPa) = 74.30819 27.03459 46.98956
#
# Poissons Ratio (x) = 0.22662 0.03901
# Poissons Ratio (y) = 0.62288 0.60765
# Poissons Ratio (z) = 0.06169 0.34960
#
# Static dielectric constant tensor:
#      x y z
#    x 1.711010 0.000000 -0.025580 
#    y 0.000000 1.693140 0.000000 
#    z -0.025580 0.000000 1.699910 
# 
# From -- ./inp_files/112801.got.cif
#   From: 2010.05.17/outbox.cif.g08.bks.cpg/sg12_57_cif.got.tgz:112801.got - 2010.06.03 13:09:07.
