data_PCOD9217544
_publ_section_title
;
Structure prediction by ZEFSAII (Michael W. Deem and Ramdas Pophale) SiO2 
 PCOD9217544
Probable space group: C 2/M
;
_chemical_formula_sum "Si O2"
_cell_formula_units_Z 56
_cell_length_a 27.085624
_cell_length_b 8.623228
_cell_length_c 12.811567
_cell_angle_alpha 90.000000
_cell_angle_beta 68.209465
_cell_angle_gamma 90.000000
_cell_volume 2778.528999
_symmetry_space_group_name_H-M "C 2/M"
_symmetry_group_IT_number 12
_symmetry_cell_setting 'monoclinic'
loop_
_space_group_symop_operation_xyz
x,y,z
-x,y,-z
-x,-y,-z
x,-y,z
1/2+x,1/2+y,z
1/2-x,1/2+y,-z
1/2-x,1/2-y,-z
1/2+x,1/2-y,z
loop_
_atom_site_type_symbol
_atom_site_label
_atom_site_fract_x
_atom_site_fract_y
_atom_site_fract_z
Si Si1 0.633954 0.815376 0.722543
Si Si2 0.056212 0.685604 0.408517
Si Si3 0.749864 0.815584 0.318867
Si Si4 0.601661 0.184414 0.154949
Si Si5 0.215740 0.184468 0.122231
Si Si6 0.562342 0.685334 0.966031
Si Si7 0.143558 0.184003 0.493506
O O1 0.694585 0.764826 0.697609
O O2 0.596557 0.750780 0.843272
O O3 0.620024 0.744646 0.620847
O O4 0.630024 0.000000 0.721917
O O5 0.061852 0.500000 0.420615
O O6 0.060463 0.713545 0.281539
O O7 0.104475 0.766712 0.430855
O O8 0.000000 0.735480 0.500000
O O9 0.733688 0.766853 0.214494
O O10 0.701174 0.760058 0.429145
O O11 0.755990 0.000000 0.322146
O O12 0.655129 0.273116 0.144631
O O13 0.612577 0.000000 0.143220
O O14 0.581692 0.240672 0.059036
O O15 0.222563 0.000000 0.127406
O O16 0.250000 0.250000 0.000000
O O17 0.569533 0.500000 0.965154
O O18 0.500000 0.719018 0.000000
O O19 0.149767 0.000000 0.491043
#
# Coordination Sequence:
#
# PCOD9217544 Si02
#       7
#     8   8   8   8   8   8   8
#     4  12  26  45  69  97 133 176 224 273 330 394
#     4  10  23  43  68 100 135 175 222 271 325 389
#     4  12  24  43  67  97 135 173 219 271 328 393
#     4  11  23  42  68  98 134 173 219 271 327 389
#     4  12  24  40  64  95 132 174 218 268 327 390
#     4  11  26  47  69  97 134 174 222 276 331 391
#     4  12  25  43  68 101 137 175 220 270 332 394
#
# _framework density 20.15455
#
# number of rings (size 3 to 8) (size 9 to 14) (size 15 to 20)
#    0.000    0.571    1.429    7.286    2.000    2.000 
#    0.000    0.000    0.000    0.000    0.000    0.000 
#    0.000    0.000    0.000    0.000    0.000    0.000 
#
# Total GULP energy -156812.313201 kJ/mol
# GULP energy per Si atom -5600.439757 kJ/mol
# Density = 2.010868 g / cm^3
# Si number density = 20.154550 Si / 1000 Ang^3
#
#
#
# Elastic Constant Matrix: (Units=GPa)
#
#
# Indices 1 2 3 4 5 6 
#
# 1 36.0866 -0.4880 16.1257 0.0000 -3.6172 0.0000
# 2 -0.4880 59.4977 16.3377 0.0000 -4.0160 0.0000
# 3 16.1257 16.3377 144.2607 0.0000 -0.4123 0.0000
# 4 0.0000 0.0000 0.0000 32.7106 0.0000 9.6511
# 5 -3.6172 -4.0160 -0.4123 0.0000 40.5379 0.0000
# 6 0.0000 0.0000 0.0000 9.6511 0.0000 1.3451
#
#
#
# Elastic Compliance Matrix: (Units=1/GPa)
#
#
# Indices 1 2 3 4 5 6 
#
# 1 0.029546 0.001375 -0.003451 0.000000 0.002737 0.000000
# 2 0.001375 0.017529 -0.002134 0.000000 0.001837 0.000000
# 3 -0.003451 -0.002134 0.007558 0.000000 -0.000442 0.000000
# 4 0.000000 0.000000 0.000000 -0.027371 0.000000 0.196384
# 5 0.002737 0.001837 -0.000442 0.000000 0.025090 0.000000
# 6 0.000000 0.000000 0.000000 0.196384 0.000000 -0.665605
#
#
# Mechanical properties :
#
#
# Convention : Reuss Voigt Hill
#
# Bulk Modulus (GPa) = 21.63868 33.75511 27.69690
# Shear Modulus (GPa) = -8.48277 28.77668 10.14695
#
# Velocity S-wave (km/s) = -2.05378 3.78272 2.24622
# Velocity P-wave (km/s) = 2.26621 5.98859 4.52763
#
# Compressibility (1/GPa) = 0.04621353
#
# Stress axis : x y z
#
# Youngs Moduli (GPa) = 33.84549 57.04981 132.31076
#
# Poissons Ratio (x) = -0.07842 0.45655
# Poissons Ratio (y) = -0.04652 0.28229
# Poissons Ratio (z) = 0.11679 0.12172
#
# Static dielectric constant tensor:
#      x y z
#    x 1.679860 0.000000 -0.011070 
#    y 0.000000 1.676130 0.000000 
#    z -0.011070 0.000000 1.734530 
# 
# From -- ./inp_files/180873.got.cif
#   From: 2010.05.17/outbox.cif.g08.bks.cpg/sg12_91_cif.got.tgz:180873.got - 2010.06.03 13:09:07.
