data_PCOD9217865
_publ_section_title
;
Structure prediction by ZEFSAII (Michael W. Deem and Ramdas Pophale) SiO2 
 PCOD9217865
Probable space group: C 2/M
;
_chemical_formula_sum "Si O2"
_cell_formula_units_Z 42
_cell_length_a 16.297042
_cell_length_b 25.167975
_cell_length_c 5.363964
_cell_angle_alpha 90.000000
_cell_angle_beta 111.829078
_cell_angle_gamma 90.000000
_cell_volume 2042.349062
_symmetry_space_group_name_H-M "C 2/M"
_symmetry_group_IT_number 12
_symmetry_cell_setting 'monoclinic'
loop_
_space_group_symop_operation_xyz
x,y,z
-x,y,-z
-x,-y,-z
x,-y,z
1/2+x,1/2+y,z
1/2-x,1/2+y,-z
1/2-x,1/2-y,-z
1/2+x,1/2-y,z
loop_
_atom_site_type_symbol
_atom_site_label
_atom_site_fract_x
_atom_site_fract_y
_atom_site_fract_z
Si Si1 0.926693 0.911488 0.718460
Si Si2 0.733425 0.873302 0.535363
Si Si3 0.000000 0.000000 0.500000
Si Si4 0.975173 0.799116 0.225730
Si Si5 0.730670 0.311889 0.942166
Si Si6 0.053088 0.563926 0.309653
O O1 0.825621 0.904983 0.680737
O O2 0.963796 0.852331 0.706589
O O3 0.930257 0.952607 0.497873
O O4 0.000000 0.933661 0.000000
O O5 0.720643 0.841001 0.776324
O O6 0.649542 0.910431 0.405349
O O7 0.747311 0.836093 0.304995
O O8 0.000000 0.767523 0.500000
O O9 0.874409 0.816895 0.125459
O O10 0.000000 0.770148 0.000000
O O11 0.750000 0.250000 0.000000
O O12 0.061325 0.500000 0.324473
O O13 0.000000 0.579856 0.500000
O O14 0.000000 0.578722 0.000000
#
# Coordination Sequence:
#
# PCOD9217865 Si02
#       6
#     8   8   2   8   8   8
#     4  11  22  39  61  93 141 176 206 261 319 401
#     4  12  24  43  72  97 134 172 223 278 332 392
#     4  12  22  36  56 102 140 170 222 252 306 396
#     4  11  19  40  62  84 130 182 200 249 330 384
#     4  12  24  42  66 100 131 174 228 273 325 400
#     4  10  23  47  71  96 131 176 221 277 343 397
#
# _framework density 20.564554000000001
#
# number of rings (size 3 to 8) (size 9 to 14) (size 15 to 20)
#    0.000    0.762    6.667    2.000    1.333    0.000 
#    0.000    5.714    0.000    0.000    0.000    0.000 
#    0.000    0.000    0.000    0.000    0.000    0.000 
#
# Total GULP energy -116954.556854 kJ/mol
# GULP energy per Si atom -5569.264612 kJ/mol
# Density = 2.051775 g / cm^3
# Si number density = 20.564554 Si / 1000 Ang^3
#
#
#
# Elastic Constant Matrix: (Units=GPa)
#
#
# Indices 1 2 3 4 5 6 
#
# 1 108.9480 29.7849 56.4857 0.0000 22.0991 0.0000
# 2 29.7849 45.5977 23.1360 0.0000 11.5403 0.0000
# 3 56.4857 23.1360 148.0803 0.0000 -7.8020 0.0000
# 4 0.0000 0.0000 0.0000 16.0543 0.0000 5.3999
# 5 22.0991 11.5403 -7.8020 0.0000 48.7233 0.0000
# 6 0.0000 0.0000 0.0000 5.3999 0.0000 1.0084
#
#
#
# Elastic Compliance Matrix: (Units=1/GPa)
#
#
# Indices 1 2 3 4 5 6 
#
# 1 0.014479 -0.005376 -0.005004 0.000000 -0.006095 0.000000
# 2 -0.005376 0.027894 -0.002548 0.000000 -0.004576 0.000000
# 3 -0.005004 -0.002548 0.009290 0.000000 0.004361 0.000000
# 4 0.000000 0.000000 0.000000 -0.077748 0.000000 0.416342
# 5 -0.006095 -0.004576 0.004361 0.000000 0.025071 0.000000
# 6 0.000000 0.000000 0.000000 0.416342 0.000000 -1.237819
#
#
# Mechanical properties :
#
#
# Convention : Reuss Voigt Hill
#
# Bulk Modulus (GPa) = 38.75187 57.93772 48.34479
# Shear Modulus (GPa) = -4.15154 26.03850 10.94348
#
# Velocity S-wave (km/s) = -1.42238 3.56221 2.30935
# Velocity P-wave (km/s) = 4.02335 6.71966 5.53810
#
# Compressibility (1/GPa) = 0.02580521
#
# Stress axis : x y z
#
# Youngs Moduli (GPa) = 69.06326 35.84991 107.64279
#
# Poissons Ratio (x) = 0.19274 0.53869
# Poissons Ratio (y) = 0.37130 0.27433
# Poissons Ratio (z) = 0.34562 0.09136
#
# Static dielectric constant tensor:
#      x y z
#    x 1.776770 0.000000 -0.063440 
#    y 0.000000 1.728750 0.000000 
#    z -0.063440 0.000000 1.881870 
# 
# From -- ./inp_files/12467.got.cif
#   From: 2010.05.17/outbox.cif.g08.bks.cpg/sg12_7_cif.got.tgz:12467.got - 2010.06.03 13:09:07.
