data_PCOD9217637
_publ_section_title
;
Structure prediction by ZEFSAII (Michael W. Deem and Ramdas Pophale) SiO2 
 PCOD9217637
Probable space group: C 2/M
;
_chemical_formula_sum "Si O2"
_cell_formula_units_Z 48
_cell_length_a 8.779389
_cell_length_b 24.581711
_cell_length_c 11.887449
_cell_angle_alpha 90.000000
_cell_angle_beta 75.564866
_cell_angle_gamma 90.000000
_cell_volume 2484.468632
_symmetry_space_group_name_H-M "C 2/M"
_symmetry_group_IT_number 12
_symmetry_cell_setting 'monoclinic'
loop_
_space_group_symop_operation_xyz
x,y,z
-x,y,-z
-x,-y,-z
x,-y,z
1/2+x,1/2+y,z
1/2-x,1/2+y,-z
1/2-x,1/2-y,-z
1/2+x,1/2-y,z
loop_
_atom_site_type_symbol
_atom_site_label
_atom_site_fract_x
_atom_site_fract_y
_atom_site_fract_z
Si Si1 0.747323 0.655564 0.773810
Si Si2 0.903245 0.146278 0.750237
Si Si3 0.548588 0.142118 0.610861
Si Si4 0.735854 0.267005 0.370454
Si Si5 0.313486 0.189520 0.009860
Si Si6 0.170538 0.063921 0.412260
O O1 0.575071 0.637708 0.769114
O O2 0.761339 0.715141 0.711027
O O3 0.891193 0.620787 0.697214
O O4 0.772211 0.658973 0.901838
O O5 0.902471 0.192610 0.650268
O O6 0.785246 0.166325 0.867881
O O7 0.844047 0.090304 0.707784
O O8 0.500000 0.165756 0.500000
O O9 0.617647 0.191476 0.671632
O O10 0.685445 0.098554 0.563413
O O11 0.750000 0.250000 0.500000
O O12 0.500000 0.189480 0.000000
O O13 0.250000 0.250000 0.000000
O O14 0.000000 0.073991 0.500000
O O15 0.201195 0.000000 0.409187
#
# Coordination Sequence:
#
# PCOD9217637 Si02
#       6
#     8   8   8   8   8   8
#     4  12  23  37  59  91 130 167 208 252 310 378
#     4  11  24  39  63  90 125 167 210 260 311 376
#     4  11  22  37  58  90 125 164 211 258 310 382
#     4  11  22  35  54  87 132 172 203 245 304 380
#     4  12  24  40  59  87 128 174 215 251 302 370
#     4  10  23  44  67  91 121 162 214 273 327 372
#
# _framework density 19.320025000000001
#
# number of rings (size 3 to 8) (size 9 to 14) (size 15 to 20)
#    0.000    0.833    3.333    5.500    2.333    0.333 
#    0.000    0.833    0.000    6.500    0.000    0.000 
#    0.000    0.000    0.000    0.000    0.000    0.000 
#
# Total GULP energy -133977.934327 kJ/mol
# GULP energy per Si atom -5582.413930 kJ/mol
# Density = 1.927605 g / cm^3
# Si number density = 19.320025 Si / 1000 Ang^3
#
#
#
# Elastic Constant Matrix: (Units=GPa)
#
#
# Indices 1 2 3 4 5 6 
#
# 1 143.9515 21.3190 31.2606 0.0000 0.8515 0.0000
# 2 21.3190 57.2930 12.4269 0.0000 -6.4610 0.0000
# 3 31.2606 12.4269 107.9351 0.0000 6.3781 0.0000
# 4 0.0000 0.0000 0.0000 20.2792 0.0000 -5.2599
# 5 0.8515 -6.4610 6.3781 0.0000 41.3903 0.0000
# 6 0.0000 0.0000 0.0000 -5.2599 0.0000 19.3677
#
#
#
# Elastic Compliance Matrix: (Units=1/GPa)
#
#
# Indices 1 2 3 4 5 6 
#
# 1 0.007738 -0.002486 -0.001940 0.000000 -0.000248 0.000000
# 2 -0.002486 0.019114 -0.001675 0.000000 0.003293 0.000000
# 3 -0.001940 -0.001675 0.010125 0.000000 -0.001782 0.000000
# 4 0.000000 0.000000 0.000000 0.053048 0.000000 0.014407
# 5 -0.000248 0.003293 -0.001782 0.000000 0.024954 0.000000
# 6 0.000000 0.000000 0.000000 0.014407 0.000000 0.055545
#
#
# Mechanical properties :
#
#
# Convention : Reuss Voigt Hill
#
# Bulk Modulus (GPa) = 40.36593 48.79918 44.58255
# Shear Modulus (GPa) = 26.18002 32.48565 29.33284
#
# Velocity S-wave (km/s) = 3.68512 4.10500 3.90071
# Velocity P-wave (km/s) = 6.24864 6.91239 6.58888
#
# Compressibility (1/GPa) = 0.02477337
#
# Stress axis : x y z
#
# Youngs Moduli (GPa) = 129.23549 52.31752 98.76664
#
# Poissons Ratio (x) = 0.13009 0.19162
# Poissons Ratio (y) = 0.32134 0.16545
# Poissons Ratio (z) = 0.25073 0.08764
#
# Static dielectric constant tensor:
#      x y z
#    x 1.747130 0.000000 -0.016990 
#    y 0.000000 1.672450 0.000000 
#    z -0.016990 0.000000 1.724310 
# 
# From -- ./inp_files/122005.got.cif
#   From: 2010.05.17/outbox.cif.g08.bks.cpg/sg12_62_cif.got.tgz:122005.got - 2010.06.03 13:09:07.
