data_PCOD9217916
_publ_section_title
;
Structure prediction by ZEFSAII (Michael W. Deem and Ramdas Pophale) SiO2 
 PCOD9217916
Probable space group: C 2/M
;
_chemical_formula_sum "Si O2"
_cell_formula_units_Z 44
_cell_length_a 10.046513
_cell_length_b 21.856690
_cell_length_c 10.991422
_cell_angle_alpha 90.000000
_cell_angle_beta 113.703678
_cell_angle_gamma 90.000000
_cell_volume 2209.921561
_symmetry_space_group_name_H-M "C 2/M"
_symmetry_group_IT_number 12
_symmetry_cell_setting 'monoclinic'
loop_
_space_group_symop_operation_xyz
x,y,z
-x,y,-z
-x,-y,-z
x,-y,z
1/2+x,1/2+y,z
1/2-x,1/2+y,-z
1/2-x,1/2-y,-z
1/2+x,1/2-y,z
loop_
_atom_site_type_symbol
_atom_site_label
_atom_site_fract_x
_atom_site_fract_y
_atom_site_fract_z
Si Si1 0.850896 0.000000 0.611650
Si Si2 0.806549 0.630184 0.811946
Si Si3 0.873232 0.666631 0.112526
Si Si4 0.721120 0.629439 0.298518
Si Si5 0.195425 0.000000 0.687940
Si Si6 0.547974 0.285255 0.734461
Si Si7 0.000000 0.696495 0.500000
O O1 0.807180 0.060731 0.668502
O O2 0.784764 0.000000 0.450975
O O3 0.024165 0.000000 0.654376
O O4 0.762543 0.561038 0.769505
O O5 0.678232 0.675468 0.723285
O O6 0.961705 0.643354 0.809559
O O7 0.824739 0.645711 0.961571
O O8 0.770744 0.637970 0.177481
O O9 0.886660 0.739715 0.139100
O O10 0.576395 0.669629 0.264870
O O11 0.855763 0.656905 0.424888
O O12 0.483770 0.240233 0.609948
#
# Coordination Sequence:
#
# PCOD9217916 Si02
#       7
#     4   8   8   8   4   8   4
#     4  11  26  45  68  96 130 169 222 270 321 385
#     4  11  24  44  68  91 136 178 216 260 322 394
#     4  10  24  42  65 102 130 166 219 268 332 371
#     4  11  24  42  66  99 130 168 219 274 322 375
#     4  11  26  45  69  94 127 179 222 257 322 398
#     4  11  22  41  68  96 134 174 214 265 324 395
#     4  10  24  37  64  99 134 168 214 268 340 376
#
# _framework density 19.910208000000001
#
# number of rings (size 3 to 8) (size 9 to 14) (size 15 to 20)
#    0.000    1.273    1.818    3.273    7.636    5.455 
#    0.000    0.909    0.000    0.000    0.000    0.000 
#    0.000    0.000    0.000    0.000    0.000    0.000 
#
# Total GULP energy -123011.865282 kJ/mol
# GULP energy per Si atom -5591.448422 kJ/mol
# Density = 1.986489 g / cm^3
# Si number density = 19.910208 Si / 1000 Ang^3
#
#
#
# Elastic Constant Matrix: (Units=GPa)
#
#
# Indices 1 2 3 4 5 6 
#
# 1 102.9575 53.8435 19.7369 0.0000 -14.2652 0.0000
# 2 53.8435 183.3048 47.1680 0.0000 -12.6039 0.0000
# 3 19.7369 47.1680 64.3706 0.0000 -9.5742 0.0000
# 4 0.0000 0.0000 0.0000 26.5342 0.0000 -1.7698
# 5 -14.2652 -12.6039 -9.5742 0.0000 22.5052 0.0000
# 6 0.0000 0.0000 0.0000 -1.7698 0.0000 54.4746
#
#
#
# Elastic Compliance Matrix: (Units=1/GPa)
#
#
# Indices 1 2 3 4 5 6 
#
# 1 0.012220 -0.003019 -0.000677 0.000000 0.005767 0.000000
# 2 -0.003019 0.007536 -0.004541 0.000000 0.000375 0.000000
# 3 -0.000677 -0.004541 0.019886 0.000000 0.005488 0.000000
# 4 0.000000 0.000000 0.000000 0.037769 0.000000 0.001227
# 5 0.005767 0.000375 0.005488 0.000000 0.050635 0.000000
# 6 0.000000 0.000000 0.000000 0.001227 0.000000 0.018397
#
#
# Mechanical properties :
#
#
# Convention : Reuss Voigt Hill
#
# Bulk Modulus (GPa) = 43.16029 65.79219 54.47624
# Shear Modulus (GPa) = 29.30133 36.02842 32.66488
#
# Velocity S-wave (km/s) = 3.84040 4.25849 4.05484
# Velocity P-wave (km/s) = 6.43346 7.56940 7.02443
#
# Compressibility (1/GPa) = 0.02316944
#
# Stress axis : x y z
#
# Youngs Moduli (GPa) = 81.83063 132.68932 50.28604
#
# Poissons Ratio (x) = 0.40056 0.03405
# Poissons Ratio (y) = 0.24703 0.22834
# Poissons Ratio (z) = 0.05541 0.60253
#
# Static dielectric constant tensor:
#      x y z
#    x 1.686950 0.000000 0.008580 
#    y 0.000000 1.671390 0.000000 
#    z 0.008580 0.000000 1.725270 
# 
# From -- ./inp_files/122153.got.cif
#   From: 2010.05.17/outbox.cif.g08.bks.cpg/sg12_62_cif.got.tgz:122153.got - 2010.06.03 13:09:07.
