data_PCOD9217275
_publ_section_title
;
Structure prediction by ZEFSAII (Michael W. Deem and Ramdas Pophale) SiO2 
 PCOD9217275
Probable space group: C 2/M
;
_chemical_formula_sum "Si O2"
_cell_formula_units_Z 64
_cell_length_a 9.783684
_cell_length_b 23.296216
_cell_length_c 28.415136
_cell_angle_alpha 90.000000
_cell_angle_beta 150.948844
_cell_angle_gamma 90.000000
_cell_volume 3144.905238
_symmetry_space_group_name_H-M "C 2/M"
_symmetry_group_IT_number 12
_symmetry_cell_setting 'monoclinic'
loop_
_space_group_symop_operation_xyz
x,y,z
-x,y,-z
-x,-y,-z
x,-y,z
1/2+x,1/2+y,z
1/2-x,1/2+y,-z
1/2-x,1/2-y,-z
1/2+x,1/2-y,z
loop_
_atom_site_type_symbol
_atom_site_label
_atom_site_fract_x
_atom_site_fract_y
_atom_site_fract_z
Si Si1 0.166733 0.065495 0.279297
Si Si2 0.636108 0.834952 0.729771
Si Si3 0.689384 0.737212 0.426873
Si Si4 0.255830 0.866460 0.704274
Si Si5 0.302374 0.568008 0.605249
Si Si6 0.678240 0.864548 0.912019
Si Si7 0.514017 0.064587 0.059100
Si Si8 0.297425 0.267243 0.068865
O O1 0.305214 0.109779 0.284971
O O2 0.156738 0.089981 0.329336
O O3 0.841824 0.061139 0.168372
O O4 0.285715 0.000000 0.313722
O O5 0.452726 0.790325 0.643801
O O6 0.453779 0.852592 0.720214
O O7 0.932950 0.806373 0.837092
O O8 0.750000 0.750000 0.500000
O O9 0.454159 0.687416 0.350239
O O10 0.000000 0.724492 0.500000
O O11 0.452960 0.886843 0.806836
O O12 0.026886 0.916527 0.633161
O O13 0.298889 0.500000 0.608879
O O14 0.000000 0.589733 0.500000
O O15 0.610822 0.887648 0.943766
O O16 0.653631 0.796307 0.895468
O O17 0.000000 0.881033 0.000000
O O18 0.390663 0.000000 0.030114
O O19 0.500000 0.077824 0.000000
O O20 0.250000 0.250000 0.000000
O O21 0.000000 0.289180 0.000000
#
# Coordination Sequence:
#
# PCOD9217275 Si02
#       8
#     8   8   8   8   8   8   8   8
#     4  10  24  44  67  98 133 175 228 280 342 416
#     4  12  27  43  69 101 137 181 228 286 348 408
#     4  12  27  46  68  99 141 179 227 285 348 412
#     4  12  25  44  68 100 136 177 232 283 346 413
#     4  10  23  45  73 101 133 179 232 289 355 416
#     4  11  24  42  65  96 138 174 222 282 340 407
#     4  10  23  42  65  95 133 181 231 276 334 405
#     4  11  26  42  63  94 135 176 223 270 335 406
#
# _framework density 20.350375
#
# number of rings (size 3 to 8) (size 9 to 14) (size 15 to 20)
#    0.000    1.000    3.750    1.875    8.750    0.750 
#    0.000    0.000    0.000    2.625    0.000    0.000 
#    0.000    0.000    0.000    0.000    0.000    0.000 
#
# Total GULP energy -178548.780169 kJ/mol
# GULP energy per Si atom -5579.649380 kJ/mol
# Density = 2.030406 g / cm^3
# Si number density = 20.350375 Si / 1000 Ang^3
#
#
#
# Elastic Constant Matrix: (Units=GPa)
#
#
# Indices 1 2 3 4 5 6 
#
# 1 157.5340 49.1806 76.5281 -0.0020 12.9176 -0.0009
# 2 49.1806 85.0521 32.8234 0.0046 14.4249 0.0015
# 3 76.5281 32.8234 128.8832 -0.0204 6.3724 -0.0056
# 4 -0.0020 0.0046 -0.0204 24.6610 -0.0016 1.3511
# 5 12.9176 14.4249 6.3724 -0.0016 45.2311 -0.0010
# 6 -0.0009 0.0015 -0.0056 1.3511 -0.0010 33.8523
#
#
#
# Elastic Compliance Matrix: (Units=1/GPa)
#
#
# Indices 1 2 3 4 5 6 
#
# 1 0.009981 -0.003701 -0.004936 -0.000003 -0.000975 0.000000
# 2 -0.003701 0.015063 -0.001463 -0.000005 -0.003541 -0.000001
# 3 -0.004936 -0.001463 0.011047 0.000009 0.000320 0.000001
# 4 -0.000003 -0.000005 0.000009 0.040639 0.000002 -0.001622
# 5 -0.000975 -0.003541 0.000320 0.000002 0.023471 0.000001
# 6 0.000000 -0.000001 0.000001 -0.001622 0.000001 0.029605
#
#
# Mechanical properties :
#
#
# Convention : Reuss Voigt Hill
#
# Bulk Modulus (GPa) = 62.93345 76.50373 69.71859
# Shear Modulus (GPa) = 32.19526 34.94469 33.56998
#
# Velocity S-wave (km/s) = 3.98181 4.14835 4.06593
# Velocity P-wave (km/s) = 7.22024 7.78588 7.50839
#
# Compressibility (1/GPa) = 0.01588980
#
# Stress axis : x y z
#
# Youngs Moduli (GPa) = 100.19076 66.38798 90.52628
#
# Poissons Ratio (x) = 0.24572 0.44681
# Poissons Ratio (y) = 0.37084 0.13247
# Poissons Ratio (z) = 0.49451 0.09715
#
# Static dielectric constant tensor:
#      x y z
#    x 1.708570 0.000000 -0.016810 
#    y 0.000000 1.799440 -0.000010 
#    z -0.016810 -0.000010 1.723900 
# 
# From -- ./inp_files/373287.got.cif
#   From: 2010.05.17/outbox.cif.g08.bks.cpg/sg12_187_cif.got.tgz:373287.got - 2010.06.03 13:09:07.
