data_PCOD9217878
_publ_section_title
;
Structure prediction by ZEFSAII (Michael W. Deem and Ramdas Pophale) SiO2 
 PCOD9217878
Probable space group: C 2/M
;
_chemical_formula_sum "Si O2"
_cell_formula_units_Z 16
_cell_length_a 10.474974
_cell_length_b 13.823065
_cell_length_c 7.356918
_cell_angle_alpha 90.000000
_cell_angle_beta 142.212863
_cell_angle_gamma 90.000000
_cell_volume 652.712776
_symmetry_space_group_name_H-M "C 2/M"
_symmetry_group_IT_number 12
_symmetry_cell_setting 'monoclinic'
loop_
_space_group_symop_operation_xyz
x,y,z
-x,y,-z
-x,-y,-z
x,-y,z
1/2+x,1/2+y,z
1/2-x,1/2+y,-z
1/2-x,1/2-y,-z
1/2+x,1/2-y,z
loop_
_atom_site_type_symbol
_atom_site_label
_atom_site_fract_x
_atom_site_fract_y
_atom_site_fract_z
Si Si1 0.879822 0.000000 0.660500
Si Si2 0.116085 0.668052 0.449536
Si Si3 0.681275 0.000000 0.033082
O O1 0.796266 0.089660 0.681065
O O2 0.756027 0.000000 0.325886
O O3 0.113568 0.000000 0.857933
O O4 0.250000 0.750000 0.500000
O O5 0.000000 0.704714 0.500000
O O6 0.942494 0.600113 0.153021
#
# Coordination Sequence:
#
# PCOD9217878 Si02
#       3
#     4   8   4
#     4  10  23  48  71  99 139 186 228 282 343 409
#     4  11  25  44  70 105 139 179 233 283 345 406
#     4  10  23  48  74  98 141 183 228 285 344 410
#
# _framework density 24.513081
#
# number of rings (size 3 to 8) (size 9 to 14) (size 15 to 20)
#    0.000    1.500    0.000    6.000    7.000    6.000 
#    9.000    0.000    0.000    0.000    0.000    0.000 
#    0.000    0.000    0.000    0.000    0.000    0.000 
#
# Total GULP energy -44635.079415 kJ/mol
# GULP energy per Si atom -5579.384927 kJ/mol
# Density = 2.445729 g / cm^3
# Si number density = 24.513081 Si / 1000 Ang^3
#
#
#
# Elastic Constant Matrix: (Units=GPa)
#
#
# Indices 1 2 3 4 5 6 
#
# 1 288.7361 89.8809 60.2885 0.0000 32.8885 0.0000
# 2 89.8809 170.3410 29.0013 0.0000 19.9503 0.0000
# 3 60.2885 29.0013 152.4273 0.0000 1.2308 0.0000
# 4 0.0000 0.0000 0.0000 -12.1443 0.0000 14.2763
# 5 32.8885 19.9503 1.2308 0.0000 59.8571 0.0000
# 6 0.0000 0.0000 0.0000 14.2763 0.0000 64.2550
#
#
#
# Elastic Compliance Matrix: (Units=1/GPa)
#
#
# Indices 1 2 3 4 5 6 
#
# 1 0.004579 -0.001959 -0.001424 0.000000 -0.001834 0.000000
# 2 -0.001959 0.007154 -0.000576 0.000000 -0.001296 0.000000
# 3 -0.001424 -0.000576 0.007226 0.000000 0.000826 0.000000
# 4 0.000000 0.000000 0.000000 -0.065290 0.000000 0.014506
# 5 -0.001834 -0.001296 0.000826 0.000000 0.018129 0.000000
# 6 0.000000 0.000000 0.000000 0.014506 0.000000 0.012340
#
#
# Mechanical properties :
#
#
# Convention : Reuss Voigt Hill
#
# Bulk Modulus (GPa) = 90.55728 107.76065 99.15896
# Shear Modulus (GPa) = -1172.97957 51.21580 -560.88188
#
# Velocity S-wave (km/s) = -21.89864 4.57587 -15.14285
# Velocity P-wave (km/s) = 24.54339 8.48375 16.28502
#
# Compressibility (1/GPa) = 0.01104273
#
# Stress axis : x y z
#
# Youngs Moduli (GPa) = 218.36946 139.77856 138.37960
#
# Poissons Ratio (x) = 0.27385 0.19701
# Poissons Ratio (y) = 0.42782 0.07968
# Poissons Ratio (z) = 0.31089 0.08049
#
# Static dielectric constant tensor:
#      x y z
#    x 1.929200 0.000000 -0.045650 
#    y 0.000000 2.182120 0.000000 
#    z -0.045650 0.000000 2.109830 
# 
# From -- ./inp_files/43074.got.cif
#   From: 2010.05.17/outbox.cif.g08.bks.cpg/sg12_22_cif.got.tgz:43074.got - 2010.06.03 13:09:07.
