data_PCOD9217466
_publ_section_title
;
Structure prediction by ZEFSAII (Michael W. Deem and Ramdas Pophale) SiO2 
 PCOD9217466
Probable space group: C 2/M
;
_chemical_formula_sum "Si O2"
_cell_formula_units_Z 50
_cell_length_a 13.168253
_cell_length_b 23.987209
_cell_length_c 9.227358
_cell_angle_alpha 90.000000
_cell_angle_beta 104.057427
_cell_angle_gamma 90.000000
_cell_volume 2827.356739
_symmetry_space_group_name_H-M "C 2/M"
_symmetry_group_IT_number 12
_symmetry_cell_setting 'monoclinic'
loop_
_space_group_symop_operation_xyz
x,y,z
-x,y,-z
-x,-y,-z
x,-y,z
1/2+x,1/2+y,z
1/2-x,1/2+y,-z
1/2-x,1/2-y,-z
1/2+x,1/2-y,z
loop_
_atom_site_type_symbol
_atom_site_label
_atom_site_fract_x
_atom_site_fract_y
_atom_site_fract_z
Si Si1 0.328473 0.438413 0.615146
Si Si2 0.442832 0.843225 0.828700
Si Si3 0.721856 0.754215 0.158742
Si Si4 0.557084 0.342614 0.169567
Si Si5 0.595889 0.066259 0.422510
Si Si6 0.500000 0.500000 0.500000
Si Si7 0.550656 0.746553 0.675293
O O1 0.315733 0.500000 0.683007
O O2 0.384103 0.394164 0.737356
O O3 0.212256 0.420520 0.524958
O O4 0.411189 0.452232 0.515232
O O5 0.334807 0.812155 0.827751
O O6 0.424617 0.897362 0.726358
O O7 0.508309 0.797800 0.758047
O O8 0.500000 0.854407 0.000000
O O9 0.641689 0.704906 0.163547
O O10 0.825216 0.748359 0.289266
O O11 0.750000 0.750000 0.000000
O O12 0.478607 0.310815 0.252053
O O13 0.500000 0.357953 0.000000
O O14 0.500000 0.077946 0.500000
O O15 0.595399 0.000000 0.393012
O O16 0.500000 0.748101 0.500000
#
# Coordination Sequence:
#
# PCOD9217466 Si02
#       7
#     8   8   8   8   8   2   8
#     4   9  22  41  65  88 124 161 205 258 311 363
#     4  11  23  38  61  92 124 162 206 254 303 369
#     4  11  21  41  59  86 133 166 196 252 317 361
#     4  11  23  38  61  92 123 163 209 249 308 375
#     4  10  23  43  66  90 124 163 209 261 312 366
#     4   8  20  44  60  88 126 152 196 268 304 364
#     4  11  24  37  59  91 123 165 203 255 304 368
#
# _framework density 17.684360999999999
#
# number of rings (size 3 to 8) (size 9 to 14) (size 15 to 20)
#    0.480    1.120    3.200    1.440    7.840    1.920 
#    0.000    0.000    0.000    0.960    0.000    0.000 
#    0.000    0.000    0.000    0.000    0.000    0.000 
#
# Total GULP energy -139169.834625 kJ/mol
# GULP energy per Si atom -5566.793385 kJ/mol
# Density = 1.764411 g / cm^3
# Si number density = 17.684361 Si / 1000 Ang^3
#
#
#
# Elastic Constant Matrix: (Units=GPa)
#
#
# Indices 1 2 3 4 5 6 
#
# 1 117.2803 23.6578 54.2362 0.0000 16.5896 0.0000
# 2 23.6578 75.0330 64.1020 0.0000 5.1887 0.0000
# 3 54.2362 64.1020 146.6093 0.0000 20.9111 0.0000
# 4 0.0000 0.0000 0.0000 18.1650 0.0000 5.8142
# 5 16.5896 5.1887 20.9111 0.0000 30.0227 0.0000
# 6 0.0000 0.0000 0.0000 5.8142 0.0000 12.3960
#
#
#
# Elastic Compliance Matrix: (Units=1/GPa)
#
#
# Indices 1 2 3 4 5 6 
#
# 1 0.010606 -0.000283 -0.003299 0.000000 -0.003514 0.000000
# 2 -0.000283 0.021547 -0.009779 0.000000 0.003244 0.000000
# 3 -0.003299 -0.009779 0.013119 0.000000 -0.005625 0.000000
# 4 0.000000 0.000000 0.000000 0.064775 0.000000 -0.030382
# 5 -0.003514 0.003244 -0.005625 0.000000 0.038607 0.000000
# 6 0.000000 0.000000 0.000000 -0.030382 0.000000 0.094921
#
#
# Mechanical properties :
#
#
# Convention : Reuss Voigt Hill
#
# Bulk Modulus (GPa) = 53.90561 69.21272 61.55916
# Shear Modulus (GPa) = 18.08452 25.24520 21.66486
#
# Velocity S-wave (km/s) = 3.20132 3.78238 3.50392
# Velocity P-wave (km/s) = 6.64928 7.63531 7.15929
#
# Compressibility (1/GPa) = 0.01855094
#
# Stress axis : x y z
#
# Youngs Moduli (GPa) = 94.28417 46.41119 76.22561
#
# Poissons Ratio (x) = 0.01313 0.25144
# Poissons Ratio (y) = 0.02668 0.74539
# Poissons Ratio (z) = 0.31101 0.45384
#
# Static dielectric constant tensor:
#      x y z
#    x 1.624720 0.000000 0.011840 
#    y 0.000000 1.600340 0.000000 
#    z 0.011840 0.000000 1.527720 
# 
# From -- ./inp_files/65514.got.cif
#   From: 2010.05.17/outbox.cif.g08.bks.cpg/sg12_33_cif.got.tgz:65514.got - 2010.06.03 13:09:07.
