data_PCOD9217030
_publ_section_title
;
Structure prediction by ZEFSAII (Michael W. Deem and Ramdas Pophale) SiO2 
 PCOD9217030
Probable space group: C 2/M
;
_chemical_formula_sum "Si O2"
_cell_formula_units_Z 32
_cell_length_a 11.192727
_cell_length_b 13.072578
_cell_length_c 10.743913
_cell_angle_alpha 90.000000
_cell_angle_beta 102.529495
_cell_angle_gamma 90.000000
_cell_volume 1534.587035
_symmetry_space_group_name_H-M "C 2/M"
_symmetry_group_IT_number 12
_symmetry_cell_setting 'monoclinic'
loop_
_space_group_symop_operation_xyz
x,y,z
-x,y,-z
-x,-y,-z
x,-y,z
1/2+x,1/2+y,z
1/2-x,1/2+y,-z
1/2-x,1/2-y,-z
1/2+x,1/2-y,z
loop_
_atom_site_type_symbol
_atom_site_label
_atom_site_fract_x
_atom_site_fract_y
_atom_site_fract_z
Si Si1 0.144722 0.886538 0.052242
Si Si2 0.642529 0.774001 0.574187
Si Si3 0.394930 0.000000 0.368671
Si Si4 0.263736 0.176283 0.819741
Si Si5 0.453674 0.000000 0.845511
O O1 0.183389 0.788416 0.139439
O O2 0.175583 0.000000 0.107976
O O3 0.208471 0.870652 0.932933
O O4 0.000000 0.882449 0.000000
O O5 0.500000 0.767459 0.500000
O O6 0.750000 0.750000 0.500000
O O7 0.666867 0.890865 0.622386
O O8 0.663419 0.694965 0.691784
O O9 0.500000 0.000000 0.500000
O O10 0.446289 0.000000 0.239777
O O11 0.371331 0.100185 0.804932
O O12 0.500000 0.000000 0.000000
#
# Coordination Sequence:
#
# PCOD9217030 Si02
#       5
#     8   8   4   8   4
#     4  10  23  41  64  97 138 177 225 285 362 429
#     4  11  26  47  72 102 140 186 245 298 355 427
#     4  10  24  46  74  98 137 194 243 287 350 437
#     4  11  24  41  68  98 138 181 237 288 360 417
#     4  12  26  44  73 108 145 192 248 293 355 441
#
# _framework density 20.852513999999999
#
# number of rings (size 3 to 8) (size 9 to 14) (size 15 to 20)
#    0.000    1.250    1.250    3.750   15.750    0.000 
#    0.000    2.500    0.000    0.000    0.000    0.000 
#    0.000    0.000    0.000    0.000    0.000    0.000 
#
# Total GULP energy -89398.211242 kJ/mol
# GULP energy per Si atom -5587.388203 kJ/mol
# Density = 2.080505 g / cm^3
# Si number density = 20.852514 Si / 1000 Ang^3
#
#
#
# Elastic Constant Matrix: (Units=GPa)
#
#
# Indices 1 2 3 4 5 6 
#
# 1 131.4146 67.6427 35.2472 0.0000 -1.1503 0.0000
# 2 67.6427 166.8751 52.3083 0.0000 -1.5446 0.0000
# 3 35.2472 52.3083 82.9790 0.0000 11.1431 0.0000
# 4 0.0000 0.0000 0.0000 113.2882 0.0000 -5.8175
# 5 -1.1503 -1.5446 11.1431 0.0000 33.7234 0.0000
# 6 0.0000 0.0000 0.0000 -5.8175 0.0000 52.1964
#
#
#
# Elastic Compliance Matrix: (Units=1/GPa)
#
#
# Indices 1 2 3 4 5 6 
#
# 1 0.009925 -0.003307 -0.002256 0.000000 0.000933 0.000000
# 2 -0.003307 0.008700 -0.004309 0.000000 0.001709 0.000000
# 3 -0.002256 -0.004309 0.016495 0.000000 -0.005725 0.000000
# 4 0.000000 0.000000 0.000000 0.008878 0.000000 0.000989
# 5 0.000933 0.001709 -0.005725 0.000000 0.031655 0.000000
# 6 0.000000 0.000000 0.000000 0.000989 0.000000 0.019269
#
#
# Mechanical properties :
#
#
# Convention : Reuss Voigt Hill
#
# Bulk Modulus (GPa) = 65.04237 76.85168 70.94703
# Shear Modulus (GPa) = 41.73969 54.91297 48.32633
#
# Velocity S-wave (km/s) = 4.47885 5.13723 4.81930
# Velocity P-wave (km/s) = 7.61617 8.49253 8.06626
#
# Compressibility (1/GPa) = 0.01537459
#
# Stress axis : x y z
#
# Youngs Moduli (GPa) = 100.75366 114.94873 60.62603
#
# Poissons Ratio (x) = 0.38017 0.13679
# Poissons Ratio (y) = 0.33322 0.26122
# Poissons Ratio (z) = 0.22734 0.49528
#
# Static dielectric constant tensor:
#      x y z
#    x 1.758300 0.000000 0.019210 
#    y 0.000000 1.723190 0.000000 
#    z 0.019210 0.000000 1.767670 
# 
# From -- ./inp_files/127332.got.cif
#   From: 2010.05.17/outbox.cif.g08.bks.cpg/sg12_64_cif.got.tgz:127332.got - 2010.06.03 13:09:07.
