data_PCOD9217971
_publ_section_title
;
Structure prediction by ZEFSAII (Michael W. Deem and Ramdas Pophale) SiO2 
 PCOD9217971
Probable space group: C 2/M
;
_chemical_formula_sum "Si O2"
_cell_formula_units_Z 56
_cell_length_a 9.108043
_cell_length_b 14.939359
_cell_length_c 27.521294
_cell_angle_alpha 90.000000
_cell_angle_beta 130.782220
_cell_angle_gamma 90.000000
_cell_volume 2835.536373
_symmetry_space_group_name_H-M "C 2/M"
_symmetry_group_IT_number 12
_symmetry_cell_setting 'monoclinic'
loop_
_space_group_symop_operation_xyz
x,y,z
-x,y,-z
-x,-y,-z
x,-y,z
1/2+x,1/2+y,z
1/2-x,1/2+y,-z
1/2-x,1/2-y,-z
1/2+x,1/2-y,z
loop_
_atom_site_type_symbol
_atom_site_label
_atom_site_fract_x
_atom_site_fract_y
_atom_site_fract_z
Si Si1 0.572820 0.500000 0.595408
Si Si2 0.684255 0.000000 0.447448
Si Si3 0.625071 0.395872 0.951691
Si Si4 0.677978 0.317934 0.664784
Si Si5 0.197538 0.395629 0.907304
Si Si6 0.392742 0.239676 0.245925
Si Si7 0.035169 0.213176 0.842143
Si Si8 0.445613 0.190098 0.544201
O O1 0.373872 0.500000 0.522690
O O2 0.742381 0.500000 0.591845
O O3 0.590918 0.412013 0.630970
O O4 0.579912 0.093215 0.436783
O O5 0.645877 0.500000 0.943130
O O6 0.407233 0.384359 0.926387
O O7 0.651059 0.335902 0.909813
O O8 0.766484 0.377852 0.027626
O O9 0.610830 0.291017 0.703924
O O10 0.600811 0.246210 0.608761
O O11 0.911157 0.317524 0.713788
O O12 0.140392 0.500000 0.888861
O O13 0.057778 0.319878 0.856178
O O14 0.189863 0.186928 0.201317
O O15 0.397718 0.300801 0.198542
O O16 0.500000 0.177069 0.500000
O O17 0.250000 0.250000 0.500000
#
# Coordination Sequence:
#
# PCOD9217971 Si02
#       8
#     4   4   8   8   8   8   8   8
#     4  11  22  40  68  92 128 152 206 249 303 386
#     4  11  23  38  64 108 118 158 200 243 328 378
#     4   9  18  34  59  93 119 152 194 253 307 369
#     4  11  23  44  62  89 121 162 202 250 300 355
#     4   9  18  34  61  90 120 152 200 245 309 366
#     4  10  24  40  59  81 118 163 213 239 288 354
#     4  11  19  40  60  86 118 161 202 253 295 356
#     4  12  23  40  69  95 130 160 196 262 315 366
#
# _framework density 19.749351000000001
#
# number of rings (size 3 to 8) (size 9 to 14) (size 15 to 20)
#    0.000    1.571    2.857    4.071    0.000    0.000 
#    7.714    0.000    3.143    1.714    0.000    0.000 
#    0.000    0.000    0.000    0.000    0.000    0.000 
#
# Total GULP energy -156360.694716 kJ/mol
# GULP energy per Si atom -5584.310526 kJ/mol
# Density = 1.970440 g / cm^3
# Si number density = 19.749351 Si / 1000 Ang^3
#
#
#
# Elastic Constant Matrix: (Units=GPa)
#
#
# Indices 1 2 3 4 5 6 
#
# 1 34.0301 -14.5981 4.9576 0.0000 -4.7867 0.0000
# 2 -14.5981 74.9015 27.4611 0.0000 -0.3921 0.0000
# 3 4.9576 27.4611 92.4301 0.0000 -23.3771 0.0000
# 4 0.0000 0.0000 0.0000 116.7052 0.0000 37.2732
# 5 -4.7867 -0.3921 -23.3771 0.0000 38.1750 0.0000
# 6 0.0000 0.0000 0.0000 37.2732 0.0000 23.7466
#
#
#
# Elastic Compliance Matrix: (Units=1/GPa)
#
#
# Indices 1 2 3 4 5 6 
#
# 1 0.033587 0.007884 -0.003618 0.000000 0.002077 0.000000
# 2 0.007884 0.017138 -0.006177 0.000000 -0.002618 0.000000
# 3 -0.003618 -0.006177 0.015048 0.000000 0.008698 0.000000
# 4 0.000000 0.000000 0.000000 0.017182 0.000000 -0.026969
# 5 0.002077 -0.002618 0.008698 0.000000 0.031755 0.000000
# 6 0.000000 0.000000 0.000000 -0.026969 0.000000 0.084443
#
#
# Mechanical properties :
#
#
# Convention : Reuss Voigt Hill
#
# Bulk Modulus (GPa) = 16.14216 26.33365 21.23790
# Shear Modulus (GPa) = 22.35876 47.96144 35.16010
#
# Velocity S-wave (km/s) = 3.36836 4.93333 4.22396
# Velocity P-wave (km/s) = 4.82898 6.76855 5.87930
#
# Compressibility (1/GPa) = 0.06194959
#
# Stress axis : x y z
#
# Youngs Moduli (GPa) = 29.77357 58.34918 66.45417
#
# Poissons Ratio (x) = -0.46000 0.24046
# Poissons Ratio (y) = -0.23472 0.41047
# Poissons Ratio (z) = 0.10774 0.36041
#
# Static dielectric constant tensor:
#      x y z
#    x 1.719930 0.000000 -0.005130 
#    y 0.000000 1.632550 0.000000 
#    z -0.005130 0.000000 1.694670 
# 
# From -- ./inp_files/333049.got.cif
#   From: 2010.05.17/outbox.cif.g08.bks.cpg/sg12_167_cif.got.tgz:333049.got - 2010.06.03 13:09:07.
