data_PCOD9217531
_publ_section_title
;
Structure prediction by ZEFSAII (Michael W. Deem and Ramdas Pophale) SiO2 
 PCOD9217531
Probable space group: C 2/M
;
_chemical_formula_sum "Si O2"
_cell_formula_units_Z 60
_cell_length_a 12.567550
_cell_length_b 21.340766
_cell_length_c 23.766835
_cell_angle_alpha 90.000000
_cell_angle_beta 29.304751
_cell_angle_gamma 90.000000
_cell_volume 3119.927739
_symmetry_space_group_name_H-M "C 2/M"
_symmetry_group_IT_number 12
_symmetry_cell_setting 'monoclinic'
loop_
_space_group_symop_operation_xyz
x,y,z
-x,y,-z
-x,-y,-z
x,-y,z
1/2+x,1/2+y,z
1/2-x,1/2+y,-z
1/2-x,1/2-y,-z
1/2+x,1/2-y,z
loop_
_atom_site_type_symbol
_atom_site_label
_atom_site_fract_x
_atom_site_fract_y
_atom_site_fract_z
Si Si1 0.849935 0.431900 0.014011
Si Si2 0.537243 0.924308 0.217176
Si Si3 0.540114 0.074770 0.618274
Si Si4 0.503729 0.275014 0.113007
Si Si5 0.851154 0.641103 0.198187
Si Si6 0.114341 0.881545 0.749793
Si Si7 0.500000 0.642989 0.000000
Si Si8 0.414569 0.576140 0.359304
O O1 0.892214 0.500000 0.968972
O O2 0.597704 0.425080 0.143733
O O3 0.000000 0.426527 0.000000
O O4 0.930248 0.380201 0.934513
O O5 0.463530 0.908920 0.314578
O O6 0.387053 0.884904 0.244064
O O7 0.784700 0.900042 0.095185
O O8 0.523385 0.000000 0.214997
O O9 0.323672 0.099509 0.688643
O O10 0.752973 0.092593 0.484852
O O11 0.528465 0.000000 0.620648
O O12 0.343478 0.215220 0.191865
O O13 0.461696 0.316238 0.188143
O O14 0.476880 0.314636 0.067405
O O15 0.750000 0.250000 0.000000
O O16 0.651489 0.603724 0.263152
O O17 0.165918 0.890381 0.660495
O O18 0.420683 0.500000 0.349570
#
# Coordination Sequence:
#
# PCOD9217531 Si02
#       8
#     8   8   8   8   8   8   4   8
#     4  11  21  34  58  97 132 155 198 267 331 380
#     4  11  23  41  66  95 131 168 211 269 322 386
#     4  10  23  43  67  98 129 166 214 267 330 386
#     4  12  26  41  63  94 132 180 210 259 318 387
#     4  12  25  41  62  96 131 173 216 256 319 389
#     4  12  22  41  65  96 130 166 214 265 327 384
#     4  12  23  44  66  92 133 168 224 258 324 388
#     4  11  24  43  71  98 126 165 214 276 332 379
#
# _framework density 19.231214999999999
#
# number of rings (size 3 to 8) (size 9 to 14) (size 15 to 20)
#    0.000    0.667    5.333    3.000    2.800    1.600 
#    0.000    2.667    2.933    0.000    0.000    0.000 
#    0.000    0.000    0.000    0.000    0.000    0.000 
#
# Total GULP energy -167526.066133 kJ/mol
# GULP energy per Si atom -5584.202204 kJ/mol
# Density = 1.918744 g / cm^3
# Si number density = 19.231215 Si / 1000 Ang^3
#
#
#
# Elastic Constant Matrix: (Units=GPa)
#
#
# Indices 1 2 3 4 5 6 
#
# 1 75.1872 43.1510 17.1491 -0.0193 20.1421 -0.0011
# 2 43.1510 83.4054 24.0503 0.0117 24.6173 -0.0233
# 3 17.1491 24.0503 71.8240 -0.1176 21.1462 -0.0225
# 4 -0.0193 0.0117 -0.1176 19.4141 -0.0162 4.2439
# 5 20.1421 24.6173 21.1462 -0.0162 29.9191 0.0038
# 6 -0.0011 -0.0233 -0.0225 4.2439 0.0038 25.3241
#
#
#
# Elastic Compliance Matrix: (Units=1/GPa)
#
#
# Indices 1 2 3 4 5 6 
#
# 1 0.019825 -0.008340 -0.000040 0.000021 -0.006457 -0.000009
# 2 -0.008340 0.019541 -0.001858 -0.000044 -0.009150 0.000025
# 3 -0.000040 -0.001858 0.017801 0.000100 -0.011025 -0.000001
# 4 0.000021 -0.000044 0.000100 0.053468 -0.000018 -0.008960
# 5 -0.006457 -0.009150 -0.011025 -0.000018 0.053092 -0.000023
# 6 -0.000009 0.000025 -0.000001 -0.008960 -0.000023 0.040990
#
#
# Mechanical properties :
#
#
# Convention : Reuss Voigt Hill
#
# Bulk Modulus (GPa) = 27.25435 44.34638 35.80037
# Shear Modulus (GPa) = 21.05948 24.66920 22.86434
#
# Velocity S-wave (km/s) = 3.31277 3.58546 3.45181
# Velocity P-wave (km/s) = 5.36985 6.34432 5.87731
#
# Compressibility (1/GPa) = 0.03669139
#
# Stress axis : x y z
#
# Youngs Moduli (GPa) = 50.44091 51.17490 56.17685
#
# Poissons Ratio (x) = 0.42678 0.00225
# Poissons Ratio (y) = 0.42066 0.10438
# Poissons Ratio (z) = 0.00202 0.09508
#
# Static dielectric constant tensor:
#      x y z
#    x 1.667420 0.000030 0.062380 
#    y 0.000030 1.688030 0.000050 
#    z 0.062380 0.000050 1.619290 
# 
# From -- ./inp_files/336849.got.cif
#   From: 2010.05.17/outbox.cif.g08.bks.cpg/sg12_169_cif.got.tgz:336849.got - 2010.06.03 13:09:07.
