data_PCOD9217050
_publ_section_title
;
Structure prediction by ZEFSAII (Michael W. Deem and Ramdas Pophale) SiO2 
 PCOD9217050
Probable space group: C 2/M
;
_chemical_formula_sum "Si O2"
_cell_formula_units_Z 48
_cell_length_a 27.710921
_cell_length_b 19.748438
_cell_length_c 9.946454
_cell_angle_alpha 90.000000
_cell_angle_beta 153.355280
_cell_angle_gamma 90.000000
_cell_volume 2441.027379
_symmetry_space_group_name_H-M "C 2/M"
_symmetry_group_IT_number 12
_symmetry_cell_setting 'monoclinic'
loop_
_space_group_symop_operation_xyz
x,y,z
-x,y,-z
-x,-y,-z
x,-y,z
1/2+x,1/2+y,z
1/2-x,1/2+y,-z
1/2-x,1/2-y,-z
1/2+x,1/2-y,z
loop_
_atom_site_type_symbol
_atom_site_label
_atom_site_fract_x
_atom_site_fract_y
_atom_site_fract_z
Si Si1 0.667752 0.078365 0.565430
Si Si2 0.878676 0.076011 0.250155
Si Si3 0.510868 0.842818 0.371639
Si Si4 0.665353 0.847515 0.282015
Si Si5 0.851676 0.216518 0.327773
Si Si6 0.623123 0.701219 0.299202
O O1 0.604434 0.119485 0.521965
O O2 0.643910 0.106634 0.358156
O O3 0.637412 0.000000 0.497018
O O4 0.793447 0.085023 0.916722
O O5 0.863582 0.139246 0.310971
O O6 0.000000 0.077720 0.500000
O O7 0.858124 0.000000 0.255631
O O8 0.500000 0.861798 0.500000
O O9 0.545048 0.763462 0.449284
O O10 0.404103 0.861256 0.023217
O O11 0.628967 0.772117 0.234947
O O12 0.791178 0.847047 0.558884
O O13 0.837129 0.217098 0.451388
O O14 0.750000 0.250000 0.000000
O O15 0.500000 0.677371 0.000000
#
# Coordination Sequence:
#
# PCOD9217050 Si02
#       6
#     8   8   8   8   8   8
#     4  11  24  45  68  93 132 178 224 272 334 407
#     4  10  23  41  65  95 132 177 222 268 329 401
#     4  12  24  40  65 101 130 166 223 279 333 398
#     4  11  23  41  64  96 132 171 218 265 334 396
#     4  12  21  39  66  98 130 170 213 276 335 387
#     4  11  22  38  63  96 129 165 212 275 323 386
#
# _framework density 19.663851000000001
#
# number of rings (size 3 to 8) (size 9 to 14) (size 15 to 20)
#    0.000    0.833    5.000    2.000    2.333    3.000 
#    0.000    0.833    0.000    1.000    0.000    0.000 
#    0.000    0.000    0.000    0.000    0.000    0.000 
#
# Total GULP energy -134093.340223 kJ/mol
# GULP energy per Si atom -5587.222509 kJ/mol
# Density = 1.961910 g / cm^3
# Si number density = 19.663851 Si / 1000 Ang^3
#
#
#
# Elastic Constant Matrix: (Units=GPa)
#
#
# Indices 1 2 3 4 5 6 
#
# 1 122.7969 39.0045 56.0624 0.0000 -18.6398 0.0000
# 2 39.0045 85.8251 44.9234 0.0000 -1.6369 0.0000
# 3 56.0624 44.9234 108.4441 0.0000 -8.7955 0.0000
# 4 0.0000 0.0000 0.0000 21.4146 0.0000 -3.4910
# 5 -18.6398 -1.6369 -8.7955 0.0000 44.2283 0.0000
# 6 0.0000 0.0000 0.0000 -3.4910 0.0000 9.5850
#
#
#
# Elastic Compliance Matrix: (Units=1/GPa)
#
#
# Indices 1 2 3 4 5 6 
#
# 1 0.011733 -0.002872 -0.004557 0.000000 0.003932 0.000000
# 2 -0.002872 0.015601 -0.005112 0.000000 -0.001650 0.000000
# 3 -0.004557 -0.005112 0.013745 0.000000 0.000624 0.000000
# 4 0.000000 0.000000 0.000000 0.049645 0.000000 0.018082
# 5 0.003932 -0.001650 0.000624 0.000000 0.024330 0.000000
# 6 0.000000 0.000000 0.000000 0.018082 0.000000 0.110916
#
#
# Mechanical properties :
#
#
# Convention : Reuss Voigt Hill
#
# Bulk Modulus (GPa) = 62.50846 66.33853 64.42350
# Shear Modulus (GPa) = 19.50193 26.85062 23.17628
#
# Velocity S-wave (km/s) = 3.15265 3.69925 3.43683
# Velocity P-wave (km/s) = 6.71638 7.21495 6.97012
#
# Compressibility (1/GPa) = 0.01599783
#
# Stress axis : x y z
#
# Youngs Moduli (GPa) = 85.22834 64.09815 72.75169
#
# Poissons Ratio (x) = 0.18409 0.33153
# Poissons Ratio (y) = 0.24478 0.37190
# Poissons Ratio (z) = 0.38839 0.32766
#
# Static dielectric constant tensor:
#      x y z
#    x 1.677500 0.000000 0.019960 
#    y 0.000000 1.683690 0.000000 
#    z 0.019960 0.000000 1.726410 
# 
# From -- ./inp_files/106588.got.cif
#   From: 2010.05.17/outbox.cif.g08.bks.cpg/sg12_54_cif.got.tgz:106588.got - 2010.06.03 13:09:07.
