data_PCOD9217496
_publ_section_title
;
Structure prediction by ZEFSAII (Michael W. Deem and Ramdas Pophale) SiO2 
 PCOD9217496
Probable space group: C 2/M
;
_chemical_formula_sum "Si O2"
_cell_formula_units_Z 48
_cell_length_a 14.297536
_cell_length_b 25.478448
_cell_length_c 11.489905
_cell_angle_alpha 90.000000
_cell_angle_beta 148.577603
_cell_angle_gamma 90.000000
_cell_volume 2182.098537
_symmetry_space_group_name_H-M "C 2/M"
_symmetry_group_IT_number 12
_symmetry_cell_setting 'monoclinic'
loop_
_space_group_symop_operation_xyz
x,y,z
-x,y,-z
-x,-y,-z
x,-y,z
1/2+x,1/2+y,z
1/2-x,1/2+y,-z
1/2-x,1/2-y,-z
1/2+x,1/2-y,z
loop_
_atom_site_type_symbol
_atom_site_label
_atom_site_fract_x
_atom_site_fract_y
_atom_site_fract_z
Si Si1 0.124414 0.382168 0.522242
Si Si2 0.960220 0.059792 0.792064
Si Si3 0.698518 0.280639 0.826719
Si Si4 0.740637 0.000000 0.387542
Si Si5 0.327448 0.000000 0.956167
Si Si6 0.702554 0.759437 0.586892
Si Si7 0.729853 0.108443 0.995344
O O1 0.299002 0.418594 0.699998
O O2 0.186043 0.321815 0.587057
O O3 0.000000 0.394145 0.500000
O O4 0.976360 0.387552 0.263224
O O5 0.119536 0.101701 0.945884
O O6 0.019304 0.000000 0.887014
O O7 0.851606 0.049256 0.555315
O O8 0.488644 0.268449 0.603445
O O9 0.789807 0.261409 0.802364
O O10 0.732059 0.341685 0.885042
O O11 0.750000 0.250000 0.000000
O O12 0.710761 0.000000 0.220159
O O13 0.536409 0.000000 0.215630
O O14 0.245736 0.052892 0.917587
O O15 0.750000 0.750000 0.500000
#
# Coordination Sequence:
#
# PCOD9217496 Si02
#       7
#     8   8   8   4   4   8   8
#     4  12  24  46  71  96 143 190 231 301 354 421
#     4  10  23  43  67 102 138 181 240 285 355 431
#     4  11  23  45  68 102 138 182 238 291 354 433
#     4   9  21  41  63  97 141 172 239 284 350 438
#     4  11  21  41  69  99 137 186 221 292 368 428
#     4  11  24  45  69 101 140 181 242 295 359 422
#     4  12  23  43  74  98 142 183 233 296 365 428
#
# _framework density 21.997174000000001
#
# number of rings (size 3 to 8) (size 9 to 14) (size 15 to 20)
#    0.500    0.500    5.833    1.000    0.000    7.000 
#    0.000    4.167    0.000    0.000    0.000    0.000 
#    0.000    0.000    0.000    0.000    0.000    0.000 
#
# Total GULP energy -133729.791130 kJ/mol
# GULP energy per Si atom -5572.074630 kJ/mol
# Density = 2.194711 g / cm^3
# Si number density = 21.997174 Si / 1000 Ang^3
#
#
#
# Elastic Constant Matrix: (Units=GPa)
#
#
# Indices 1 2 3 4 5 6 
#
# 1 135.7214 46.3220 37.2699 0.0000 0.7211 0.0000
# 2 46.3220 143.5692 16.1786 0.0000 -8.6097 0.0000
# 3 37.2699 16.1786 49.8117 0.0000 -8.2010 0.0000
# 4 0.0000 0.0000 0.0000 -24.9289 0.0000 -13.8034
# 5 0.7211 -8.6097 -8.2010 0.0000 37.5178 0.0000
# 6 0.0000 0.0000 0.0000 -13.8034 0.0000 11.9724
#
#
#
# Elastic Compliance Matrix: (Units=1/GPa)
#
#
# Indices 1 2 3 4 5 6 
#
# 1 0.010263 -0.002641 -0.007213 0.000000 -0.002380 0.000000
# 2 -0.002641 0.007961 -0.000312 0.000000 0.001810 0.000000
# 3 -0.007213 -0.000312 0.026540 0.000000 0.005868 0.000000
# 4 0.000000 0.000000 0.000000 -0.024484 0.000000 -0.028228
# 5 -0.002380 0.001810 0.005868 0.000000 0.028398 0.000000
# 6 0.000000 0.000000 0.000000 -0.028228 0.000000 0.050980
#
#
# Mechanical properties :
#
#
# Convention : Reuss Voigt Hill
#
# Bulk Modulus (GPa) = 40.92926 58.73814 49.83370
# Shear Modulus (GPa) = 39.02203 20.20105 29.61154
#
# Velocity S-wave (km/s) = 4.21641 3.03371 3.67297
# Velocity P-wave (km/s) = 6.50777 6.24754 6.37898
#
# Compressibility (1/GPa) = 0.02443240
#
# Stress axis : x y z
#
# Youngs Moduli (GPa) = 97.43943 125.61106 37.67943
#
# Poissons Ratio (x) = 0.33176 0.27177
# Poissons Ratio (y) = 0.25735 0.01174
# Poissons Ratio (z) = 0.70281 0.03914
#
# Static dielectric constant tensor:
#      x y z
#    x 1.927650 0.000000 -0.043050 
#    y 0.000000 1.750190 0.000000 
#    z -0.043050 0.000000 1.908810 
# 
# From -- ./inp_files/149923.got.cif
#   From: 2010.05.17/outbox.cif.g08.bks.cpg/sg12_75_cif.got.tgz:149923.got - 2010.06.03 13:09:07.
