data_PCOD9217094
_publ_section_title
;
Structure prediction by ZEFSAII (Michael W. Deem and Ramdas Pophale) SiO2 
 PCOD9217094
Probable space group: C 2/M
;
_chemical_formula_sum "Si O2"
_cell_formula_units_Z 56
_cell_length_a 12.118669
_cell_length_b 15.055059
_cell_length_c 14.085491
_cell_angle_alpha 90.000000
_cell_angle_beta 89.224494
_cell_angle_gamma 90.000000
_cell_volume 2569.624080
_symmetry_space_group_name_H-M "C 2/M"
_symmetry_group_IT_number 12
_symmetry_cell_setting 'monoclinic'
loop_
_space_group_symop_operation_xyz
x,y,z
-x,y,-z
-x,-y,-z
x,-y,z
1/2+x,1/2+y,z
1/2-x,1/2+y,-z
1/2-x,1/2-y,-z
1/2+x,1/2-y,z
loop_
_atom_site_type_symbol
_atom_site_label
_atom_site_fract_x
_atom_site_fract_y
_atom_site_fract_z
Si Si1 0.457512 0.894056 0.395500
Si Si2 0.228426 0.651476 0.095177
Si Si3 0.601083 0.602080 0.283440
Si Si4 0.338409 0.402589 0.280667
Si Si5 0.226318 0.356533 0.882641
Si Si6 0.249378 0.730215 0.610439
Si Si7 0.983351 0.602964 0.810030
O O1 0.500000 0.868635 0.500000
O O2 0.347563 0.840988 0.373912
O O3 0.532389 0.876800 0.301767
O O4 0.438030 0.000000 0.397276
O O5 0.287524 0.597254 0.176694
O O6 0.276897 0.750201 0.104854
O O7 0.099323 0.658078 0.124129
O O8 0.240541 0.611797 0.990493
O O9 0.621601 0.500000 0.316471
O O10 0.470040 0.611254 0.271961
O O11 0.673908 0.616105 0.187523
O O12 0.643017 0.678868 0.353699
O O13 0.318204 0.500000 0.326033
O O14 0.282689 0.320539 0.335548
O O15 0.110129 0.385421 0.838940
O O16 0.250000 0.750000 0.500000
O O17 0.954634 0.500000 0.824665
#
# Coordination Sequence:
#
# PCOD9217094 Si02
#       7
#     8   8   8   8   8   8   8
#     4  10  23  41  68 104 134 169 226 289 347 405
#     4  11  25  42  66 105 140 179 231 289 346 407
#     4  11  25  48  73 100 141 187 232 282 345 420
#     4  11  27  47  69 103 145 186 229 285 350 418
#     4  11  24  41  70 102 137 182 234 285 345 414
#     4  12  27  44  74 100 134 182 230 282 346 419
#     4  11  23  43  69  97 137 179 225 288 349 407
#
# _framework density 21.793071000000001
#
# number of rings (size 3 to 8) (size 9 to 14) (size 15 to 20)
#    0.000    1.000    2.857    1.714    8.000    4.571 
#    0.000    2.857    0.000    0.000    0.000    0.000 
#    0.000    0.000    0.000    0.000    0.000    0.000 
#
# Total GULP energy -156610.943435 kJ/mol
# GULP energy per Si atom -5593.247980 kJ/mol
# Density = 2.174347 g / cm^3
# Si number density = 21.793071 Si / 1000 Ang^3
#
#
#
# Elastic Constant Matrix: (Units=GPa)
#
#
# Indices 1 2 3 4 5 6 
#
# 1 95.2122 46.8720 31.7092 0.0000 15.3534 0.0000
# 2 46.8720 97.9736 46.2115 0.0000 12.1490 0.0000
# 3 31.7092 46.2115 152.0581 0.0000 7.2281 0.0000
# 4 0.0000 0.0000 0.0000 22.0991 0.0000 11.6005
# 5 15.3534 12.1490 7.2281 0.0000 23.1099 0.0000
# 6 0.0000 0.0000 0.0000 11.6005 0.0000 49.8814
#
#
#
# Elastic Compliance Matrix: (Units=1/GPa)
#
#
# Indices 1 2 3 4 5 6 
#
# 1 0.014714 -0.005766 -0.001011 0.000000 -0.006429 0.000000
# 2 -0.005766 0.014825 -0.003162 0.000000 -0.002974 0.000000
# 3 -0.001011 -0.003162 0.007752 0.000000 -0.000091 0.000000
# 4 0.000000 0.000000 0.000000 0.051543 0.000000 -0.011987
# 5 -0.006429 -0.002974 -0.000091 0.000000 0.049135 0.000000
# 6 0.000000 0.000000 0.000000 -0.011987 0.000000 0.022835
#
#
# Mechanical properties :
#
#
# Convention : Reuss Voigt Hill
#
# Bulk Modulus (GPa) = 57.41875 66.09215 61.75545
# Shear Modulus (GPa) = 26.81154 33.71483 30.26319
#
# Velocity S-wave (km/s) = 3.51134 3.93751 3.73052
# Velocity P-wave (km/s) = 6.54552 7.14598 6.85233
#
# Compressibility (1/GPa) = 0.01741591
#
# Stress axis : x y z
#
# Youngs Moduli (GPa) = 67.96019 67.45170 128.99221
#
# Poissons Ratio (x) = 0.38891 0.13036
# Poissons Ratio (y) = 0.39184 0.40785
# Poissons Ratio (z) = 0.06868 0.21327
#
# Static dielectric constant tensor:
#      x y z
#    x 1.780410 0.000000 -0.012380 
#    y 0.000000 1.798510 0.000000 
#    z -0.012380 0.000000 1.815970 
# 
# From -- ./inp_files/205012.got.cif
#   From: 2010.05.17/outbox.cif.g08.bks.cpg/sg12_103_cif.got.tgz:205012.got - 2010.06.03 13:09:07.
