data_PCOD9217623
_publ_section_title
;
Structure prediction by ZEFSAII (Michael W. Deem and Ramdas Pophale) SiO2 
 PCOD9217623
Probable space group: C 2/M
;
_chemical_formula_sum "Si O2"
_cell_formula_units_Z 60
_cell_length_a 22.797289
_cell_length_b 20.412658
_cell_length_c 12.104298
_cell_angle_alpha 90.000000
_cell_angle_beta 33.428167
_cell_angle_gamma 90.000000
_cell_volume 3103.045330
_symmetry_space_group_name_H-M "C 2/M"
_symmetry_group_IT_number 12
_symmetry_cell_setting 'monoclinic'
loop_
_space_group_symop_operation_xyz
x,y,z
-x,y,-z
-x,-y,-z
x,-y,z
1/2+x,1/2+y,z
1/2-x,1/2+y,-z
1/2-x,1/2-y,-z
1/2+x,1/2-y,z
loop_
_atom_site_type_symbol
_atom_site_label
_atom_site_fract_x
_atom_site_fract_y
_atom_site_fract_z
Si Si1 0.500000 0.653725 0.000000
Si Si2 0.220949 0.074909 0.300449
Si Si3 0.396396 0.869880 0.882742
Si Si4 0.401342 0.702748 0.572386
Si Si5 0.367060 0.078259 0.520832
Si Si6 0.273306 0.829832 0.853987
Si Si7 0.794511 0.922167 0.415258
Si Si8 0.945614 0.225030 0.861794
O O1 0.400290 0.612042 0.202254
O O2 0.539505 0.696572 0.040545
O O3 0.151169 0.131562 0.353452
O O4 0.224559 0.090851 0.425269
O O5 0.181831 0.000000 0.349699
O O6 0.334360 0.081942 0.062008
O O7 0.511272 0.897748 0.669085
O O8 0.326202 0.853171 0.884776
O O9 0.412684 0.800483 0.916772
O O10 0.500000 0.702508 0.500000
O O11 0.324800 0.760779 0.734386
O O12 0.448279 0.719979 0.378239
O O13 0.303471 0.115930 0.716227
O O14 0.307242 0.095289 0.500200
O O15 0.363370 0.000000 0.541983
O O16 0.147503 0.816306 0.052982
O O17 0.809837 0.000000 0.380116
#
# Coordination Sequence:
#
# PCOD9217623 Si02
#       8
#     4   8   8   8   8   8   8   8
#     4  12  23  42  68  98 131 160 224 282 318 386
#     4  11  25  43  66  95 133 177 217 270 331 391
#     4  12  24  43  66  96 137 173 217 267 330 395
#     4  12  22  42  68  94 134 174 219 268 326 399
#     4  11  24  42  68  99 130 172 225 271 323 388
#     4  12  23  44  68  95 137 176 217 267 331 392
#     4  10  23  44  66  90 131 179 214 263 334 397
#     4  12  24  39  67 104 123 169 219 271 328 383
#
# _framework density 19.335844000000002
#
# number of rings (size 3 to 8) (size 9 to 14) (size 15 to 20)
#    0.000    0.533    6.667    2.200    0.000    3.467 
#    0.000    5.333    0.000    0.000    0.000    0.000 
#    0.000    0.000    0.000    0.000    0.000    0.000 
#
# Total GULP energy -167714.342896 kJ/mol
# GULP energy per Si atom -5590.478097 kJ/mol
# Density = 1.929183 g / cm^3
# Si number density = 19.335844 Si / 1000 Ang^3
#
#
#
# Elastic Constant Matrix: (Units=GPa)
#
#
# Indices 1 2 3 4 5 6 
#
# 1 63.9479 36.2386 9.4744 0.0000 4.6520 0.0000
# 2 36.2386 78.7722 14.5939 0.0000 5.8316 0.0000
# 3 9.4744 14.5939 71.3381 0.0000 13.1949 0.0000
# 4 0.0000 0.0000 0.0000 26.5039 0.0000 -2.2646
# 5 4.6520 5.8316 13.1949 0.0000 30.4292 0.0000
# 6 0.0000 0.0000 0.0000 -2.2646 0.0000 28.5584
#
#
#
# Elastic Compliance Matrix: (Units=1/GPa)
#
#
# Indices 1 2 3 4 5 6 
#
# 1 0.021237 -0.009565 -0.000655 0.000000 -0.001130 0.000000
# 2 -0.009565 0.017564 -0.002143 0.000000 -0.000975 0.000000
# 3 -0.000655 -0.002143 0.015708 0.000000 -0.006301 0.000000
# 4 0.000000 0.000000 0.000000 0.037988 0.000000 0.003012
# 5 -0.001130 -0.000975 -0.006301 0.000000 0.035955 0.000000
# 6 0.000000 0.000000 0.000000 0.003012 0.000000 0.035255
#
#
# Mechanical properties :
#
#
# Convention : Reuss Voigt Hill
#
# Bulk Modulus (GPa) = 33.57378 37.18578 35.37978
# Shear Modulus (GPa) = 25.20655 27.34839 26.27747
#
# Velocity S-wave (km/s) = 3.61448 3.76492 3.69046
# Velocity P-wave (km/s) = 5.90089 6.17841 6.04124
#
# Compressibility (1/GPa) = 0.02978515
#
# Stress axis : x y z
#
# Youngs Moduli (GPa) = 47.08664 56.93351 63.65997
#
# Poissons Ratio (x) = 0.54458 0.04168
# Poissons Ratio (y) = 0.45039 0.13640
# Poissons Ratio (z) = 0.03083 0.12198
#
# Static dielectric constant tensor:
#      x y z
#    x 1.664400 0.000000 -0.004050 
#    y 0.000000 1.647960 0.000000 
#    z -0.004050 0.000000 1.687900 
# 
# From -- ./inp_files/168964.got.cif
#   From: 2010.05.17/outbox.cif.g08.bks.cpg/sg12_85_cif.got.tgz:168964.got - 2010.06.03 13:09:07.
