data_PCOD9217238
_publ_section_title
;
Structure prediction by ZEFSAII (Michael W. Deem and Ramdas Pophale) SiO2 
 PCOD9217238
Probable space group: C 2/M
;
_chemical_formula_sum "Si O2"
_cell_formula_units_Z 42
_cell_length_a 18.748683
_cell_length_b 17.280424
_cell_length_c 15.582476
_cell_angle_alpha 90.000000
_cell_angle_beta 157.837078
_cell_angle_gamma 90.000000
_cell_volume 1904.500729
_symmetry_space_group_name_H-M "C 2/M"
_symmetry_group_IT_number 12
_symmetry_cell_setting 'monoclinic'
loop_
_space_group_symop_operation_xyz
x,y,z
-x,y,-z
-x,-y,-z
x,-y,z
1/2+x,1/2+y,z
1/2-x,1/2+y,-z
1/2-x,1/2-y,-z
1/2+x,1/2-y,z
loop_
_atom_site_type_symbol
_atom_site_label
_atom_site_fract_x
_atom_site_fract_y
_atom_site_fract_z
Si Si1 0.076995 0.663949 0.876023
Si Si2 0.227807 0.796779 0.250173
Si Si3 0.263465 0.589732 0.582961
Si Si4 0.500000 0.000000 0.000000
Si Si5 0.657801 0.658957 0.986005
Si Si6 0.293466 0.372656 0.293294
O O1 0.067792 0.756993 0.863479
O O2 0.874656 0.624322 0.642689
O O3 0.202261 0.637611 0.934371
O O4 0.184488 0.642134 0.082244
O O5 0.274770 0.858127 0.375454
O O6 0.314788 0.711912 0.360449
O O7 0.265653 0.828386 0.196655
O O8 0.000000 0.785333 0.000000
O O9 0.223383 0.500000 0.553025
O O10 0.483031 0.601735 0.804322
O O11 0.662532 0.067380 0.195752
O O12 0.500000 0.402798 0.500000
#
# Coordination Sequence:
#
# PCOD9217238 Si02
#       6
#     8   8   8   2   8   8
#     4  10  23  42  64  98 128 167 228 271 327 396
#     4   9  20  41  67  96 132 178 226 261 322 399
#     4  11  24  40  65 101 139 178 216 274 331 391
#     4  12  26  48  68  98 126 166 218 286 334 388
#     4   9  21  41  66  92 128 179 219 272 321 390
#     4  11  25  44  71  97 128 173 222 275 335 397
#
# _framework density 22.053023
#
# number of rings (size 3 to 8) (size 9 to 14) (size 15 to 20)
#    0.000    1.905    0.952    0.857    9.333    5.714 
#    0.000    0.952    0.000    0.000    0.000    0.000 
#    0.000    0.000    0.000    0.000    0.000    0.000 
#
# Total GULP energy -117226.797097 kJ/mol
# GULP energy per Si atom -5582.228433 kJ/mol
# Density = 2.200283 g / cm^3
# Si number density = 22.053023 Si / 1000 Ang^3
#
#
#
# Elastic Constant Matrix: (Units=GPa)
#
#
# Indices 1 2 3 4 5 6 
#
# 1 59.1491 2.6369 -11.3052 0.0013 -6.2259 -0.0011
# 2 2.6369 77.6521 37.4245 0.0009 -3.7244 -0.0010
# 3 -11.3052 37.4245 71.9017 0.0042 1.4431 -0.0020
# 4 0.0013 0.0009 0.0042 -9.3791 0.0023 26.7813
# 5 -6.2259 -3.7244 1.4431 0.0023 21.7437 -0.0016
# 6 -0.0011 -0.0010 -0.0020 26.7813 -0.0016 -72.1804
#
#
#
# Elastic Compliance Matrix: (Units=1/GPa)
#
#
# Indices 1 2 3 4 5 6 
#
# 1 0.018252 -0.002323 0.003987 -0.000065 0.004564 -0.000025
# 2 -0.002323 0.017763 -0.009671 0.000037 0.003019 0.000014
# 3 0.003987 -0.009671 0.019605 -0.000112 -0.001816 -0.000042
# 4 -0.000065 0.000037 -0.000112 1.793170 -0.000143 0.665326
# 5 0.004564 0.003019 -0.001816 -0.000143 0.047935 -0.000054
# 6 -0.000025 0.000014 -0.000042 0.665326 -0.000054 0.233004
#
#
# Mechanical properties :
#
#
# Convention : Reuss Voigt Hill
#
# Bulk Modulus (GPa) = 25.24807 29.57948 27.41377
# Shear Modulus (GPa) = 2.31595 0.03327 1.17461
#
# Velocity S-wave (km/s) = 1.02589 0.12296 0.73061
# Velocity P-wave (km/s) = 3.58844 3.66908 3.62899
#
# Compressibility (1/GPa) = 0.03960699
#
# Stress axis : x y z
#
# Youngs Moduli (GPa) = 54.78729 56.29782 51.00728
#
# Poissons Ratio (x) = 0.13075 -0.20337
# Poissons Ratio (y) = 0.12725 0.49330
# Poissons Ratio (z) = -0.21844 0.54447
#
# Static dielectric constant tensor:
#      x y z
#    x 1.849930 0.000000 0.004410 
#    y 0.000000 1.866680 0.000000 
#    z 0.004410 0.000000 1.803590 
# 
# From -- ./inp_files/285274.got.cif
#   From: 2010.05.17/outbox.cif.g08.bks.cpg/sg12_143_cif.got.tgz:285274.got - 2010.06.03 13:09:07.
