data_PCOD9217906
_publ_section_title
;
Structure prediction by ZEFSAII (Michael W. Deem and Ramdas Pophale) SiO2 
 PCOD9217906
Probable space group: C 2/M
;
_chemical_formula_sum "Si O2"
_cell_formula_units_Z 44
_cell_length_a 12.863363
_cell_length_b 19.874144
_cell_length_c 12.173160
_cell_angle_alpha 90.000000
_cell_angle_beta 42.836132
_cell_angle_gamma 90.000000
_cell_volume 2115.893501
_symmetry_space_group_name_H-M "C 2/M"
_symmetry_group_IT_number 12
_symmetry_cell_setting 'monoclinic'
loop_
_space_group_symop_operation_xyz
x,y,z
-x,y,-z
-x,-y,-z
x,-y,z
1/2+x,1/2+y,z
1/2-x,1/2+y,-z
1/2-x,1/2-y,-z
1/2+x,1/2-y,z
loop_
_atom_site_type_symbol
_atom_site_label
_atom_site_fract_x
_atom_site_fract_y
_atom_site_fract_z
Si Si1 0.928198 0.170481 0.331145
Si Si2 0.722067 0.000000 0.744602
Si Si3 0.759299 0.857470 0.008502
Si Si4 0.137890 0.711780 0.468353
Si Si5 0.500000 0.400523 0.500000
Si Si6 0.387344 0.000000 0.918035
Si Si7 0.818654 0.257430 0.125972
O O1 0.919600 0.248597 0.378299
O O2 0.760762 0.157498 0.413139
O O3 0.974679 0.138333 0.408704
O O4 0.057021 0.144482 0.149360
O O5 0.840443 0.939624 0.636172
O O6 0.666897 0.000000 0.912871
O O7 0.572459 0.000000 0.783166
O O8 0.701499 0.820092 0.941628
O O9 0.682078 0.930555 0.077849
O O10 0.742080 0.806213 0.123075
O O11 0.235177 0.760392 0.308854
O O12 0.000000 0.687431 0.500000
O O13 0.000000 0.248120 0.000000
#
# Coordination Sequence:
#
# PCOD9217906 Si02
#       7
#     8   4   8   8   4   4   8
#     4  11  21  36  62  90 127 166 208 267 323 381
#     4  10  24  36  60  93 123 166 211 260 317 386
#     4  11  23  40  64  95 131 168 212 269 323 383
#     4  11  22  37  58  90 126 162 213 264 316 386
#     4  11  20  40  62  90 128 164 208 259 332 377
#     4  11  24  42  61  95 131 171 216 258 326 384
#     4  11  23  39  63  93 128 163 214 265 321 381
#
# _framework density 20.794996999999999
#
# number of rings (size 3 to 8) (size 9 to 14) (size 15 to 20)
#    0.000    1.091    6.364    0.000    2.545    1.455 
#    0.000    0.455    0.000    0.000    0.000    5.091 
#    0.000    0.000    0.000    0.000    0.000    0.000 
#
# Total GULP energy -122657.896522 kJ/mol
# GULP energy per Si atom -5575.358933 kJ/mol
# Density = 2.074767 g / cm^3
# Si number density = 20.794997 Si / 1000 Ang^3
#
#
#
# Elastic Constant Matrix: (Units=GPa)
#
#
# Indices 1 2 3 4 5 6 
#
# 1 110.3924 39.7176 35.4812 0.0002 -38.8955 -0.0003
# 2 39.7176 96.9410 22.9938 0.0002 -22.3859 0.0000
# 3 35.4812 22.9938 103.2173 0.0008 -34.6331 -0.0009
# 4 0.0002 0.0002 0.0008 28.8049 -0.0005 -10.6013
# 5 -38.8955 -22.3859 -34.6331 -0.0005 50.9167 0.0003
# 6 -0.0003 0.0000 -0.0009 -10.6013 0.0003 43.5506
#
#
#
# Elastic Compliance Matrix: (Units=1/GPa)
#
#
# Indices 1 2 3 4 5 6 
#
# 1 0.013480 -0.003394 -0.001196 0.000000 0.007992 0.000000
# 2 -0.003394 0.012436 -0.000828 0.000000 0.002312 0.000000
# 3 -0.001196 -0.000828 0.012770 0.000000 0.007408 0.000000
# 4 0.000000 0.000000 0.000000 0.038133 0.000000 0.009282
# 5 0.007992 0.002312 0.007408 0.000000 0.031800 0.000000
# 6 0.000000 0.000000 0.000000 0.009282 0.000000 0.025221
#
#
# Mechanical properties :
#
#
# Convention : Reuss Voigt Hill
#
# Bulk Modulus (GPa) = 35.90704 56.32622 46.11663
# Shear Modulus (GPa) = 32.47621 38.81164 35.64393
#
# Velocity S-wave (km/s) = 3.95616 4.32486 4.14462
# Velocity P-wave (km/s) = 6.17843 7.21696 6.71779
#
# Compressibility (1/GPa) = 0.02784969
#
# Stress axis : x y z
#
# Youngs Moduli (GPa) = 74.18519 80.40992 78.31102
#
# Poissons Ratio (x) = 0.27288 0.09368
# Poissons Ratio (y) = 0.25176 0.06485
# Poissons Ratio (z) = 0.08874 0.06659
#
# Static dielectric constant tensor:
#      x y z
#    x 1.741270 0.000000 -0.023480 
#    y 0.000000 1.800670 0.000000 
#    z -0.023480 0.000000 1.818620 
# 
# From -- ./inp_files/207565.got.cif
#   From: 2010.05.17/outbox.cif.g08.bks.cpg/sg12_104_cif.got.tgz:207565.got - 2010.06.03 13:09:07.
