data_PCOD9217529
_publ_section_title
;
Structure prediction by ZEFSAII (Michael W. Deem and Ramdas Pophale) SiO2 
 PCOD9217529
Probable space group: C 2/M
;
_chemical_formula_sum "Si O2"
_cell_formula_units_Z 40
_cell_length_a 7.321828
_cell_length_b 13.175289
_cell_length_c 26.590763
_cell_angle_alpha 90.000000
_cell_angle_beta 136.624137
_cell_angle_gamma 90.000000
_cell_volume 1761.687914
_symmetry_space_group_name_H-M "C 2/M"
_symmetry_group_IT_number 12
_symmetry_cell_setting 'monoclinic'
loop_
_space_group_symop_operation_xyz
x,y,z
-x,y,-z
-x,-y,-z
x,-y,z
1/2+x,1/2+y,z
1/2-x,1/2+y,-z
1/2-x,1/2-y,-z
1/2+x,1/2-y,z
loop_
_atom_site_type_symbol
_atom_site_label
_atom_site_fract_x
_atom_site_fract_y
_atom_site_fract_z
Si Si1 0.304796 0.886911 0.306909
Si Si2 0.971019 0.308002 0.941450
Si Si3 0.408230 0.110360 0.136252
Si Si4 0.789991 0.617907 0.418928
Si Si5 0.179192 0.671449 0.289745
O O1 0.401427 0.881474 0.384312
O O2 0.113721 0.789766 0.266717
O O3 0.523958 0.869559 0.307374
O O4 0.190597 0.000000 0.277394
O O5 0.767680 0.213020 0.897038
O O6 0.945673 0.377318 0.887774
O O7 0.000000 0.366795 0.000000
O O8 0.250000 0.250000 0.000000
O O9 0.592215 0.113735 0.222275
O O10 0.266871 0.000000 0.108314
O O11 0.748449 0.500000 0.424736
O O12 0.496294 0.665104 0.360700
O O13 0.000000 0.663676 0.500000
#
# Coordination Sequence:
#
# PCOD9217529 Si02
#       5
#     8   8   8   8   8
#     4  11  24  42  66  94 130 174 222 280 339 395
#     4   9  21  41  64  95 129 164 212 257 313 393
#     4  11  23  41  67  95 132 173 212 269 328 380
#     4  10  23  43  67  97 134 179 230 280 335 401
#     4  12  23  44  66  98 135 177 226 278 335 398
#
# _framework density 22.705497000000001
#
# number of rings (size 3 to 8) (size 9 to 14) (size 15 to 20)
#    0.000    1.400    2.000    3.000    0.000    5.600 
#    0.000    6.000    0.000    0.000    0.000    0.000 
#    0.000    0.000    0.000    0.000    0.000    0.000 
#
# Total GULP energy -111527.013153 kJ/mol
# GULP energy per Si atom -5576.350658 kJ/mol
# Density = 2.265382 g / cm^3
# Si number density = 22.705497 Si / 1000 Ang^3
#
#
#
# Elastic Constant Matrix: (Units=GPa)
#
#
# Indices 1 2 3 4 5 6 
#
# 1 66.9651 13.5237 26.7417 0.0000 -25.5279 0.0000
# 2 13.5237 138.3893 22.3802 0.0000 -8.2659 0.0000
# 3 26.7417 22.3802 103.8726 0.0000 -11.4418 0.0000
# 4 0.0000 0.0000 0.0000 1.8628 0.0000 -0.1386
# 5 -25.5279 -8.2659 -11.4418 0.0000 33.8342 0.0000
# 6 0.0000 0.0000 0.0000 -0.1386 0.0000 30.8965
#
#
#
# Elastic Compliance Matrix: (Units=1/GPa)
#
#
# Indices 1 2 3 4 5 6 
#
# 1 0.022563 -0.000637 -0.003961 0.000000 0.015529 0.000000
# 2 -0.000637 0.007563 -0.001366 0.000000 0.000905 0.000000
# 3 -0.003961 -0.001366 0.010984 0.000000 0.000392 0.000000
# 4 0.000000 0.000000 0.000000 0.537016 0.000000 0.002409
# 5 0.015529 0.000905 0.000392 0.000000 0.041626 0.000000
# 6 0.000000 0.000000 0.000000 0.002409 0.000000 0.032377
#
#
# Mechanical properties :
#
#
# Convention : Reuss Voigt Hill
#
# Bulk Modulus (GPa) = 34.26608 48.27979 41.27293
# Shear Modulus (GPa) = 7.42076 29.75746 18.58911
#
# Velocity S-wave (km/s) = 1.80980 3.62413 2.86441
# Velocity P-wave (km/s) = 4.41491 6.23073 5.39970
#
# Compressibility (1/GPa) = 0.02918338
#
# Stress axis : x y z
#
# Youngs Moduli (GPa) = 44.31963 132.21936 91.03773
#
# Poissons Ratio (x) = 0.08420 0.36061
# Poissons Ratio (y) = 0.02822 0.12435
# Poissons Ratio (z) = 0.17556 0.18059
#
# Static dielectric constant tensor:
#      x y z
#    x 1.967290 0.000000 -0.100530 
#    y 0.000000 1.874840 0.000000 
#    z -0.100530 0.000000 1.928400 
# 
# From -- ./inp_files/356038.got.cif
#   From: 2010.05.17/outbox.cif.g08.bks.cpg/sg12_179_cif.got.tgz:356038.got - 2010.06.03 13:09:07.
