data_PCOD9217080
_publ_section_title
;
Structure prediction by ZEFSAII (Michael W. Deem and Ramdas Pophale) SiO2 
 PCOD9217080
Probable space group: C 2/M
;
_chemical_formula_sum "Si O2"
_cell_formula_units_Z 44
_cell_length_a 20.856685
_cell_length_b 15.601875
_cell_length_c 14.825840
_cell_angle_alpha 90.000000
_cell_angle_beta 156.080113
_cell_angle_gamma 90.000000
_cell_volume 1956.087224
_symmetry_space_group_name_H-M "C 2/M"
_symmetry_group_IT_number 12
_symmetry_cell_setting 'monoclinic'
loop_
_space_group_symop_operation_xyz
x,y,z
-x,y,-z
-x,-y,-z
x,-y,z
1/2+x,1/2+y,z
1/2-x,1/2+y,-z
1/2-x,1/2-y,-z
1/2+x,1/2-y,z
loop_
_atom_site_type_symbol
_atom_site_label
_atom_site_fract_x
_atom_site_fract_y
_atom_site_fract_z
Si Si1 0.149791 0.858857 0.642387
Si Si2 0.282033 0.500000 0.998169
Si Si3 0.840177 0.000000 0.487511
Si Si4 0.113304 0.000000 0.255173
Si Si5 0.500000 0.646447 0.000000
Si Si6 0.326185 0.000000 0.347126
Si Si7 0.638445 0.816916 0.542112
Si Si8 0.838098 0.672057 0.060548
O O1 0.086630 0.768957 0.524519
O O2 0.000000 0.901623 0.500000
O O3 0.203687 0.917906 0.628916
O O4 0.718805 0.837539 0.114811
O O5 0.213883 0.584713 0.957064
O O6 0.239394 0.500000 0.838085
O O7 0.470074 0.500000 0.254367
O O8 0.791100 0.000000 0.529431
O O9 0.010489 0.085117 0.102698
O O10 0.775472 0.000000 0.690077
O O11 0.670751 0.690902 0.220832
O O12 0.399396 0.094710 0.454282
O O13 0.527697 0.819316 0.311842
O O14 0.750000 0.750000 0.000000
#
# Coordination Sequence:
#
# PCOD9217080 Si02
#       8
#     8   4   4   4   4   4   8   8
#     4  12  24  43  63  97 139 177 219 267 327 407
#     4  12  22  34  65  96 129 179 217 261 347 391
#     4  12  22  41  67  92 132 189 221 265 328 397
#     4   9  20  42  68  96 126 171 236 277 323 385
#     4   9  20  44  72  95 128 176 224 281 330 383
#     4  10  23  41  67 100 131 170 223 285 331 389
#     4  11  23  42  68  96 135 171 221 277 331 387
#     4  12  24  39  61  98 139 173 214 273 330 397
#
# _framework density 22.493884999999999
#
# number of rings (size 3 to 8) (size 9 to 14) (size 15 to 20)
#    0.000    0.909    3.636    5.182    0.000    2.182 
#    0.000    8.182    0.000    4.909    0.000    0.000 
#    0.000    0.000    0.000    0.000    0.000    0.000 
#
# Total GULP energy -122753.531424 kJ/mol
# GULP energy per Si atom -5579.705974 kJ/mol
# Density = 2.244269 g / cm^3
# Si number density = 22.493885 Si / 1000 Ang^3
#
#
#
# Elastic Constant Matrix: (Units=GPa)
#
#
# Indices 1 2 3 4 5 6 
#
# 1 76.1782 18.8080 39.1777 0.0000 -32.3192 0.0000
# 2 18.8080 136.4134 12.4008 0.0000 -23.3633 0.0000
# 3 39.1777 12.4008 166.8532 0.0000 -34.7179 0.0000
# 4 0.0000 0.0000 0.0000 31.6186 0.0000 -10.6217
# 5 -32.3192 -23.3633 -34.7179 0.0000 60.9086 0.0000
# 6 0.0000 0.0000 0.0000 -10.6217 0.0000 14.1529
#
#
#
# Elastic Compliance Matrix: (Units=1/GPa)
#
#
# Indices 1 2 3 4 5 6 
#
# 1 0.017933 -0.000920 -0.002537 0.000000 0.007717 0.000000
# 2 -0.000920 0.007894 0.000179 0.000000 0.002642 0.000000
# 3 -0.002537 0.000179 0.007159 0.000000 0.002803 0.000000
# 4 0.000000 0.000000 0.000000 0.042289 0.000000 0.031738
# 5 0.007717 0.002642 0.002803 0.000000 0.023124 0.000000
# 6 0.000000 0.000000 0.000000 0.031738 0.000000 0.094476
#
#
# Mechanical properties :
#
#
# Convention : Reuss Voigt Hill
#
# Bulk Modulus (GPa) = 37.83646 57.80200 47.81923
# Shear Modulus (GPa) = 24.01080 41.93989 32.97534
#
# Velocity S-wave (km/s) = 3.27071 4.32267 3.83295
# Velocity P-wave (km/s) = 5.57859 7.11804 6.39481
#
# Compressibility (1/GPa) = 0.02642954
#
# Stress axis : x y z
#
# Youngs Moduli (GPa) = 55.76403 126.68352 139.68654
#
# Poissons Ratio (x) = 0.11658 0.35434
# Poissons Ratio (y) = 0.05132 -0.02501
# Poissons Ratio (z) = 0.14145 -0.02269
#
# Static dielectric constant tensor:
#      x y z
#    x 1.897970 0.000000 0.067890 
#    y 0.000000 1.843170 0.000000 
#    z 0.067890 0.000000 1.897530 
# 
# From -- ./inp_files/293658.got.cif
#   From: 2010.05.17/outbox.cif.g08.bks.cpg/sg12_147_cif.got.tgz:293658.got - 2010.06.03 13:09:07.
