data_PCOD9217763
_publ_section_title
;
Structure prediction by ZEFSAII (Michael W. Deem and Ramdas Pophale) SiO2 
 PCOD9217763
Probable space group: C 2/M
;
_chemical_formula_sum "Si O2"
_cell_formula_units_Z 56
_cell_length_a 9.358616
_cell_length_b 27.399450
_cell_length_c 12.537542
_cell_angle_alpha 90.000000
_cell_angle_beta 55.783151
_cell_angle_gamma 90.000000
_cell_volume 2658.440063
_symmetry_space_group_name_H-M "C 2/M"
_symmetry_group_IT_number 12
_symmetry_cell_setting 'monoclinic'
loop_
_space_group_symop_operation_xyz
x,y,z
-x,y,-z
-x,-y,-z
x,-y,z
1/2+x,1/2+y,z
1/2-x,1/2+y,-z
1/2-x,1/2-y,-z
1/2+x,1/2-y,z
loop_
_atom_site_type_symbol
_atom_site_label
_atom_site_fract_x
_atom_site_fract_y
_atom_site_fract_z
Si Si1 0.795815 0.745816 0.102699
Si Si2 0.802584 0.346874 0.587813
Si Si3 0.274027 0.108766 0.372045
Si Si4 0.870110 0.094398 0.957290
Si Si5 0.793502 0.500000 0.072600
Si Si6 0.067956 0.841794 0.274083
Si Si7 0.314406 0.500000 0.640126
Si Si8 0.358933 0.846923 0.792966
O O1 0.715618 0.697526 0.187148
O O2 0.702168 0.791446 0.199153
O O3 0.750000 0.750000 0.000000
O O4 0.000000 0.747979 0.000000
O O5 0.773024 0.382391 0.499641
O O6 0.623122 0.316760 0.650379
O O7 0.808960 0.371752 0.701307
O O8 0.000000 0.325175 0.500000
O O9 0.123099 0.130789 0.359784
O O10 0.444356 0.139318 0.267599
O O11 0.278625 0.050859 0.350862
O O12 0.937883 0.119141 0.820177
O O13 0.763320 0.047459 0.968120
O O14 0.748396 0.134370 0.062809
O O15 0.000000 0.082443 0.000000
O O16 0.690897 0.500000 0.228592
O O17 0.000000 0.500000 0.000000
O O18 0.500000 0.500000 0.500000
#
# Coordination Sequence:
#
# PCOD9217763 Si02
#       8
#     8   8   8   8   4   8   4   8
#     4  12  24  40  68 107 139 185 242 289 363 443
#     4  10  23  45  67  91 134 188 232 285 357 423
#     4  11  25  44  70 102 138 188 239 295 363 430
#     4  12  24  42  69 100 145 183 223 297 370 428
#     4  12  27  45  70 109 144 185 243 300 378 452
#     4  12  23  41  70 101 139 176 240 295 354 428
#     4  12  24  43  73 105 139 184 246 304 352 438
#     4  11  23  45  67 101 143 182 231 298 360 431
#
# _framework density 21.064986000000001
#
# number of rings (size 3 to 8) (size 9 to 14) (size 15 to 20)
#    0.000    0.571    4.286    4.500    0.000    0.000 
#    0.000   11.786    0.000    0.857    0.000    0.000 
#    0.000    0.000    0.000    0.000    0.000    0.000 
#
# Total GULP energy -156006.124137 kJ/mol
# GULP energy per Si atom -5571.647291 kJ/mol
# Density = 2.101704 g / cm^3
# Si number density = 21.064986 Si / 1000 Ang^3
#
#
#
# Elastic Constant Matrix: (Units=GPa)
#
#
# Indices 1 2 3 4 5 6 
#
# 1 187.6781 54.2546 63.0156 0.0000 -7.7049 0.0000
# 2 54.2546 110.0801 26.0681 0.0000 -4.6711 0.0000
# 3 63.0156 26.0681 84.7353 0.0000 16.6244 0.0000
# 4 0.0000 0.0000 0.0000 57.0155 0.0000 -11.8472
# 5 -7.7049 -4.6711 16.6244 0.0000 51.9106 0.0000
# 6 0.0000 0.0000 0.0000 -11.8472 0.0000 20.4601
#
#
#
# Elastic Compliance Matrix: (Units=1/GPa)
#
#
# Indices 1 2 3 4 5 6 
#
# 1 0.008127 -0.002504 -0.005833 0.000000 0.002849 0.000000
# 2 -0.002504 0.010762 -0.001671 0.000000 0.001132 0.000000
# 3 -0.005833 -0.001671 0.017983 0.000000 -0.006775 0.000000
# 4 0.000000 0.000000 0.000000 0.019938 0.000000 0.011545
# 5 0.002849 0.001132 -0.006775 0.000000 0.021958 0.000000
# 6 0.000000 0.000000 0.000000 0.011545 0.000000 0.055561
#
#
# Mechanical properties :
#
#
# Convention : Reuss Voigt Hill
#
# Bulk Modulus (GPa) = 59.32312 74.35223 66.83767
# Shear Modulus (GPa) = 31.25718 41.82091 36.53905
#
# Velocity S-wave (km/s) = 3.85625 4.46054 4.16936
# Velocity P-wave (km/s) = 6.93186 7.86777 7.41459
#
# Compressibility (1/GPa) = 0.01685683
#
# Stress axis : x y z
#
# Youngs Moduli (GPa) = 123.03956 92.91979 55.60932
#
# Poissons Ratio (x) = 0.23263 0.32437
# Poissons Ratio (y) = 0.30803 0.09293
# Poissons Ratio (z) = 0.71769 0.15528
#
# Static dielectric constant tensor:
#      x y z
#    x 1.785940 0.000000 -0.048150 
#    y 0.000000 1.551270 0.000000 
#    z -0.048150 0.000000 1.866180 
# 
# From -- ./inp_files/125682.got.cif
#   From: 2010.05.17/outbox.cif.g08.bks.cpg/sg12_63_cif.got.tgz:125682.got - 2010.06.03 13:09:07.
