data_PCOD9217824
_publ_section_title
;
Structure prediction by ZEFSAII (Michael W. Deem and Ramdas Pophale) SiO2 
 PCOD9217824
Probable space group: C 2/M
;
_chemical_formula_sum "Si O2"
_cell_formula_units_Z 28
_cell_length_a 9.386363
_cell_length_b 16.483867
_cell_length_c 7.798089
_cell_angle_alpha 90.000000
_cell_angle_beta 114.840543
_cell_angle_gamma 90.000000
_cell_volume 1094.918792
_symmetry_space_group_name_H-M "C 2/M"
_symmetry_group_IT_number 12
_symmetry_cell_setting 'monoclinic'
loop_
_space_group_symop_operation_xyz
x,y,z
-x,y,-z
-x,-y,-z
x,-y,z
1/2+x,1/2+y,z
1/2-x,1/2+y,-z
1/2-x,1/2-y,-z
1/2+x,1/2-y,z
loop_
_atom_site_type_symbol
_atom_site_label
_atom_site_fract_x
_atom_site_fract_y
_atom_site_fract_z
Si Si1 0.558569 0.000000 0.785528
Si Si2 0.788934 0.414511 0.425605
Si Si3 0.260951 0.253296 0.208532
Si Si4 0.500000 0.862544 0.000000
Si Si5 0.000000 0.870677 0.500000
O O1 0.433523 0.069235 0.623974
O O2 0.607778 0.074055 0.948833
O O3 0.799756 0.500000 0.307182
O O4 0.779617 0.331676 0.316525
O O5 0.629054 0.416838 0.452401
O O6 0.101121 0.301514 0.169905
O O7 0.400463 0.312122 0.329517
O O8 0.250000 0.250000 0.000000
#
# Coordination Sequence:
#
# PCOD9217824 Si02
#       5
#     4   8   8   4   4
#     4   9  22  45  70 104 142 192 245 285 355 428
#     4  10  23  46  66 105 142 189 233 298 353 424
#     4  12  24  48  76 102 143 190 239 293 362 426
#     4  11  22  48  71 104 140 198 237 296 348 435
#     4  12  27  46  71 106 142 186 242 299 358 425
#
# _framework density 25.572672000000001
#
# number of rings (size 3 to 8) (size 9 to 14) (size 15 to 20)
#    0.857    0.286    2.857    3.000    0.000    0.000 
#   10.286    8.571    0.000    0.000    0.000    0.000 
#    0.000    0.000    0.000    0.000    0.000    0.000 
#
# Total GULP energy -77991.988765 kJ/mol
# GULP energy per Si atom -5570.856340 kJ/mol
# Density = 2.551447 g / cm^3
# Si number density = 25.572672 Si / 1000 Ang^3
#
#
#
# Elastic Constant Matrix: (Units=GPa)
#
#
# Indices 1 2 3 4 5 6 
#
# 1 177.4960 93.0588 38.5220 0.0000 -13.6679 0.0000
# 2 93.0588 278.5356 92.4967 0.0000 -7.0581 0.0000
# 3 38.5220 92.4967 112.8568 0.0000 13.0488 0.0000
# 4 0.0000 0.0000 0.0000 64.9900 0.0000 -10.2835
# 5 -13.6679 -7.0581 13.0488 0.0000 50.7938 0.0000
# 6 0.0000 0.0000 0.0000 -10.2835 0.0000 52.5389
#
#
#
# Elastic Compliance Matrix: (Units=1/GPa)
#
#
# Indices 1 2 3 4 5 6 
#
# 1 0.007027 -0.001967 -0.001003 0.000000 0.001875 0.000000
# 2 -0.001967 0.005644 -0.004106 0.000000 0.001310 0.000000
# 3 -0.001003 -0.004106 0.013053 0.000000 -0.004194 0.000000
# 4 0.000000 0.000000 0.000000 0.015879 0.000000 0.003108
# 5 0.001875 0.001310 -0.004194 0.000000 0.021451 0.000000
# 6 0.000000 0.000000 0.000000 0.003108 0.000000 0.019642
#
#
# Mechanical properties :
#
#
# Convention : Reuss Voigt Hill
#
# Bulk Modulus (GPa) = 86.41360 113.00480 99.70920
# Shear Modulus (GPa) = 49.64905 56.65193 53.15049
#
# Velocity S-wave (km/s) = 4.41101 4.71184 4.56390
# Velocity P-wave (km/s) = 7.73353 8.59578 8.17603
#
# Compressibility (1/GPa) = 0.01157225
#
# Stress axis : x y z
#
# Youngs Moduli (GPa) = 142.29920 177.17601 76.60923
#
# Poissons Ratio (x) = 0.34854 0.07686
# Poissons Ratio (y) = 0.27993 0.31455
# Poissons Ratio (z) = 0.14276 0.72746
#
# Static dielectric constant tensor:
#      x y z
#    x 2.405670 0.000000 -0.076450 
#    y 0.000000 2.154600 0.000000 
#    z -0.076450 0.000000 2.003480 
# 
# From -- ./inp_files/58819.got.cif
#   From: 2010.05.17/outbox.cif.g08.bks.cpg/sg12_30_cif.got.tgz:58819.got - 2010.06.03 13:09:07.
