data_PCOD9217977
_publ_section_title
;
Structure prediction by ZEFSAII (Michael W. Deem and Ramdas Pophale) SiO2 
 PCOD9217977
Probable space group: C 2/M
;
_chemical_formula_sum "Si O2"
_cell_formula_units_Z 50
_cell_length_a 9.403344
_cell_length_b 25.372456
_cell_length_c 11.805500
_cell_angle_alpha 90.000000
_cell_angle_beta 113.089577
_cell_angle_gamma 90.000000
_cell_volume 2590.994332
_symmetry_space_group_name_H-M "C 2/M"
_symmetry_group_IT_number 12
_symmetry_cell_setting 'monoclinic'
loop_
_space_group_symop_operation_xyz
x,y,z
-x,y,-z
-x,-y,-z
x,-y,z
1/2+x,1/2+y,z
1/2-x,1/2+y,-z
1/2-x,1/2-y,-z
1/2+x,1/2-y,z
loop_
_atom_site_type_symbol
_atom_site_label
_atom_site_fract_x
_atom_site_fract_y
_atom_site_fract_z
Si Si1 0.705405 0.239015 0.275708
Si Si2 0.986987 0.896714 0.119612
Si Si3 0.118539 0.780061 0.889965
Si Si4 0.750331 0.443017 0.775091
Si Si5 0.855450 0.635842 0.613741
Si Si6 0.000000 0.500000 0.000000
Si Si7 0.709203 0.859586 0.661138
O O1 0.827087 0.217260 0.223085
O O2 0.542083 0.248451 0.161017
O O3 0.681780 0.196332 0.365775
O O4 0.760370 0.296695 0.330197
O O5 0.155238 0.886101 0.224748
O O6 0.908524 0.839223 0.076646
O O7 0.882325 0.926292 0.178352
O O8 0.000000 0.922751 0.000000
O O9 0.250000 0.750000 0.000000
O O10 0.709074 0.500000 0.709630
O O11 0.785972 0.400490 0.690303
O O12 0.902255 0.454910 0.897901
O O13 0.791153 0.622568 0.469431
O O14 0.041113 0.630397 0.662302
#
# Coordination Sequence:
#
# PCOD9217977 Si02
#       7
#     8   8   8   8   8   2   8
#     4  11  20  37  58  89 133 172 214 257 318 392
#     4  11  24  41  63  94 133 165 214 273 326 386
#     4  11  21  35  54  92 129 171 211 257 319 389
#     4  10  24  45  68  96 121 170 218 272 330 387
#     4  11  22  43  66  89 132 174 219 268 321 387
#     4   8  24  44  70  96 124 154 226 268 332 392
#     4  10  24  40  62 100 129 172 217 260 326 392
#
# _framework density 19.297612000000001
#
# number of rings (size 3 to 8) (size 9 to 14) (size 15 to 20)
#    0.480    0.960    3.200    2.880    2.240    0.960 
#    0.000    4.000    0.000    0.000    0.000    0.000 
#    0.000    0.000    0.000    0.000    0.000    0.000 
#
# Total GULP energy -139308.034893 kJ/mol
# GULP energy per Si atom -5572.321396 kJ/mol
# Density = 1.925369 g / cm^3
# Si number density = 19.297612 Si / 1000 Ang^3
#
#
#
# Elastic Constant Matrix: (Units=GPa)
#
#
# Indices 1 2 3 4 5 6 
#
# 1 98.0348 28.0715 56.9439 0.0000 -21.0233 0.0000
# 2 28.0715 57.0284 29.5050 0.0000 -2.9264 0.0000
# 3 56.9439 29.5050 95.7279 0.0000 -9.3711 0.0000
# 4 0.0000 0.0000 0.0000 12.1432 0.0000 4.6082
# 5 -21.0233 -2.9264 -9.3711 0.0000 31.4167 0.0000
# 6 0.0000 0.0000 0.0000 4.6082 0.0000 11.2649
#
#
#
# Elastic Compliance Matrix: (Units=1/GPa)
#
#
# Indices 1 2 3 4 5 6 
#
# 1 0.018506 -0.004054 -0.008842 0.000000 0.009369 0.000000
# 2 -0.004054 0.021750 -0.004490 0.000000 -0.002026 0.000000
# 3 -0.008842 -0.004490 0.016965 0.000000 -0.001275 0.000000
# 4 0.000000 0.000000 0.000000 0.097484 0.000000 -0.039878
# 5 0.009369 -0.002026 -0.001275 0.000000 0.037531 0.000000
# 6 0.000000 0.000000 0.000000 -0.039878 0.000000 0.105084
#
#
# Mechanical properties :
#
#
# Convention : Reuss Voigt Hill
#
# Bulk Modulus (GPa) = 44.54640 53.31468 48.93054
# Shear Modulus (GPa) = 14.72424 20.04968 17.38696
#
# Velocity S-wave (km/s) = 2.76526 3.22681 3.00491
# Velocity P-wave (km/s) = 5.77317 6.44753 6.11965
#
# Compressibility (1/GPa) = 0.02244850
#
# Stress axis : x y z
#
# Youngs Moduli (GPa) = 54.03579 45.97697 58.94471
#
# Poissons Ratio (x) = 0.18640 0.52117
# Poissons Ratio (y) = 0.21907 0.26469
# Poissons Ratio (z) = 0.47777 0.20646
#
# Static dielectric constant tensor:
#      x y z
#    x 1.675800 0.000000 -0.016000 
#    y 0.000000 1.663240 0.000000 
#    z -0.016000 0.000000 1.675910 
# 
# From -- ./inp_files/123834.got.cif
#   From: 2010.05.17/outbox.cif.g08.bks.cpg/sg12_62_cif.got.tgz:123834.got - 2010.06.03 13:09:07.
