data_PCOD9217773
_publ_section_title
;
Structure prediction by ZEFSAII (Michael W. Deem and Ramdas Pophale) SiO2 
 PCOD9217773
Probable space group: C 2/M
;
_chemical_formula_sum "Si O2"
_cell_formula_units_Z 30
_cell_length_a 10.436555
_cell_length_b 20.938419
_cell_length_c 12.060397
_cell_angle_alpha 90.000000
_cell_angle_beta 29.468218
_cell_angle_gamma 90.000000
_cell_volume 1296.508621
_symmetry_space_group_name_H-M "C 2/M"
_symmetry_group_IT_number 12
_symmetry_cell_setting 'monoclinic'
loop_
_space_group_symop_operation_xyz
x,y,z
-x,y,-z
-x,-y,-z
x,-y,z
1/2+x,1/2+y,z
1/2-x,1/2+y,-z
1/2-x,1/2-y,-z
1/2+x,1/2-y,z
loop_
_atom_site_type_symbol
_atom_site_label
_atom_site_fract_x
_atom_site_fract_y
_atom_site_fract_z
Si Si1 0.478543 0.254314 0.142133
Si Si2 0.301639 0.111052 0.302350
Si Si3 0.000000 0.500000 0.000000
Si Si4 0.668227 0.500000 0.759078
Si Si5 0.723380 0.124206 0.422749
O O1 0.356741 0.183932 0.224546
O O2 0.330760 0.304862 0.329878
O O3 0.500000 0.280203 0.000000
O O4 0.750000 0.250000 0.000000
O O5 0.353787 0.110245 0.394048
O O6 0.000000 0.096813 0.500000
O O7 0.465242 0.056770 0.119781
O O8 0.594328 0.565246 0.751674
O O9 0.000000 0.500000 0.500000
O O10 0.500000 0.500000 0.000000
O O11 0.500000 0.124507 0.500000
#
# Coordination Sequence:
#
# PCOD9217773 Si02
#       5
#     8   8   2   4   8
#     4  12  24  44  74 114 150 201 251 315 391 469
#     4  12  26  50  72 110 151 205 256 312 391 464
#     4  12  28  50  78 104 154 202 272 304 384 476
#     4  10  23  45  69 109 149 194 251 315 394 459
#     4  11  24  46  73 112 149 200 251 322 395 457
#
# _framework density 23.139068999999999
#
# number of rings (size 3 to 8) (size 9 to 14) (size 15 to 20)
#    0.000    0.533    1.333    6.800    0.000    2.133 
#    9.600    0.000    0.000    0.000    0.000    0.000 
#    0.000    0.000    0.000    0.000    0.000    0.000 
#
# Total GULP energy -83560.864701 kJ/mol
# GULP energy per Si atom -5570.724313 kJ/mol
# Density = 2.308640 g / cm^3
# Si number density = 23.139069 Si / 1000 Ang^3
#
#
#
# Elastic Constant Matrix: (Units=GPa)
#
#
# Indices 1 2 3 4 5 6 
#
# 1 146.4643 6.5582 55.2221 -0.0268 26.7659 0.0214
# 2 6.5582 202.1258 55.0782 -0.0110 27.5324 0.0068
# 3 55.2221 55.0782 103.2382 -0.0203 54.6247 0.0233
# 4 -0.0268 -0.0110 -0.0203 41.8560 0.0207 36.0492
# 5 26.7659 27.5324 54.6247 0.0207 59.4707 -0.0224
# 6 0.0214 0.0068 0.0233 36.0492 -0.0224 29.5198
#
#
#
# Elastic Compliance Matrix: (Units=1/GPa)
#
#
# Indices 1 2 3 4 5 6 
#
# 1 0.008798 0.001174 -0.005739 -0.000079 0.000768 0.000095
# 2 0.001174 0.005948 -0.004017 0.000018 0.000407 -0.000020
# 3 -0.005739 -0.004017 0.024412 -0.000772 -0.017980 0.000915
# 4 -0.000079 0.000018 -0.000772 -0.461451 0.001110 0.563519
# 5 0.000768 0.000407 -0.017980 0.001110 0.032794 -0.001317
# 6 0.000095 -0.000020 0.000915 0.563519 -0.001317 -0.654288
#
#
# Mechanical properties :
#
#
# Convention : Reuss Voigt Hill
#
# Bulk Modulus (GPa) = 45.46552 76.17168 60.81860
# Shear Modulus (GPa) = -4.90537 48.50061 21.79762
#
# Velocity S-wave (km/s) = -1.45759 4.58323 3.07258
# Velocity P-wave (km/s) = 4.10594 7.81016 6.23928
#
# Compressibility (1/GPa) = 0.02199469
#
# Stress axis : x y z
#
# Youngs Moduli (GPa) = 113.65686 168.11188 40.96347
#
# Poissons Ratio (x) = -0.19731 0.23508
# Poissons Ratio (y) = -0.13340 0.16455
# Poissons Ratio (z) = 0.65226 0.67529
#
# Static dielectric constant tensor:
#      x y z
#    x 1.797560 0.000040 -0.040870 
#    y 0.000040 2.062270 -0.000050 
#    z -0.040870 -0.000050 1.922010 
# 
# From -- ./inp_files/133601.got.cif
#   From: 2010.05.17/outbox.cif.g08.bks.cpg/sg12_67_cif.got.tgz:133601.got - 2010.06.03 13:09:07.
