data_PCOD9217085
_publ_section_title
;
Structure prediction by ZEFSAII (Michael W. Deem and Ramdas Pophale) SiO2 
 PCOD9217085
Probable space group: C 2/M
;
_chemical_formula_sum "Si O2"
_cell_formula_units_Z 34
_cell_length_a 10.357707
_cell_length_b 27.392174
_cell_length_c 5.036709
_cell_angle_alpha 90.000000
_cell_angle_beta 89.359699
_cell_angle_gamma 90.000000
_cell_volume 1428.926411
_symmetry_space_group_name_H-M "C 2/M"
_symmetry_group_IT_number 12
_symmetry_cell_setting 'monoclinic'
loop_
_space_group_symop_operation_xyz
x,y,z
-x,y,-z
-x,-y,-z
x,-y,z
1/2+x,1/2+y,z
1/2-x,1/2+y,-z
1/2-x,1/2-y,-z
1/2+x,1/2-y,z
loop_
_atom_site_type_symbol
_atom_site_label
_atom_site_fract_x
_atom_site_fract_y
_atom_site_fract_z
Si Si1 0.380529 0.800272 0.803752
Si Si2 0.500000 0.500000 0.000000
Si Si3 0.764734 0.446390 0.974004
Si Si4 0.875008 0.190446 0.826094
Si Si5 0.718502 0.118127 0.542991
O O1 0.383183 0.744518 0.701798
O O2 0.370079 0.839060 0.569961
O O3 0.500000 0.806605 0.000000
O O4 0.250134 0.807686 0.978966
O O5 0.385670 0.458436 0.958683
O O6 0.827869 0.500000 0.965145
O O7 0.823623 0.411209 0.194504
O O8 0.766467 0.420920 0.689957
O O9 0.847460 0.147576 0.620699
O O10 0.000000 0.182135 0.000000
#
# Coordination Sequence:
#
# PCOD9217085 Si02
#       5
#     8   2   8   8   8
#     4  10  23  44  67  99 145 187 232 283 342 417
#     4   8  24  42  60 102 138 180 216 302 366 402
#     4  10  24  40  64  95 138 173 226 289 352 410
#     4  10  23  41  67 106 141 180 234 291 344 409
#     4  12  22  43  67 100 136 182 231 275 353 419
#
# _framework density 23.794087999999999
#
# number of rings (size 3 to 8) (size 9 to 14) (size 15 to 20)
#    0.706    0.941    2.353    1.412    1.647    5.647 
#    0.000    7.059    0.000    4.235    0.000    0.000 
#    0.000    0.000    0.000    0.000    0.000    0.000 
#
# Total GULP energy -94858.752277 kJ/mol
# GULP energy per Si atom -5579.926605 kJ/mol
# Density = 2.373993 g / cm^3
# Si number density = 23.794088 Si / 1000 Ang^3
#
#
#
# Elastic Constant Matrix: (Units=GPa)
#
#
# Indices 1 2 3 4 5 6 
#
# 1 103.2756 10.1313 31.4885 0.0000 14.8533 0.0000
# 2 10.1313 201.8818 92.1827 0.0000 8.5903 0.0000
# 3 31.4885 92.1827 130.5541 0.0000 5.2833 0.0000
# 4 0.0000 0.0000 0.0000 24.9481 0.0000 39.5133
# 5 14.8533 8.5903 5.2833 0.0000 31.9255 0.0000
# 6 0.0000 0.0000 0.0000 39.5133 0.0000 60.2227
#
#
#
# Elastic Compliance Matrix: (Units=1/GPa)
#
#
# Indices 1 2 3 4 5 6 
#
# 1 0.011314 0.001179 -0.003358 0.000000 -0.005025 0.000000
# 2 0.001179 0.007473 -0.005495 0.000000 -0.001650 0.000000
# 3 -0.003358 -0.005495 0.012309 0.000000 0.001004 0.000000
# 4 0.000000 0.000000 0.000000 -1.023069 0.000000 0.671257
# 5 -0.005025 -0.001650 0.001004 0.000000 0.033939 0.000000
# 6 0.000000 0.000000 0.000000 0.671257 0.000000 -0.423820
#
#
# Mechanical properties :
#
#
# Convention : Reuss Voigt Hill
#
# Bulk Modulus (GPa) = 63.49528 78.14627 70.82078
# Shear Modulus (GPa) = -3.67307 43.54652 19.93673
#
# Velocity S-wave (km/s) = -1.24380 4.28266 2.89777
# Velocity P-wave (km/s) = 4.96795 7.57422 6.40505
#
# Compressibility (1/GPa) = 0.01574920
#
# Stress axis : x y z
#
# Youngs Moduli (GPa) = 88.38763 133.80933 81.24381
#
# Poissons Ratio (x) = -0.15783 0.27284
# Poissons Ratio (y) = -0.10425 0.44640
# Poissons Ratio (z) = 0.29683 0.73522
#
# Static dielectric constant tensor:
#      x y z
#    x 1.939740 0.000000 -0.048250 
#    y 0.000000 1.918780 0.000000 
#    z -0.048250 0.000000 1.895620 
# 
# From -- ./inp_files/8238.got.cif
#   From: 2010.05.17/outbox.cif.g08.bks.cpg/sg12_5_cif.got.tgz:8238.got - 2010.06.03 13:09:07.
