data_PCOD9217043
_publ_section_title
;
Structure prediction by ZEFSAII (Michael W. Deem and Ramdas Pophale) SiO2 
 PCOD9217043
Probable space group: C 2/M
;
_chemical_formula_sum "Si O2"
_cell_formula_units_Z 32
_cell_length_a 11.849161
_cell_length_b 19.098285
_cell_length_c 6.881112
_cell_angle_alpha 90.000000
_cell_angle_beta 124.002690
_cell_angle_gamma 90.000000
_cell_volume 1290.925135
_symmetry_space_group_name_H-M "C 2/M"
_symmetry_group_IT_number 12
_symmetry_cell_setting 'monoclinic'
loop_
_space_group_symop_operation_xyz
x,y,z
-x,y,-z
-x,-y,-z
x,-y,z
1/2+x,1/2+y,z
1/2-x,1/2+y,-z
1/2-x,1/2-y,-z
1/2+x,1/2-y,z
loop_
_atom_site_type_symbol
_atom_site_label
_atom_site_fract_x
_atom_site_fract_y
_atom_site_fract_z
Si Si1 0.342171 0.000000 0.416702
Si Si2 0.493780 0.500000 0.231098
Si Si3 0.998554 0.845446 0.227888
Si Si4 0.000000 0.729909 0.500000
Si Si5 0.805774 0.377551 0.099313
Si Si6 0.696899 0.000000 0.161948
O O1 0.500000 0.000000 0.500000
O O2 0.280452 0.931088 0.255282
O O3 0.319442 0.000000 0.623835
O O4 0.551174 0.422955 0.333351
O O5 0.349326 0.500000 0.209201
O O6 0.500000 0.500000 0.000000
O O7 0.068165 0.783626 0.412883
O O8 0.835987 0.846538 0.112229
O O9 0.000000 0.834406 0.000000
O O10 0.096488 0.680986 0.721274
O O11 0.864369 0.429365 0.991368
#
# Coordination Sequence:
#
# PCOD9217043 Si02
#       6
#     4   4   8   4   8   4
#     4  11  22  43  70 102 129 171 228 282 336 392
#     4   8  17  41  65  93 124 161 219 272 321 387
#     4  10  23  41  65  92 131 175 219 277 331 388
#     4  12  24  40  62  94 136 182 222 260 332 406
#     4  10  23  43  62  99 136 166 225 282 319 406
#     4   9  21  39  72  96 128 177 211 280 347 372
#
# _framework density 24.788425
#
# number of rings (size 3 to 8) (size 9 to 14) (size 15 to 20)
#    0.000    2.000    1.250    1.500    0.000    9.500 
#    0.000    0.000    0.000    0.000    0.000    0.000 
#    0.000    0.000    0.000    0.000    0.000    0.000 
#
# Total GULP energy -89423.357793 kJ/mol
# GULP energy per Si atom -5588.959862 kJ/mol
# Density = 2.473201 g / cm^3
# Si number density = 24.788425 Si / 1000 Ang^3
#
#
#
# Elastic Constant Matrix: (Units=GPa)
#
#
# Indices 1 2 3 4 5 6 
#
# 1 105.2942 20.2627 40.8666 0.0000 -10.3012 0.0000
# 2 20.2627 186.9370 79.6330 0.0000 -10.7798 0.0000
# 3 40.8666 79.6330 186.0467 0.0000 -44.9873 0.0000
# 4 0.0000 0.0000 0.0000 30.3263 0.0000 5.8548
# 5 -10.3012 -10.7798 -44.9873 0.0000 49.9966 0.0000
# 6 0.0000 0.0000 0.0000 5.8548 0.0000 9.3964
#
#
#
# Elastic Compliance Matrix: (Units=1/GPa)
#
#
# Indices 1 2 3 4 5 6 
#
# 1 0.010389 -0.000197 -0.002160 0.000000 0.000154 0.000000
# 2 -0.000197 0.006626 -0.003140 0.000000 -0.001438 0.000000
# 3 -0.002160 -0.003140 0.008847 0.000000 0.006839 0.000000
# 4 0.000000 0.000000 0.000000 0.037484 0.000000 -0.023356
# 5 0.000154 -0.001438 0.006839 0.000000 0.025877 0.000000
# 6 0.000000 0.000000 0.000000 -0.023356 0.000000 0.120976
#
#
# Mechanical properties :
#
#
# Convention : Reuss Voigt Hill
#
# Bulk Modulus (GPa) = 67.26616 84.42250 75.84433
# Shear Modulus (GPa) = 22.10934 40.44490 31.27712
#
# Velocity S-wave (km/s) = 2.98975 4.04369 3.55598
# Velocity P-wave (km/s) = 6.25405 7.47884 6.89370
#
# Compressibility (1/GPa) = 0.01486632
#
# Stress axis : x y z
#
# Youngs Moduli (GPa) = 96.25883 150.93036 113.02834
#
# Poissons Ratio (x) = 0.02971 0.24419
# Poissons Ratio (y) = 0.01895 0.35495
# Poissons Ratio (z) = 0.20796 0.47397
#
# Static dielectric constant tensor:
#      x y z
#    x 2.067490 0.000000 0.079400 
#    y 0.000000 1.956520 0.000000 
#    z 0.079400 0.000000 2.037430 
# 
# From -- ./inp_files/10897.got.cif
#   From: 2010.05.17/outbox.cif.g08.bks.cpg/sg12_6_cif.got.tgz:10897.got - 2010.06.03 13:09:07.
