data_PCOD9217890
_publ_section_title
;
Structure prediction by ZEFSAII (Michael W. Deem and Ramdas Pophale) SiO2 
 PCOD9217890
Probable space group: C 2/M
;
_chemical_formula_sum "Si O2"
_cell_formula_units_Z 64
_cell_length_a 8.730773
_cell_length_b 29.063175
_cell_length_c 15.422713
_cell_angle_alpha 90.000000
_cell_angle_beta 59.915968
_cell_angle_gamma 90.000000
_cell_volume 3386.248261
_symmetry_space_group_name_H-M "C 2/M"
_symmetry_group_IT_number 12
_symmetry_cell_setting 'monoclinic'
loop_
_space_group_symop_operation_xyz
x,y,z
-x,y,-z
-x,-y,-z
x,-y,z
1/2+x,1/2+y,z
1/2-x,1/2+y,-z
1/2-x,1/2-y,-z
1/2+x,1/2-y,z
loop_
_atom_site_type_symbol
_atom_site_label
_atom_site_fract_x
_atom_site_fract_y
_atom_site_fract_z
Si Si1 0.699635 0.374264 0.463980
Si Si2 0.930469 0.165104 0.926650
Si Si3 0.709516 0.725298 0.181427
Si Si4 0.090655 0.681825 0.119548
Si Si5 0.719978 0.875685 0.230978
Si Si6 0.998799 0.553998 0.395400
Si Si7 0.676128 0.281312 0.392464
Si Si8 0.200656 0.318404 0.406680
O O1 0.500000 0.386904 0.500000
O O2 0.764166 0.329918 0.389983
O O3 0.699327 0.354473 0.561605
O O4 0.828695 0.416641 0.415681
O O5 0.918582 0.195744 0.844121
O O6 0.077550 0.126271 0.862683
O O7 0.721839 0.161752 0.008645
O O8 0.000000 0.184011 0.000000
O O9 0.684872 0.775549 0.145035
O O10 0.650567 0.723717 0.297744
O O11 0.908639 0.703342 0.133136
O O12 0.091539 0.640389 0.189239
O O13 0.659143 0.921572 0.298175
O O14 0.703074 0.836560 0.309212
O O15 0.989987 0.500000 0.379611
O O16 0.000000 0.559783 0.500000
O O17 0.500000 0.283729 0.500000
O O18 0.767001 0.233808 0.394539
O O19 0.000000 0.318621 0.500000
#
# Coordination Sequence:
#
# PCOD9217890 Si02
#       8
#     8   8   8   8   8   8   8   8
#     4  11  22  36  57  87 133 164 208 252 298 363
#     4  10  24  40  58  82 115 160 212 273 312 363
#     4  12  23  37  61  83 126 175 215 257 305 368
#     4  11  23  39  57  86 118 167 217 264 313 365
#     4  11  20  40  63  82 120 156 208 260 320 360
#     4  11  23  42  67  91 118 163 214 260 316 380
#     4  10  24  34  54  90 131 171 214 233 295 371
#     4  11  20  38  56  83 127 175 208 246 289 373
#
# _framework density 18.899972999999999
#
# number of rings (size 3 to 8) (size 9 to 14) (size 15 to 20)
#    0.000    1.125    3.750    3.375    3.500    1.250 
#    0.000    0.000    0.000    3.375    0.000    0.000 
#    0.000   17.000    0.000    0.000    0.000    0.000 
#
# Total GULP energy -178358.298321 kJ/mol
# GULP energy per Si atom -5573.696823 kJ/mol
# Density = 1.885696 g / cm^3
# Si number density = 18.899973 Si / 1000 Ang^3
#
#
#
# Elastic Constant Matrix: (Units=GPa)
#
#
# Indices 1 2 3 4 5 6 
#
# 1 105.7031 42.5914 43.8044 0.0000 -9.2320 0.0000
# 2 42.5914 128.6874 36.5705 0.0000 -6.8978 0.0000
# 3 43.8044 36.5705 108.6030 0.0000 -7.0168 0.0000
# 4 0.0000 0.0000 0.0000 10.8551 0.0000 -0.0513
# 5 -9.2320 -6.8978 -7.0168 0.0000 35.6120 0.0000
# 6 0.0000 0.0000 0.0000 -0.0513 0.0000 18.6096
#
#
#
# Elastic Compliance Matrix: (Units=1/GPa)
#
#
# Indices 1 2 3 4 5 6 
#
# 1 0.012412 -0.002896 -0.003909 0.000000 0.001887 0.000000
# 2 -0.002896 0.009312 -0.001924 0.000000 0.000674 0.000000
# 3 -0.003909 -0.001924 0.011489 0.000000 0.000878 0.000000
# 4 0.000000 0.000000 0.000000 0.092124 0.000000 0.000254
# 5 0.001887 0.000674 0.000878 0.000000 0.028873 0.000000
# 6 0.000000 0.000000 0.000000 0.000254 0.000000 0.053736
#
#
# Mechanical properties :
#
#
# Convention : Reuss Voigt Hill
#
# Bulk Modulus (GPa) = 63.47274 65.43621 64.45447
# Shear Modulus (GPa) = 21.67718 27.68382 24.68050
#
# Velocity S-wave (km/s) = 3.39033 3.83136 3.61757
# Velocity P-wave (km/s) = 6.99873 7.36682 7.18513
#
# Compressibility (1/GPa) = 0.01575480
#
# Stress axis : x y z
#
# Youngs Moduli (GPa) = 80.56619 107.38651 87.03767
#
# Poissons Ratio (x) = 0.31099 0.34026
# Poissons Ratio (y) = 0.23332 0.16747
# Poissons Ratio (z) = 0.31496 0.20663
#
# Static dielectric constant tensor:
#      x y z
#    x 1.749100 0.000000 -0.029740 
#    y 0.000000 1.642450 0.000000 
#    z -0.029740 0.000000 1.730050 
# 
# From -- ./inp_files/200895.got.cif
#   From: 2010.05.17/outbox.cif.g08.bks.cpg/sg12_101_cif.got.tgz:200895.got - 2010.06.03 13:09:07.
