data_PCOD9217237
_publ_section_title
;
Structure prediction by ZEFSAII (Michael W. Deem and Ramdas Pophale) SiO2 
 PCOD9217237
Probable space group: C 2/M
;
_chemical_formula_sum "Si O2"
_cell_formula_units_Z 30
_cell_length_a 14.282651
_cell_length_b 19.632722
_cell_length_c 5.119402
_cell_angle_alpha 90.000000
_cell_angle_beta 121.053818
_cell_angle_gamma 90.000000
_cell_volume 1229.783886
_symmetry_space_group_name_H-M "C 2/M"
_symmetry_group_IT_number 12
_symmetry_cell_setting 'monoclinic'
loop_
_space_group_symop_operation_xyz
x,y,z
-x,y,-z
-x,-y,-z
x,-y,z
1/2+x,1/2+y,z
1/2-x,1/2+y,-z
1/2-x,1/2-y,-z
1/2+x,1/2-y,z
loop_
_atom_site_type_symbol
_atom_site_label
_atom_site_fract_x
_atom_site_fract_y
_atom_site_fract_z
Si Si1 0.578365 0.000000 0.367925
Si Si2 0.500000 0.500000 0.500000
Si Si3 0.875671 0.788526 0.723617
Si Si4 0.869025 0.368136 0.777267
Si Si5 0.671750 0.624230 0.846555
O O1 0.500000 0.000000 0.500000
O O2 0.646945 0.930935 0.443821
O O3 0.500000 0.000000 0.000000
O O4 0.590852 0.559851 0.713322
O O5 0.837786 0.709757 0.668428
O O6 0.871711 0.821750 0.432724
O O7 0.827673 0.839565 0.873319
O O8 0.000000 0.784847 0.000000
O O9 0.794665 0.388860 0.916990
O O10 0.000000 0.364776 0.000000
#
# Coordination Sequence:
#
# PCOD9217237 Si02
#       5
#     4   2   8   8   8
#     4  10  23  42  64  97 136 178 230 278 361 416
#     4  12  26  46  74  98 152 178 244 292 356 426
#     4  11  23  44  69 103 141 185 243 292 352 426
#     4  10  24  44  72 102 145 186 234 298 355 432
#     4  12  25  44  69 104 140 190 239 290 361 422
#
# _framework density 24.394532000000002
#
# number of rings (size 3 to 8) (size 9 to 14) (size 15 to 20)
#    0.000    1.067    2.667    2.400    0.000   12.800 
#    0.000    0.000    0.000    0.000    0.000    0.000 
#    0.000    0.000    0.000    0.000    0.000    0.000 
#
# Total GULP energy -83581.643674 kJ/mol
# GULP energy per Si atom -5572.109578 kJ/mol
# Density = 2.433901 g / cm^3
# Si number density = 24.394532 Si / 1000 Ang^3
#
#
#
# Elastic Constant Matrix: (Units=GPa)
#
#
# Indices 1 2 3 4 5 6 
#
# 1 150.7148 88.9454 30.8780 0.0000 1.3514 0.0000
# 2 88.9454 269.3379 54.1063 0.0000 0.8678 0.0000
# 3 30.8780 54.1063 93.5448 0.0000 1.8653 0.0000
# 4 0.0000 0.0000 0.0000 19.6699 0.0000 14.4295
# 5 1.3514 0.8678 1.8653 0.0000 37.4301 0.0000
# 6 0.0000 0.0000 0.0000 14.4295 0.0000 108.4673
#
#
#
# Elastic Compliance Matrix: (Units=1/GPa)
#
#
# Indices 1 2 3 4 5 6 
#
# 1 0.008384 -0.002504 -0.001316 0.000000 -0.000179 0.000000
# 2 -0.002504 0.004949 -0.002037 0.000000 0.000077 0.000000
# 3 -0.001316 -0.002037 0.012313 0.000000 -0.000519 0.000000
# 4 0.000000 0.000000 0.000000 0.056337 0.000000 -0.007495
# 5 -0.000179 0.000077 -0.000519 0.000000 0.026747 0.000000
# 6 0.000000 0.000000 0.000000 -0.007495 0.000000 0.010216
#
#
# Mechanical properties :
#
#
# Convention : Reuss Voigt Hill
#
# Bulk Modulus (GPa) = 71.77722 95.71742 83.74732
# Shear Modulus (GPa) = 36.95396 55.75799 46.35597
#
# Velocity S-wave (km/s) = 3.89632 4.78606 4.36393
# Velocity P-wave (km/s) = 7.05189 8.35848 7.73283
#
# Compressibility (1/GPa) = 0.01393200
#
# Stress axis : x y z
#
# Youngs Moduli (GPa) = 119.27735 202.07395 81.21422
#
# Poissons Ratio (x) = 0.50595 0.10685
# Poissons Ratio (y) = 0.29864 0.16546
# Poissons Ratio (z) = 0.15693 0.41170
#
# Static dielectric constant tensor:
#      x y z
#    x 2.064580 0.000000 0.012330 
#    y 0.000000 1.947750 0.000000 
#    z 0.012330 0.000000 2.008580 
# 
# From -- ./inp_files/10180.got.cif
#   From: 2010.05.17/outbox.cif.g08.bks.cpg/sg12_6_cif.got.tgz:10180.got - 2010.06.03 13:09:07.
