data_PCOD9217197
_publ_section_title
;
Structure prediction by ZEFSAII (Michael W. Deem and Ramdas Pophale) SiO2 
 PCOD9217197
Probable space group: C 2/M
;
_chemical_formula_sum "Si O2"
_cell_formula_units_Z 64
_cell_length_a 15.909295
_cell_length_b 8.602698
_cell_length_c 31.563723
_cell_angle_alpha 90.000000
_cell_angle_beta 50.051115
_cell_angle_gamma 90.000000
_cell_volume 3311.712388
_symmetry_space_group_name_H-M "C 2/M"
_symmetry_group_IT_number 12
_symmetry_cell_setting 'monoclinic'
loop_
_space_group_symop_operation_xyz
x,y,z
-x,y,-z
-x,-y,-z
x,-y,z
1/2+x,1/2+y,z
1/2-x,1/2+y,-z
1/2-x,1/2-y,-z
1/2+x,1/2-y,z
loop_
_atom_site_type_symbol
_atom_site_label
_atom_site_fract_x
_atom_site_fract_y
_atom_site_fract_z
Si Si1 0.500094 0.184563 0.174049
Si Si2 0.432883 0.685322 0.757128
Si Si3 0.616778 0.317156 0.940152
Si Si4 0.676510 0.689121 0.441883
Si Si5 0.927595 0.314032 0.365389
Si Si6 0.500570 0.687774 0.430866
Si Si7 0.821122 0.687306 0.167740
Si Si8 0.201401 0.817179 0.059119
O O1 0.526764 0.267559 0.209345
O O2 0.383015 0.224422 0.191312
O O3 0.591714 0.232589 0.110102
O O4 0.505248 0.000000 0.179284
O O5 0.436737 0.500000 0.751592
O O6 0.507626 0.759907 0.696920
O O7 0.305943 0.733964 0.792517
O O8 0.643947 0.500000 0.935844
O O9 0.617644 0.269338 0.890990
O O10 0.708557 0.216309 0.933940
O O11 0.500000 0.290764 0.000000
O O12 0.677564 0.500000 0.441362
O O13 0.801264 0.743496 0.404466
O O14 0.609679 0.736365 0.421335
O O15 0.602434 0.735389 0.506145
O O16 0.925050 0.500000 0.367426
O O17 0.985546 0.253400 0.389105
O O18 0.501117 0.500000 0.428546
O O19 0.827650 0.500000 0.159755
O O20 0.180866 0.000000 0.061311
O O21 0.250000 0.750000 0.000000
#
# Coordination Sequence:
#
# PCOD9217197 Si02
#       8
#     8   8   8   8   8   8   8   8
#     4  11  23  42  66  91 117 152 195 248 307 360
#     4  11  24  43  62  85 117 161 206 249 296 359
#     4  11  23  38  60  91 123 154 194 243 296 353
#     4   8  17  34  58  85 118 158 199 242 299 359
#     4  11  22  36  56  86 120 155 197 250 303 353
#     4   9  17  35  60  85 115 157 202 245 293 359
#     4  10  23  42  64  87 116 154 196 243 302 362
#     4  12  24  39  60  89 124 159 195 240 295 359
#
# _framework density 19.325348000000002
#
# number of rings (size 3 to 8) (size 9 to 14) (size 15 to 20)
#    0.000    1.625    1.250    4.500    0.000    5.500 
#    0.000    8.125    0.000    0.000    0.000    0.000 
#    0.000    0.000    0.000    0.000    0.000    0.000 
#
# Total GULP energy -178842.431627 kJ/mol
# GULP energy per Si atom -5588.825988 kJ/mol
# Density = 1.928136 g / cm^3
# Si number density = 19.325348 Si / 1000 Ang^3
#
#
#
# Elastic Constant Matrix: (Units=GPa)
#
#
# Indices 1 2 3 4 5 6 
#
# 1 96.1401 11.1763 28.7981 0.0002 17.3120 -0.0001
# 2 11.1763 25.0615 5.8754 -0.0003 -0.4308 -0.0005
# 3 28.7981 5.8754 71.0897 0.0002 20.9441 0.0002
# 4 0.0002 -0.0003 0.0002 27.0785 -0.0001 4.4941
# 5 17.3120 -0.4308 20.9441 -0.0001 19.7471 -0.0001
# 6 -0.0001 -0.0005 0.0002 4.4941 -0.0001 30.7107
#
#
#
# Elastic Compliance Matrix: (Units=1/GPa)
#
#
# Indices 1 2 3 4 5 6 
#
# 1 0.013434 -0.005656 -0.002136 0.000000 -0.009635 0.000000
# 2 -0.005656 0.043649 -0.004448 0.000000 0.010628 0.000001
# 3 -0.002136 -0.004448 0.021492 0.000000 -0.021020 0.000000
# 4 0.000000 0.000000 0.000000 0.037849 0.000000 -0.005539
# 5 -0.009635 0.010628 -0.021020 0.000000 0.081613 0.000001
# 6 0.000000 0.000001 0.000000 -0.005539 0.000001 0.033372
#
#
# Mechanical properties :
#
#
# Convention : Reuss Voigt Hill
#
# Bulk Modulus (GPa) = 18.48525 31.55455 25.01990
# Shear Modulus (GPa) = 18.25350 25.27004 21.76177
#
# Velocity S-wave (km/s) = 3.07667 3.62001 3.35934
# Velocity P-wave (km/s) = 4.71245 5.81689 5.29355
#
# Compressibility (1/GPa) = 0.05409719
#
# Stress axis : x y z
#
# Youngs Moduli (GPa) = 74.43940 22.90986 46.52848
#
# Poissons Ratio (x) = 0.12957 0.09938
# Poissons Ratio (y) = 0.42101 0.20694
# Poissons Ratio (z) = 0.15899 0.10189
#
# Static dielectric constant tensor:
#      x y z
#    x 1.603070 0.000000 -0.008480 
#    y 0.000000 1.655460 0.000000 
#    z -0.008480 0.000000 1.647710 
# 
# From -- ./inp_files/375374.got.cif
#   From: 2010.05.17/outbox.cif.g08.bks.cpg/sg12_188_cif.got.tgz:375374.got - 2010.06.03 13:09:07.
