data_PCOD9217151
_publ_section_title
;
Structure prediction by ZEFSAII (Michael W. Deem and Ramdas Pophale) SiO2 
 PCOD9217151
Probable space group: C 2/M
;
_chemical_formula_sum "Si O2"
_cell_formula_units_Z 56
_cell_length_a 8.750820
_cell_length_b 19.305265
_cell_length_c 15.723483
_cell_angle_alpha 90.000000
_cell_angle_beta 69.550916
_cell_angle_gamma 90.000000
_cell_volume 2488.885971
_symmetry_space_group_name_H-M "C 2/M"
_symmetry_group_IT_number 12
_symmetry_cell_setting 'monoclinic'
loop_
_space_group_symop_operation_xyz
x,y,z
-x,y,-z
-x,-y,-z
x,-y,z
1/2+x,1/2+y,z
1/2-x,1/2+y,-z
1/2-x,1/2-y,-z
1/2+x,1/2-y,z
loop_
_atom_site_type_symbol
_atom_site_label
_atom_site_fract_x
_atom_site_fract_y
_atom_site_fract_z
Si Si1 0.513501 0.920043 0.716837
Si Si2 0.127201 0.663908 0.107115
Si Si3 0.386304 0.579454 0.606279
Si Si4 0.950243 0.207082 0.349006
Si Si5 0.864409 0.078406 0.950687
Si Si6 0.447361 0.702962 0.152271
Si Si7 0.606041 0.840653 0.406134
O O1 0.494802 0.877451 0.807165
O O2 0.690293 0.912787 0.637370
O O3 0.380137 0.891826 0.676028
O O4 0.485426 0.000000 0.741071
O O5 0.279250 0.688584 0.136632
O O6 0.042483 0.733402 0.090764
O O7 0.203640 0.613222 0.022082
O O8 0.500000 0.588183 0.500000
O O9 0.414762 0.500000 0.630138
O O10 0.437273 0.640499 0.659336
O O11 0.926305 0.223716 0.254468
O O12 0.773624 0.183562 0.414091
O O13 0.018317 0.272318 0.386259
O O14 0.943476 0.133723 0.871814
O O15 0.838766 0.000000 0.924658
O O16 0.000000 0.075112 0.000000
O O17 0.500000 0.874576 0.500000
#
# Coordination Sequence:
#
# PCOD9217151 Si02
#       7
#     8   8   8   8   8   8   8
#     4  11  23  40  63  88 122 165 209 258 313 368
#     4  11  22  41  63  95 123 164 204 252 305 367
#     4  10  23  42  62  86 121 166 209 254 315 373
#     4  12  22  39  60  92 121 161 205 256 303 366
#     4   9  20  39  64  93 125 160 200 249 304 363
#     4  11  22  38  65  91 123 161 206 249 303 365
#     4  12  24  39  61  89 123 162 207 259 308 360
#
# _framework density 22.500025999999998
#
# number of rings (size 3 to 8) (size 9 to 14) (size 15 to 20)
#    0.000    1.143    2.857    3.429    2.000    2.000 
#    0.000    0.000    0.000    0.857    0.000    0.000 
#    0.000    0.000    0.000    0.000    0.000    0.000 
#
# Total GULP energy -156588.417567 kJ/mol
# GULP energy per Si atom -5592.443485 kJ/mol
# Density = 2.244881 g / cm^3
# Si number density = 22.500026 Si / 1000 Ang^3
#
#
#
# Elastic Constant Matrix: (Units=GPa)
#
#
# Indices 1 2 3 4 5 6 
#
# 1 51.5975 33.7337 2.0183 0.0000 -10.0616 0.0000
# 2 33.7337 119.4112 8.8786 0.0000 -11.0964 0.0000
# 3 2.0183 8.8786 46.8773 0.0000 -13.5880 0.0000
# 4 0.0000 0.0000 0.0000 25.5430 0.0000 -4.6248
# 5 -10.0616 -11.0964 -13.5880 0.0000 29.5375 0.0000
# 6 0.0000 0.0000 0.0000 -4.6248 0.0000 26.3776
#
#
#
# Elastic Compliance Matrix: (Units=1/GPa)
#
#
# Indices 1 2 3 4 5 6 
#
# 1 0.024959 -0.006560 0.002213 0.000000 0.007056 0.000000
# 2 -0.006560 0.010428 -0.001390 0.000000 0.001043 0.000000
# 3 0.002213 -0.001390 0.024886 0.000000 0.011680 0.000000
# 4 0.000000 0.000000 0.000000 0.040433 0.000000 0.007089
# 5 0.007056 0.001043 0.011680 0.000000 0.042024 0.000000
# 6 0.000000 0.000000 0.000000 0.007089 0.000000 0.039154
#
#
# Mechanical properties :
#
#
# Convention : Reuss Voigt Hill
#
# Bulk Modulus (GPa) = 20.49240 34.12746 27.30993
# Shear Modulus (GPa) = 23.85233 27.84199 25.84716
#
# Velocity S-wave (km/s) = 3.25945 3.52151 3.39302
# Velocity P-wave (km/s) = 4.82627 5.63342 5.24539
#
# Compressibility (1/GPa) = 0.04879857
#
# Stress axis : x y z
#
# Youngs Moduli (GPa) = 40.06613 95.89677 40.18361
#
# Poissons Ratio (x) = 0.62906 -0.08893
# Poissons Ratio (y) = 0.26282 0.05586
# Poissons Ratio (z) = -0.08867 0.13331
#
# Static dielectric constant tensor:
#      x y z
#    x 1.839660 0.000000 -0.035730 
#    y 0.000000 1.799850 0.000000 
#    z -0.035730 0.000000 1.843090 
# 
# From -- ./inp_files/257017.got.cif
#   From: 2010.05.17/outbox.cif.g08.bks.cpg/sg12_129_cif.got.tgz:257017.got - 2010.06.03 13:09:07.
