data_PCOD9217913
_publ_section_title
;
Structure prediction by ZEFSAII (Michael W. Deem and Ramdas Pophale) SiO2 
 PCOD9217913
Probable space group: C 2/M
;
_chemical_formula_sum "Si O2"
_cell_formula_units_Z 56
_cell_length_a 8.747423
_cell_length_b 20.676536
_cell_length_c 14.476139
_cell_angle_alpha 90.000000
_cell_angle_beta 78.669463
_cell_angle_gamma 90.000000
_cell_volume 2567.217827
_symmetry_space_group_name_H-M "C 2/M"
_symmetry_group_IT_number 12
_symmetry_cell_setting 'monoclinic'
loop_
_space_group_symop_operation_xyz
x,y,z
-x,y,-z
-x,-y,-z
x,-y,z
1/2+x,1/2+y,z
1/2-x,1/2+y,-z
1/2-x,1/2-y,-z
1/2+x,1/2-y,z
loop_
_atom_site_type_symbol
_atom_site_label
_atom_site_fract_x
_atom_site_fract_y
_atom_site_fract_z
Si Si1 0.068329 0.840798 0.245894
Si Si2 0.382140 0.074889 0.731862
Si Si3 0.634983 0.574948 0.061927
Si Si4 0.170633 0.338283 0.084826
Si Si5 0.873686 0.421378 0.437817
Si Si6 0.615892 0.575173 0.603268
Si Si7 0.131854 0.261857 0.836051
O O1 0.075598 0.894443 0.163931
O O2 0.232623 0.804212 0.225631
O O3 0.015595 0.877251 0.343983
O O4 0.944321 0.786648 0.229087
O O5 0.330682 0.115965 0.824749
O O6 0.546518 0.098346 0.667880
O O7 0.250559 0.076871 0.667372
O O8 0.399255 0.000000 0.757194
O O9 0.677636 0.500000 0.068446
O O10 0.500000 0.578779 0.000000
O O11 0.774762 0.618831 0.006993
O O12 0.294047 0.281859 0.092108
O O13 0.003422 0.305326 0.105777
O O14 0.875368 0.500000 0.436404
O O15 0.705244 0.404480 0.498942
O O16 0.000000 0.400789 0.500000
O O17 0.564849 0.500000 0.601948
#
# Coordination Sequence:
#
# PCOD9217913 Si02
#       7
#     8   8   8   8   8   8   8
#     4  11  21  38  54  78 104 140 171 219 249 306
#     4   9  15  28  52  79 106 134 168 216 266 306
#     4  11  22  36  58  85 106 131 170 212 261 310
#     4  11  21  38  54  78 104 140 171 219 249 306
#     4   7  12  22  44  78 104 129 168 209 258 314
#     4   9  15  28  52  79 106 134 168 216 266 306
#     4  10  24  37  56  73 104 142 186 203 250 301
#
# _framework density 21.813496000000001
#
# number of rings (size 3 to 8) (size 9 to 14) (size 15 to 20)
#    0.000    2.286    2.857    2.571    0.000    6.286 
#    0.000    3.571    0.000    6.000    0.000    3.000 
#    0.000    0.000    0.000    0.000    0.000    0.000 
#
# Total GULP energy -156565.123267 kJ/mol
# GULP energy per Si atom -5591.611545 kJ/mol
# Density = 2.176385 g / cm^3
# Si number density = 21.813496 Si / 1000 Ang^3
#
#
#
# Elastic Constant Matrix: (Units=GPa)
#
#
# Indices 1 2 3 4 5 6 
#
# 1 83.1212 63.0649 40.2010 0.0000 -16.1684 0.0000
# 2 63.0649 104.7818 37.2101 0.0000 -18.7322 0.0000
# 3 40.2010 37.2101 92.6576 0.0000 -16.2519 0.0000
# 4 0.0000 0.0000 0.0000 9.2496 0.0000 -36.8293
# 5 -16.1684 -18.7322 -16.2519 0.0000 32.7855 0.0000
# 6 0.0000 0.0000 0.0000 -36.8293 0.0000 10.3764
#
#
#
# Elastic Compliance Matrix: (Units=1/GPa)
#
#
# Indices 1 2 3 4 5 6 
#
# 1 0.024445 -0.012445 -0.005192 0.000000 0.002371 0.000000
# 2 -0.012445 0.018120 -0.001246 0.000000 0.003598 0.000000
# 3 -0.005192 -0.001246 0.014207 0.000000 0.003770 0.000000
# 4 0.000000 0.000000 0.000000 -0.008232 0.000000 -0.029220
# 5 0.002371 0.003598 0.003770 0.000000 0.035595 0.000000
# 6 0.000000 0.000000 0.000000 -0.029220 0.000000 -0.007338
#
#
# Mechanical properties :
#
#
# Convention : Reuss Voigt Hill
#
# Bulk Modulus (GPa) = 52.61852 62.39027 57.50440
# Shear Modulus (GPa) = 41.35736 19.82126 30.58931
#
# Velocity S-wave (km/s) = 4.35898 3.01769 3.74881
# Velocity P-wave (km/s) = 7.03624 6.38793 6.71991
#
# Compressibility (1/GPa) = 0.01900471
#
# Stress axis : x y z
#
# Youngs Moduli (GPa) = 40.90772 55.18873 70.38875
#
# Poissons Ratio (x) = 0.68683 0.36548
# Poissons Ratio (y) = 0.50910 0.08771
# Poissons Ratio (z) = 0.21241 0.06877
#
# Static dielectric constant tensor:
#      x y z
#    x 1.869590 0.000000 -0.003800 
#    y 0.000000 1.752610 0.000000 
#    z -0.003800 0.000000 1.779960 
# 
# From -- ./inp_files/258013.got.cif
#   From: 2010.05.17/outbox.cif.g08.bks.cpg/sg12_130_cif.got.tgz:258013.got - 2010.06.03 13:09:07.
