data_PCOD9217471
_publ_section_title
;
Structure prediction by ZEFSAII (Michael W. Deem and Ramdas Pophale) SiO2 
 PCOD9217471
Probable space group: C 2/M
;
_chemical_formula_sum "Si O2"
_cell_formula_units_Z 48
_cell_length_a 27.791741
_cell_length_b 8.817445
_cell_length_c 17.216621
_cell_angle_alpha 90.000000
_cell_angle_beta 36.145556
_cell_angle_gamma 90.000000
_cell_volume 2488.511354
_symmetry_space_group_name_H-M "C 2/M"
_symmetry_group_IT_number 12
_symmetry_cell_setting 'monoclinic'
loop_
_space_group_symop_operation_xyz
x,y,z
-x,y,-z
-x,-y,-z
x,-y,z
1/2+x,1/2+y,z
1/2-x,1/2+y,-z
1/2-x,1/2-y,-z
1/2+x,1/2-y,z
loop_
_atom_site_type_symbol
_atom_site_label
_atom_site_fract_x
_atom_site_fract_y
_atom_site_fract_z
Si Si1 0.609164 0.319878 0.001741
Si Si2 0.853337 0.318705 0.210146
Si Si3 0.058544 0.318531 0.742861
Si Si4 0.673137 0.818901 0.447431
Si Si5 0.907537 0.182167 0.600005
Si Si6 0.741969 0.318741 0.095787
O O1 0.616407 0.500000 0.992599
O O2 0.526953 0.266930 0.151355
O O3 0.606852 0.258486 0.916763
O O4 0.687490 0.247745 0.941355
O O5 0.855719 0.500000 0.196790
O O6 0.899442 0.280463 0.229751
O O7 0.760213 0.263144 0.336502
O O8 0.043677 0.500000 0.761105
O O9 0.119670 0.282278 0.593075
O O10 0.625120 0.764843 0.433869
O O11 0.686109 0.000000 0.427953
O O12 0.845086 0.216607 0.751306
O O13 0.000000 0.224316 0.500000
O O14 0.904819 0.000000 0.590392
O O15 0.750283 0.500000 0.081417
O O16 0.750000 0.250000 0.000000
#
# Coordination Sequence:
#
# PCOD9217471 Si02
#       6
#     8   8   8   8   8   8
#     4  12  25  41  64  94 128 166 213 263 313 372
#     4  11  22  41  66  90 126 171 211 258 318 375
#     4  10  24  42  62  93 129 168 212 260 315 373
#     4  11  23  40  64  95 128 163 210 260 311 374
#     4  10  23  43  66  92 124 164 208 252 310 375
#     4  11  24  43  67  94 128 165 205 258 316 373
#
# _framework density 19.288640000000001
#
# number of rings (size 3 to 8) (size 9 to 14) (size 15 to 20)
#    0.000    1.167    1.667    4.000    2.333    5.667 
#    0.000    0.000    0.000    0.000    0.000    0.000 
#    0.000    0.000    0.000    0.000    0.000    0.000 
#
# Total GULP energy -134286.654931 kJ/mol
# GULP energy per Si atom -5595.277289 kJ/mol
# Density = 1.924474 g / cm^3
# Si number density = 19.288640 Si / 1000 Ang^3
#
#
#
# Elastic Constant Matrix: (Units=GPa)
#
#
# Indices 1 2 3 4 5 6 
#
# 1 76.0608 25.8823 22.5035 0.0010 2.0738 -0.0011
# 2 25.8823 44.3701 24.4312 0.0019 1.1109 -0.0006
# 3 22.5035 24.4312 66.6565 0.0025 -2.1825 -0.0013
# 4 0.0010 0.0019 0.0025 23.5134 0.0019 7.4345
# 5 2.0738 1.1109 -2.1825 0.0019 42.7045 -0.0001
# 6 -0.0011 -0.0006 -0.0013 7.4345 -0.0001 26.0678
#
#
#
# Elastic Compliance Matrix: (Units=1/GPa)
#
#
# Indices 1 2 3 4 5 6 
#
# 1 0.016778 -0.008315 -0.002641 0.000000 -0.000733 0.000000
# 2 -0.008315 0.032425 -0.009107 -0.000001 -0.000905 0.000000
# 3 -0.002641 -0.009107 0.019276 -0.000002 0.001350 0.000001
# 4 0.000000 -0.000001 -0.000002 0.046744 -0.000002 -0.013331
# 5 -0.000733 -0.000905 0.001350 -0.000002 0.023545 0.000001
# 6 0.000000 0.000000 0.000001 -0.013331 0.000001 0.042164
#
#
# Mechanical properties :
#
#
# Convention : Reuss Voigt Hill
#
# Bulk Modulus (GPa) = 35.26846 36.96906 36.11876
# Shear Modulus (GPa) = 21.69118 26.07515 23.88316
#
# Velocity S-wave (km/s) = 3.35708 3.68073 3.52262
# Velocity P-wave (km/s) = 5.77503 6.10504 5.94232
#
# Compressibility (1/GPa) = 0.02835394
#
# Stress axis : x y z
#
# Youngs Moduli (GPa) = 59.60178 30.84028 51.87778
#
# Poissons Ratio (x) = 0.25642 0.13700
# Poissons Ratio (y) = 0.49557 0.47246
# Poissons Ratio (z) = 0.15740 0.28087
#
# Static dielectric constant tensor:
#      x y z
#    x 1.635960 0.000000 0.001590 
#    y 0.000000 1.644430 0.000000 
#    z 0.001590 0.000000 1.655490 
# 
# From -- ./inp_files/244880.got.cif
#   From: 2010.05.17/outbox.cif.g08.bks.cpg/sg12_123_cif.got.tgz:244880.got - 2010.06.03 13:09:07.
