data_PCOD9217597
_publ_section_title
;
Structure prediction by ZEFSAII (Michael W. Deem and Ramdas Pophale) SiO2 
 PCOD9217597
Probable space group: C 2/M
;
_chemical_formula_sum "Si O2"
_cell_formula_units_Z 36
_cell_length_a 11.415844
_cell_length_b 29.168948
_cell_length_c 5.309182
_cell_angle_alpha 90.000000
_cell_angle_beta 65.675536
_cell_angle_gamma 90.000000
_cell_volume 1610.954285
_symmetry_space_group_name_H-M "C 2/M"
_symmetry_group_IT_number 12
_symmetry_cell_setting 'monoclinic'
loop_
_space_group_symop_operation_xyz
x,y,z
-x,y,-z
-x,-y,-z
x,-y,z
1/2+x,1/2+y,z
1/2-x,1/2+y,-z
1/2-x,1/2-y,-z
1/2+x,1/2-y,z
loop_
_atom_site_type_symbol
_atom_site_label
_atom_site_fract_x
_atom_site_fract_y
_atom_site_fract_z
Si Si1 0.500000 0.652908 0.500000
Si Si2 0.745349 0.949289 0.003348
Si Si3 0.000000 0.909172 0.000000
Si Si4 0.500000 0.917459 0.500000
Si Si5 0.756880 0.780484 0.745037
Si Si6 0.363599 0.872780 0.223375
O O1 0.483424 0.622615 0.262689
O O2 0.618237 0.687580 0.365437
O O3 0.604302 0.948706 0.261046
O O4 0.763134 0.000000 0.874476
O O5 0.737562 0.907750 0.807692
O O6 0.869421 0.938199 0.066984
O O7 0.390355 0.882206 0.489731
O O8 0.750000 0.750000 0.500000
O O9 0.650724 0.820267 0.831290
O O10 0.750000 0.750000 0.000000
O O11 0.500000 0.889745 0.000000
#
# Coordination Sequence:
#
# PCOD9217597 Si02
#       6
#     4   8   4   4   8   8
#     4  12  26  49  73 103 150 189 235 303 366 430
#     4  11  24  44  71 107 142 192 245 298 363 436
#     4  12  25  48  76 106 152 196 236 296 369 428
#     4  10  23  43  74  99 142 191 240 307 365 424
#     4  12  28  44  73 106 141 188 242 298 361 431
#     4  10  24  44  69  98 143 180 236 301 356 424
#
# _framework density 22.347002
#
# number of rings (size 3 to 8) (size 9 to 14) (size 15 to 20)
#    0.000    0.889    2.222    3.333    9.333    4.889 
#    0.000    1.111    0.000    0.000    0.000    0.000 
#    0.000    0.000    0.000    0.000    0.000    0.000 
#
# Total GULP energy -100303.634146 kJ/mol
# GULP energy per Si atom -5572.424119 kJ/mol
# Density = 2.229614 g / cm^3
# Si number density = 22.347002 Si / 1000 Ang^3
#
#
#
# Elastic Constant Matrix: (Units=GPa)
#
#
# Indices 1 2 3 4 5 6 
#
# 1 140.4189 62.3429 33.2009 0.0000 2.5933 0.0000
# 2 62.3429 185.2794 55.6195 0.0000 29.6671 0.0000
# 3 33.2009 55.6195 85.8033 0.0000 13.1707 0.0000
# 4 0.0000 0.0000 0.0000 -84.3144 0.0000 -69.4391
# 5 2.5933 29.6671 13.1707 0.0000 45.7801 0.0000
# 6 0.0000 0.0000 0.0000 -69.4391 0.0000 -45.8710
#
#
#
# Elastic Compliance Matrix: (Units=1/GPa)
#
#
# Indices 1 2 3 4 5 6 
#
# 1 0.008717 -0.002635 -0.001936 0.000000 0.001771 0.000000
# 2 -0.002635 0.007990 -0.003544 0.000000 -0.004009 0.000000
# 3 -0.001936 -0.003544 0.014994 0.000000 -0.001907 0.000000
# 4 0.000000 0.000000 0.000000 0.048073 0.000000 -0.072772
# 5 0.001771 -0.004009 -0.001907 0.000000 0.024890 0.000000
# 6 0.000000 0.000000 0.000000 -0.072772 0.000000 0.088361
#
#
# Mechanical properties :
#
#
# Convention : Reuss Voigt Hill
#
# Bulk Modulus (GPa) = 64.64638 79.31425 71.98031
# Shear Modulus (GPa) = 23.31961 0.47483 11.89722
#
# Velocity S-wave (km/s) = 3.23386 0.46146 2.30985
# Velocity P-wave (km/s) = 6.55249 5.98775 6.27647
#
# Compressibility (1/GPa) = 0.01546877
#
# Stress axis : x y z
#
# Youngs Moduli (GPa) = 114.72224 125.16011 66.69333
#
# Poissons Ratio (x) = 0.32983 0.12915
# Poissons Ratio (y) = 0.30232 0.23637
# Poissons Ratio (z) = 0.22216 0.44358
#
# Static dielectric constant tensor:
#      x y z
#    x 4.592640 0.000000 3.640480 
#    y 0.000000 1.936330 0.000000 
#    z 3.640480 0.000000 7.767450 
# 
# From -- ./inp_files/7542.got.cif
#   From: 2010.05.17/outbox.cif.g08.bks.cpg/sg12_4_cif.got.tgz:7542.got - 2010.06.03 13:09:07.
