data_PCOD9217216
_publ_section_title
;
Structure prediction by ZEFSAII (Michael W. Deem and Ramdas Pophale) SiO2 
 PCOD9217216
Probable space group: C 2/M
;
_chemical_formula_sum "Si O2"
_cell_formula_units_Z 64
_cell_length_a 30.096967
_cell_length_b 8.897261
_cell_length_c 18.791211
_cell_angle_alpha 90.000000
_cell_angle_beta 140.472060
_cell_angle_gamma 90.000000
_cell_volume 3202.588510
_symmetry_space_group_name_H-M "C 2/M"
_symmetry_group_IT_number 12
_symmetry_cell_setting 'monoclinic'
loop_
_space_group_symop_operation_xyz
x,y,z
-x,y,-z
-x,-y,-z
x,-y,z
1/2+x,1/2+y,z
1/2-x,1/2+y,-z
1/2-x,1/2-y,-z
1/2+x,1/2-y,z
loop_
_atom_site_type_symbol
_atom_site_label
_atom_site_fract_x
_atom_site_fract_y
_atom_site_fract_z
Si Si1 0.677796 0.179825 0.938189
Si Si2 0.310362 0.322148 0.623198
Si Si3 0.812623 0.680086 0.782224
Si Si4 0.040358 0.674625 0.419809
Si Si5 0.906059 0.680183 0.026102
Si Si6 0.039127 0.177464 0.263876
Si Si7 0.823423 0.323897 0.317974
Si Si8 0.094857 0.178345 0.710772
O O1 0.654870 0.212542 0.990887
O O2 0.619009 0.251473 0.815442
O O3 0.680408 0.000000 0.932990
O O4 0.750000 0.250000 0.000000
O O5 0.296896 0.500000 0.612650
O O6 0.250000 0.250000 0.500000
O O7 0.312812 0.250406 0.704386
O O8 0.385991 0.300746 0.680667
O O9 0.810318 0.500000 0.774184
O O10 0.744469 0.739168 0.738789
O O11 0.878220 0.721144 0.913593
O O12 0.018964 0.500000 0.395809
O O13 0.039901 0.734434 0.339138
O O14 0.116665 0.687263 0.547976
O O15 0.984855 0.770414 0.396050
O O16 0.917765 0.500000 0.042986
O O17 0.975951 0.762506 0.137389
O O18 0.029337 0.000000 0.265692
O O19 0.808911 0.500000 0.287276
O O20 0.855782 0.249369 0.287896
O O21 0.101550 0.000000 0.719590
#
# Coordination Sequence:
#
# PCOD9217216 Si02
#       8
#     8   8   8   8   8   8   8   8
#     4  11  22  38  61  89 125 170 219 269 319 379
#     4  11  25  45  69 100 132 168 213 263 322 386
#     4  11  24  43  67  97 130 166 212 263 318 385
#     4  11  23  40  62  90 126 166 212 264 323 389
#     4  10  23  42  64  91 127 169 214 261 318 383
#     4  11  24  41  66  96 127 166 215 267 321 383
#     4  11  24  41  63  91 126 170 215 266 326 385
#     4  12  24  38  59  90 126 166 215 266 320 383
#
# _framework density 19.983834000000002
#
# number of rings (size 3 to 8) (size 9 to 14) (size 15 to 20)
#    0.000    1.000    1.250    5.250    0.000   10.500 
#    0.000    2.500    0.000    0.000    0.000    0.000 
#    0.000    0.000    0.000    0.000    0.000    0.000 
#
# Total GULP energy -179067.529865 kJ/mol
# GULP energy per Si atom -5595.860308 kJ/mol
# Density = 1.993835 g / cm^3
# Si number density = 19.983834 Si / 1000 Ang^3
#
#
#
# Elastic Constant Matrix: (Units=GPa)
#
#
# Indices 1 2 3 4 5 6 
#
# 1 65.1144 50.6611 33.3773 0.0000 -17.5731 0.0000
# 2 50.6611 97.6306 54.1243 0.0000 -10.1816 0.0000
# 3 33.3773 54.1243 91.4535 0.0000 -21.3336 0.0000
# 4 0.0000 0.0000 0.0000 30.4900 0.0000 2.2803
# 5 -17.5731 -10.1816 -21.3336 0.0000 35.8871 0.0000
# 6 0.0000 0.0000 0.0000 2.2803 0.0000 37.6481
#
#
#
# Elastic Compliance Matrix: (Units=1/GPa)
#
#
# Indices 1 2 3 4 5 6 
#
# 1 0.028996 -0.014045 0.000131 0.000000 0.010291 0.000000
# 2 -0.014045 0.022093 -0.009394 0.000000 -0.006194 0.000000
# 3 0.000131 -0.009394 0.018390 0.000000 0.008331 0.000000
# 4 0.000000 0.000000 0.000000 0.032947 0.000000 -0.001996
# 5 0.010291 -0.006194 0.008331 0.000000 0.036100 0.000000
# 6 0.000000 0.000000 0.000000 -0.001996 0.000000 0.026683
#
#
# Mechanical properties :
#
#
# Convention : Reuss Voigt Hill
#
# Bulk Modulus (GPa) = 43.74233 58.94708 51.34470
# Shear Modulus (GPa) = 22.78485 28.54076 25.66280
#
# Velocity S-wave (km/s) = 3.38029 3.78324 3.58743
# Velocity P-wave (km/s) = 6.09685 6.97462 6.55045
#
# Compressibility (1/GPa) = 0.02286115
#
# Stress axis : x y z
#
# Youngs Moduli (GPa) = 34.48794 45.26418 54.37840
#
# Poissons Ratio (x) = 0.63574 -0.00710
# Poissons Ratio (y) = 0.48439 0.51082
# Poissons Ratio (z) = -0.00450 0.42520
#
# Static dielectric constant tensor:
#      x y z
#    x 1.685050 0.000000 0.018310 
#    y 0.000000 1.668510 0.000000 
#    z 0.018310 0.000000 1.681650 
# 
# From -- ./inp_files/295858.got.cif
#   From: 2010.05.17/outbox.cif.g08.bks.cpg/sg12_148_cif.got.tgz:295858.got - 2010.06.03 13:09:07.
