data_PCOD9217404
_publ_section_title
;
Structure prediction by ZEFSAII (Michael W. Deem and Ramdas Pophale) SiO2 
 PCOD9217404
Probable space group: C 2/M
;
_chemical_formula_sum "Si O2"
_cell_formula_units_Z 46
_cell_length_a 11.559938
_cell_length_b 14.592758
_cell_length_c 13.623611
_cell_angle_alpha 90.000000
_cell_angle_beta 54.765688
_cell_angle_gamma 90.000000
_cell_volume 1877.157056
_symmetry_space_group_name_H-M "C 2/M"
_symmetry_group_IT_number 12
_symmetry_cell_setting 'monoclinic'
loop_
_space_group_symop_operation_xyz
x,y,z
-x,y,-z
-x,-y,-z
x,-y,z
1/2+x,1/2+y,z
1/2-x,1/2+y,-z
1/2-x,1/2-y,-z
1/2+x,1/2-y,z
loop_
_atom_site_type_symbol
_atom_site_label
_atom_site_fract_x
_atom_site_fract_y
_atom_site_fract_z
Si Si1 0.201532 0.394177 0.870635
Si Si2 0.500000 0.664265 0.500000
Si Si3 0.764838 0.102997 0.475935
Si Si4 0.008374 0.896896 0.800571
Si Si5 0.966002 0.673232 0.650086
Si Si6 0.500000 0.000000 0.500000
Si Si7 0.530432 0.199581 0.127621
O O1 0.157437 0.500000 0.894513
O O2 0.369956 0.395372 0.798240
O O3 0.120441 0.348150 0.819975
O O4 0.139256 0.342229 0.996421
O O5 0.380836 0.605728 0.504585
O O6 0.572927 0.735342 0.388687
O O7 0.638460 0.170467 0.563121
O O8 0.855787 0.119777 0.334342
O O9 0.695731 0.000000 0.498977
O O10 0.989052 0.808301 0.877074
O O11 0.016097 0.000000 0.839302
O O12 0.921944 0.678181 0.784610
O O13 0.930187 0.582991 0.606283
#
# Coordination Sequence:
#
# PCOD9217404 Si02
#       7
#     8   4   8   8   8   2   8
#     4  10  24  43  68  94 125 160 221 262 312 370
#     4  11  23  39  59  96 124 168 213 251 313 377
#     4  11  23  40  62  92 130 169 207 261 313 376
#     4  10  23  43  63  92 130 167 207 266 317 376
#     4  11  24  40  64  92 133 163 214 252 320 378
#     4  10  24  44  58  96 132 172 198 262 314 398
#     4  11  22  41  68  94 122 169 213 266 311 368
#
# _framework density 24.505140999999998
#
# number of rings (size 3 to 8) (size 9 to 14) (size 15 to 20)
#    0.000    1.391    2.609    2.348    4.870    0.000 
#    0.000    1.739    0.000    2.087    0.000    0.000 
#    0.000    0.000    0.000    0.000    0.000    0.000 
#
# Total GULP energy -128560.244171 kJ/mol
# GULP energy per Si atom -5589.575834 kJ/mol
# Density = 2.444937 g / cm^3
# Si number density = 24.505141 Si / 1000 Ang^3
#
#
#
# Elastic Constant Matrix: (Units=GPa)
#
#
# Indices 1 2 3 4 5 6 
#
# 1 79.4301 10.4121 15.6330 0.0000 -13.7173 0.0000
# 2 10.4121 204.9643 41.5427 0.0000 11.9175 0.0000
# 3 15.6330 41.5427 73.3459 0.0000 26.2552 0.0000
# 4 0.0000 0.0000 0.0000 22.5228 0.0000 7.8897
# 5 -13.7173 11.9175 26.2552 0.0000 44.2854 0.0000
# 6 0.0000 0.0000 0.0000 7.8897 0.0000 45.6861
#
#
#
# Elastic Compliance Matrix: (Units=1/GPa)
#
#
# Indices 1 2 3 4 5 6 
#
# 1 0.015289 0.000007 -0.006292 0.000000 0.008465 0.000000
# 2 0.000007 0.005519 -0.003296 0.000000 0.000471 0.000000
# 3 -0.006292 -0.003296 0.021862 0.000000 -0.014023 0.000000
# 4 0.000000 0.000000 0.000000 0.047258 0.000000 -0.008161
# 5 0.008465 0.000471 -0.014023 0.000000 0.033390 0.000000
# 6 0.000000 0.000000 0.000000 -0.008161 0.000000 0.023298
#
#
# Mechanical properties :
#
#
# Convention : Reuss Voigt Hill
#
# Bulk Modulus (GPa) = 42.54174 54.76844 48.65509
# Shear Modulus (GPa) = 28.79929 41.84236 35.32083
#
# Velocity S-wave (km/s) = 3.43189 4.13667 3.80065
# Velocity P-wave (km/s) = 5.75342 6.72416 6.25764
#
# Compressibility (1/GPa) = 0.02350632
#
# Stress axis : x y z
#
# Youngs Moduli (GPa) = 65.40614 181.18469 45.74185
#
# Poissons Ratio (x) = -0.00118 0.28783
# Poissons Ratio (y) = -0.00043 0.15076
# Poissons Ratio (z) = 0.41156 0.59718
#
# Static dielectric constant tensor:
#      x y z
#    x 1.854470 0.000000 -0.000140 
#    y 0.000000 1.936730 0.000000 
#    z -0.000140 0.000000 1.924600 
# 
# From -- ./inp_files/143593.got.cif
#   From: 2010.05.17/outbox.cif.g08.bks.cpg/sg12_72_cif.got.tgz:143593.got - 2010.06.03 13:09:07.
