data_PCOD9217349
_publ_section_title
;
Structure prediction by ZEFSAII (Michael W. Deem and Ramdas Pophale) SiO2 
 PCOD9217349
Probable space group: C 2/M
;
_chemical_formula_sum "Si O2"
_cell_formula_units_Z 40
_cell_length_a 11.172171
_cell_length_b 14.436673
_cell_length_c 13.234863
_cell_angle_alpha 90.000000
_cell_angle_beta 67.137813
_cell_angle_gamma 90.000000
_cell_volume 1966.944715
_symmetry_space_group_name_H-M "C 2/M"
_symmetry_group_IT_number 12
_symmetry_cell_setting 'monoclinic'
loop_
_space_group_symop_operation_xyz
x,y,z
-x,y,-z
-x,-y,-z
x,-y,z
1/2+x,1/2+y,z
1/2-x,1/2+y,-z
1/2-x,1/2-y,-z
1/2+x,1/2-y,z
loop_
_atom_site_type_symbol
_atom_site_label
_atom_site_fract_x
_atom_site_fract_y
_atom_site_fract_z
Si Si1 0.903919 0.603119 0.336539
Si Si2 0.885045 0.000000 0.761092
Si Si3 0.180079 0.805280 0.292684
Si Si4 0.000000 0.686600 0.500000
Si Si5 0.186235 0.638177 0.154634
Si Si6 0.352244 0.000000 0.011442
Si Si7 0.591204 0.500000 0.870713
O O1 0.850781 0.500000 0.339836
O O2 0.818027 0.673628 0.299775
O O3 0.912165 0.627833 0.451751
O O4 0.051578 0.605381 0.249003
O O5 0.888629 0.903554 0.701483
O O6 0.998137 0.000000 0.806322
O O7 0.746616 0.000000 0.864096
O O8 0.093005 0.746950 0.398541
O O9 0.193902 0.746036 0.184139
O O10 0.176198 0.592141 0.046674
O O11 0.312513 0.587937 0.159110
O O12 0.500000 0.000000 0.000000
O O13 0.500000 0.500000 0.000000
#
# Coordination Sequence:
#
# PCOD9217349 Si02
#       7
#     8   4   8   4   8   4   4
#     4  11  20  44  68  96 129 172 224 277 326 393
#     4  12  25  42  66  94 136 183 214 272 331 391
#     4  11  25  44  66  98 135 173 224 274 331 393
#     4  10  25  41  64 100 130 172 226 270 344 394
#     4  10  23  42  68  97 132 175 216 270 331 387
#     4  11  21  44  69 100 129 169 223 271 318 392
#     4  11  22  46  65  94 139 167 219 271 330 400
#
# _framework density 20.336106000000001
#
# number of rings (size 3 to 8) (size 9 to 14) (size 15 to 20)
#    0.000    1.200    5.000    2.100    5.600    1.200 
#    0.000    0.000    0.000    0.000    0.000    0.000 
#    0.000    0.000    0.000    0.000    0.000    0.000 
#
# Total GULP energy -111637.267048 kJ/mol
# GULP energy per Si atom -5581.863352 kJ/mol
# Density = 2.028982 g / cm^3
# Si number density = 20.336106 Si / 1000 Ang^3
#
#
#
# Elastic Constant Matrix: (Units=GPa)
#
#
# Indices 1 2 3 4 5 6 
#
# 1 116.5858 15.1811 1.9506 0.0000 10.0375 0.0000
# 2 15.1811 106.2460 14.8301 0.0000 8.6997 0.0000
# 3 1.9506 14.8301 55.4457 0.0000 3.3472 0.0000
# 4 0.0000 0.0000 0.0000 61.3714 0.0000 0.4989
# 5 10.0375 8.6997 3.3472 0.0000 37.2561 0.0000
# 6 0.0000 0.0000 0.0000 0.4989 0.0000 27.8713
#
#
#
# Elastic Compliance Matrix: (Units=1/GPa)
#
#
# Indices 1 2 3 4 5 6 
#
# 1 0.008905 -0.001112 0.000114 0.000000 -0.002150 0.000000
# 2 -0.001112 0.010076 -0.002546 0.000000 -0.001824 0.000000
# 3 0.000114 -0.002546 0.018780 0.000000 -0.001124 0.000000
# 4 0.000000 0.000000 0.000000 0.016297 0.000000 -0.000292
# 5 -0.002150 -0.001824 -0.001124 0.000000 0.027947 0.000000
# 6 0.000000 0.000000 0.000000 -0.000292 0.000000 0.035884
#
#
# Mechanical properties :
#
#
# Convention : Reuss Voigt Hill
#
# Bulk Modulus (GPa) = 32.60144 38.02233 35.31189
# Shear Modulus (GPa) = 36.98157 41.72083 39.35120
#
# Velocity S-wave (km/s) = 4.26903 4.53433 4.40368
# Velocity P-wave (km/s) = 6.35340 6.79346 6.57711
#
# Compressibility (1/GPa) = 0.03067349
#
# Stress axis : x y z
#
# Youngs Moduli (GPa) = 112.29147 99.24793 53.24701
#
# Poissons Ratio (x) = 0.11040 -0.00607
# Poissons Ratio (y) = 0.12491 0.13555
# Poissons Ratio (z) = -0.01280 0.25266
#
# Static dielectric constant tensor:
#      x y z
#    x 1.698740 0.000000 0.031860 
#    y 0.000000 1.761060 0.000000 
#    z 0.031860 0.000000 1.727910 
# 
# From -- ./inp_files/129643.got.cif
#   From: 2010.05.17/outbox.cif.g08.bks.cpg/sg12_65_cif.got.tgz:129643.got - 2010.06.03 13:09:07.
