data_PCOD9217492
_publ_section_title
;
Structure prediction by ZEFSAII (Michael W. Deem and Ramdas Pophale) SiO2 
 PCOD9217492
Probable space group: C 2/M
;
_chemical_formula_sum "Si O2"
_cell_formula_units_Z 48
_cell_length_a 17.108657
_cell_length_b 28.626437
_cell_length_c 8.246859
_cell_angle_alpha 90.000000
_cell_angle_beta 35.036764
_cell_angle_gamma 90.000000
_cell_volume 2318.786654
_symmetry_space_group_name_H-M "C 2/M"
_symmetry_group_IT_number 12
_symmetry_cell_setting 'monoclinic'
loop_
_space_group_symop_operation_xyz
x,y,z
-x,y,-z
-x,-y,-z
x,-y,z
1/2+x,1/2+y,z
1/2-x,1/2+y,-z
1/2-x,1/2-y,-z
1/2+x,1/2-y,z
loop_
_atom_site_type_symbol
_atom_site_label
_atom_site_fract_x
_atom_site_fract_y
_atom_site_fract_z
Si Si1 0.155562 0.137898 0.085113
Si Si2 0.672586 0.298798 0.375893
Si Si3 0.916777 0.773094 0.974070
Si Si4 0.154420 0.448075 0.298570
Si Si5 0.906706 0.113417 0.319066
Si Si6 0.353238 0.946351 0.298887
O O1 0.265547 0.097110 0.898851
O O2 0.168703 0.170022 0.220960
O O3 0.155384 0.176900 0.940809
O O4 0.013065 0.111914 0.287288
O O5 0.533855 0.269557 0.637222
O O6 0.662959 0.335842 0.540095
O O7 0.803421 0.266469 0.158499
O O8 0.000000 0.770344 0.000000
O O9 0.208697 0.500000 0.159897
O O10 0.156132 0.445620 0.490694
O O11 0.000000 0.445969 0.500000
O O12 0.781964 0.078133 0.536332
O O13 0.000000 0.107316 0.000000
O O14 0.353444 0.000000 0.241133
O O15 0.500000 0.925440 0.000000
#
# Coordination Sequence:
#
# PCOD9217492 Si02
#       6
#     8   8   8   8   8   8
#     4  11  23  42  68  98 134 180 223 277 327 399
#     4  11  25  43  65  96 137 176 222 276 336 396
#     4  11  24  44  67  95 133 173 226 282 335 397
#     4  10  23  43  67 100 140 179 221 273 334 397
#     4  11  22  42  67  95 136 172 225 275 333 394
#     4  10  23  43  69 100 136 174 224 280 329 396
#
# _framework density 20.700482000000001
#
# number of rings (size 3 to 8) (size 9 to 14) (size 15 to 20)
#    0.000    1.333    1.667    5.000    2.333    3.000 
#    0.000    0.000    0.000    6.000    0.000    0.000 
#    0.000    0.000    0.000    0.000    0.000    0.000 
#
# Total GULP energy -133890.391694 kJ/mol
# GULP energy per Si atom -5578.766321 kJ/mol
# Density = 2.065337 g / cm^3
# Si number density = 20.700482 Si / 1000 Ang^3
#
#
#
# Elastic Constant Matrix: (Units=GPa)
#
#
# Indices 1 2 3 4 5 6 
#
# 1 109.9101 68.5405 52.4829 0.0000 -13.8270 0.0000
# 2 68.5405 114.8984 98.5234 0.0000 -30.9140 0.0000
# 3 52.4829 98.5234 135.5325 0.0000 -21.6999 0.0000
# 4 0.0000 0.0000 0.0000 48.4718 0.0000 -11.7822
# 5 -13.8270 -30.9140 -21.6999 0.0000 34.4274 0.0000
# 6 0.0000 0.0000 0.0000 -11.7822 0.0000 3.6777
#
#
#
# Elastic Compliance Matrix: (Units=1/GPa)
#
#
# Indices 1 2 3 4 5 6 
#
# 1 0.014883 -0.011507 0.002118 0.000000 -0.003020 0.000000
# 2 -0.011507 0.036773 -0.019719 0.000000 0.015970 0.000000
# 3 0.002118 -0.019719 0.020236 0.000000 -0.004101 0.000000
# 4 0.000000 0.000000 0.000000 0.093239 0.000000 0.298712
# 5 -0.003020 0.015970 -0.004101 0.000000 0.039589 0.000000
# 6 0.000000 0.000000 0.000000 0.298712 0.000000 1.228898
#
#
# Mechanical properties :
#
#
# Convention : Reuss Voigt Hill
#
# Bulk Modulus (GPa) = 73.11928 88.82607 80.97268
# Shear Modulus (GPa) = 3.34137 26.70165 15.02151
#
# Velocity S-wave (km/s) = 1.27187 3.59542 2.69673
# Velocity P-wave (km/s) = 6.12830 7.76140 6.99269
#
# Compressibility (1/GPa) = 0.01367628
#
# Stress axis : x y z
#
# Youngs Moduli (GPa) = 67.19204 27.19419 49.41759
#
# Poissons Ratio (x) = 0.31292 -0.10467
# Poissons Ratio (y) = 0.77316 0.97445
# Poissons Ratio (z) = -0.14232 0.53623
#
# Static dielectric constant tensor:
#      x y z
#    x 1.776550 0.000000 0.048700 
#    y 0.000000 1.755470 0.000000 
#    z 0.048700 0.000000 1.793030 
# 
# From -- ./inp_files/80584.got.cif
#   From: 2010.05.17/outbox.cif.g08.bks.cpg/sg12_41_cif.got.tgz:80584.got - 2010.06.03 13:09:07.
