data_PCOD9217364
_publ_section_title
;
Structure prediction by ZEFSAII (Michael W. Deem and Ramdas Pophale) SiO2 
 PCOD9217364
Probable space group: C 2/M
;
_chemical_formula_sum "Si O2"
_cell_formula_units_Z 50
_cell_length_a 18.386352
_cell_length_b 17.058606
_cell_length_c 7.389068
_cell_angle_alpha 90.000000
_cell_angle_beta 73.522193
_cell_angle_gamma 90.000000
_cell_volume 2222.365723
_symmetry_space_group_name_H-M "C 2/M"
_symmetry_group_IT_number 12
_symmetry_cell_setting 'monoclinic'
loop_
_space_group_symop_operation_xyz
x,y,z
-x,y,-z
-x,-y,-z
x,-y,z
1/2+x,1/2+y,z
1/2-x,1/2+y,-z
1/2-x,1/2-y,-z
1/2+x,1/2-y,z
loop_
_atom_site_type_symbol
_atom_site_label
_atom_site_fract_x
_atom_site_fract_y
_atom_site_fract_z
Si Si1 0.319594 0.144404 0.881382
Si Si2 0.248235 0.087063 0.563457
Si Si3 0.500000 0.000000 0.000000
Si Si4 0.887641 0.801788 0.260085
Si Si5 0.840643 0.187501 0.876076
Si Si6 0.022214 0.914135 0.277935
Si Si7 0.110813 0.379451 0.792980
O O1 0.288680 0.096748 0.732306
O O2 0.351747 0.226984 0.782767
O O3 0.246977 0.167082 0.056404
O O4 0.372731 0.111398 0.000704
O O5 0.183632 0.154729 0.590751
O O6 0.314812 0.092440 0.368826
O O7 0.212471 0.000000 0.580657
O O8 0.463083 0.067691 0.163492
O O9 0.900514 0.709057 0.273219
O O10 0.963467 0.852091 0.235715
O O11 0.864464 0.805371 0.067546
O O12 0.893272 0.119219 0.771067
O O13 0.000000 0.921212 0.500000
O O14 0.019155 0.000000 0.193062
#
# Coordination Sequence:
#
# PCOD9217364 Si02
#       7
#     8   8   2   8   8   8   8
#     4   9  22  41  68  95 126 173 226 279 332 406
#     4  11  23  42  69 105 131 172 230 281 344 404
#     4  12  28  48  66 108 138 176 232 280 342 420
#     4  10  23  42  70  92 132 180 227 281 337 411
#     4   9  20  41  64  93 125 172 228 271 336 404
#     4  11  25  39  58  99 141 176 220 277 340 403
#     4  11  25  46  70  95 137 179 224 284 343 405
#
# _framework density 22.498548
#
# number of rings (size 3 to 8) (size 9 to 14) (size 15 to 20)
#    0.000    1.760    0.800    2.400   10.080    3.840 
#    0.000    1.600    0.000    0.000    0.000    0.000 
#    0.000    0.000    0.000    0.000    0.000    0.000 
#
# Total GULP energy -139217.778088 kJ/mol
# GULP energy per Si atom -5568.711124 kJ/mol
# Density = 2.244734 g / cm^3
# Si number density = 22.498548 Si / 1000 Ang^3
#
#
#
# Elastic Constant Matrix: (Units=GPa)
#
#
# Indices 1 2 3 4 5 6 
#
# 1 59.4280 27.1319 13.1008 0.0000 -1.0011 0.0000
# 2 27.1319 154.2611 38.1553 0.0000 -22.7509 0.0000
# 3 13.1008 38.1553 66.3581 0.0000 -17.9794 0.0000
# 4 0.0000 0.0000 0.0000 21.3924 0.0000 0.0480
# 5 -1.0011 -22.7509 -17.9794 0.0000 34.6415 0.0000
# 6 0.0000 0.0000 0.0000 0.0480 0.0000 -43.1302
#
#
#
# Elastic Compliance Matrix: (Units=1/GPa)
#
#
# Indices 1 2 3 4 5 6 
#
# 1 0.018774 -0.003051 -0.002732 0.000000 -0.002879 0.000000
# 2 -0.003051 0.008361 -0.003190 0.000000 0.003747 0.000000
# 3 -0.002732 -0.003190 0.019612 0.000000 0.008005 0.000000
# 4 0.000000 0.000000 0.000000 0.046745 0.000000 0.000052
# 5 -0.002879 0.003747 0.008005 0.000000 0.035400 0.000000
# 6 0.000000 0.000000 0.000000 0.000052 0.000000 -0.023186
#
#
# Mechanical properties :
#
#
# Convention : Reuss Voigt Hill
#
# Bulk Modulus (GPa) = 34.72105 48.53589 41.62847
# Shear Modulus (GPa) = 37.52281 16.02469 26.77375
#
# Velocity S-wave (km/s) = 4.08829 2.67171 3.45341
# Velocity P-wave (km/s) = 6.14423 5.58006 5.86893
#
# Compressibility (1/GPa) = 0.02880097
#
# Stress axis : x y z
#
# Youngs Moduli (GPa) = 53.26582 119.60714 50.98861
#
# Poissons Ratio (x) = 0.36490 0.13932
# Poissons Ratio (y) = 0.16250 0.16264
# Poissons Ratio (z) = 0.14554 0.38151
#
# Static dielectric constant tensor:
#      x y z
#    x 1.572810 0.000000 0.026470 
#    y 0.000000 1.966620 0.000000 
#    z 0.026470 0.000000 1.835370 
# 
# From -- ./inp_files/75191.got.cif
#   From: 2010.05.17/outbox.cif.g08.bks.cpg/sg12_38_cif.got.tgz:75191.got - 2010.06.03 13:09:07.
