data_PCOD9217552
_publ_section_title
;
Structure prediction by ZEFSAII (Michael W. Deem and Ramdas Pophale) SiO2 
 PCOD9217552
Probable space group: C 2/M
;
_chemical_formula_sum "Si O2"
_cell_formula_units_Z 44
_cell_length_a 7.689354
_cell_length_b 23.440502
_cell_length_c 12.479803
_cell_angle_alpha 90.000000
_cell_angle_beta 117.067701
_cell_angle_gamma 90.000000
_cell_volume 2003.011879
_symmetry_space_group_name_H-M "C 2/M"
_symmetry_group_IT_number 12
_symmetry_cell_setting 'monoclinic'
loop_
_space_group_symop_operation_xyz
x,y,z
-x,y,-z
-x,-y,-z
x,-y,z
1/2+x,1/2+y,z
1/2-x,1/2+y,-z
1/2-x,1/2-y,-z
1/2+x,1/2-y,z
loop_
_atom_site_type_symbol
_atom_site_label
_atom_site_fract_x
_atom_site_fract_y
_atom_site_fract_z
Si Si1 0.442161 0.065487 0.867648
Si Si2 0.140490 0.779747 0.633466
Si Si3 0.000000 0.401532 0.500000
Si Si4 0.724367 0.601001 0.602265
Si Si5 0.660847 0.332391 0.287653
Si Si6 0.147411 0.062153 0.139167
O O1 0.273277 0.085206 0.738621
O O2 0.637281 0.068512 0.850448
O O3 0.391390 0.000000 0.877918
O O4 0.500000 0.092331 0.000000
O O5 0.264557 0.830186 0.612151
O O6 0.253280 0.728932 0.722887
O O7 0.000000 0.756609 0.500000
O O8 0.007126 0.813672 0.678770
O O9 0.125251 0.429336 0.437967
O O10 0.166030 0.364865 0.603582
O O11 0.500000 0.591865 0.500000
O O12 0.594125 0.380428 0.186599
O O13 0.140111 0.000000 0.195628
O O14 0.000000 0.058197 0.000000
#
# Coordination Sequence:
#
# PCOD9217552 Si02
#       6
#     8   8   4   8   8   8
#     4  10  23  43  68  94 129 180 234 289 344 408
#     4  11  22  37  62  98 135 177 219 267 342 414
#     4  12  20  38  65  94 136 170 221 278 330 410
#     4  11  23  40  65 102 139 178 225 282 348 410
#     4  12  22  39  66  97 132 179 219 277 340 408
#     4  10  24  46  69  94 127 178 235 282 341 410
#
# _framework density 21.966916999999999
#
# number of rings (size 3 to 8) (size 9 to 14) (size 15 to 20)
#    0.000    1.091    6.364    1.636    2.545    0.364 
#    0.000    3.636    0.000    0.545    0.000    0.000 
#    0.000    0.000    0.000    0.000    0.000    0.000 
#
# Total GULP energy -122666.024381 kJ/mol
# GULP energy per Si atom -5575.728381 kJ/mol
# Density = 2.191692 g / cm^3
# Si number density = 21.966917 Si / 1000 Ang^3
#
#
#
# Elastic Constant Matrix: (Units=GPa)
#
#
# Indices 1 2 3 4 5 6 
#
# 1 100.0862 34.3726 39.1359 0.0000 -8.2071 0.0000
# 2 34.3726 108.9902 53.1849 0.0000 -6.7820 0.0000
# 3 39.1359 53.1849 144.4523 0.0000 5.3529 0.0000
# 4 0.0000 0.0000 0.0000 38.2393 0.0000 2.9507
# 5 -8.2071 -6.7820 5.3529 0.0000 29.8504 0.0000
# 6 0.0000 0.0000 0.0000 2.9507 0.0000 28.8617
#
#
#
# Elastic Compliance Matrix: (Units=1/GPa)
#
#
# Indices 1 2 3 4 5 6 
#
# 1 0.012053 -0.002376 -0.002510 0.000000 0.003224 0.000000
# 2 -0.002376 0.011986 -0.003872 0.000000 0.002764 0.000000
# 3 -0.002510 -0.003872 0.009147 0.000000 -0.003210 0.000000
# 4 0.000000 0.000000 0.000000 0.026359 0.000000 -0.002695
# 5 0.003224 0.002764 -0.003210 0.000000 0.035591 0.000000
# 6 0.000000 0.000000 0.000000 -0.002695 0.000000 0.034923
#
#
# Mechanical properties :
#
#
# Convention : Reuss Voigt Hill
#
# Bulk Modulus (GPa) = 63.81311 67.43507 65.62409
# Shear Modulus (GPa) = 32.72285 34.51263 33.61774
#
# Velocity S-wave (km/s) = 3.86378 3.96803 3.91625
# Velocity P-wave (km/s) = 7.00127 7.19436 7.09847
#
# Compressibility (1/GPa) = 0.01567076
#
# Stress axis : x y z
#
# Youngs Moduli (GPa) = 82.96516 83.43278 109.32204
#
# Poissons Ratio (x) = 0.19821 0.27444
# Poissons Ratio (y) = 0.19710 0.42327
# Poissons Ratio (z) = 0.20827 0.32303
#
# Static dielectric constant tensor:
#      x y z
#    x 1.917100 0.000000 -0.035490 
#    y 0.000000 1.844660 0.000000 
#    z -0.035490 0.000000 1.840350 
# 
# From -- ./inp_files/122666.got.cif
#   From: 2010.05.17/outbox.cif.g08.bks.cpg/sg12_62_cif.got.tgz:122666.got - 2010.06.03 13:09:07.
