data_PCOD9217392
_publ_section_title
;
Structure prediction by ZEFSAII (Michael W. Deem and Ramdas Pophale) SiO2 
 PCOD9217392
Probable space group: C 2/M
;
_chemical_formula_sum "Si O2"
_cell_formula_units_Z 58
_cell_length_a 28.999029
_cell_length_b 7.252780
_cell_length_c 22.141768
_cell_angle_alpha 90.000000
_cell_angle_beta 147.958572
_cell_angle_gamma 90.000000
_cell_volume 2470.654944
_symmetry_space_group_name_H-M "C 2/M"
_symmetry_group_IT_number 12
_symmetry_cell_setting 'monoclinic'
loop_
_space_group_symop_operation_xyz
x,y,z
-x,y,-z
-x,-y,-z
x,-y,z
1/2+x,1/2+y,z
1/2-x,1/2+y,-z
1/2-x,1/2-y,-z
1/2+x,1/2-y,z
loop_
_atom_site_type_symbol
_atom_site_label
_atom_site_fract_x
_atom_site_fract_y
_atom_site_fract_z
Si Si1 0.762093 0.775823 0.643374
Si Si2 0.192198 0.723744 0.802538
Si Si3 0.876820 0.724106 0.602826
Si Si4 0.500000 0.500000 0.500000
Si Si5 0.440678 0.291748 0.807381
Si Si6 0.374526 0.779541 0.404525
Si Si7 0.384457 0.723945 0.052298
Si Si8 0.552887 0.212310 0.743042
O O1 0.712798 0.717857 0.527397
O O2 0.861186 0.708779 0.757056
O O3 0.697925 0.730298 0.626670
O O4 0.766536 0.000000 0.646838
O O5 0.193859 0.500000 0.807159
O O6 0.163524 0.773099 0.703502
O O7 0.121581 0.791923 0.772348
O O8 0.289530 0.783869 0.926264
O O9 0.878851 0.500000 0.608448
O O10 0.899685 0.795938 0.694242
O O11 0.955992 0.784506 0.646920
O O12 0.461587 0.662019 0.503076
O O13 0.454428 0.500000 0.845022
O O14 0.536117 0.210856 0.902112
O O15 0.390037 0.000000 0.424866
O O16 0.387550 0.500000 0.055453
O O17 0.403974 0.782165 0.142476
O O18 0.540145 0.000000 0.710375
#
# Coordination Sequence:
#
# PCOD9217392 Si02
#       8
#     8   8   8   2   8   8   8   8
#     4   9  18  34  55  75 105 149 188 223 284 344
#     4   9  18  34  55  75 105 149 188 223 284 344
#     4   9  17  29  47  74 103 139 186 225 278 351
#     4  12  26  44  60  94 114 140 206 236 272 352
#     4   9  17  31  50  78 109 140 182 235 282 333
#     4  10  23  43  62  82 117 156 186 236 289 333
#     4   9  17  31  50  78 109 140 182 235 282 333
#     4   9  17  29  47  74 103 139 186 225 278 351
#
# _framework density 23.475556999999998
#
# number of rings (size 3 to 8) (size 9 to 14) (size 15 to 20)
#    0.000    2.759    0.000    1.034    1.931    0.000 
#    4.966    0.690    0.000    4.138    0.000    0.966 
#    0.000    0.000    0.000    0.000    0.000    0.276 
#
# Total GULP energy -161766.121872 kJ/mol
# GULP energy per Si atom -5578.142134 kJ/mol
# Density = 2.342213 g / cm^3
# Si number density = 23.475557 Si / 1000 Ang^3
#
#
#
# Elastic Constant Matrix: (Units=GPa)
#
#
# Indices 1 2 3 4 5 6 
#
# 1 117.8094 11.7472 21.8215 0.0000 39.0391 0.0000
# 2 11.7472 119.0377 -6.0835 0.0000 9.0381 0.0000
# 3 21.8215 -6.0835 96.2884 0.0000 27.5218 0.0000
# 4 0.0000 0.0000 0.0000 -5.0733 0.0000 -5.5555
# 5 39.0391 9.0381 27.5218 0.0000 37.0064 0.0000
# 6 0.0000 0.0000 0.0000 -5.5555 0.0000 -3.8445
#
#
#
# Elastic Compliance Matrix: (Units=1/GPa)
#
#
# Indices 1 2 3 4 5 6 
#
# 1 0.013170 -0.000114 0.001233 0.000000 -0.014783 0.000000
# 2 -0.000114 0.008722 0.001462 0.000000 -0.003097 0.000000
# 3 0.001233 0.001462 0.013553 0.000000 -0.011738 0.000000
# 4 0.000000 0.000000 0.000000 0.338445 0.000000 -0.489069
# 5 -0.014783 -0.003097 -0.011738 0.000000 0.052103 0.000000
# 6 0.000000 0.000000 0.000000 -0.489069 0.000000 0.446618
#
#
# Mechanical properties :
#
#
# Convention : Reuss Voigt Hill
#
# Bulk Modulus (GPa) = 24.62592 43.12286 33.87439
# Shear Modulus (GPa) = 5.67547 25.99440 15.83494
#
# Velocity S-wave (km/s) = 1.55655 3.33122 2.59999
# Velocity P-wave (km/s) = 3.70719 5.76239 4.84502
#
# Compressibility (1/GPa) = 0.04060763
#
# Stress axis : x y z
#
# Youngs Moduli (GPa) = 75.93139 114.65464 73.78255
#
# Poissons Ratio (x) = 0.01310 -0.09100
# Poissons Ratio (y) = 0.00867 -0.10788
# Poissons Ratio (z) = -0.09366 -0.16764
#
# Static dielectric constant tensor:
#      x y z
#    x 1.883060 0.000000 0.042030 
#    y 0.000000 1.896790 0.000000 
#    z 0.042030 0.000000 1.883280 
# 
# From -- ./inp_files/353110.got.cif
#   From: 2010.05.17/outbox.cif.g08.bks.cpg/sg12_177_cif.got.tgz:353110.got - 2010.06.03 13:09:07.
