data_PCOD9217513
_publ_section_title
;
Structure prediction by ZEFSAII (Michael W. Deem and Ramdas Pophale) SiO2 
 PCOD9217513
Probable space group: C 2/M
;
_chemical_formula_sum "Si O2"
_cell_formula_units_Z 48
_cell_length_a 23.510877
_cell_length_b 8.541023
_cell_length_c 12.412751
_cell_angle_alpha 90.000000
_cell_angle_beta 119.341815
_cell_angle_gamma 90.000000
_cell_volume 2172.799893
_symmetry_space_group_name_H-M "C 2/M"
_symmetry_group_IT_number 12
_symmetry_cell_setting 'monoclinic'
loop_
_space_group_symop_operation_xyz
x,y,z
-x,y,-z
-x,-y,-z
x,-y,z
1/2+x,1/2+y,z
1/2-x,1/2+y,-z
1/2-x,1/2-y,-z
1/2+x,1/2-y,z
loop_
_atom_site_type_symbol
_atom_site_label
_atom_site_fract_x
_atom_site_fract_y
_atom_site_fract_z
Si Si1 0.381020 0.252938 0.033011
Si Si2 0.851206 0.827177 0.765958
Si Si3 0.629726 0.500000 0.555440
Si Si4 0.370030 0.500000 0.187487
Si Si5 0.718122 0.000000 0.310012
Si Si6 0.281313 0.000000 0.950203
Si Si7 0.522539 0.169013 0.179576
Si Si8 0.447159 0.823343 0.546152
O O1 0.400323 0.358066 0.151353
O O2 0.450114 0.178580 0.064962
O O3 0.351408 0.325233 0.896742
O O4 0.324125 0.145051 0.026253
O O5 0.814273 0.669183 0.689788
O O6 0.926918 0.802464 0.805700
O O7 0.828152 0.000000 0.708183
O O8 0.624082 0.500000 0.680456
O O9 0.705385 0.500000 0.591528
O O10 0.597336 0.666525 0.492547
O O11 0.293130 0.500000 0.086877
O O12 0.714865 0.000000 0.176333
O O13 0.519700 0.169118 0.306321
O O14 0.551404 0.000000 0.173773
O O15 0.500000 0.804737 0.500000
O O16 0.416279 0.000000 0.502011
#
# Coordination Sequence:
#
# PCOD9217513 Si02
#       8
#     8   8   4   4   4   4   8   8
#     4  11  21  37  59  93 125 166 205 244 309 376
#     4  11  23  40  63  91 132 164 203 257 309 372
#     4  11  23  44  67  90 123 170 212 265 314 365
#     4  11  22  37  57  92 127 157 214 249 297 375
#     4   9  22  42  64  89 123 169 215 251 311 369
#     4   9  20  37  59  83 125 170 197 249 303 365
#     4  11  23  39  65  93 123 164 208 255 316 375
#     4  10  23  43  67  95 127 157 208 269 319 363
#
# _framework density 22.09131
#
# number of rings (size 3 to 8) (size 9 to 14) (size 15 to 20)
#    0.000    1.500    2.500    2.250    2.333    2.000 
#    1.500    0.833    0.000    0.000    0.000    0.000 
#    0.000    0.000    0.000    0.000    0.000    0.000 
#
# Total GULP energy -133788.126024 kJ/mol
# GULP energy per Si atom -5574.505251 kJ/mol
# Density = 2.204103 g / cm^3
# Si number density = 22.091310 Si / 1000 Ang^3
#
#
#
# Elastic Constant Matrix: (Units=GPa)
#
#
# Indices 1 2 3 4 5 6 
#
# 1 61.1874 51.3460 0.8955 0.0000 14.6860 0.0000
# 2 51.3460 188.1419 28.2389 0.0000 30.9133 0.0000
# 3 0.8955 28.2389 60.1519 0.0000 -0.6508 0.0000
# 4 0.0000 0.0000 0.0000 35.9468 0.0000 10.6386
# 5 14.6860 30.9133 -0.6508 0.0000 33.0570 0.0000
# 6 0.0000 0.0000 0.0000 10.6386 0.0000 38.7511
#
#
#
# Elastic Compliance Matrix: (Units=1/GPa)
#
#
# Indices 1 2 3 4 5 6 
#
# 1 0.022123 -0.005637 0.002268 0.000000 -0.004513 0.000000
# 2 -0.005637 0.008314 -0.003877 0.000000 -0.005347 0.000000
# 3 0.002268 -0.003877 0.018443 0.000000 0.002981 0.000000
# 4 0.000000 0.000000 0.000000 0.030279 0.000000 -0.008313
# 5 -0.004513 -0.005347 0.002981 0.000000 0.037315 0.000000
# 6 0.000000 0.000000 0.000000 -0.008313 0.000000 0.028088
#
#
# Mechanical properties :
#
#
# Convention : Reuss Voigt Hill
#
# Bulk Modulus (GPa) = 29.07904 52.27132 40.67518
# Shear Modulus (GPa) = 29.32280 36.81770 33.07025
#
# Velocity S-wave (km/s) = 3.64723 4.08685 3.87328
# Velocity P-wave (km/s) = 5.56130 6.78105 6.20124
#
# Compressibility (1/GPa) = 0.03438903
#
# Stress axis : x y z
#
# Youngs Moduli (GPa) = 45.20150 120.28093 54.22070
#
# Poissons Ratio (x) = 0.67797 -0.12297
# Poissons Ratio (y) = 0.25478 0.21021
# Poissons Ratio (z) = -0.10251 0.46632
#
# Static dielectric constant tensor:
#      x y z
#    x 1.766780 0.000000 0.000060 
#    y 0.000000 1.774050 0.000000 
#    z 0.000060 0.000000 1.770180 
# 
# From -- ./inp_files/173143.got.cif
#   From: 2010.05.17/outbox.cif.g08.bks.cpg/sg12_87_cif.got.tgz:173143.got - 2010.06.03 13:09:07.
