data_PCOD9217764
_publ_section_title
;
Structure prediction by ZEFSAII (Michael W. Deem and Ramdas Pophale) SiO2 
 PCOD9217764
Probable space group: C 2/M
;
_chemical_formula_sum "Si O2"
_cell_formula_units_Z 56
_cell_length_a 7.921858
_cell_length_b 27.113599
_cell_length_c 11.689036
_cell_angle_alpha 90.000000
_cell_angle_beta 67.403918
_cell_angle_gamma 90.000000
_cell_volume 2317.959701
_symmetry_space_group_name_H-M "C 2/M"
_symmetry_group_IT_number 12
_symmetry_cell_setting 'monoclinic'
loop_
_space_group_symop_operation_xyz
x,y,z
-x,y,-z
-x,-y,-z
x,-y,z
1/2+x,1/2+y,z
1/2-x,1/2+y,-z
1/2-x,1/2-y,-z
1/2+x,1/2-y,z
loop_
_atom_site_type_symbol
_atom_site_label
_atom_site_fract_x
_atom_site_fract_y
_atom_site_fract_z
Si Si1 0.946951 0.805369 0.349617
Si Si2 0.816288 0.356666 0.975586
Si Si3 0.712717 0.553641 0.405552
Si Si4 0.843695 0.709259 0.772704
Si Si5 0.181244 0.055028 0.870825
Si Si6 0.576405 0.402073 0.234204
Si Si7 0.641022 0.841562 0.568174
O O1 0.814140 0.806438 0.273424
O O2 0.810241 0.805264 0.493597
O O3 0.091872 0.763320 0.282655
O O4 0.035563 0.858926 0.333855
O O5 0.781532 0.306201 0.915427
O O6 0.809104 0.402037 0.886801
O O7 0.663729 0.372731 0.106058
O O8 0.000000 0.353329 0.000000
O O9 0.500000 0.553159 0.500000
O O10 0.791562 0.500000 0.414432
O O11 0.705830 0.561084 0.269387
O O12 0.808381 0.601322 0.433823
O O13 0.029093 0.677645 0.705617
O O14 0.101287 0.070479 0.768364
O O15 0.260352 0.000000 0.849765
O O16 0.000000 0.053189 0.000000
O O17 0.500000 0.835750 0.500000
#
# Coordination Sequence:
#
# PCOD9217764 Si02
#       7
#     8   8   8   8   8   8   8
#     4  11  24  42  68  95 127 176 216 272 332 387
#     4  11  24  41  63  95 137 168 213 272 326 390
#     4  11  23  40  70 103 132 172 223 271 328 393
#     4  11  25  43  65  98 128 173 224 268 332 394
#     4   9  19  39  66  90 123 172 219 264 322 393
#     4  11  22  43  65  93 135 172 215 270 328 392
#     4  10  23  45  67  95 139 170 216 273 329 391
#
# _framework density 24.159179000000002
#
# number of rings (size 3 to 8) (size 9 to 14) (size 15 to 20)
#    0.000    1.429    2.857    1.714    4.000    1.714 
#    0.000    2.143    0.000    0.000    0.000    0.000 
#    0.000    0.000    0.000    0.000    0.000    0.000 
#
# Total GULP energy -156544.065400 kJ/mol
# GULP energy per Si atom -5590.859479 kJ/mol
# Density = 2.410419 g / cm^3
# Si number density = 24.159179 Si / 1000 Ang^3
#
#
#
# Elastic Constant Matrix: (Units=GPa)
#
#
# Indices 1 2 3 4 5 6 
#
# 1 51.5643 6.7469 -2.9376 0.0000 11.7737 0.0000
# 2 6.7469 136.5544 13.0193 0.0000 0.7201 0.0000
# 3 -2.9376 13.0193 73.4989 0.0000 4.3136 0.0000
# 4 0.0000 0.0000 0.0000 22.0089 0.0000 3.3563
# 5 11.7737 0.7201 4.3136 0.0000 20.8960 0.0000
# 6 0.0000 0.0000 0.0000 3.3563 0.0000 31.2741
#
#
#
# Elastic Compliance Matrix: (Units=1/GPa)
#
#
# Indices 1 2 3 4 5 6 
#
# 1 0.022656 -0.001231 0.001893 0.000000 -0.013114 0.000000
# 2 -0.001231 0.007516 -0.001423 0.000000 0.000728 0.000000
# 3 0.001893 -0.001423 0.014165 0.000000 -0.003942 0.000000
# 4 0.000000 0.000000 0.000000 0.046192 0.000000 -0.004957
# 5 -0.013114 0.000728 -0.003942 0.000000 0.056034 0.000000
# 6 0.000000 0.000000 0.000000 -0.004957 0.000000 0.032507
#
#
# Mechanical properties :
#
#
# Convention : Reuss Voigt Hill
#
# Bulk Modulus (GPa) = 23.35608 32.80831 28.08219
# Shear Modulus (GPa) = 25.65896 31.15507 28.40701
#
# Velocity S-wave (km/s) = 3.26249 3.59496 3.43275
# Velocity P-wave (km/s) = 4.88675 5.55349 5.23075
#
# Compressibility (1/GPa) = 0.04281540
#
# Stress axis : x y z
#
# Youngs Moduli (GPa) = 44.13746 133.05395 70.59779
#
# Poissons Ratio (x) = 0.16376 -0.13366
# Poissons Ratio (y) = 0.05432 0.10048
# Poissons Ratio (z) = -0.08356 0.18937
#
# Static dielectric constant tensor:
#      x y z
#    x 1.944550 0.000000 -0.033190 
#    y 0.000000 1.907830 0.000000 
#    z -0.033190 0.000000 1.988570 
# 
# From -- ./inp_files/124259.got.cif
#   From: 2010.05.17/outbox.cif.g08.bks.cpg/sg12_63_cif.got.tgz:124259.got - 2010.06.03 13:09:07.
