data_PCOD9217543
_publ_section_title
;
Structure prediction by ZEFSAII (Michael W. Deem and Ramdas Pophale) SiO2 
 PCOD9217543
Probable space group: C 2/M
;
_chemical_formula_sum "Si O2"
_cell_formula_units_Z 58
_cell_length_a 30.553342
_cell_length_b 13.399072
_cell_length_c 5.709676
_cell_angle_alpha 90.000000
_cell_angle_beta 83.563859
_cell_angle_gamma 90.000000
_cell_volume 2322.731792
_symmetry_space_group_name_H-M "C 2/M"
_symmetry_group_IT_number 12
_symmetry_cell_setting 'monoclinic'
loop_
_space_group_symop_operation_xyz
x,y,z
-x,y,-z
-x,-y,-z
x,-y,z
1/2+x,1/2+y,z
1/2-x,1/2+y,-z
1/2-x,1/2-y,-z
1/2+x,1/2-y,z
loop_
_atom_site_type_symbol
_atom_site_label
_atom_site_fract_x
_atom_site_fract_y
_atom_site_fract_z
Si Si1 0.948147 0.807811 0.024481
Si Si2 0.909353 0.391432 0.818394
Si Si3 0.137728 0.112079 0.051374
Si Si4 0.805208 0.615901 0.898665
Si Si5 0.500000 0.000000 0.000000
Si Si6 0.726949 0.116269 0.583783
Si Si7 0.331809 0.382648 0.468000
Si Si8 0.041930 0.667588 0.623913
O O1 0.933140 0.705979 0.901797
O O2 0.914906 0.888189 0.947525
O O3 0.938312 0.770354 0.291601
O O4 0.000000 0.828504 0.000000
O O5 0.928922 0.500000 0.888158
O O6 0.857951 0.387269 0.898789
O O7 0.919786 0.386921 0.539174
O O8 0.154860 0.158852 0.796477
O O9 0.156632 0.000000 0.048052
O O10 0.149506 0.158770 0.296016
O O11 0.789114 0.500000 0.896540
O O12 0.793409 0.657920 0.647228
O O13 0.784858 0.659037 0.151546
O O14 0.519594 0.911419 0.809625
O O15 0.779207 0.118650 0.519405
O O16 0.711828 0.000000 0.604593
O O17 0.346629 0.500000 0.451635
O O18 0.000000 0.699490 0.500000
#
# Coordination Sequence:
#
# PCOD9217543 Si02
#       8
#     8   8   8   8   2   8   8   8
#     4  12  27  42  66  92 126 172 221 272 334 391
#     4  11  25  41  62  91 133 178 218 266 319 378
#     4  10  23  43  68 100 130 165 217 274 337 398
#     4   9  19  33  54  90 131 170 208 257 312 381
#     4  12  22  40  64  94 122 164 234 288 316 386
#     4   9  16  32  59  94 127 162 213 258 315 387
#     4   9  18  37  69  99 126 164 213 274 328 392
#     4  12  24  40  61  89 122 170 226 278 322 378
#
# _framework density 24.970594999999999
#
# number of rings (size 3 to 8) (size 9 to 14) (size 15 to 20)
#    0.000    1.655    2.759    1.034    6.759    3.862 
#    0.000    0.000    0.000    7.862    0.000    0.000 
#    0.000    0.000    0.000    0.000    0.000    0.000 
#
# Total GULP energy -161695.922624 kJ/mol
# GULP energy per Si atom -5575.721470 kJ/mol
# Density = 2.491376 g / cm^3
# Si number density = 24.970595 Si / 1000 Ang^3
#
#
#
# Elastic Constant Matrix: (Units=GPa)
#
#
# Indices 1 2 3 4 5 6 
#
# 1 86.9149 10.5129 41.6644 0.0000 -5.7329 0.0000
# 2 10.5129 40.7579 30.3678 0.0000 20.2863 0.0000
# 3 41.6644 30.3678 161.9285 0.0000 0.9898 0.0000
# 4 0.0000 0.0000 0.0000 9.0175 0.0000 10.0168
# 5 -5.7329 20.2863 0.9898 0.0000 36.6180 0.0000
# 6 0.0000 0.0000 0.0000 10.0168 0.0000 25.2539
#
#
#
# Elastic Compliance Matrix: (Units=1/GPa)
#
#
# Indices 1 2 3 4 5 6 
#
# 1 0.013564 -0.003380 -0.002881 0.000000 0.004074 0.000000
# 2 -0.003380 0.042462 -0.006948 0.000000 -0.023865 0.000000
# 3 -0.002881 -0.006948 0.008200 0.000000 0.003176 0.000000
# 4 0.000000 0.000000 0.000000 0.198239 0.000000 -0.078630
# 5 0.004074 -0.023865 0.003176 0.000000 0.041082 0.000000
# 6 0.000000 0.000000 0.000000 -0.078630 0.000000 0.070786
#
#
# Mechanical properties :
#
#
# Convention : Reuss Voigt Hill
#
# Bulk Modulus (GPa) = 26.44857 50.52128 38.48492
# Shear Modulus (GPa) = 12.09619 27.98163 20.03891
#
# Velocity S-wave (km/s) = 2.20334 3.35114 2.83592
# Velocity P-wave (km/s) = 4.13374 5.93715 5.11554
#
# Compressibility (1/GPa) = 0.03780923
#
# Stress axis : x y z
#
# Youngs Moduli (GPa) = 73.72386 23.55067 121.94466
#
# Poissons Ratio (x) = 0.07959 0.35134
# Poissons Ratio (y) = 0.24916 0.84724
# Poissons Ratio (z) = 0.21241 0.16362
#
# Static dielectric constant tensor:
#      x y z
#    x 1.928720 0.000000 0.061180 
#    y 0.000000 2.012540 0.000000 
#    z 0.061180 0.000000 2.193370 
# 
# From -- ./inp_files/28798.got.cif
#   From: 2010.05.17/outbox.cif.g08.bks.cpg/sg12_15_cif.got.tgz:28798.got - 2010.06.03 13:09:07.
