data_PCOD9217407
_publ_section_title
;
Structure prediction by ZEFSAII (Michael W. Deem and Ramdas Pophale) SiO2 
 PCOD9217407
Probable space group: C 2/M
;
_chemical_formula_sum "Si O2"
_cell_formula_units_Z 34
_cell_length_a 6.770721
_cell_length_b 13.320340
_cell_length_c 18.928816
_cell_angle_alpha 90.000000
_cell_angle_beta 42.135784
_cell_angle_gamma 90.000000
_cell_volume 1145.314936
_symmetry_space_group_name_H-M "C 2/M"
_symmetry_group_IT_number 12
_symmetry_cell_setting 'monoclinic'
loop_
_space_group_symop_operation_xyz
x,y,z
-x,y,-z
-x,-y,-z
x,-y,z
1/2+x,1/2+y,z
1/2-x,1/2+y,-z
1/2-x,1/2-y,-z
1/2+x,1/2-y,z
loop_
_atom_site_type_symbol
_atom_site_label
_atom_site_fract_x
_atom_site_fract_y
_atom_site_fract_z
Si Si1 0.848985 0.119225 0.610453
Si Si2 0.583722 0.172230 0.901534
Si Si3 0.745191 0.887826 0.152651
Si Si4 0.893924 0.884712 0.314499
Si Si5 0.000000 0.500000 0.500000
O O1 0.500564 0.121183 0.719521
O O2 0.000000 0.159138 0.500000
O O3 0.985457 0.165600 0.645559
O O4 0.941128 0.000000 0.590131
O O5 0.432168 0.119914 0.874835
O O6 0.540835 0.292678 0.909241
O O7 0.937789 0.164961 0.793665
O O8 0.500000 0.131485 0.000000
O O9 0.872804 0.000000 0.124559
O O10 0.011091 0.000000 0.280023
O O11 0.561773 0.912281 0.422712
#
# Coordination Sequence:
#
# PCOD9217407 Si02
#       5
#     8   8   8   8   2
#     4   8  14  31  55  79 115 159 197 246 314 364
#     4  11  22  42  66  94 129 171 223 267 323 390
#     4  10  23  43  63  93 133 171 215 274 325 380
#     4   8  17  34  57  88 127 161 203 265 311 375
#     4   8  16  36  52  92 138 150 214 268 304 392
#
# _framework density 29.686159
#
# number of rings (size 3 to 8) (size 9 to 14) (size 15 to 20)
#    0.706    2.118    0.000    2.824    0.000    2.353 
#    6.353    4.706    0.000    0.000    0.000    0.000 
#    0.000    1.412    0.000    0.000    0.000    0.000 
#
# Total GULP energy -94790.546138 kJ/mol
# GULP energy per Si atom -5575.914479 kJ/mol
# Density = 2.961859 g / cm^3
# Si number density = 29.686159 Si / 1000 Ang^3
#
#
#
# Elastic Constant Matrix: (Units=GPa)
#
#
# Indices 1 2 3 4 5 6 
#
# 1 71.3119 7.6467 32.8544 -0.0006 -4.8274 0.0098
# 2 7.6467 149.4967 34.6107 -0.0041 -0.7755 0.0076
# 3 32.8544 34.6107 288.1722 -0.0069 32.2124 0.0057
# 4 -0.0006 -0.0041 -0.0069 47.7774 0.0021 -16.0357
# 5 -4.8274 -0.7755 32.2124 0.0021 46.7844 -0.0029
# 6 0.0098 0.0076 0.0057 -16.0357 -0.0029 41.4875
#
#
#
# Elastic Compliance Matrix: (Units=1/GPa)
#
#
# Indices 1 2 3 4 5 6 
#
# 1 0.015188 -0.000292 -0.002027 -0.000001 0.002958 -0.000004
# 2 -0.000292 0.006910 -0.000873 0.000000 0.000686 -0.000001
# 3 -0.002027 -0.000873 0.004151 0.000001 -0.003081 0.000000
# 4 -0.000001 0.000000 0.000001 0.024050 -0.000001 0.009296
# 5 0.002958 0.000686 -0.003081 -0.000001 0.023813 0.000001
# 6 -0.000004 -0.000001 0.000000 0.009296 0.000001 0.027697
#
#
# Mechanical properties :
#
#
# Convention : Reuss Voigt Hill
#
# Bulk Modulus (GPa) = 50.34344 73.24493 61.79418
# Shear Modulus (GPa) = 43.54820 56.13446 49.84133
#
# Velocity S-wave (km/s) = 3.83424 4.35320 4.10193
# Velocity P-wave (km/s) = 6.04956 7.07063 6.57993
#
# Compressibility (1/GPa) = 0.01986356
#
# Stress axis : x y z
#
# Youngs Moduli (GPa) = 65.83948 144.72243 240.92939
#
# Poissons Ratio (x) = 0.04229 0.48841
# Poissons Ratio (y) = 0.01924 0.21038
# Poissons Ratio (z) = 0.13347 0.12637
#
# Static dielectric constant tensor:
#      x y z
#    x 0.719780 -0.000040 -0.100150 
#    y -0.000040 2.225750 0.000000 
#    z -0.100150 0.000000 2.311280 
# 
# From -- ./inp_files/255173.got.cif
#   From: 2010.05.17/outbox.cif.g08.bks.cpg/sg12_128_cif.got.tgz:255173.got - 2010.06.03 13:09:07.
