data_PCOD9217847
_publ_section_title
;
Structure prediction by ZEFSAII (Michael W. Deem and Ramdas Pophale) SiO2 
 PCOD9217847
Probable space group: C 2/M
;
_chemical_formula_sum "Si O2"
_cell_formula_units_Z 44
_cell_length_a 10.181481
_cell_length_b 20.403289
_cell_length_c 8.529308
_cell_angle_alpha 90.000000
_cell_angle_beta 74.944138
_cell_angle_gamma 90.000000
_cell_volume 1711.019794
_symmetry_space_group_name_H-M "C 2/M"
_symmetry_group_IT_number 12
_symmetry_cell_setting 'monoclinic'
loop_
_space_group_symop_operation_xyz
x,y,z
-x,y,-z
-x,-y,-z
x,-y,z
1/2+x,1/2+y,z
1/2-x,1/2+y,-z
1/2-x,1/2-y,-z
1/2+x,1/2-y,z
loop_
_atom_site_type_symbol
_atom_site_label
_atom_site_fract_x
_atom_site_fract_y
_atom_site_fract_z
Si Si1 0.853408 0.110124 0.499819
Si Si2 0.391891 0.858458 0.200395
Si Si3 0.808403 0.851654 0.992057
Si Si4 0.755572 0.500000 0.975686
Si Si5 0.694885 0.000000 0.392994
Si Si6 0.466227 0.000000 0.220932
Si Si7 0.430868 0.287000 0.248177
O O1 0.746417 0.116979 0.671098
O O2 0.880774 0.181390 0.423089
O O3 0.000000 0.081756 0.500000
O O4 0.786205 0.063864 0.390154
O O5 0.336668 0.841074 0.044896
O O6 0.441032 0.790461 0.256220
O O7 0.488302 0.919896 0.191615
O O8 0.928774 0.821478 0.848096
O O9 0.823543 0.931084 0.002448
O O10 0.825606 0.812153 0.147611
O O11 0.847595 0.500000 0.781033
O O12 0.853733 0.500000 0.097704
O O13 0.598515 0.000000 0.577787
#
# Coordination Sequence:
#
# PCOD9217847 Si02
#       7
#     8   8   8   4   4   4   8
#     4  12  24  48  72 109 144 191 241 299 361 426
#     4  12  26  45  75 107 146 188 247 298 353 435
#     4  11  24  45  73 105 146 191 240 291 362 421
#     4  10  23  46  72  99 144 184 243 290 356 425
#     4  10  24  47  73 104 143 184 244 294 358 428
#     4  10  26  50  71 106 140 192 242 298 364 421
#     4  11  25  45  69 108 148 193 235 295 365 425
#
# _framework density 25.715657
#
# number of rings (size 3 to 8) (size 9 to 14) (size 15 to 20)
#    0.545    0.364    3.636    2.455    0.000   10.909 
#    3.273    0.000    0.000    0.000    0.000    0.000 
#    0.000    0.000    0.000    0.000    0.000    0.000 
#
# Total GULP energy -122984.578007 kJ/mol
# GULP energy per Si atom -5590.208091 kJ/mol
# Density = 2.565713 g / cm^3
# Si number density = 25.715657 Si / 1000 Ang^3
#
#
#
# Elastic Constant Matrix: (Units=GPa)
#
#
# Indices 1 2 3 4 5 6 
#
# 1 112.6690 64.9162 50.6304 0.0000 11.2467 0.0000
# 2 64.9162 236.4377 31.8983 0.0000 12.3624 0.0000
# 3 50.6304 31.8983 109.6073 0.0000 3.5796 0.0000
# 4 0.0000 0.0000 0.0000 31.1911 0.0000 3.9321
# 5 11.2467 12.3624 3.5796 0.0000 51.9961 0.0000
# 6 0.0000 0.0000 0.0000 3.9321 0.0000 21.6400
#
#
#
# Elastic Compliance Matrix: (Units=1/GPa)
#
#
# Indices 1 2 3 4 5 6 
#
# 1 0.012951 -0.002772 -0.005117 0.000000 -0.001790 0.000000
# 2 -0.002772 0.005044 -0.000168 0.000000 -0.000588 0.000000
# 3 -0.005117 -0.000168 0.011525 0.000000 0.000353 0.000000
# 4 0.000000 0.000000 0.000000 0.032812 0.000000 -0.005962
# 5 -0.001790 -0.000588 0.000353 0.000000 0.019735 0.000000
# 6 0.000000 0.000000 0.000000 -0.005962 0.000000 0.047294
#
#
# Mechanical properties :
#
#
# Convention : Reuss Voigt Hill
#
# Bulk Modulus (GPa) = 74.60033 83.73375 79.16704
# Shear Modulus (GPa) = 33.34594 41.71671 37.53133
#
# Velocity S-wave (km/s) = 3.60490 4.03206 3.82445
# Velocity P-wave (km/s) = 6.81174 7.36945 7.09607
#
# Compressibility (1/GPa) = 0.01340477
#
# Stress axis : x y z
#
# Youngs Moduli (GPa) = 77.21544 198.25828 86.77033
#
# Poissons Ratio (x) = 0.54953 0.44402
# Poissons Ratio (y) = 0.21403 0.01461
# Poissons Ratio (z) = 0.39513 0.03337
#
# Static dielectric constant tensor:
#      x y z
#    x 2.143150 0.000000 -0.020370 
#    y 0.000000 1.926400 0.000000 
#    z -0.020370 0.000000 2.082160 
# 
# From -- ./inp_files/61116.got.cif
#   From: 2010.05.17/outbox.cif.g08.bks.cpg/sg12_31_cif.got.tgz:61116.got - 2010.06.03 13:09:07.
