data_PCOD9217334
_publ_section_title
;
Structure prediction by ZEFSAII (Michael W. Deem and Ramdas Pophale) SiO2 
 PCOD9217334
Probable space group: C 2/M
;
_chemical_formula_sum "Si O2"
_cell_formula_units_Z 58
_cell_length_a 19.385082
_cell_length_b 18.306981
_cell_length_c 9.804220
_cell_angle_alpha 90.000000
_cell_angle_beta 127.232140
_cell_angle_gamma 90.000000
_cell_volume 2770.221470
_symmetry_space_group_name_H-M "C 2/M"
_symmetry_group_IT_number 12
_symmetry_cell_setting 'monoclinic'
loop_
_space_group_symop_operation_xyz
x,y,z
-x,y,-z
-x,-y,-z
x,-y,z
1/2+x,1/2+y,z
1/2-x,1/2+y,-z
1/2-x,1/2-y,-z
1/2+x,1/2-y,z
loop_
_atom_site_type_symbol
_atom_site_label
_atom_site_fract_x
_atom_site_fract_y
_atom_site_fract_z
Si Si1 0.582338 0.913662 0.679301
Si Si2 0.180440 0.186592 0.396845
Si Si3 0.887984 0.887090 0.190714
Si Si4 0.575589 0.118146 0.990964
Si Si5 0.500000 0.500000 0.500000
Si Si6 0.229911 0.083915 0.205989
Si Si7 0.988658 0.220395 0.130664
Si Si8 0.728658 0.586564 0.703415
O O1 0.500000 0.881178 0.500000
O O2 0.571443 0.905694 0.828555
O O3 0.676419 0.889227 0.738213
O O4 0.583486 0.000000 0.652391
O O5 0.250000 0.250000 0.500000
O O6 0.196534 0.141947 0.276528
O O7 0.191847 0.125820 0.527168
O O8 0.087624 0.225801 0.295634
O O9 0.935017 0.817671 0.184169
O O10 0.815641 0.875913 0.219540
O O11 0.959440 0.937281 0.348264
O O12 0.835908 0.919271 0.999578
O O13 0.560297 0.205188 0.965785
O O14 0.500000 0.089317 0.000000
O O15 0.668422 0.096365 0.161961
O O16 0.237796 0.000000 0.269885
O O17 0.000000 0.177516 0.000000
O O18 0.705735 0.500000 0.679485
#
# Coordination Sequence:
#
# PCOD9217334 Si02
#       8
#     8   8   8   8   2   8   8   8
#     4  10  23  42  68 100 138 183 235 294 355 430
#     4  12  27  47  71 103 146 193 244 302 361 443
#     4  12  24  46  74 103 143 186 235 302 362 435
#     4  11  25  45  70 100 143 187 238 299 361 438
#     4  12  24  44  74 108 140 176 240 296 364 428
#     4  11  23  46  73 105 143 188 240 296 368 435
#     4  11  25  46  67 104 142 188 243 292 362 436
#     4  12  26  47  73 107 145 189 244 304 376 435
#
# _framework density 20.936954
#
# number of rings (size 3 to 8) (size 9 to 14) (size 15 to 20)
#    0.000    0.690    4.138    3.310    3.862    2.759 
#    2.483    1.034    0.000    0.000    0.000    0.000 
#    0.000    0.000    0.000    0.000    0.000    0.000 
#
# Total GULP energy -161720.345974 kJ/mol
# GULP energy per Si atom -5576.563654 kJ/mol
# Density = 2.088930 g / cm^3
# Si number density = 20.936954 Si / 1000 Ang^3
#
#
#
# Elastic Constant Matrix: (Units=GPa)
#
#
# Indices 1 2 3 4 5 6 
#
# 1 101.7076 35.8484 9.6689 0.0000 -12.7129 0.0000
# 2 35.8484 58.5998 21.8251 0.0000 -2.9458 0.0000
# 3 9.6689 21.8251 99.1148 0.0000 -7.9353 0.0000
# 4 0.0000 0.0000 0.0000 37.0168 0.0000 -6.6408
# 5 -12.7129 -2.9458 -7.9353 0.0000 27.7898 0.0000
# 6 0.0000 0.0000 0.0000 -6.6408 0.0000 35.3648
#
#
#
# Elastic Compliance Matrix: (Units=1/GPa)
#
#
# Indices 1 2 3 4 5 6 
#
# 1 0.013331 -0.008234 0.000953 0.000000 0.005498 0.000000
# 2 -0.008234 0.023693 -0.004620 0.000000 -0.002574 0.000000
# 3 0.000953 -0.004620 0.011267 0.000000 0.003163 0.000000
# 4 0.000000 0.000000 0.000000 0.027957 0.000000 0.005250
# 5 0.005498 -0.002574 0.003163 0.000000 0.039130 0.000000
# 6 0.000000 0.000000 0.000000 0.005250 0.000000 0.029263
#
#
# Mechanical properties :
#
#
# Convention : Reuss Voigt Hill
#
# Bulk Modulus (GPa) = 40.83477 43.78968 42.31223
# Shear Modulus (GPa) = 28.31186 32.83960 30.57573
#
# Velocity S-wave (km/s) = 3.68128 3.96473 3.82563
# Velocity P-wave (km/s) = 6.13311 6.47450 6.30612
#
# Compressibility (1/GPa) = 0.02448893
#
# Stress axis : x y z
#
# Youngs Moduli (GPa) = 75.01455 42.20639 88.75496
#
# Poissons Ratio (x) = 0.34751 -0.08456
# Poissons Ratio (y) = 0.61764 0.41006
# Poissons Ratio (z) = -0.07147 0.19500
#
# Static dielectric constant tensor:
#      x y z
#    x 1.762550 0.000000 0.074060 
#    y 0.000000 1.750890 0.000000 
#    z 0.074060 0.000000 1.472470 
# 
# From -- ./inp_files/78049.got.cif
#   From: 2010.05.17/outbox.cif.g08.bks.cpg/sg12_40_cif.got.tgz:78049.got - 2010.06.03 13:09:07.
