data_PCOD9217787
_publ_section_title
;
Structure prediction by ZEFSAII (Michael W. Deem and Ramdas Pophale) SiO2 
 PCOD9217787
Probable space group: C 2/M
;
_chemical_formula_sum "Si O2"
_cell_formula_units_Z 48
_cell_length_a 15.894501
_cell_length_b 27.154864
_cell_length_c 9.277754
_cell_angle_alpha 90.000000
_cell_angle_beta 33.685278
_cell_angle_gamma 90.000000
_cell_volume 2220.962581
_symmetry_space_group_name_H-M "C 2/M"
_symmetry_group_IT_number 12
_symmetry_cell_setting 'monoclinic'
loop_
_space_group_symop_operation_xyz
x,y,z
-x,y,-z
-x,-y,-z
x,-y,z
1/2+x,1/2+y,z
1/2-x,1/2+y,-z
1/2-x,1/2-y,-z
1/2+x,1/2-y,z
loop_
_atom_site_type_symbol
_atom_site_label
_atom_site_fract_x
_atom_site_fract_y
_atom_site_fract_z
Si Si1 0.652818 0.703880 0.586925
Si Si2 0.077479 0.262796 0.242316
Si Si3 0.166417 0.879852 0.334545
Si Si4 0.638218 0.125951 0.216170
Si Si5 0.169579 0.114534 0.779079
Si Si6 0.160580 0.441443 0.697085
O O1 0.750000 0.750000 0.500000
O O2 0.495396 0.730863 0.778885
O O3 0.695854 0.671175 0.382896
O O4 0.657443 0.664851 0.707182
O O5 0.067441 0.321815 0.262029
O O6 0.000000 0.245996 0.500000
O O7 0.250000 0.250000 0.000000
O O8 0.200277 0.922024 0.402925
O O9 0.000000 0.878105 0.500000
O O10 0.283986 0.892263 0.039636
O O11 0.500000 0.100948 0.500000
O O12 0.774412 0.127229 0.139952
O O13 0.298904 0.082550 0.514462
O O14 0.000000 0.091922 0.000000
O O15 0.157349 0.500000 0.691522
O O16 0.000000 0.425361 0.000000
#
# Coordination Sequence:
#
# PCOD9217787 Si02
#       6
#     8   8   8   8   8   8
#     4  11  23  39  60  90 127 172 220 260 302 358
#     4  11  21  35  53  78 115 159 205 251 294 345
#     4  11  23  42  65  90 125 167 210 258 312 374
#     4  11  22  37  57  86 121 160 203 250 306 362
#     4  11  23  40  62  91 127 164 206 259 315 373
#     4  10  23  45  70  95 122 157 205 260 322 393
#
# _framework density 21.612252000000002
#
# number of rings (size 3 to 8) (size 9 to 14) (size 15 to 20)
#    0.000    1.167    0.000    8.500    0.000    3.333 
#    0.000    3.333    0.000    3.000    0.000    0.000 
#    0.000    0.000    0.000    0.000    0.000    0.000 
#
# Total GULP energy -133883.937637 kJ/mol
# GULP energy per Si atom -5578.497402 kJ/mol
# Density = 2.156306 g / cm^3
# Si number density = 21.612252 Si / 1000 Ang^3
#
#
#
# Elastic Constant Matrix: (Units=GPa)
#
#
# Indices 1 2 3 4 5 6 
#
# 1 120.9921 25.6838 16.3995 0.0000 1.3741 0.0000
# 2 25.6838 69.1151 17.6020 0.0000 0.2882 0.0000
# 3 16.3995 17.6020 108.4001 0.0000 -2.3334 0.0000
# 4 0.0000 0.0000 0.0000 10.4624 0.0000 -10.2774
# 5 1.3741 0.2882 -2.3334 0.0000 41.2080 0.0000
# 6 0.0000 0.0000 0.0000 -10.2774 0.0000 11.6181
#
#
#
# Elastic Compliance Matrix: (Units=1/GPa)
#
#
# Indices 1 2 3 4 5 6 
#
# 1 0.009053 -0.003142 -0.000866 0.000000 -0.000329 0.000000
# 2 -0.003142 0.016186 -0.002156 0.000000 -0.000131 0.000000
# 3 -0.000866 -0.002156 0.009719 0.000000 0.000594 0.000000
# 4 0.000000 0.000000 0.000000 0.729434 0.000000 0.645261
# 5 -0.000329 -0.000131 0.000594 0.000000 0.024313 0.000000
# 6 0.000000 0.000000 0.000000 0.645261 0.000000 0.656874
#
#
# Mechanical properties :
#
#
# Convention : Reuss Voigt Hill
#
# Bulk Modulus (GPa) = 44.19051 46.43087 45.31069
# Shear Modulus (GPa) = 3.41192 28.57916 15.99554
#
# Velocity S-wave (km/s) = 1.25783 3.64037 2.72346
# Velocity P-wave (km/s) = 4.75404 6.26099 5.55881
#
# Compressibility (1/GPa) = 0.02262929
#
# Stress axis : x y z
#
# Youngs Moduli (GPa) = 110.45817 61.78239 102.89122
#
# Poissons Ratio (x) = 0.19413 0.08915
# Poissons Ratio (y) = 0.34708 0.22180
# Poissons Ratio (z) = 0.09571 0.13318
#
# Static dielectric constant tensor:
#      x y z
#    x 1.794850 0.000000 -0.024740 
#    y 0.000000 1.723020 0.000000 
#    z -0.024740 0.000000 1.852520 
# 
# From -- ./inp_files/67286.got.cif
#   From: 2010.05.17/outbox.cif.g08.bks.cpg/sg12_34_cif.got.tgz:67286.got - 2010.06.03 13:09:07.
