data_PCOD9217416
_publ_section_title
;
Structure prediction by ZEFSAII (Michael W. Deem and Ramdas Pophale) SiO2 
 PCOD9217416
Probable space group: C 2/M
;
_chemical_formula_sum "Si O2"
_cell_formula_units_Z 48
_cell_length_a 17.695710
_cell_length_b 30.865838
_cell_length_c 8.650798
_cell_angle_alpha 90.000000
_cell_angle_beta 146.734269
_cell_angle_gamma 90.000000
_cell_volume 2591.772839
_symmetry_space_group_name_H-M "C 2/M"
_symmetry_group_IT_number 12
_symmetry_cell_setting 'monoclinic'
loop_
_space_group_symop_operation_xyz
x,y,z
-x,y,-z
-x,-y,-z
x,-y,z
1/2+x,1/2+y,z
1/2-x,1/2+y,-z
1/2-x,1/2-y,-z
1/2+x,1/2-y,z
loop_
_atom_site_type_symbol
_atom_site_label
_atom_site_fract_x
_atom_site_fract_y
_atom_site_fract_z
Si Si1 0.142022 0.622612 0.655929
Si Si2 0.415693 0.450719 0.610573
Si Si3 0.149341 0.868055 0.707170
Si Si4 0.716076 0.549128 0.279887
Si Si5 0.202070 0.291428 0.216456
Si Si6 0.392266 0.210898 0.590211
O O1 0.179727 0.585214 0.599535
O O2 0.131431 0.668524 0.552227
O O3 0.000000 0.613472 0.500000
O O4 0.260744 0.624758 0.987003
O O5 0.398344 0.500000 0.521308
O O6 0.377399 0.413449 0.425696
O O7 0.324623 0.446050 0.610181
O O8 0.573147 0.446328 0.939338
O O9 0.230376 0.834517 0.737215
O O10 0.000000 0.850197 0.500000
O O11 0.766383 0.500000 0.341903
O O12 0.308885 0.251927 0.383227
O O13 0.166533 0.296860 0.337208
O O14 0.056031 0.281348 0.885251
#
# Coordination Sequence:
#
# PCOD9217416 Si02
#       6
#     8   8   8   8   8   8
#     4  12  24  40  58  88 129 160 189 241 306 356
#     4   9  19  38  63  89 117 156 206 250 286 341
#     4  12  24  38  59  92 123 159 197 242 297 356
#     4   9  19  38  63  88 118 158 203 247 291 346
#     4  10  23  43  64  88 116 156 202 245 292 350
#     4  10  23  43  65  86 117 157 201 245 291 353
#
# _framework density 18.520140000000001
#
# number of rings (size 3 to 8) (size 9 to 14) (size 15 to 20)
#    0.000    1.667    3.333    2.000    2.333    2.667 
#    0.000    0.000    0.000    2.000    0.000    0.000 
#    0.000    0.000    0.000    0.000    0.000    0.000 
#
# Total GULP energy -134081.516900 kJ/mol
# GULP energy per Si atom -5586.729871 kJ/mol
# Density = 1.847799 g / cm^3
# Si number density = 18.520140 Si / 1000 Ang^3
#
#
#
# Elastic Constant Matrix: (Units=GPa)
#
#
# Indices 1 2 3 4 5 6 
#
# 1 60.8134 58.8713 32.7529 0.0000 18.7224 0.0000
# 2 58.8713 120.1519 37.8422 0.0000 2.8894 0.0000
# 3 32.7529 37.8422 90.9331 0.0000 2.3841 0.0000
# 4 0.0000 0.0000 0.0000 29.4739 0.0000 -17.8648
# 5 18.7224 2.8894 2.3841 0.0000 30.4587 0.0000
# 6 0.0000 0.0000 0.0000 -17.8648 0.0000 -80.6188
#
#
#
# Elastic Compliance Matrix: (Units=1/GPa)
#
#
# Indices 1 2 3 4 5 6 
#
# 1 0.050386 -0.021320 -0.008535 0.000000 -0.028281 0.000000
# 2 -0.021320 0.018610 -0.000364 0.000000 0.011368 0.000000
# 3 -0.008535 -0.000364 0.014113 0.000000 0.004176 0.000000
# 4 0.000000 0.000000 0.000000 0.029911 0.000000 -0.006628
# 5 -0.028281 0.011368 0.004176 0.000000 0.048810 0.000000
# 6 0.000000 0.000000 0.000000 -0.006628 0.000000 -0.010935
#
#
# Mechanical properties :
#
#
# Convention : Reuss Voigt Hill
#
# Bulk Modulus (GPa) = 44.10506 58.98124 51.54315
# Shear Modulus (GPa) = 22.84269 5.35820 14.10044
#
# Velocity S-wave (km/s) = 3.51579 1.70278 2.76226
# Velocity P-wave (km/s) = 6.35196 5.98182 6.16966
#
# Compressibility (1/GPa) = 0.02267313
#
# Stress axis : x y z
#
# Youngs Moduli (GPa) = 19.84675 53.73429 70.85671
#
# Poissons Ratio (x) = 1.14560 0.60474
# Poissons Ratio (y) = 0.42313 0.02576
# Poissons Ratio (z) = 0.16938 0.01954
#
# Static dielectric constant tensor:
#      x y z
#    x 1.631090 0.000000 -0.002560 
#    y 0.000000 1.607690 0.000000 
#    z -0.002560 0.000000 1.612970 
# 
# From -- ./inp_files/80561.got.cif
#   From: 2010.05.17/outbox.cif.g08.bks.cpg/sg12_41_cif.got.tgz:80561.got - 2010.06.03 13:09:07.
