data_PCOD9217353
_publ_section_title
;
Structure prediction by ZEFSAII (Michael W. Deem and Ramdas Pophale) SiO2 
 PCOD9217353
Probable space group: C 2/M
;
_chemical_formula_sum "Si O2"
_cell_formula_units_Z 40
_cell_length_a 8.645330
_cell_length_b 30.389968
_cell_length_c 11.846318
_cell_angle_alpha 90.000000
_cell_angle_beta 141.404669
_cell_angle_gamma 90.000000
_cell_volume 1941.563732
_symmetry_space_group_name_H-M "C 2/M"
_symmetry_group_IT_number 12
_symmetry_cell_setting 'monoclinic'
loop_
_space_group_symop_operation_xyz
x,y,z
-x,y,-z
-x,-y,-z
x,-y,z
1/2+x,1/2+y,z
1/2-x,1/2+y,-z
1/2-x,1/2-y,-z
1/2+x,1/2-y,z
loop_
_atom_site_type_symbol
_atom_site_label
_atom_site_fract_x
_atom_site_fract_y
_atom_site_fract_z
Si Si1 0.337005 0.384803 0.649396
Si Si2 0.798787 0.798995 0.483936
Si Si3 0.226500 0.550209 0.396198
Si Si4 0.732927 0.840673 0.828971
Si Si5 0.842258 0.590813 0.015518
O O1 0.398864 0.338793 0.620798
O O2 0.188187 0.414886 0.474949
O O3 0.234205 0.365473 0.708722
O O4 0.569451 0.416980 0.810107
O O5 0.750000 0.750000 0.500000
O O6 0.516850 0.813600 0.298452
O O7 0.000000 0.796625 0.500000
O O8 0.500000 0.559329 0.500000
O O9 0.221228 0.500000 0.433603
O O10 0.018997 0.556074 0.179952
O O11 0.719237 0.875044 0.922117
O O12 0.000000 0.817178 0.000000
O O13 0.000000 0.608411 0.000000
#
# Coordination Sequence:
#
# PCOD9217353 Si02
#       5
#     8   8   8   8   8
#     4  11  22  42  67  97 136 181 226 287 347 404
#     4  12  24  43  72 104 138 184 230 279 343 417
#     4  11  23  39  66 100 137 184 235 288 349 416
#     4  10  23  42  69 100 138 183 225 288 344 409
#     4  11  21  38  64  95 130 178 230 281 339 409
#
# _framework density 20.601952000000001
#
# number of rings (size 3 to 8) (size 9 to 14) (size 15 to 20)
#    0.000    1.000    4.000    3.600    0.000    1.200 
#    0.000   12.000    0.000    3.600    0.000    0.000 
#    0.000    0.000    0.000    0.000    0.000    0.000 
#
# Total GULP energy -111359.627027 kJ/mol
# GULP energy per Si atom -5567.981351 kJ/mol
# Density = 2.055506 g / cm^3
# Si number density = 20.601952 Si / 1000 Ang^3
#
#
#
# Elastic Constant Matrix: (Units=GPa)
#
#
# Indices 1 2 3 4 5 6 
#
# 1 165.2963 51.2743 48.9553 0.0000 -3.8516 0.0000
# 2 51.2743 94.4762 38.0370 0.0000 -5.0274 0.0000
# 3 48.9553 38.0370 128.9448 0.0000 14.7564 0.0000
# 4 0.0000 0.0000 0.0000 -6.7926 0.0000 0.4289
# 5 -3.8516 -5.0274 14.7564 0.0000 49.4624 0.0000
# 6 0.0000 0.0000 0.0000 0.4289 0.0000 23.7255
#
#
#
# Elastic Compliance Matrix: (Units=1/GPa)
#
#
# Indices 1 2 3 4 5 6 
#
# 1 0.007703 -0.003310 -0.002049 0.000000 0.000875 0.000000
# 2 -0.003310 0.013705 -0.003019 0.000000 0.002036 0.000000
# 3 -0.002049 -0.003019 0.009812 0.000000 -0.003394 0.000000
# 4 0.000000 0.000000 0.000000 -0.147052 0.000000 0.002658
# 5 0.000875 0.002036 -0.003394 0.000000 0.021505 0.000000
# 6 0.000000 0.000000 0.000000 0.002658 0.000000 0.042101
#
#
# Mechanical properties :
#
#
# Convention : Reuss Voigt Hill
#
# Bulk Modulus (GPa) = 69.12932 73.91673 71.52302
# Shear Modulus (GPa) = -163.13193 29.97580 -66.57806
#
# Velocity S-wave (km/s) = -8.90812 3.81858 -5.69092
# Velocity P-wave (km/s) = 8.49580 7.44302 2.89656
#
# Compressibility (1/GPa) = 0.01446564
#
# Stress axis : x y z
#
# Youngs Moduli (GPa) = 129.81236 72.96751 101.91607
#
# Poissons Ratio (x) = 0.24149 0.20878
# Poissons Ratio (y) = 0.42962 0.30771
# Poissons Ratio (z) = 0.26592 0.22030
#
# Static dielectric constant tensor:
#      x y z
#    x 1.723070 0.000000 0.012760 
#    y 0.000000 1.685790 0.000000 
#    z 0.012760 0.000000 1.814850 
# 
# From -- ./inp_files/125466.got.cif
#   From: 2010.05.17/outbox.cif.g08.bks.cpg/sg12_63_cif.got.tgz:125466.got - 2010.06.03 13:09:07.
