data_PCOD9217480
_publ_section_title
;
Structure prediction by ZEFSAII (Michael W. Deem and Ramdas Pophale) SiO2 
 PCOD9217480
Probable space group: C 2/M
;
_chemical_formula_sum "Si O2"
_cell_formula_units_Z 60
_cell_length_a 20.405544
_cell_length_b 29.903608
_cell_length_c 5.523885
_cell_angle_alpha 90.000000
_cell_angle_beta 59.823514
_cell_angle_gamma 90.000000
_cell_volume 2913.881816
_symmetry_space_group_name_H-M "C 2/M"
_symmetry_group_IT_number 12
_symmetry_cell_setting 'monoclinic'
loop_
_space_group_symop_operation_xyz
x,y,z
-x,y,-z
-x,-y,-z
x,-y,z
1/2+x,1/2+y,z
1/2-x,1/2+y,-z
1/2-x,1/2-y,-z
1/2+x,1/2-y,z
loop_
_atom_site_type_symbol
_atom_site_label
_atom_site_fract_x
_atom_site_fract_y
_atom_site_fract_z
Si Si1 0.414973 0.161266 0.064411
Si Si2 0.702462 0.324177 0.064491
Si Si3 0.951777 0.500000 0.847207
Si Si4 0.088976 0.098343 0.365780
Si Si5 0.206684 0.604150 0.419655
Si Si6 0.087933 0.587172 0.265915
Si Si7 0.310521 0.235590 0.188271
Si Si8 0.146410 0.053560 0.750066
O O1 0.355990 0.129709 0.310873
O O2 0.385455 0.211324 0.142660
O O3 0.500000 0.155312 0.000000
O O4 0.407130 0.139206 0.815488
O O5 0.638811 0.356188 0.296860
O O6 0.765310 0.302506 0.122841
O O7 0.745200 0.356632 0.798534
O O8 0.669618 0.279890 0.998126
O O9 0.906140 0.546479 0.934907
O O10 0.000000 0.500000 0.500000
O O11 0.000000 0.500000 0.000000
O O12 0.103185 0.070678 0.588111
O O13 0.000000 0.107632 0.500000
O O14 0.115725 0.073197 0.066282
O O15 0.155082 0.577492 0.325803
O O16 0.267944 0.572758 0.433097
O O17 0.000000 0.584854 0.500000
O O18 0.250000 0.250000 0.500000
O O19 0.144299 0.000000 0.763948
#
# Coordination Sequence:
#
# PCOD9217480 Si02
#       8
#     8   8   4   8   8   8   8   8
#     4  12  23  40  64  97 131 176 231 284 341 400
#     4  10  23  43  66  94 131 178 229 275 349 424
#     4  10  24  42  60  90 128 178 225 269 333 395
#     4  11  25  48  75 106 143 182 225 288 360 419
#     4  11  23  41  66  95 135 183 222 284 340 404
#     4  11  23  41  64  90 136 179 227 280 337 394
#     4  11  22  41  66  92 130 181 230 285 345 411
#     4  11  26  46  73 108 141 182 236 281 343 425
#
# _framework density 20.591087999999999
#
# number of rings (size 3 to 8) (size 9 to 14) (size 15 to 20)
#    0.000    1.067    4.000    2.000    6.533    1.600 
#    3.600    0.000    0.000    0.000    0.000    0.000 
#    0.000    0.000    0.000    0.000    0.000    0.000 
#
# Total GULP energy -167249.652288 kJ/mol
# GULP energy per Si atom -5574.988410 kJ/mol
# Density = 2.054422 g / cm^3
# Si number density = 20.591088 Si / 1000 Ang^3
#
#
#
# Elastic Constant Matrix: (Units=GPa)
#
#
# Indices 1 2 3 4 5 6 
#
# 1 76.2103 28.7994 10.7185 0.0000 -3.4650 0.0000
# 2 28.7994 130.9907 28.5744 0.0000 -4.2520 0.0000
# 3 10.7185 28.5744 53.9309 0.0000 -1.4076 0.0000
# 4 0.0000 0.0000 0.0000 28.5870 0.0000 3.9057
# 5 -3.4650 -4.2520 -1.4076 0.0000 36.7413 0.0000
# 6 0.0000 0.0000 0.0000 3.9057 0.0000 37.0159
#
#
#
# Elastic Compliance Matrix: (Units=1/GPa)
#
#
# Indices 1 2 3 4 5 6 
#
# 1 0.014431 -0.002850 -0.001332 0.000000 0.000980 0.000000
# 2 -0.002850 0.009220 -0.004302 0.000000 0.000633 0.000000
# 3 -0.001332 -0.004302 0.021091 0.000000 0.000185 0.000000
# 4 0.000000 0.000000 0.000000 0.035493 0.000000 -0.003745
# 5 0.000980 0.000633 0.000185 0.000000 0.027390 0.000000
# 6 0.000000 0.000000 0.000000 -0.003745 0.000000 0.027411
#
#
# Mechanical properties :
#
#
# Convention : Reuss Voigt Hill
#
# Bulk Modulus (GPa) = 36.00673 44.14629 40.07651
# Shear Modulus (GPa) = 31.00557 33.33813 32.17185
#
# Velocity S-wave (km/s) = 3.88464 4.02812 3.95703
# Velocity P-wave (km/s) = 6.13556 6.56661 6.35474
#
# Compressibility (1/GPa) = 0.02777258
#
# Stress axis : x y z
#
# Youngs Moduli (GPa) = 69.29712 108.46255 47.41327
#
# Poissons Ratio (x) = 0.30915 0.06317
# Poissons Ratio (y) = 0.19751 0.20397
# Poissons Ratio (z) = 0.09232 0.46660
#
# Static dielectric constant tensor:
#      x y z
#    x 1.801670 0.000000 -0.090610 
#    y 0.000000 1.758950 0.000000 
#    z -0.090610 0.000000 2.389030 
# 
# From -- ./inp_files/18283.got.cif
#   From: 2010.05.17/outbox.cif.g08.bks.cpg/sg12_10_cif.got.tgz:18283.got - 2010.06.03 13:09:07.
