data_PCOD9217118
_publ_section_title
;
Structure prediction by ZEFSAII (Michael W. Deem and Ramdas Pophale) SiO2 
 PCOD9217118
Probable space group: C 2/M
;
_chemical_formula_sum "Si O2"
_cell_formula_units_Z 48
_cell_length_a 22.548937
_cell_length_b 19.559716
_cell_length_c 5.826482
_cell_angle_alpha 90.000000
_cell_angle_beta 127.826308
_cell_angle_gamma 90.000000
_cell_volume 2029.796849
_symmetry_space_group_name_H-M "C 2/M"
_symmetry_group_IT_number 12
_symmetry_cell_setting 'monoclinic'
loop_
_space_group_symop_operation_xyz
x,y,z
-x,y,-z
-x,-y,-z
x,-y,z
1/2+x,1/2+y,z
1/2-x,1/2+y,-z
1/2-x,1/2-y,-z
1/2+x,1/2-y,z
loop_
_atom_site_type_symbol
_atom_site_label
_atom_site_fract_x
_atom_site_fract_y
_atom_site_fract_z
Si Si1 0.500000 0.242682 0.000000
Si Si2 0.824826 0.738285 0.041734
Si Si3 0.376869 0.140412 0.517409
Si Si4 0.706561 0.500000 0.644442
Si Si5 0.589505 0.650108 0.943308
Si Si6 0.752725 0.137072 0.453488
Si Si7 0.039846 0.500000 0.344465
Si Si8 0.617217 0.500000 0.929289
O O1 0.430257 0.191493 0.792043
O O2 0.474994 0.297767 0.133735
O O3 0.873362 0.680447 0.272324
O O4 0.750000 0.750000 0.000000
O O5 0.868844 0.808926 0.156903
O O6 0.791624 0.703169 0.738558
O O7 0.294282 0.124649 0.425456
O O8 0.413442 0.068670 0.559018
O O9 0.751978 0.571250 0.725601
O O10 0.663469 0.500000 0.286482
O O11 0.661605 0.500000 0.785159
O O12 0.658674 0.649488 0.292999
O O13 0.572719 0.571875 0.842911
O O14 0.000000 0.500000 0.500000
O O15 0.000000 0.500000 0.000000
#
# Coordination Sequence:
#
# PCOD9217118 Si02
#       8
#     4   8   8   4   8   8   4   4
#     4  12  26  46  72 104 154 198 254 312 394 456
#     4  12  23  40  73 107 145 190 258 316 383 446
#     4  12  27  47  74 108 152 206 255 315 379 468
#     4  10  23  41  76 108 146 185 245 312 375 451
#     4  11  24  46  73 107 148 197 251 326 388 466
#     4  11  23  45  71 106 147 190 253 315 383 449
#     4  12  31  53  78 111 165 213 257 311 384 476
#     4  10  24  47  72 107 145 191 248 312 388 448
#
# _framework density 23.647684999999999
#
# number of rings (size 3 to 8) (size 9 to 14) (size 15 to 20)
#    0.000    0.667    4.167    3.000    7.000    2.333 
#    0.000    0.000    0.000    6.000    0.000    0.000 
#    0.000    0.000    0.000    0.000    0.000    0.000 
#
# Total GULP energy -133747.339927 kJ/mol
# GULP energy per Si atom -5572.805830 kJ/mol
# Density = 2.359386 g / cm^3
# Si number density = 23.647685 Si / 1000 Ang^3
#
#
#
# Elastic Constant Matrix: (Units=GPa)
#
#
# Indices 1 2 3 4 5 6 
#
# 1 87.8153 22.2141 3.3447 0.0000 -13.9624 0.0000
# 2 22.2141 200.2519 20.6476 0.0000 -1.4649 0.0000
# 3 3.3447 20.6476 78.2698 0.0000 -5.2449 0.0000
# 4 0.0000 0.0000 0.0000 34.2742 0.0000 -3.8693
# 5 -13.9624 -1.4649 -5.2449 0.0000 28.0730 0.0000
# 6 0.0000 0.0000 0.0000 -3.8693 0.0000 45.4031
#
#
#
# Elastic Compliance Matrix: (Units=1/GPa)
#
#
# Indices 1 2 3 4 5 6 
#
# 1 0.012733 -0.001392 0.000246 0.000000 0.006306 0.000000
# 2 -0.001392 0.005285 -0.001380 0.000000 -0.000674 0.000000
# 3 0.000246 -0.001380 0.013300 0.000000 0.002535 0.000000
# 4 0.000000 0.000000 0.000000 0.029460 0.000000 0.002511
# 5 0.006306 -0.000674 0.002535 0.000000 0.039196 0.000000
# 6 0.000000 0.000000 0.000000 0.002511 0.000000 0.022239
#
#
# Mechanical properties :
#
#
# Convention : Reuss Voigt Hill
#
# Bulk Modulus (GPa) = 38.07222 50.97222 44.52222
# Shear Modulus (GPa) = 36.75915 42.89210 39.82563
#
# Velocity S-wave (km/s) = 3.94693 4.26349 4.10826
# Velocity P-wave (km/s) = 6.07501 6.77038 6.43210
#
# Compressibility (1/GPa) = 0.02626587
#
# Stress axis : x y z
#
# Youngs Moduli (GPa) = 78.53690 189.19874 75.18946
#
# Poissons Ratio (x) = 0.26330 -0.01846
# Poissons Ratio (y) = 0.10930 0.10376
# Poissons Ratio (z) = -0.01929 0.26110
#
# Static dielectric constant tensor:
#      x y z
#    x 2.009020 0.000000 -0.056580 
#    y 0.000000 1.914340 0.000000 
#    z -0.056580 0.000000 1.937940 
# 
# From -- ./inp_files/25494.got.cif
#   From: 2010.05.17/outbox.cif.g08.bks.cpg/sg12_13_cif.got.tgz:25494.got - 2010.06.03 13:09:07.
