data_PCOD9217357
_publ_section_title
;
Structure prediction by ZEFSAII (Michael W. Deem and Ramdas Pophale) SiO2 
 PCOD9217357
Probable space group: C 2/M
;
_chemical_formula_sum "Si O2"
_cell_formula_units_Z 56
_cell_length_a 17.401040
_cell_length_b 25.898215
_cell_length_c 10.155995
_cell_angle_alpha 90.000000
_cell_angle_beta 142.646150
_cell_angle_gamma 90.000000
_cell_volume 2776.943939
_symmetry_space_group_name_H-M "C 2/M"
_symmetry_group_IT_number 12
_symmetry_cell_setting 'monoclinic'
loop_
_space_group_symop_operation_xyz
x,y,z
-x,y,-z
-x,-y,-z
x,-y,z
1/2+x,1/2+y,z
1/2-x,1/2+y,-z
1/2-x,1/2-y,-z
1/2+x,1/2-y,z
loop_
_atom_site_type_symbol
_atom_site_label
_atom_site_fract_x
_atom_site_fract_y
_atom_site_fract_z
Si Si1 0.058628 0.224580 0.214571
Si Si2 0.703905 0.500000 0.325024
Si Si3 0.119090 0.904719 0.750806
Si Si4 0.305728 0.811630 0.432943
Si Si5 0.545614 0.500000 0.840794
Si Si6 0.339869 0.941928 0.870750
Si Si7 0.703024 0.302432 0.007756
Si Si8 0.893625 0.412670 0.666783
O O1 0.164245 0.184616 0.304387
O O2 0.130594 0.262875 0.410222
O O3 0.940069 0.203220 0.132522
O O4 0.000000 0.249250 0.000000
O O5 0.595575 0.500000 0.290254
O O6 0.794216 0.450880 0.464895
O O7 0.636965 0.500000 0.092294
O O8 0.072110 0.947952 0.792001
O O9 0.193391 0.855177 0.910963
O O10 0.000000 0.887246 0.500000
O O11 0.216578 0.933290 0.787328
O O12 0.390132 0.859824 0.585366
O O13 0.288954 0.807498 0.254669
O O14 0.465374 0.934668 0.128580
O O15 0.343272 0.000000 0.820082
O O16 0.348751 0.904953 0.756944
O O17 0.750000 0.250000 0.000000
#
# Coordination Sequence:
#
# PCOD9217357 Si02
#       8
#     8   4   8   8   4   8   8   8
#     4   9  22  43  66  93 125 169 221 279 333 394
#     4  11  22  40  69  95 136 178 222 277 343 396
#     4  12  27  44  69  97 138 180 221 281 348 409
#     4  10  23  42  69  93 130 168 225 281 333 394
#     4  11  25  43  65 104 138 174 234 277 341 418
#     4  11  23  43  65 100 136 172 226 274 335 419
#     4  11  27  45  65  97 136 178 229 276 341 415
#     4  11  22  40  69  97 127 174 223 279 335 398
#
# _framework density 20.166053999999999
#
# number of rings (size 3 to 8) (size 9 to 14) (size 15 to 20)
#    0.000    1.286    2.143    2.357   10.000    1.143 
#    0.000    2.857    0.000    0.000    0.000    0.000 
#    0.000    0.000    0.000    0.000    0.000    0.000 
#
# Total GULP energy -156368.047983 kJ/mol
# GULP energy per Si atom -5584.573142 kJ/mol
# Density = 2.012015 g / cm^3
# Si number density = 20.166054 Si / 1000 Ang^3
#
#
#
# Elastic Constant Matrix: (Units=GPa)
#
#
# Indices 1 2 3 4 5 6 
#
# 1 41.9508 -9.1221 4.4558 0.0000 -4.6339 0.0000
# 2 -9.1221 67.1457 18.1737 0.0000 -20.1953 0.0000
# 3 4.4558 18.1737 115.0652 0.0000 -9.0680 0.0000
# 4 0.0000 0.0000 0.0000 41.9794 0.0000 -9.6629
# 5 -4.6339 -20.1953 -9.0680 0.0000 24.8417 0.0000
# 6 0.0000 0.0000 0.0000 -9.6629 0.0000 13.6941
#
#
#
# Elastic Compliance Matrix: (Units=1/GPa)
#
#
# Indices 1 2 3 4 5 6 
#
# 1 0.026642 0.007055 -0.001341 0.000000 0.010216 0.000000
# 2 0.007055 0.021995 -0.002301 0.000000 0.018358 0.000000
# 3 -0.001341 -0.002301 0.009204 0.000000 0.001239 0.000000
# 4 0.000000 0.000000 0.000000 0.028441 0.000000 0.020069
# 5 0.010216 0.018358 0.001239 0.000000 0.057537 0.000000
# 6 0.000000 0.000000 0.000000 0.020069 0.000000 0.087185
#
#
# Mechanical properties :
#
#
# Convention : Reuss Voigt Hill
#
# Bulk Modulus (GPa) = 15.46344 27.90849 21.68597
# Shear Modulus (GPa) = 20.34727 30.14666 25.24697
#
# Velocity S-wave (km/s) = 3.17990 3.87062 3.54213
# Velocity P-wave (km/s) = 4.60077 5.81764 5.24462
#
# Compressibility (1/GPa) = 0.06466865
#
# Stress axis : x y z
#
# Youngs Moduli (GPa) = 37.53420 45.46388 108.65244
#
# Poissons Ratio (x) = -0.32075 0.14569
# Poissons Ratio (y) = -0.26480 0.24996
# Poissons Ratio (z) = 0.05033 0.10459
#
# Static dielectric constant tensor:
#      x y z
#    x 1.706780 0.000000 0.004980 
#    y 0.000000 1.765800 0.000000 
#    z 0.004980 0.000000 1.712190 
# 
# From -- ./inp_files/80138.got.cif
#   From: 2010.05.17/outbox.cif.g08.bks.cpg/sg12_41_cif.got.tgz:80138.got - 2010.06.03 13:09:07.
