data_PCOD9217147
_publ_section_title
;
Structure prediction by ZEFSAII (Michael W. Deem and Ramdas Pophale) SiO2 
 PCOD9217147
Probable space group: C 2/M
;
_chemical_formula_sum "Si O2"
_cell_formula_units_Z 48
_cell_length_a 14.485953
_cell_length_b 27.199712
_cell_length_c 9.276904
_cell_angle_alpha 90.000000
_cell_angle_beta 137.450999
_cell_angle_gamma 90.000000
_cell_volume 2471.739928
_symmetry_space_group_name_H-M "C 2/M"
_symmetry_group_IT_number 12
_symmetry_cell_setting 'monoclinic'
loop_
_space_group_symop_operation_xyz
x,y,z
-x,y,-z
-x,-y,-z
x,-y,z
1/2+x,1/2+y,z
1/2-x,1/2+y,-z
1/2-x,1/2-y,-z
1/2+x,1/2-y,z
loop_
_atom_site_type_symbol
_atom_site_label
_atom_site_fract_x
_atom_site_fract_y
_atom_site_fract_z
Si Si1 0.653339 0.055438 0.730074
Si Si2 0.691081 0.422212 0.827421
Si Si3 0.613059 0.445539 0.420875
Si Si4 0.342006 0.371780 0.772424
Si Si5 0.634723 0.692663 0.752591
Si Si6 0.638936 0.730691 0.083426
O O1 0.500000 0.063416 0.500000
O O2 0.749438 0.095989 0.770403
O O3 0.692755 0.000000 0.733187
O O4 0.680844 0.060499 0.931903
O O5 0.682015 0.442696 0.656413
O O6 0.549778 0.439282 0.741537
O O7 0.684752 0.363360 0.813521
O O8 0.636752 0.500000 0.384177
O O9 0.665020 0.399474 0.387882
O O10 0.307033 0.314568 0.755309
O O11 0.500000 0.375329 0.000000
O O12 0.500000 0.695153 0.500000
O O13 0.748991 0.727831 0.814880
O O14 0.607867 0.708976 0.887427
O O15 0.500000 0.748349 0.000000
#
# Coordination Sequence:
#
# PCOD9217147 Si02
#       6
#     8   8   8   8   8   8
#     4  11  23  39  61  89 127 168 204 252 318 382
#     4  11  20  39  60  91 130 162 208 258 315 378
#     4  11  21  34  64  97 124 159 207 266 320 367
#     4  11  21  39  62  91 124 158 212 266 305 368
#     4  11  22  41  66  91 127 169 210 265 322 377
#     4  10  23  42  61  93 127 167 214 264 316 379
#
# _framework density 19.419518
#
# number of rings (size 3 to 8) (size 9 to 14) (size 15 to 20)
#    0.000    1.167    5.000    3.500    0.000    2.000 
#    0.000    0.833    0.000    3.000    0.000    0.000 
#    0.000    0.000    0.000    0.000    0.000    0.000 
#
# Total GULP energy -134028.657047 kJ/mol
# GULP energy per Si atom -5584.527377 kJ/mol
# Density = 1.937532 g / cm^3
# Si number density = 19.419518 Si / 1000 Ang^3
#
#
#
# Elastic Constant Matrix: (Units=GPa)
#
#
# Indices 1 2 3 4 5 6 
#
# 1 77.3905 51.8825 21.4987 0.0000 -8.7711 0.0000
# 2 51.8825 125.4860 43.0603 0.0000 11.7805 0.0000
# 3 21.4987 43.0603 114.1911 0.0000 -5.5021 0.0000
# 4 0.0000 0.0000 0.0000 23.5375 0.0000 -8.0946
# 5 -8.7711 11.7805 -5.5021 0.0000 21.1684 0.0000
# 6 0.0000 0.0000 0.0000 -8.0946 0.0000 -30.1261
#
#
#
# Elastic Compliance Matrix: (Units=1/GPa)
#
#
# Indices 1 2 3 4 5 6 
#
# 1 0.021468 -0.010492 0.000632 0.000000 0.014898 0.000000
# 2 -0.010492 0.015121 -0.004397 0.000000 -0.013905 0.000000
# 3 0.000632 -0.004397 0.010559 0.000000 0.005453 0.000000
# 4 0.000000 0.000000 0.000000 0.038892 0.000000 -0.010450
# 5 0.014898 -0.013905 0.005453 0.000000 0.062569 0.000000
# 6 0.000000 0.000000 0.000000 -0.010450 0.000000 -0.030386
#
#
# Mechanical properties :
#
#
# Convention : Reuss Voigt Hill
#
# Bulk Modulus (GPa) = 53.65998 61.10563 57.38281
# Shear Modulus (GPa) = 32.69131 16.29103 24.49117
#
# Velocity S-wave (km/s) = 4.10741 2.89952 3.55514
# Velocity P-wave (km/s) = 7.08423 6.53789 6.81654
#
# Compressibility (1/GPa) = 0.01863586
#
# Stress axis : x y z
#
# Youngs Moduli (GPa) = 46.58133 66.13379 94.70699
#
# Poissons Ratio (x) = 0.69385 -0.05989
# Poissons Ratio (y) = 0.48871 0.41639
# Poissons Ratio (z) = -0.02946 0.29077
#
# Static dielectric constant tensor:
#      x y z
#    x 1.685950 0.000000 -0.045360 
#    y 0.000000 1.688650 0.000000 
#    z -0.045360 0.000000 1.681990 
# 
# From -- ./inp_files/67426.got.cif
#   From: 2010.05.17/outbox.cif.g08.bks.cpg/sg12_34_cif.got.tgz:67426.got - 2010.06.03 13:09:07.
