data_PCOD9217638
_publ_section_title
;
Structure prediction by ZEFSAII (Michael W. Deem and Ramdas Pophale) SiO2 
 PCOD9217638
Probable space group: C 2/M
;
_chemical_formula_sum "Si O2"
_cell_formula_units_Z 56
_cell_length_a 23.068655
_cell_length_b 7.996063
_cell_length_c 15.249365
_cell_angle_alpha 90.000000
_cell_angle_beta 66.595623
_cell_angle_gamma 90.000000
_cell_volume 2581.442551
_symmetry_space_group_name_H-M "C 2/M"
_symmetry_group_IT_number 12
_symmetry_cell_setting 'monoclinic'
loop_
_space_group_symop_operation_xyz
x,y,z
-x,y,-z
-x,-y,-z
x,-y,z
1/2+x,1/2+y,z
1/2-x,1/2+y,-z
1/2-x,1/2-y,-z
1/2+x,1/2-y,z
loop_
_atom_site_type_symbol
_atom_site_label
_atom_site_fract_x
_atom_site_fract_y
_atom_site_fract_z
Si Si1 0.572131 0.304789 0.955542
Si Si2 0.202383 0.186655 0.601975
Si Si3 0.418645 0.809050 0.242292
Si Si4 0.470723 0.203156 0.380988
Si Si5 0.268238 0.309799 0.726464
Si Si6 0.901931 0.702435 0.591858
Si Si7 0.794425 0.200885 0.055430
O O1 0.565932 0.500000 0.983218
O O2 0.591590 0.287876 0.841570
O O3 0.631736 0.238393 0.977698
O O4 0.500000 0.233000 0.000000
O O5 0.250000 0.250000 0.500000
O O6 0.143230 0.302359 0.659480
O O7 0.239944 0.189025 0.670480
O O8 0.180499 0.000000 0.594159
O O9 0.468482 0.736255 0.282142
O O10 0.433464 0.000000 0.209376
O O11 0.416422 0.255899 0.482793
O O12 0.536020 0.242097 0.389297
O O13 0.466739 0.000000 0.378418
O O14 0.249739 0.500000 0.716063
O O15 0.342712 0.288678 0.671449
O O16 0.241689 0.265543 0.836947
O O17 0.893822 0.500000 0.596900
O O18 0.797370 0.000000 0.055845
O O19 0.750000 0.250000 0.000000
#
# Coordination Sequence:
#
# PCOD9217638 Si02
#       7
#     8   8   8   8   8   8   8
#     4  10  23  44  67  91 123 166 215 269 332 394
#     4  12  24  39  60  90 126 166 207 253 312 375
#     4  11  21  36  60  91 124 159 205 259 314 378
#     4   8  17  33  56  86 120 162 207 253 307 371
#     4  12  24  39  60  90 125 162 207 257 311 378
#     4   9  17  35  59  83 120 167 210 252 305 371
#     4  11  24  44  69  94 126 166 212 270 332 393
#
# _framework density 21.693296
#
# number of rings (size 3 to 8) (size 9 to 14) (size 15 to 20)
#    0.000    1.571    1.429    5.143    0.000    3.143 
#    0.000    6.429    0.000    0.000    0.000    0.000 
#    0.000    0.000    0.000    0.000    0.000    0.000 
#
# Total GULP energy -156240.442009 kJ/mol
# GULP energy per Si atom -5580.015786 kJ/mol
# Density = 2.164392 g / cm^3
# Si number density = 21.693296 Si / 1000 Ang^3
#
#
#
# Elastic Constant Matrix: (Units=GPa)
#
#
# Indices 1 2 3 4 5 6 
#
# 1 132.8266 8.5217 49.5736 0.0000 5.9462 0.0000
# 2 8.5217 58.5720 -0.1344 0.0000 0.0507 0.0000
# 3 49.5736 -0.1344 70.9385 0.0000 6.1303 0.0000
# 4 0.0000 0.0000 0.0000 19.0846 0.0000 1.0159
# 5 5.9462 0.0507 6.1303 0.0000 33.6408 0.0000
# 6 0.0000 0.0000 0.0000 1.0159 0.0000 18.8466
#
#
#
# Elastic Compliance Matrix: (Units=1/GPa)
#
#
# Indices 1 2 3 4 5 6 
#
# 1 0.010327 -0.001519 -0.007175 0.000000 -0.000516 0.000000
# 2 -0.001519 0.017296 0.001090 0.000000 0.000044 0.000000
# 3 -0.007175 0.001090 0.019308 0.000000 -0.002252 0.000000
# 4 0.000000 0.000000 0.000000 0.052549 0.000000 -0.002833
# 5 -0.000516 0.000044 -0.002252 0.000000 0.030227 0.000000
# 6 0.000000 0.000000 0.000000 -0.002833 0.000000 0.053213
#
#
# Mechanical properties :
#
#
# Convention : Reuss Voigt Hill
#
# Bulk Modulus (GPa) = 31.52182 42.02877 36.77530
# Shear Modulus (GPa) = 23.95767 27.93947 25.94857
#
# Velocity S-wave (km/s) = 3.32683 3.59267 3.46230
# Velocity P-wave (km/s) = 5.41473 6.05193 5.74217
#
# Compressibility (1/GPa) = 0.03172405
#
# Stress axis : x y z
#
# Youngs Moduli (GPa) = 96.83353 57.81548 51.79334
#
# Poissons Ratio (x) = 0.08779 0.37162
# Poissons Ratio (y) = 0.14704 -0.05646
# Poissons Ratio (z) = 0.69479 -0.06303
#
# Static dielectric constant tensor:
#      x y z
#    x 2.280460 0.000000 -0.132480 
#    y 0.000000 1.768520 0.000000 
#    z -0.132480 0.000000 1.808800 
# 
# From -- ./inp_files/238226.got.cif
#   From: 2010.05.17/outbox.cif.g08.bks.cpg/sg12_120_cif.got.tgz:238226.got - 2010.06.03 13:09:07.
