data_PCOD9217063
_publ_section_title
;
Structure prediction by ZEFSAII (Michael W. Deem and Ramdas Pophale) SiO2 
 PCOD9217063
Probable space group: C 2/M
;
_chemical_formula_sum "Si O2"
_cell_formula_units_Z 28
_cell_length_a 5.211033
_cell_length_b 22.799706
_cell_length_c 10.230487
_cell_angle_alpha 90.000000
_cell_angle_beta 123.927254
_cell_angle_gamma 90.000000
_cell_volume 1008.544372
_symmetry_space_group_name_H-M "C 2/M"
_symmetry_group_IT_number 12
_symmetry_cell_setting 'monoclinic'
loop_
_space_group_symop_operation_xyz
x,y,z
-x,y,-z
-x,-y,-z
x,-y,z
1/2+x,1/2+y,z
1/2-x,1/2+y,-z
1/2-x,1/2-y,-z
1/2+x,1/2-y,z
loop_
_atom_site_type_symbol
_atom_site_label
_atom_site_fract_x
_atom_site_fract_y
_atom_site_fract_z
Si Si1 0.843491 0.267115 0.677947
Si Si2 0.204871 0.617495 0.181270
Si Si3 0.128195 0.000000 0.891000
Si Si4 0.628791 0.068872 0.407009
O O1 0.750000 0.250000 0.500000
O O2 0.707923 0.222719 0.749655
O O3 0.698956 0.325117 0.707543
O O4 0.422643 0.562148 0.200462
O O5 0.991385 0.589079 0.231881
O O6 0.000000 0.636068 0.000000
O O7 0.500000 0.000000 0.000000
O O8 0.000000 0.000000 0.000000
O O9 0.500000 0.099014 0.500000
O O10 0.000000 0.076504 0.500000
O O11 0.571469 0.000000 0.397162
#
# Coordination Sequence:
#
# PCOD9217063 Si02
#       4
#     8   8   4   8
#     4  10  25  46  71 100 140 193 247 302 359 423
#     4  11  25  46  75 109 147 192 243 305 373 435
#     4  10  24  44  68 110 154 184 221 292 379 442
#     4  10  23  41  66 102 143 188 237 287 356 443
#
# _framework density 27.762785000000001
#
# number of rings (size 3 to 8) (size 9 to 14) (size 15 to 20)
#    0.000    1.714    1.429    0.000    8.000   10.286 
#    0.000    0.000    0.000    0.000    0.000    0.000 
#    0.000    0.000    0.000    0.000    0.000    0.000 
#
# Total GULP energy -77952.692080 kJ/mol
# GULP energy per Si atom -5568.049434 kJ/mol
# Density = 2.769960 g / cm^3
# Si number density = 27.762785 Si / 1000 Ang^3
#
#
#
# Elastic Constant Matrix: (Units=GPa)
#
#
# Indices 1 2 3 4 5 6 
#
# 1 140.9128 35.1425 58.1131 0.0000 -69.2834 0.0000
# 2 35.1425 129.9532 65.8637 0.0000 -25.5517 0.0000
# 3 58.1131 65.8637 202.9169 0.0000 -48.2406 0.0000
# 4 0.0000 0.0000 0.0000 63.5621 0.0000 -5.4609
# 5 -69.2834 -25.5517 -48.2406 0.0000 64.2322 0.0000
# 6 0.0000 0.0000 0.0000 -5.4609 0.0000 18.0744
#
#
#
# Elastic Compliance Matrix: (Units=1/GPa)
#
#
# Indices 1 2 3 4 5 6 
#
# 1 0.015236 -0.000839 -0.000321 0.000000 0.015859 0.000000
# 2 -0.000839 0.009417 -0.002606 0.000000 0.000883 0.000000
# 3 -0.000321 -0.002606 0.006741 0.000000 0.003680 0.000000
# 4 0.000000 0.000000 0.000000 0.016152 0.000000 0.004880
# 5 0.015859 0.000883 0.003680 0.000000 0.035790 0.000000
# 6 0.000000 0.000000 0.000000 0.004880 0.000000 0.056801
#
#
# Mechanical properties :
#
#
# Convention : Reuss Voigt Hill
#
# Bulk Modulus (GPa) = 41.90956 88.00238 64.95597
# Shear Modulus (GPa) = 32.12912 50.15130 41.14021
#
# Velocity S-wave (km/s) = 3.40556 4.25481 3.85365
# Velocity P-wave (km/s) = 5.53102 7.47694 6.57635
#
# Compressibility (1/GPa) = 0.02386091
#
# Stress axis : x y z
#
# Youngs Moduli (GPa) = 65.63523 106.19575 148.35236
#
# Poissons Ratio (x) = 0.08914 0.04756
# Poissons Ratio (y) = 0.05509 0.38662
# Poissons Ratio (z) = 0.02104 0.27676
#
# Static dielectric constant tensor:
#      x y z
#    x 2.980810 0.000000 0.112950 
#    y 0.000000 2.649100 0.000000 
#    z 0.112950 0.000000 2.260810 
# 
# From -- ./inp_files/34002.got.cif
#   From: 2010.05.17/outbox.cif.g08.bks.cpg/sg12_18_cif.got.tgz:34002.got - 2010.06.03 13:09:07.
