data_PCOD9217909
_publ_section_title
;
Structure prediction by ZEFSAII (Michael W. Deem and Ramdas Pophale) SiO2 
 PCOD9217909
Probable space group: C 2/M
;
_chemical_formula_sum "Si O2"
_cell_formula_units_Z 48
_cell_length_a 8.794463
_cell_length_b 18.015309
_cell_length_c 14.231874
_cell_angle_alpha 90.000000
_cell_angle_beta 113.520212
_cell_angle_gamma 90.000000
_cell_volume 2067.494061
_symmetry_space_group_name_H-M "C 2/M"
_symmetry_group_IT_number 12
_symmetry_cell_setting 'monoclinic'
loop_
_space_group_symop_operation_xyz
x,y,z
-x,y,-z
-x,-y,-z
x,-y,z
1/2+x,1/2+y,z
1/2-x,1/2+y,-z
1/2-x,1/2-y,-z
1/2+x,1/2-y,z
loop_
_atom_site_type_symbol
_atom_site_label
_atom_site_fract_x
_atom_site_fract_y
_atom_site_fract_z
Si Si1 0.272986 0.654349 0.785857
Si Si2 0.834879 0.500000 0.333637
Si Si3 0.727188 0.087785 0.962342
Si Si4 0.228997 0.500000 0.462813
Si Si5 0.671887 0.087084 0.158011
Si Si6 0.320899 0.648338 0.385922
Si Si7 0.958290 0.239465 0.674123
O O1 0.227525 0.573826 0.732631
O O2 0.311994 0.637881 0.904201
O O3 0.408745 0.692780 0.753780
O O4 0.112637 0.707098 0.735084
O O5 0.771731 0.500000 0.425002
O O6 0.035185 0.500000 0.383925
O O7 0.528017 0.092777 0.894575
O O8 0.771755 0.000000 0.964733
O O9 0.745539 0.110468 0.075402
O O10 0.311712 0.573099 0.441219
O O11 0.743233 0.129645 0.263538
O O12 0.710801 0.000000 0.178984
O O13 0.194101 0.709092 0.393293
O O14 0.493509 0.684788 0.398574
#
# Coordination Sequence:
#
# PCOD9217909 Si02
#       7
#     8   4   8   4   8   8   8
#     4  11  20  42  58  87 119 154 191 244 280 347
#     4  11  22  39  68  92 109 148 201 240 281 340
#     4   9  16  29  56  86 110 150 199 238 279 329
#     4  11  22  39  68  92 109 148 201 240 281 340
#     4   9  16  29  56  86 110 150 199 238 279 329
#     4  11  20  42  58  87 119 154 191 244 280 347
#     4  10  24  36  62  84 122 160 186 226 312 340
#
# _framework density 23.216511000000001
#
# number of rings (size 3 to 8) (size 9 to 14) (size 15 to 20)
#    0.000    1.833    5.000    1.000    0.000    0.667 
#    0.000   12.500    0.000    2.000    0.000    0.000 
#    0.000    0.000    0.000    0.000    0.000    0.000 
#
# Total GULP energy -134436.576390 kJ/mol
# GULP energy per Si atom -5601.524016 kJ/mol
# Density = 2.316367 g / cm^3
# Si number density = 23.216511 Si / 1000 Ang^3
#
#
#
# Elastic Constant Matrix: (Units=GPa)
#
#
# Indices 1 2 3 4 5 6 
#
# 1 104.3964 72.0372 50.3882 0.0000 -31.5300 0.0000
# 2 72.0372 153.6199 65.6634 0.0000 -29.5493 0.0000
# 3 50.3882 65.6634 107.0795 0.0000 -23.7146 0.0000
# 4 0.0000 0.0000 0.0000 30.6034 0.0000 -21.2093
# 5 -31.5300 -29.5493 -23.7146 0.0000 40.8816 0.0000
# 6 0.0000 0.0000 0.0000 -21.2093 0.0000 27.9355
#
#
#
# Elastic Compliance Matrix: (Units=1/GPa)
#
#
# Indices 1 2 3 4 5 6 
#
# 1 0.016910 -0.005144 -0.003142 0.000000 0.007502 0.000000
# 2 -0.005144 0.010908 -0.003902 0.000000 0.001653 0.000000
# 3 -0.003142 -0.003902 0.013825 0.000000 0.002776 0.000000
# 4 0.000000 0.000000 0.000000 0.068962 0.000000 0.052358
# 5 0.007502 0.001653 0.002776 0.000000 0.033052 0.000000
# 6 0.000000 0.000000 0.000000 0.052358 0.000000 0.075548
#
#
# Mechanical properties :
#
#
# Convention : Reuss Voigt Hill
#
# Bulk Modulus (GPa) = 57.91250 82.36372 70.13811
# Shear Modulus (GPa) = 20.05322 31.68456 25.86889
#
# Velocity S-wave (km/s) = 2.94215 3.69825 3.34165
# Velocity P-wave (km/s) = 6.04486 7.33413 6.72048
#
# Compressibility (1/GPa) = 0.01726743
#
# Stress axis : x y z
#
# Youngs Moduli (GPa) = 59.13491 91.67870 72.33324
#
# Poissons Ratio (x) = 0.47159 0.22725
# Poissons Ratio (y) = 0.30419 0.28225
# Poissons Ratio (z) = 0.18579 0.35774
#
# Static dielectric constant tensor:
#      x y z
#    x 1.905670 0.000000 0.017650 
#    y 0.000000 1.817430 0.000000 
#    z 0.017650 0.000000 1.876980 
# 
# From -- ./inp_files/196008.got.cif
#   From: 2010.05.17/outbox.cif.g08.bks.cpg/sg12_99_cif.got.tgz:196008.got - 2010.06.03 13:09:07.
