data_PCOD9217618
_publ_section_title
;
Structure prediction by ZEFSAII (Michael W. Deem and Ramdas Pophale) SiO2 
 PCOD9217618
Probable space group: C 2/M
;
_chemical_formula_sum "Si O2"
_cell_formula_units_Z 56
_cell_length_a 8.182599
_cell_length_b 23.858566
_cell_length_c 18.182252
_cell_angle_alpha 90.000000
_cell_angle_beta 48.459512
_cell_angle_gamma 90.000000
_cell_volume 2656.854129
_symmetry_space_group_name_H-M "C 2/M"
_symmetry_group_IT_number 12
_symmetry_cell_setting 'monoclinic'
loop_
_space_group_symop_operation_xyz
x,y,z
-x,y,-z
-x,-y,-z
x,-y,z
1/2+x,1/2+y,z
1/2-x,1/2+y,-z
1/2-x,1/2-y,-z
1/2+x,1/2-y,z
loop_
_atom_site_type_symbol
_atom_site_label
_atom_site_fract_x
_atom_site_fract_y
_atom_site_fract_z
Si Si1 0.207377 0.748251 0.393115
Si Si2 0.666215 0.566803 0.275553
Si Si3 0.105082 0.654043 0.888629
Si Si4 0.276512 0.346363 0.110595
Si Si5 0.185555 0.386609 0.388553
Si Si6 0.329570 0.749702 0.750046
Si Si7 0.454841 0.933063 0.728326
O O1 0.198429 0.680849 0.389960
O O2 0.439916 0.760995 0.361402
O O3 0.283827 0.771310 0.290786
O O4 0.000000 0.770144 0.500000
O O5 0.664257 0.500000 0.269805
O O6 0.796674 0.595750 0.169573
O O7 0.420488 0.589698 0.343246
O O8 0.805524 0.581114 0.308219
O O9 0.296594 0.699716 0.818148
O O10 0.908633 0.670018 0.892664
O O11 0.000000 0.652722 0.000000
O O12 0.269304 0.303390 0.181001
O O13 0.213399 0.406498 0.163008
O O14 0.500000 0.345775 0.000000
O O15 0.000000 0.406251 0.500000
O O16 0.108182 0.406442 0.331104
O O17 0.439117 0.000000 0.728192
#
# Coordination Sequence:
#
# PCOD9217618 Si02
#       7
#     8   8   8   8   8   8   8
#     4  11  24  41  66  96 127 168 215 257 316 387
#     4  10  23  44  65  93 134 171 212 266 320 383
#     4  11  25  40  63  92 123 166 212 262 322 380
#     4  11  25  40  63  92 123 166 212 262 322 380
#     4  11  23  42  70 100 127 168 219 264 320 384
#     4  12  22  42  64  90 132 162 204 264 318 380
#     4  10  23  44  65  93 134 171 212 266 320 383
#
# _framework density 21.077559999999998
#
# number of rings (size 3 to 8) (size 9 to 14) (size 15 to 20)
#    0.000    1.143    4.286    1.286    4.000    3.429 
#    0.000    1.429    0.000    0.000    0.000    0.000 
#    0.000    0.000    0.000    0.000    0.000    0.000 
#
# Total GULP energy -156161.663660 kJ/mol
# GULP energy per Si atom -5577.202274 kJ/mol
# Density = 2.102959 g / cm^3
# Si number density = 21.077560 Si / 1000 Ang^3
#
#
#
# Elastic Constant Matrix: (Units=GPa)
#
#
# Indices 1 2 3 4 5 6 
#
# 1 82.6382 25.0115 69.1668 0.0000 -11.6449 0.0000
# 2 25.0115 53.2064 21.0494 0.0000 -12.9391 0.0000
# 3 69.1668 21.0494 170.3188 0.0000 -20.4986 0.0000
# 4 0.0000 0.0000 0.0000 44.5762 0.0000 30.2766
# 5 -11.6449 -12.9391 -20.4986 0.0000 36.2606 0.0000
# 6 0.0000 0.0000 0.0000 30.2766 0.0000 63.3089
#
#
#
# Elastic Compliance Matrix: (Units=1/GPa)
#
#
# Indices 1 2 3 4 5 6 
#
# 1 0.020328 -0.006622 -0.007442 0.000000 -0.000042 0.000000
# 2 -0.006622 0.023254 0.000599 0.000000 0.006510 0.000000
# 3 -0.007442 0.000599 0.009182 0.000000 0.003015 0.000000
# 4 0.000000 0.000000 0.000000 0.033226 0.000000 -0.015890
# 5 -0.000042 0.006510 0.003015 0.000000 0.031592 0.000000
# 6 0.000000 0.000000 0.000000 -0.015890 0.000000 0.023395
#
#
# Mechanical properties :
#
#
# Convention : Reuss Voigt Hill
#
# Bulk Modulus (GPa) = 38.70858 59.62432 49.16645
# Shear Modulus (GPa) = 28.32571 41.55818 34.94194
#
# Velocity S-wave (km/s) = 3.66987 4.44518 4.07600
# Velocity P-wave (km/s) = 6.03009 7.39565 6.74750
#
# Compressibility (1/GPa) = 0.02583407
#
# Stress axis : x y z
#
# Youngs Moduli (GPa) = 49.19325 43.00378 108.90473
#
# Poissons Ratio (x) = 0.28477 0.81046
# Poissons Ratio (y) = 0.32575 -0.06520
# Poissons Ratio (z) = 0.36609 -0.02575
#
# Static dielectric constant tensor:
#      x y z
#    x 1.961120 0.000000 0.015790 
#    y 0.000000 1.738200 0.000000 
#    z 0.015790 0.000000 1.711720 
# 
# From -- ./inp_files/259796.got.cif
#   From: 2010.05.17/outbox.cif.g08.bks.cpg/sg12_130_cif.got.tgz:259796.got - 2010.06.03 13:09:07.
