data_PCOD9217385
_publ_section_title
;
Structure prediction by ZEFSAII (Michael W. Deem and Ramdas Pophale) SiO2 
 PCOD9217385
Probable space group: C 2/M
;
_chemical_formula_sum "Si O2"
_cell_formula_units_Z 28
_cell_length_a 8.275083
_cell_length_b 30.309367
_cell_length_c 5.227213
_cell_angle_alpha 90.000000
_cell_angle_beta 60.833686
_cell_angle_gamma 90.000000
_cell_volume 1144.820778
_symmetry_space_group_name_H-M "C 2/M"
_symmetry_group_IT_number 12
_symmetry_cell_setting 'monoclinic'
loop_
_space_group_symop_operation_xyz
x,y,z
-x,y,-z
-x,-y,-z
x,-y,z
1/2+x,1/2+y,z
1/2-x,1/2+y,-z
1/2-x,1/2-y,-z
1/2+x,1/2-y,z
loop_
_atom_site_type_symbol
_atom_site_label
_atom_site_fract_x
_atom_site_fract_y
_atom_site_fract_z
Si Si1 0.299890 0.871377 0.959579
Si Si2 0.717607 0.906051 0.536312
Si Si3 0.371368 0.500000 0.346127
Si Si4 0.209266 0.220112 0.278345
O O1 0.503494 0.891778 0.748908
O O2 0.213943 0.873271 0.742061
O O3 0.197480 0.901407 0.245890
O O4 0.303988 0.824902 0.105236
O O5 0.747153 0.955995 0.432633
O O6 0.500000 0.500000 0.500000
O O7 0.500000 0.500000 0.000000
O O8 0.250000 0.250000 0.500000
O O9 0.000000 0.207188 0.500000
O O10 0.250000 0.250000 0.000000
#
# Coordination Sequence:
#
# PCOD9217385 Si02
#       4
#     8   8   4   8
#     4  10  23  43  71 102 138 193 252 297 375 450
#     4  10  23  42  73  99 147 191 247 302 372 451
#     4  12  26  44  68 112 155 190 248 312 382 446
#     4  12  28  46  75 108 151 194 256 325 383 449
#
# _framework density 24.457975999999999
#
# number of rings (size 3 to 8) (size 9 to 14) (size 15 to 20)
#    0.000    1.143    0.000    4.286   12.000    8.000 
#    0.000    0.000    0.000    0.000    0.000    0.000 
#    0.000    0.000    0.000    0.000    0.000    0.000 
#
# Total GULP energy -78057.803707 kJ/mol
# GULP energy per Si atom -5575.557408 kJ/mol
# Density = 2.440231 g / cm^3
# Si number density = 24.457976 Si / 1000 Ang^3
#
#
#
# Elastic Constant Matrix: (Units=GPa)
#
#
# Indices 1 2 3 4 5 6 
#
# 1 66.9663 34.2925 73.3920 0.0000 -2.7273 0.0000
# 2 34.2925 204.0682 101.1560 0.0000 -12.2389 0.0000
# 3 73.3920 101.1560 268.6889 0.0000 32.6336 0.0000
# 4 0.0000 0.0000 0.0000 59.1360 0.0000 -5.0549
# 5 -2.7273 -12.2389 32.6336 0.0000 70.2732 0.0000
# 6 0.0000 0.0000 0.0000 -5.0549 0.0000 33.2629
#
#
#
# Elastic Compliance Matrix: (Units=1/GPa)
#
#
# Indices 1 2 3 4 5 6 
#
# 1 0.022301 -0.000335 -0.006426 0.000000 0.003791 0.000000
# 2 -0.000335 0.006378 -0.002589 0.000000 0.002300 0.000000
# 3 -0.006426 -0.002589 0.006928 0.000000 -0.003917 0.000000
# 4 0.000000 0.000000 0.000000 0.017133 0.000000 0.002604
# 5 0.003791 0.002300 -0.003917 0.000000 0.016597 0.000000
# 6 0.000000 0.000000 0.000000 0.002604 0.000000 0.030459
#
#
# Mechanical properties :
#
#
# Convention : Reuss Voigt Hill
#
# Bulk Modulus (GPa) = 59.14718 106.37828 82.76273
# Shear Modulus (GPa) = 40.27994 54.59328 47.43661
#
# Velocity S-wave (km/s) = 4.06261 4.72966 4.40877
# Velocity P-wave (km/s) = 6.80015 8.56826 7.73489
#
# Compressibility (1/GPa) = 0.01690698
#
# Stress axis : x y z
#
# Youngs Moduli (GPa) = 44.84031 156.79068 144.35165
#
# Poissons Ratio (x) = 0.05251 0.92760
# Poissons Ratio (y) = 0.01502 0.37373
# Poissons Ratio (z) = 0.28814 0.40594
#
# Static dielectric constant tensor:
#      x y z
#    x 2.404120 0.000000 0.154820 
#    y 0.000000 2.023520 0.000000 
#    z 0.154820 0.000000 1.945880 
# 
# From -- ./inp_files/3686.got.cif
#   From: 2010.05.17/outbox.cif.g08.bks.cpg/sg12_2_cif.got.tgz:3686.got - 2010.06.03 13:09:07.
