data_PCOD9217899
_publ_section_title
;
Structure prediction by ZEFSAII (Michael W. Deem and Ramdas Pophale) SiO2 
 PCOD9217899
Probable space group: C 2/M
;
_chemical_formula_sum "Si O2"
_cell_formula_units_Z 48
_cell_length_a 29.605421
_cell_length_b 11.355921
_cell_length_c 26.892091
_cell_angle_alpha 90.000000
_cell_angle_beta 161.594148
_cell_angle_gamma 90.000000
_cell_volume 2854.670356
_symmetry_space_group_name_H-M "C 2/M"
_symmetry_group_IT_number 12
_symmetry_cell_setting 'monoclinic'
loop_
_space_group_symop_operation_xyz
x,y,z
-x,y,-z
-x,-y,-z
x,-y,z
1/2+x,1/2+y,z
1/2-x,1/2+y,-z
1/2-x,1/2-y,-z
1/2+x,1/2-y,z
loop_
_atom_site_type_symbol
_atom_site_label
_atom_site_fract_x
_atom_site_fract_y
_atom_site_fract_z
Si Si1 0.161452 0.745213 0.958019
Si Si2 0.242865 0.000000 0.184045
Si Si3 0.607774 0.215673 0.381304
Si Si4 0.779952 0.500000 0.333019
Si Si5 0.016077 0.701042 0.571661
Si Si6 0.438071 0.638949 0.286755
Si Si7 0.924807 0.000000 0.090423
Si Si8 0.251537 0.000000 0.417331
O O1 0.011004 0.687939 0.785007
O O2 0.136679 0.878458 0.951243
O O3 0.250000 0.750000 0.000000
O O4 0.269808 0.672548 0.105425
O O5 0.345071 0.114429 0.282321
O O6 0.195306 0.000000 0.192271
O O7 0.120634 0.000000 0.014980
O O8 0.750000 0.250000 0.500000
O O9 0.531400 0.311483 0.337559
O O10 0.655458 0.110595 0.467404
O O11 0.718286 0.500000 0.323854
O O12 0.883147 0.612864 0.438531
O O13 0.015165 0.793753 0.614727
O O14 0.000000 0.755127 0.500000
O O15 0.455309 0.500000 0.307299
O O16 0.094458 0.000000 0.277545
#
# Coordination Sequence:
#
# PCOD9217899 Si02
#       8
#     8   4   8   4   8   8   4   4
#     4  10  24  35  54  78 114 144 187 227 279 319
#     4   9  18  33  59  83 119 134 179 241 286 334
#     4  11  24  39  54  80 115 152 185 232 271 334
#     4   9  18  35  55  89 109 144 179 231 293 339
#     4   9  17  33  57  83 109 141 180 230 287 336
#     4  11  23  37  56  81 111 147 193 231 272 331
#     4  12  21  38  58  86 109 147 191 234 276 343
#     4  12  23  36  64  80 113 151 193 222 288 339
#
# _framework density 16.814551999999999
#
# number of rings (size 3 to 8) (size 9 to 14) (size 15 to 20)
#    0.000    1.667    5.000    1.000    7.000    2.667 
#    0.000    0.000    0.000    0.000    0.000    0.000 
#    0.000    8.000    0.000    0.000    0.000    0.000 
#
# Total GULP energy -133675.904496 kJ/mol
# GULP energy per Si atom -5569.829354 kJ/mol
# Density = 1.677628 g / cm^3
# Si number density = 16.814552 Si / 1000 Ang^3
#
#
#
# Elastic Constant Matrix: (Units=GPa)
#
#
# Indices 1 2 3 4 5 6 
#
# 1 94.1402 48.7805 38.2499 0.0002 -12.3336 0.0001
# 2 48.7805 109.2657 38.1629 0.0014 -9.4274 0.0007
# 3 38.2499 38.1629 103.8306 0.0009 -5.7566 0.0005
# 4 0.0002 0.0014 0.0009 15.0594 0.0004 2.4618
# 5 -12.3336 -9.4274 -5.7566 0.0004 31.7470 0.0002
# 6 0.0001 0.0007 0.0005 2.4618 0.0002 23.5153
#
#
#
# Elastic Compliance Matrix: (Units=1/GPa)
#
#
# Indices 1 2 3 4 5 6 
#
# 1 0.015257 -0.005276 -0.003474 0.000000 0.003730 0.000000
# 2 -0.005276 0.012515 -0.002590 -0.000001 0.001197 0.000000
# 3 -0.003474 -0.002590 0.011865 0.000000 0.000032 0.000000
# 4 0.000000 -0.000001 0.000000 0.067560 -0.000001 -0.007073
# 5 0.003730 0.001197 0.000032 -0.000001 0.033310 0.000000
# 6 0.000000 0.000000 0.000000 -0.007073 0.000000 0.043266
#
#
# Mechanical properties :
#
#
# Convention : Reuss Voigt Hill
#
# Bulk Modulus (GPa) = 58.97579 61.95814 60.46696
# Shear Modulus (GPa) = 23.57322 26.20054 24.88688
#
# Velocity S-wave (km/s) = 3.74833 3.95169 3.85135
# Velocity P-wave (km/s) = 7.34055 7.59928 7.47104
#
# Compressibility (1/GPa) = 0.01695611
#
# Stress axis : x y z
#
# Youngs Moduli (GPa) = 65.54526 79.90258 84.28314
#
# Poissons Ratio (x) = 0.42155 0.29283
# Poissons Ratio (y) = 0.34580 0.21830
# Poissons Ratio (z) = 0.22773 0.20695
#
# Static dielectric constant tensor:
#      x y z
#    x 1.584200 0.000000 -0.016870 
#    y 0.000000 1.530580 0.000000 
#    z -0.016870 0.000000 1.594180 
# 
# From -- ./inp_files/351972.got.cif
#   From: 2010.05.17/outbox.cif.g08.bks.cpg/sg12_176_cif.got.tgz:351972.got - 2010.06.03 13:09:07.
