data_PCOD9217698
_publ_section_title
;
Structure prediction by ZEFSAII (Michael W. Deem and Ramdas Pophale) SiO2 
 PCOD9217698
Probable space group: C 2/M
;
_chemical_formula_sum "Si O2"
_cell_formula_units_Z 48
_cell_length_a 9.932327
_cell_length_b 21.489377
_cell_length_c 11.630004
_cell_angle_alpha 90.000000
_cell_angle_beta 111.206802
_cell_angle_gamma 90.000000
_cell_volume 2314.203085
_symmetry_space_group_name_H-M "C 2/M"
_symmetry_group_IT_number 12
_symmetry_cell_setting 'monoclinic'
loop_
_space_group_symop_operation_xyz
x,y,z
-x,y,-z
-x,-y,-z
x,-y,z
1/2+x,1/2+y,z
1/2-x,1/2+y,-z
1/2-x,1/2-y,-z
1/2+x,1/2-y,z
loop_
_atom_site_type_symbol
_atom_site_label
_atom_site_fract_x
_atom_site_fract_y
_atom_site_fract_z
Si Si1 0.332932 0.572149 0.912530
Si Si2 0.437591 0.193382 0.763827
Si Si3 0.851116 0.000000 0.281648
Si Si4 0.149476 0.377722 0.494890
Si Si5 0.151871 0.406750 0.082154
Si Si6 0.840664 0.000000 0.554484
Si Si7 0.256568 0.812247 0.259612
O O1 0.289083 0.500000 0.875500
O O2 0.305070 0.621976 0.804424
O O3 0.500000 0.571501 0.000000
O O4 0.241302 0.597512 0.992449
O O5 0.371619 0.152519 0.637140
O O6 0.403864 0.152963 0.865993
O O7 0.604575 0.202855 0.777848
O O8 0.361096 0.258536 0.766684
O O9 0.761098 0.943153 0.200659
O O10 0.858070 0.000000 0.420917
O O11 0.023500 0.000000 0.314941
O O12 0.258424 0.434713 0.541369
O O13 0.189740 0.322813 0.594280
O O14 0.000000 0.403204 0.500000
O O15 0.000000 0.437741 0.000000
#
# Coordination Sequence:
#
# PCOD9217698 Si02
#       7
#     8   8   4   8   8   4   8
#     4  11  27  45  68 105 139 181 233 292 355 413
#     4  11  25  46  69 105 136 187 243 282 358 414
#     4  11  25  40  68 107 143 181 236 286 368 410
#     4  10  23  44  69 103 141 182 232 293 361 422
#     4  12  24  46  71  98 144 189 237 287 346 430
#     4  11  23  42  69 110 139 179 234 303 356 418
#     4  11  26  45  70 101 141 186 234 291 349 423
#
# _framework density 20.741482999999999
#
# number of rings (size 3 to 8) (size 9 to 14) (size 15 to 20)
#    0.000    1.000    4.167    1.000    5.833    1.333 
#    1.500    0.000    0.000    0.000    0.000    0.000 
#    0.000    0.000    0.000    0.000    0.000    0.000 
#
# Total GULP energy -133846.474733 kJ/mol
# GULP energy per Si atom -5576.936447 kJ/mol
# Density = 2.069427 g / cm^3
# Si number density = 20.741483 Si / 1000 Ang^3
#
#
#
# Elastic Constant Matrix: (Units=GPa)
#
#
# Indices 1 2 3 4 5 6 
#
# 1 95.0841 65.4085 42.9888 0.0000 1.1968 0.0000
# 2 65.4085 103.0941 37.2740 0.0000 -2.4387 0.0000
# 3 42.9888 37.2740 103.0444 0.0000 5.0299 0.0000
# 4 0.0000 0.0000 0.0000 6.9991 0.0000 6.0240
# 5 1.1968 -2.4387 5.0299 0.0000 38.1148 0.0000
# 6 0.0000 0.0000 0.0000 6.0240 0.0000 30.7161
#
#
#
# Elastic Compliance Matrix: (Units=1/GPa)
#
#
# Indices 1 2 3 4 5 6 
#
# 1 0.020263 -0.011311 -0.004323 0.000000 -0.000789 0.000000
# 2 -0.011311 0.017534 -0.001707 0.000000 0.001702 0.000000
# 3 -0.004323 -0.001707 0.012203 0.000000 -0.001584 0.000000
# 4 0.000000 0.000000 0.000000 0.171889 0.000000 -0.033711
# 5 -0.000789 0.001702 -0.001584 0.000000 0.026579 0.000000
# 6 0.000000 0.000000 0.000000 -0.033711 0.000000 0.039167
#
#
# Mechanical properties :
#
#
# Convention : Reuss Voigt Hill
#
# Bulk Modulus (GPa) = 65.28718 65.84059 65.56389
# Shear Modulus (GPa) = 15.27078 25.53610 20.40344
#
# Velocity S-wave (km/s) = 2.71632 3.51260 3.13981
# Velocity P-wave (km/s) = 6.43295 6.94719 6.69501
#
# Compressibility (1/GPa) = 0.01531694
#
# Stress axis : x y z
#
# Youngs Moduli (GPa) = 49.35218 57.03317 81.94887
#
# Poissons Ratio (x) = 0.64512 0.35427
# Poissons Ratio (y) = 0.55824 0.13985
# Poissons Ratio (z) = 0.21336 0.09733
#
# Static dielectric constant tensor:
#      x y z
#    x 1.931300 0.000000 0.008390 
#    y 0.000000 1.739280 0.000000 
#    z 0.008390 0.000000 1.767210 
# 
# From -- ./inp_files/122622.got.cif
#   From: 2010.05.17/outbox.cif.g08.bks.cpg/sg12_62_cif.got.tgz:122622.got - 2010.06.03 13:09:07.
