data_PCOD9217123
_publ_section_title
;
Structure prediction by ZEFSAII (Michael W. Deem and Ramdas Pophale) SiO2 
 PCOD9217123
Probable space group: C 2/M
;
_chemical_formula_sum "Si O2"
_cell_formula_units_Z 48
_cell_length_a 22.181987
_cell_length_b 13.747099
_cell_length_c 12.048369
_cell_angle_alpha 90.000000
_cell_angle_beta 34.839636
_cell_angle_gamma 90.000000
_cell_volume 2098.891145
_symmetry_space_group_name_H-M "C 2/M"
_symmetry_group_IT_number 12
_symmetry_cell_setting 'monoclinic'
loop_
_space_group_symop_operation_xyz
x,y,z
-x,y,-z
-x,-y,-z
x,-y,z
1/2+x,1/2+y,z
1/2-x,1/2+y,-z
1/2-x,1/2-y,-z
1/2+x,1/2-y,z
loop_
_atom_site_type_symbol
_atom_site_label
_atom_site_fract_x
_atom_site_fract_y
_atom_site_fract_z
Si Si1 0.653549 0.887929 0.842241
Si Si2 0.089816 0.000000 0.715138
Si Si3 0.086644 0.614181 0.705416
Si Si4 0.805127 0.846777 0.020157
Si Si5 0.951537 0.806346 0.355747
Si Si6 0.671042 0.325003 0.252096
Si Si7 0.160026 0.000000 0.851881
O O1 0.650202 0.854144 0.720033
O O2 0.733018 0.840444 0.807010
O O3 0.685289 0.000000 0.787187
O O4 0.535189 0.884688 0.069043
O O5 0.097828 0.898155 0.636559
O O6 0.162215 0.000000 0.715608
O O7 0.965805 0.000000 0.935023
O O8 0.107242 0.500000 0.643625
O O9 0.096804 0.701468 0.602726
O O10 0.698642 0.783827 0.170380
O O11 0.794136 0.910480 0.147348
O O12 0.819454 0.889132 0.873071
O O13 0.923026 0.801581 0.855938
O O14 0.928788 0.829967 0.517951
#
# Coordination Sequence:
#
# PCOD9217123 Si02
#       7
#     8   4   8   8   8   8   4
#     4   9  19  35  60  88 115 154 207 250 303 362
#     4   9  22  37  63  95 118 161 201 242 317 367
#     4   9  19  38  62  87 119 161 197 255 316 355
#     4  10  23  42  59  86 124 163 209 247 296 370
#     4  11  22  40  63  90 127 157 203 260 303 363
#     4  11  23  38  63  89 117 166 206 251 304 354
#     4   9  20  41  63  85 123 166 194 244 312 364
#
# _framework density 22.869218
#
# number of rings (size 3 to 8) (size 9 to 14) (size 15 to 20)
#    0.000    2.167    1.667    1.500    4.667    2.000 
#    1.500    2.500    0.000    1.000    0.000    0.000 
#    0.000    0.000    0.000    0.000    0.000    0.000 
#
# Total GULP energy -133724.935835 kJ/mol
# GULP energy per Si atom -5571.872326 kJ/mol
# Density = 2.281717 g / cm^3
# Si number density = 22.869218 Si / 1000 Ang^3
#
#
#
# Elastic Constant Matrix: (Units=GPa)
#
#
# Indices 1 2 3 4 5 6 
#
# 1 114.7693 59.0080 10.8806 0.0000 29.8386 0.0000
# 2 59.0080 93.5825 24.0476 0.0000 21.9646 0.0000
# 3 10.8806 24.0476 62.1544 0.0000 9.4374 0.0000
# 4 0.0000 0.0000 0.0000 28.4001 0.0000 13.9080
# 5 29.8386 21.9646 9.4374 0.0000 40.2065 0.0000
# 6 0.0000 0.0000 0.0000 13.9080 0.0000 37.9821
#
#
#
# Elastic Compliance Matrix: (Units=1/GPa)
#
#
# Indices 1 2 3 4 5 6 
#
# 1 0.014364 -0.007879 0.001554 0.000000 -0.006721 0.000000
# 2 -0.007879 0.017545 -0.005020 0.000000 -0.002559 0.000000
# 3 0.001554 -0.005020 0.018165 0.000000 -0.002675 0.000000
# 4 0.000000 0.000000 0.000000 0.042905 0.000000 -0.015711
# 5 -0.006721 -0.002559 -0.002675 0.000000 0.031885 0.000000
# 6 0.000000 0.000000 0.000000 -0.015711 0.000000 0.032081
#
#
# Mechanical properties :
#
#
# Convention : Reuss Voigt Hill
#
# Bulk Modulus (GPa) = 36.51787 50.93094 43.72441
# Shear Modulus (GPa) = 26.48828 33.08907 29.78867
#
# Velocity S-wave (km/s) = 3.40700 3.80792 3.61302
# Velocity P-wave (km/s) = 5.61067 6.45388 6.04699
#
# Compressibility (1/GPa) = 0.02738385
#
# Stress axis : x y z
#
# Youngs Moduli (GPa) = 69.61794 56.99771 55.04993
#
# Poissons Ratio (x) = 0.44910 -0.08557
# Poissons Ratio (y) = 0.54854 0.27636
# Poissons Ratio (z) = -0.10821 0.28614
#
# Static dielectric constant tensor:
#      x y z
#    x 1.911450 0.000000 0.012460 
#    y 0.000000 1.881740 0.000000 
#    z 0.012460 0.000000 1.901690 
# 
# From -- ./inp_files/167573.got.cif
#   From: 2010.05.17/outbox.cif.g08.bks.cpg/sg12_84_cif.got.tgz:167573.got - 2010.06.03 13:09:07.
