data_PCOD9217850
_publ_section_title
;
Structure prediction by ZEFSAII (Michael W. Deem and Ramdas Pophale) SiO2 
 PCOD9217850
Probable space group: C 2/M
;
_chemical_formula_sum "Si O2"
_cell_formula_units_Z 40
_cell_length_a 7.285827
_cell_length_b 16.131755
_cell_length_c 13.414429
_cell_angle_alpha 90.000000
_cell_angle_beta 102.717255
_cell_angle_gamma 90.000000
_cell_volume 1537.962763
_symmetry_space_group_name_H-M "C 2/M"
_symmetry_group_IT_number 12
_symmetry_cell_setting 'monoclinic'
loop_
_space_group_symop_operation_xyz
x,y,z
-x,y,-z
-x,-y,-z
x,-y,z
1/2+x,1/2+y,z
1/2-x,1/2+y,-z
1/2-x,1/2-y,-z
1/2+x,1/2-y,z
loop_
_atom_site_type_symbol
_atom_site_label
_atom_site_fract_x
_atom_site_fract_y
_atom_site_fract_z
Si Si1 0.042492 0.907229 0.152402
Si Si2 0.718052 0.095553 0.438394
Si Si3 0.589236 0.901959 0.902502
Si Si4 0.786380 0.349836 0.355545
Si Si5 0.749185 0.172802 0.246003
O O1 0.189801 0.882211 0.083689
O O2 0.177747 0.908330 0.265894
O O3 0.880988 0.844498 0.166813
O O4 0.966029 0.000000 0.124373
O O5 0.791372 0.148439 0.540706
O O6 0.500824 0.121270 0.394420
O O7 0.806156 0.109328 0.340634
O O8 0.731326 0.000000 0.469514
O O9 0.460746 0.847776 0.814538
O O10 0.570997 0.000000 0.874613
O O11 0.500000 0.891316 0.000000
O O12 0.767859 0.260427 0.302102
#
# Coordination Sequence:
#
# PCOD9217850 Si02
#       5
#     8   8   8   8   8
#     4  11  23  41  69 100 134 177 228 277 333 408
#     4  11  22  42  70  98 139 191 234 272 330 408
#     4  10  23  46  74 101 134 178 228 284 345 408
#     4  11  23  40  64  98 143 178 224 278 338 400
#     4  12  24  41  68 104 138 176 225 285 343 396
#
# _framework density 26.008431000000002
#
# number of rings (size 3 to 8) (size 9 to 14) (size 15 to 20)
#    0.000    1.000    2.000    6.000    0.000    3.200 
#    0.000    6.000    0.000    0.000    0.000    0.000 
#    0.000    0.000    0.000    0.000    0.000    0.000 
#
# Total GULP energy -112078.894503 kJ/mol
# GULP energy per Si atom -5603.944725 kJ/mol
# Density = 2.594923 g / cm^3
# Si number density = 26.008431 Si / 1000 Ang^3
#
#
#
# Elastic Constant Matrix: (Units=GPa)
#
#
# Indices 1 2 3 4 5 6 
#
# 1 127.3023 42.1640 28.7984 0.0000 -17.0460 0.0000
# 2 42.1640 141.3737 49.6940 0.0000 -12.9186 0.0000
# 3 28.7984 49.6940 94.7248 0.0000 -26.9270 0.0000
# 4 0.0000 0.0000 0.0000 33.9758 0.0000 -2.7055
# 5 -17.0460 -12.9186 -26.9270 0.0000 56.5061 0.0000
# 6 0.0000 0.0000 0.0000 -2.7055 0.0000 22.5432
#
#
#
# Elastic Compliance Matrix: (Units=1/GPa)
#
#
# Indices 1 2 3 4 5 6 
#
# 1 0.009051 -0.002142 -0.001147 0.000000 0.001694 0.000000
# 2 -0.002142 0.009182 -0.004341 0.000000 -0.000615 0.000000
# 3 -0.001147 -0.004341 0.014808 0.000000 0.005718 0.000000
# 4 0.000000 0.000000 0.000000 0.029717 0.000000 0.003566
# 5 0.001694 -0.000615 0.005718 0.000000 0.020793 0.000000
# 6 0.000000 0.000000 0.000000 0.003566 0.000000 0.044787
#
#
# Mechanical properties :
#
#
# Convention : Reuss Voigt Hill
#
# Bulk Modulus (GPa) = 56.23281 67.19042 61.71162
# Shear Modulus (GPa) = 33.43975 38.78798 36.11387
#
# Velocity S-wave (km/s) = 3.58959 3.86601 3.73036
# Velocity P-wave (km/s) = 6.23283 6.76891 6.50639
#
# Compressibility (1/GPa) = 0.01778321
#
# Stress axis : x y z
#
# Youngs Moduli (GPa) = 110.48665 108.91213 67.53028
#
# Poissons Ratio (x) = 0.23324 0.07743
# Poissons Ratio (y) = 0.23661 0.29313
# Poissons Ratio (z) = 0.12668 0.47276
#
# Static dielectric constant tensor:
#      x y z
#    x 2.118000 0.000000 -0.076120 
#    y 0.000000 1.989130 0.000000 
#    z -0.076120 0.000000 2.055630 
# 
# From -- ./inp_files/194677.got.cif
#   From: 2010.05.17/outbox.cif.g08.bks.cpg/sg12_98_cif.got.tgz:194677.got - 2010.06.03 13:09:07.
