data_PCOD9217200
_publ_section_title
;
Structure prediction by ZEFSAII (Michael W. Deem and Ramdas Pophale) SiO2 
 PCOD9217200
Probable space group: C 2/M
;
_chemical_formula_sum "Si O2"
_cell_formula_units_Z 64
_cell_length_a 28.670247
_cell_length_b 11.345349
_cell_length_c 16.498402
_cell_angle_alpha 90.000000
_cell_angle_beta 144.292091
_cell_angle_gamma 90.000000
_cell_volume 3132.175762
_symmetry_space_group_name_H-M "C 2/M"
_symmetry_group_IT_number 12
_symmetry_cell_setting 'monoclinic'
loop_
_space_group_symop_operation_xyz
x,y,z
-x,y,-z
-x,-y,-z
x,-y,z
1/2+x,1/2+y,z
1/2-x,1/2+y,-z
1/2-x,1/2-y,-z
1/2+x,1/2-y,z
loop_
_atom_site_type_symbol
_atom_site_label
_atom_site_fract_x
_atom_site_fract_y
_atom_site_fract_z
Si Si1 0.300223 0.135192 0.605484
Si Si2 0.743289 0.634042 0.871283
Si Si3 0.586423 0.784683 0.641797
Si Si4 0.465785 0.631963 0.042744
Si Si5 0.559849 0.771072 0.297379
Si Si6 0.154011 0.633108 0.570025
Si Si7 0.904120 0.635556 0.166631
Si Si8 0.308060 0.776033 0.797958
O O1 0.250000 0.250000 0.500000
O O2 0.387318 0.146543 0.686743
O O3 0.308765 0.158129 0.713230
O O4 0.269530 0.000000 0.547401
O O5 0.733250 0.500000 0.883023
O O6 0.658536 0.695658 0.758684
O O7 0.772118 0.644924 0.818910
O O8 0.817301 0.690370 0.025090
O O9 0.500000 0.730680 0.500000
O O10 0.614843 0.857009 0.603232
O O11 0.577465 0.855646 0.712411
O O12 0.435457 0.500000 0.015624
O O13 0.534809 0.662373 0.205208
O O14 0.500000 0.635952 0.000000
O O15 0.394433 0.726217 0.943812
O O16 0.615047 0.769277 0.455625
O O17 0.476171 0.813573 0.216185
O O18 0.140769 0.500000 0.520532
O O19 0.247019 0.665524 0.705222
O O20 0.897946 0.500000 0.133778
#
# Coordination Sequence:
#
# PCOD9217200 Si02
#       8
#     8   8   8   8   8   8   8   8
#     4  12  26  42  65  99 138 181 227 278 336 400
#     4  10  23  42  64  88 125 170 210 264 329 393
#     4  11  23  39  64  94 127 163 215 270 325 396
#     4  11  24  43  66  95 133 178 221 270 333 397
#     4  12  23  41  63  98 130 170 219 270 327 395
#     4  11  23  40  65  95 129 169 218 274 330 387
#     4  11  22  40  66  92 127 166 209 270 331 390
#     4  11  22  43  64  94 130 168 223 269 328 396
#
# _framework density 20.43308
#
# number of rings (size 3 to 8) (size 9 to 14) (size 15 to 20)
#    0.000    0.875    5.000    2.625    0.000    1.750 
#    0.000    1.875    0.000    0.000    0.000    0.000 
#    0.000    0.000    0.000    0.000    0.000    0.000 
#
# Total GULP energy -178457.299639 kJ/mol
# GULP energy per Si atom -5576.790614 kJ/mol
# Density = 2.038657 g / cm^3
# Si number density = 20.433080 Si / 1000 Ang^3
#
#
#
# Elastic Constant Matrix: (Units=GPa)
#
#
# Indices 1 2 3 4 5 6 
#
# 1 101.7368 9.3356 20.7506 0.0000 -5.4080 0.0000
# 2 9.3356 60.4263 11.6211 0.0000 2.4944 0.0000
# 3 20.7506 11.6211 101.2796 0.0000 -0.2851 0.0000
# 4 0.0000 0.0000 0.0000 22.6372 0.0000 -1.6842
# 5 -5.4080 2.4944 -0.2851 0.0000 44.1827 0.0000
# 6 0.0000 0.0000 0.0000 -1.6842 0.0000 -3.5533
#
#
#
# Elastic Compliance Matrix: (Units=1/GPa)
#
#
# Indices 1 2 3 4 5 6 
#
# 1 0.010423 -0.001284 -0.001984 0.000000 0.001335 0.000000
# 2 -0.001284 0.017122 -0.001705 0.000000 -0.001135 0.000000
# 3 -0.001984 -0.001705 0.010476 0.000000 -0.000079 0.000000
# 4 0.000000 0.000000 0.000000 0.042670 0.000000 -0.020225
# 5 0.001335 -0.001135 -0.000079 0.000000 0.022860 0.000000
# 6 0.000000 0.000000 0.000000 -0.020225 0.000000 -0.271840
#
#
# Mechanical properties :
#
#
# Convention : Reuss Voigt Hill
#
# Bulk Modulus (GPa) = 35.61939 38.53970 37.07955
# Shear Modulus (GPa) = -33.56060 27.43568 -3.06246
#
# Velocity S-wave (km/s) = -4.05713 3.66827 -1.22557
# Velocity P-wave (km/s) = 2.11589 6.06993 4.02287
#
# Compressibility (1/GPa) = 0.02807459
#
# Stress axis : x y z
#
# Youngs Moduli (GPa) = 95.94336 58.40395 95.45968
#
# Poissons Ratio (x) = 0.07498 0.18943
# Poissons Ratio (y) = 0.12317 0.16274
# Poissons Ratio (z) = 0.19039 0.09957
#
# Static dielectric constant tensor:
#      x y z
#    x 1.716380 0.000000 -0.000370 
#    y 0.000000 1.720770 0.000000 
#    z -0.000370 0.000000 1.761960 
# 
# From -- ./inp_files/245988.got.cif
#   From: 2010.05.17/outbox.cif.g08.bks.cpg/sg12_123_cif.got.tgz:245988.got - 2010.06.03 13:09:07.
