data_PCOD9217933
_publ_section_title
;
Structure prediction by ZEFSAII (Michael W. Deem and Ramdas Pophale) SiO2 
 PCOD9217933
Probable space group: C 2/M
;
_chemical_formula_sum "Si O2"
_cell_formula_units_Z 44
_cell_length_a 24.721816
_cell_length_b 9.830657
_cell_length_c 25.719665
_cell_angle_alpha 90.000000
_cell_angle_beta 18.549792
_cell_angle_gamma 90.000000
_cell_volume 1988.524838
_symmetry_space_group_name_H-M "C 2/M"
_symmetry_group_IT_number 12
_symmetry_cell_setting 'monoclinic'
loop_
_space_group_symop_operation_xyz
x,y,z
-x,y,-z
-x,-y,-z
x,-y,z
1/2+x,1/2+y,z
1/2-x,1/2+y,-z
1/2-x,1/2-y,-z
1/2+x,1/2-y,z
loop_
_atom_site_type_symbol
_atom_site_label
_atom_site_fract_x
_atom_site_fract_y
_atom_site_fract_z
Si Si1 0.178578 0.000000 0.572723
Si Si2 0.268745 0.219599 0.416996
Si Si3 0.839369 0.844567 0.684170
Si Si4 0.749379 0.341130 0.859983
Si Si5 0.582509 0.841458 0.825878
Si Si6 0.627899 0.852251 0.139267
O O1 0.137798 0.878784 0.565994
O O2 0.225368 0.877060 0.572192
O O3 0.286294 0.196205 0.339776
O O4 0.443707 0.155191 0.281751
O O5 0.832579 0.735856 0.735959
O O6 0.674834 0.829390 0.797110
O O7 0.000000 0.828755 0.500000
O O8 0.840788 0.000000 0.703353
O O9 0.713942 0.500000 0.881162
O O10 0.867657 0.336361 0.803088
O O11 0.577628 0.258823 0.030525
O O12 0.532197 0.000000 0.864621
O O13 0.704244 0.000000 0.059039
O O14 0.750000 0.750000 0.000000
#
# Coordination Sequence:
#
# PCOD9217933 Si02
#       6
#     4   8   8   8   8   8
#     4  10  24  38  62  90 134 170 214 248 320 388
#     4  11  22  43  61  97 130 170 211 262 315 380
#     4  10  24  46  67  94 125 165 214 264 322 382
#     4  11  25  42  65  97 127 169 213 262 320 375
#     4  11  22  41  69  93 127 166 216 263 316 376
#     4  11  23  39  63  93 131 164 210 259 312 376
#
# _framework density 22.126954000000001
#
# number of rings (size 3 to 8) (size 9 to 14) (size 15 to 20)
#    0.000    1.273    3.636    1.091    2.545    6.909 
#    3.273    0.000    0.000    0.000    0.000    0.000 
#    0.000    0.000    0.000    0.000    0.000    0.000 
#
# Total GULP energy -122522.111113 kJ/mol
# GULP energy per Si atom -5569.186869 kJ/mol
# Density = 2.207659 g / cm^3
# Si number density = 22.126954 Si / 1000 Ang^3
#
#
#
# Elastic Constant Matrix: (Units=GPa)
#
#
# Indices 1 2 3 4 5 6 
#
# 1 77.1023 58.1465 9.1677 0.0082 18.0415 -0.0004
# 2 58.1465 242.3243 28.6817 -0.0072 24.2222 0.0038
# 3 9.1677 28.6817 24.7134 -0.0181 7.5559 0.0054
# 4 0.0082 -0.0072 -0.0181 -28.4952 0.0109 9.2003
# 5 18.0415 24.2222 7.5559 0.0109 37.7414 -0.0027
# 6 -0.0004 0.0038 0.0054 9.2003 -0.0027 36.7275
#
#
#
# Elastic Compliance Matrix: (Units=1/GPa)
#
#
# Indices 1 2 3 4 5 6 
#
# 1 0.016980 -0.003430 -0.000543 0.000004 -0.005807 -0.000001
# 2 -0.003430 0.005636 -0.004968 0.000000 -0.000983 0.000000
# 3 -0.000543 -0.004968 0.048336 -0.000032 -0.006229 0.000001
# 4 0.000004 0.000000 -0.000032 -0.032468 0.000014 0.008133
# 5 -0.005807 -0.000983 -0.006229 0.000014 0.031150 0.000000
# 6 -0.000001 0.000000 0.000001 0.008133 0.000000 0.025190
#
#
# Mechanical properties :
#
#
# Convention : Reuss Voigt Hill
#
# Bulk Modulus (GPa) = 18.84320 59.57021 39.20670
# Shear Modulus (GPa) = 38.34507 25.73769 32.04138
#
# Velocity S-wave (km/s) = 4.16740 3.41425 3.80948
# Velocity P-wave (km/s) = 5.62945 6.52098 6.09155
#
# Compressibility (1/GPa) = 0.05306954
#
# Stress axis : x y z
#
# Youngs Moduli (GPa) = 58.89435 177.43300 20.68869
#
# Poissons Ratio (x) = 0.60852 0.01124
# Poissons Ratio (y) = 0.20198 0.10278
# Poissons Ratio (z) = 0.03198 0.88151
#
# Static dielectric constant tensor:
#      x y z
#    x 1.804180 0.000000 -0.003480 
#    y 0.000000 1.751550 0.000000 
#    z -0.003480 0.000000 1.941280 
# 
# From -- ./inp_files/368985.got.cif
#   From: 2010.05.17/outbox.cif.g08.bks.cpg/sg12_185_cif.got.tgz:368985.got - 2010.06.03 13:09:07.
