data_PCOD9217405
_publ_section_title
;
Structure prediction by ZEFSAII (Michael W. Deem and Ramdas Pophale) SiO2 
 PCOD9217405
Probable space group: C 2/M
;
_chemical_formula_sum "Si O2"
_cell_formula_units_Z 48
_cell_length_a 9.988541
_cell_length_b 27.655966
_cell_length_c 9.239210
_cell_angle_alpha 90.000000
_cell_angle_beta 94.527453
_cell_angle_gamma 90.000000
_cell_volume 2544.300760
_symmetry_space_group_name_H-M "C 2/M"
_symmetry_group_IT_number 12
_symmetry_cell_setting 'monoclinic'
loop_
_space_group_symop_operation_xyz
x,y,z
-x,y,-z
-x,-y,-z
x,-y,z
1/2+x,1/2+y,z
1/2-x,1/2+y,-z
1/2-x,1/2-y,-z
1/2+x,1/2-y,z
loop_
_atom_site_type_symbol
_atom_site_label
_atom_site_fract_x
_atom_site_fract_y
_atom_site_fract_z
Si Si1 0.248531 0.321810 0.814177
Si Si2 0.493571 0.346808 0.341981
Si Si3 0.535250 0.143263 0.333054
Si Si4 0.139766 0.107919 0.938098
Si Si5 0.763436 0.225492 0.342960
Si Si6 0.109448 0.554985 0.135729
O O1 0.358399 0.341234 0.708827
O O2 0.099851 0.338708 0.759057
O O3 0.254658 0.264291 0.787444
O O4 0.297091 0.346312 0.968152
O O5 0.500000 0.369220 0.500000
O O6 0.403813 0.376248 0.224172
O O7 0.413358 0.296302 0.347862
O O8 0.500000 0.137413 0.500000
O O9 0.652256 0.183375 0.326876
O O10 0.581746 0.094137 0.258435
O O11 0.250535 0.067276 0.930699
O O12 0.000000 0.093357 0.000000
O O13 0.750000 0.250000 0.500000
O O14 0.106286 0.500000 0.189271
O O15 0.000000 0.560625 0.000000
#
# Coordination Sequence:
#
# PCOD9217405 Si02
#       6
#     8   8   8   8   8   8
#     4  11  23  36  58  92 134 167 214 254 313 382
#     4  11  21  38  59  86 125 171 212 256 314 376
#     4  12  23  40  66  97 132 170 217 266 318 382
#     4  10  23  43  63  93 126 166 209 269 325 383
#     4  12  22  36  61  93 129 179 214 254 314 387
#     4  11  24  46  71  94 123 166 220 278 336 385
#
# _framework density 18.865693
#
# number of rings (size 3 to 8) (size 9 to 14) (size 15 to 20)
#    0.000    0.833    6.667    1.000    0.000    1.333 
#    0.000    2.500    0.000    0.500    0.000    0.000 
#    0.000    0.000    0.000    0.000    0.000    0.000 
#
# Total GULP energy -134024.892569 kJ/mol
# GULP energy per Si atom -5584.370524 kJ/mol
# Density = 1.882275 g / cm^3
# Si number density = 18.865693 Si / 1000 Ang^3
#
#
#
# Elastic Constant Matrix: (Units=GPa)
#
#
# Indices 1 2 3 4 5 6 
#
# 1 126.7968 53.1524 36.3427 0.0000 7.2883 0.0000
# 2 53.1524 123.2721 47.1011 0.0000 -0.8678 0.0000
# 3 36.3427 47.1011 104.1215 0.0000 12.1014 0.0000
# 4 0.0000 0.0000 0.0000 26.8456 0.0000 -3.8685
# 5 7.2883 -0.8678 12.1014 0.0000 21.1266 0.0000
# 6 0.0000 0.0000 0.0000 -3.8685 0.0000 -1.5273
#
#
#
# Elastic Compliance Matrix: (Units=1/GPa)
#
#
# Indices 1 2 3 4 5 6 
#
# 1 0.010059 -0.003795 -0.001471 0.000000 -0.002784 0.000000
# 2 -0.003795 0.011439 -0.004346 0.000000 0.004269 0.000000
# 3 -0.001471 -0.004346 0.012905 0.000000 -0.007063 0.000000
# 4 0.000000 0.000000 0.000000 0.027290 0.000000 -0.069121
# 5 -0.002784 0.004269 -0.007063 0.000000 0.052515 0.000000
# 6 0.000000 0.000000 0.000000 -0.069121 0.000000 -0.479667
#
#
# Mechanical properties :
#
#
# Convention : Reuss Voigt Hill
#
# Bulk Modulus (GPa) = 65.88132 69.70921 67.79526
# Shear Modulus (GPa) = -14.65517 23.79524 4.57004
#
# Velocity S-wave (km/s) = -2.79017 3.55533 1.55810
# Velocity P-wave (km/s) = 4.96155 7.34059 6.26503
#
# Compressibility (1/GPa) = 0.01517881
#
# Stress axis : x y z
#
# Youngs Moduli (GPa) = 99.41372 87.41947 77.49224
#
# Poissons Ratio (x) = 0.33174 0.11398
# Poissons Ratio (y) = 0.37726 0.33680
# Poissons Ratio (z) = 0.14622 0.37995
#
# Static dielectric constant tensor:
#      x y z
#    x 1.667390 0.000000 -0.009360 
#    y 0.000000 1.654940 0.000000 
#    z -0.009360 0.000000 1.671670 
# 
# From -- ./inp_files/42182.got.cif
#   From: 2010.05.17/outbox.cif.g08.bks.cpg/sg12_22_cif.got.tgz:42182.got - 2010.06.03 13:09:07.
