data_PCOD9217457
_publ_section_title
;
Structure prediction by ZEFSAII (Michael W. Deem and Ramdas Pophale) SiO2 
 PCOD9217457
Probable space group: C 2/M
;
_chemical_formula_sum "Si O2"
_cell_formula_units_Z 56
_cell_length_a 25.675081
_cell_length_b 18.308655
_cell_length_c 6.642669
_cell_angle_alpha 90.000000
_cell_angle_beta 56.263273
_cell_angle_gamma 90.000000
_cell_volume 2596.716064
_symmetry_space_group_name_H-M "C 2/M"
_symmetry_group_IT_number 12
_symmetry_cell_setting 'monoclinic'
loop_
_space_group_symop_operation_xyz
x,y,z
-x,y,-z
-x,-y,-z
x,-y,z
1/2+x,1/2+y,z
1/2-x,1/2+y,-z
1/2-x,1/2-y,-z
1/2+x,1/2-y,z
loop_
_atom_site_type_symbol
_atom_site_label
_atom_site_fract_x
_atom_site_fract_y
_atom_site_fract_z
Si Si1 0.943342 0.673400 0.494937
Si Si2 0.453444 0.321103 0.272442
Si Si3 0.732018 0.416125 0.286795
Si Si4 0.924124 0.585008 0.170161
Si Si5 0.344303 0.816636 0.032030
Si Si6 0.338439 0.667137 0.231371
Si Si7 0.390870 0.415614 0.732881
O O1 0.972766 0.741196 0.309045
O O2 0.910712 0.615233 0.421179
O O3 0.000000 0.638890 0.500000
O O4 0.890878 0.705667 0.753853
O O5 0.388152 0.311523 0.296551
O O6 0.441553 0.373937 0.485982
O O7 0.500000 0.348976 0.000000
O O8 0.750606 0.500000 0.272565
O O9 0.788443 0.368240 0.081708
O O10 0.712074 0.382256 0.545508
O O11 0.672623 0.413864 0.265435
O O12 0.908678 0.500000 0.173552
O O13 0.887059 0.636398 0.094896
O O14 0.000000 0.592426 0.000000
O O15 0.315935 0.743462 0.188480
O O16 0.374373 0.623253 0.978226
O O17 0.408239 0.500000 0.728071
#
# Coordination Sequence:
#
# PCOD9217457 Si02
#       7
#     8   8   8   8   8   8   8
#     4  12  23  40  65  95 130 172 214 261 315 377
#     4  11  23  40  66  97 131 168 213 258 318 386
#     4  10  24  43  63  91 129 167 214 271 324 378
#     4  11  24  41  61  93 133 171 212 260 315 374
#     4  12  23  40  67  95 127 169 223 262 311 384
#     4  11  22  42  67  93 126 171 211 267 321 378
#     4  10  23  43  65  94 129 168 212 267 325 376
#
# _framework density 21.5657
#
# number of rings (size 3 to 8) (size 9 to 14) (size 15 to 20)
#    0.000    1.000    4.286    2.571    0.000    4.000 
#    0.000    2.143    0.000    0.000    0.000    0.000 
#    0.000    0.000    0.000    0.000    0.000    0.000 
#
# Total GULP energy -156557.963145 kJ/mol
# GULP energy per Si atom -5591.355827 kJ/mol
# Density = 2.151662 g / cm^3
# Si number density = 21.565700 Si / 1000 Ang^3
#
#
#
# Elastic Constant Matrix: (Units=GPa)
#
#
# Indices 1 2 3 4 5 6 
#
# 1 30.7057 9.9059 1.2715 0.0000 0.5860 0.0000
# 2 9.9059 115.3707 14.4310 0.0000 12.4274 0.0000
# 3 1.2715 14.4310 79.7991 0.0000 8.2444 0.0000
# 4 0.0000 0.0000 0.0000 29.7884 0.0000 -2.4931
# 5 0.5860 12.4274 8.2444 0.0000 26.0644 0.0000
# 6 0.0000 0.0000 0.0000 -2.4931 0.0000 22.7489
#
#
#
# Elastic Compliance Matrix: (Units=1/GPa)
#
#
# Indices 1 2 3 4 5 6 
#
# 1 0.033506 -0.002940 -0.000072 0.000000 0.000671 0.000000
# 2 -0.002940 0.009516 -0.001253 0.000000 -0.004075 0.000000
# 3 -0.000072 -0.001253 0.013126 0.000000 -0.003553 0.000000
# 4 0.000000 0.000000 0.000000 0.033881 0.000000 0.003713
# 5 0.000671 -0.004075 -0.003553 0.000000 0.041418 0.000000
# 6 0.000000 0.000000 0.000000 0.003713 0.000000 0.044365
#
#
# Mechanical properties :
#
#
# Convention : Reuss Voigt Hill
#
# Bulk Modulus (GPa) = 21.00025 30.78804 25.89414
# Shear Modulus (GPa) = 24.97324 29.07149 27.02237
#
# Velocity S-wave (km/s) = 3.40664 3.67555 3.54365
# Velocity P-wave (km/s) = 5.02320 5.68510 5.36437
#
# Compressibility (1/GPa) = 0.04761849
#
# Stress axis : x y z
#
# Youngs Moduli (GPa) = 29.84545 105.08831 76.18313
#
# Poissons Ratio (x) = 0.30898 0.00545
# Poissons Ratio (y) = 0.08775 0.09546
# Poissons Ratio (z) = 0.00213 0.13168
#
# Static dielectric constant tensor:
#      x y z
#    x 1.777740 0.000000 -0.008420 
#    y 0.000000 1.748630 0.000000 
#    z -0.008420 0.000000 1.797540 
# 
# From -- ./inp_files/28770.got.cif
#   From: 2010.05.17/outbox.cif.g08.bks.cpg/sg12_15_cif.got.tgz:28770.got - 2010.06.03 13:09:07.
