data_PCOD9217358
_publ_section_title
;
Structure prediction by ZEFSAII (Michael W. Deem and Ramdas Pophale) SiO2 
 PCOD9217358
Probable space group: C 2/M
;
_chemical_formula_sum "Si O2"
_cell_formula_units_Z 44
_cell_length_a 8.994062
_cell_length_b 16.142982
_cell_length_c 17.322273
_cell_angle_alpha 90.000000
_cell_angle_beta 63.336935
_cell_angle_gamma 90.000000
_cell_volume 2247.590828
_symmetry_space_group_name_H-M "C 2/M"
_symmetry_group_IT_number 12
_symmetry_cell_setting 'monoclinic'
loop_
_space_group_symop_operation_xyz
x,y,z
-x,y,-z
-x,-y,-z
x,-y,z
1/2+x,1/2+y,z
1/2-x,1/2+y,-z
1/2-x,1/2-y,-z
1/2+x,1/2-y,z
loop_
_atom_site_type_symbol
_atom_site_label
_atom_site_fract_x
_atom_site_fract_y
_atom_site_fract_z
Si Si1 0.478711 0.175700 0.391014
Si Si2 0.703114 0.000000 0.956401
Si Si3 0.305372 0.335577 0.027506
Si Si4 0.287986 0.651501 0.432195
Si Si5 0.706585 0.000000 0.784562
Si Si6 0.011442 0.000000 0.403044
Si Si7 0.423150 0.095717 0.791974
O O1 0.404143 0.268049 0.413266
O O2 0.647891 0.168209 0.400602
O O3 0.325458 0.127951 0.467157
O O4 0.518337 0.141443 0.298196
O O5 0.781398 0.000000 0.852067
O O6 0.500000 0.000000 0.000000
O O7 0.760077 0.083097 0.987228
O O8 0.208862 0.351750 0.130143
O O9 0.500000 0.332907 0.000000
O O10 0.250000 0.250000 0.000000
O O11 0.413682 0.577897 0.391821
O O12 0.584432 0.079184 0.807668
O O13 0.812048 0.000000 0.681414
O O14 0.000000 0.000000 0.500000
O O15 0.365550 0.000000 0.788883
#
# Coordination Sequence:
#
# PCOD9217358 Si02
#       7
#     8   4   8   8   4   4   8
#     4  10  23  42  69  94 140 176 225 278 336 394
#     4  12  21  48  70  96 145 171 230 287 343 410
#     4  12  27  45  74 103 137 181 227 289 354 414
#     4  10  25  42  66  98 137 180 222 279 335 391
#     4  10  24  39  74  97 133 184 219 280 347 395
#     4  12  26  40  67 102 139 175 231 272 336 405
#     4  10  23  42  71 100 135 176 229 277 345 401
#
# _framework density 19.576518
#
# number of rings (size 3 to 8) (size 9 to 14) (size 15 to 20)
#    0.545    0.727    2.727    1.909   10.182    5.091 
#    0.000    0.000    0.000    0.000    0.000    0.000 
#    0.000    0.000    0.000    0.000    0.000    0.000 
#
# Total GULP energy -122682.095287 kJ/mol
# GULP energy per Si atom -5576.458877 kJ/mol
# Density = 1.953196 g / cm^3
# Si number density = 19.576518 Si / 1000 Ang^3
#
#
#
# Elastic Constant Matrix: (Units=GPa)
#
#
# Indices 1 2 3 4 5 6 
#
# 1 108.2349 52.7074 34.8325 0.0000 -9.5137 0.0000
# 2 52.7074 99.2556 38.4670 0.0000 -5.3995 0.0000
# 3 34.8325 38.4670 149.2894 0.0000 -0.1119 0.0000
# 4 0.0000 0.0000 0.0000 28.0696 0.0000 -2.6931
# 5 -9.5137 -5.3995 -0.1119 0.0000 28.5357 0.0000
# 6 0.0000 0.0000 0.0000 -2.6931 0.0000 16.5750
#
#
#
# Elastic Compliance Matrix: (Units=1/GPa)
#
#
# Indices 1 2 3 4 5 6 
#
# 1 0.012981 -0.006164 -0.001438 0.000000 0.003156 0.000000
# 2 -0.006164 0.014248 -0.002232 0.000000 0.000632 0.000000
# 3 -0.001438 -0.002232 0.007609 0.000000 -0.000872 0.000000
# 4 0.000000 0.000000 0.000000 0.036190 0.000000 0.005880
# 5 0.003156 0.000632 -0.000872 0.000000 0.036212 0.000000
# 6 0.000000 0.000000 0.000000 0.005880 0.000000 0.061287
#
#
# Mechanical properties :
#
#
# Convention : Reuss Voigt Hill
#
# Bulk Modulus (GPa) = 65.92874 67.64377 66.78625
# Shear Modulus (GPa) = 25.87283 30.02092 27.94687
#
# Velocity S-wave (km/s) = 3.63936 3.92026 3.78242
# Velocity P-wave (km/s) = 7.17011 7.42427 7.29830
#
# Compressibility (1/GPa) = 0.01516789
#
# Stress axis : x y z
#
# Youngs Moduli (GPa) = 77.03422 70.18509 131.43147
#
# Poissons Ratio (x) = 0.43265 0.18901
# Poissons Ratio (y) = 0.47487 0.29342
# Poissons Ratio (z) = 0.11078 0.15669
#
# Static dielectric constant tensor:
#      x y z
#    x 1.692310 0.000000 0.014140 
#    y 0.000000 1.660910 0.000000 
#    z 0.014140 0.000000 1.706680 
# 
# From -- ./inp_files/255317.got.cif
#   From: 2010.05.17/outbox.cif.g08.bks.cpg/sg12_128_cif.got.tgz:255317.got - 2010.06.03 13:09:07.
