data_PCOD9217201
_publ_section_title
;
Structure prediction by ZEFSAII (Michael W. Deem and Ramdas Pophale) SiO2 
 PCOD9217201
Probable space group: C 2/M
;
_chemical_formula_sum "Si O2"
_cell_formula_units_Z 56
_cell_length_a 15.595466
_cell_length_b 8.596823
_cell_length_c 22.160165
_cell_angle_alpha 90.000000
_cell_angle_beta 102.415905
_cell_angle_gamma 90.000000
_cell_volume 2901.560752
_symmetry_space_group_name_H-M "C 2/M"
_symmetry_group_IT_number 12
_symmetry_cell_setting 'monoclinic'
loop_
_space_group_symop_operation_xyz
x,y,z
-x,y,-z
-x,-y,-z
x,-y,z
1/2+x,1/2+y,z
1/2-x,1/2+y,-z
1/2-x,1/2-y,-z
1/2+x,1/2-y,z
loop_
_atom_site_type_symbol
_atom_site_label
_atom_site_fract_x
_atom_site_fract_y
_atom_site_fract_z
Si Si1 0.675309 0.813525 0.154227
Si Si2 0.367081 0.187269 0.383690
Si Si3 0.492499 0.810692 0.068613
Si Si4 0.811725 0.814438 0.710217
Si Si5 0.651142 0.685072 0.489062
Si Si6 0.703024 0.813002 0.932676
Si Si7 0.950951 0.685153 0.641463
O O1 0.578284 0.760221 0.118092
O O2 0.692148 0.759776 0.224596
O O3 0.745556 0.746748 0.117823
O O4 0.677651 0.000000 0.151176
O O5 0.272966 0.233409 0.342403
O O6 0.382879 0.269334 0.449914
O O7 0.446322 0.223503 0.350080
O O8 0.366727 0.000000 0.393544
O O9 0.398836 0.762064 0.081062
O O10 0.492935 0.000000 0.068472
O O11 0.500000 0.760524 0.000000
O O12 0.898988 0.764940 0.687836
O O13 0.808561 0.000000 0.715381
O O14 0.651517 0.500000 0.480915
O O15 0.750000 0.750000 0.500000
O O16 0.594893 0.762403 0.427656
O O17 0.705434 0.000000 0.934519
O O18 0.750000 0.750000 0.000000
O O19 0.942385 0.500000 0.646842
#
# Coordination Sequence:
#
# PCOD9217201 Si02
#       7
#     8   8   8   8   8   8   8
#     4  11  23  41  63  88 121 160 204 249 299 361
#     4  10  23  42  64  89 124 165 206 252 310 371
#     4   9  18  36  61  87 118 158 194 233 295 365
#     4  11  24  43  63  87 123 165 206 252 304 363
#     4  12  23  37  62  94 126 161 204 257 313 363
#     4  11  21  37  62  91 121 154 196 243 298 360
#     4  11  23  41  65  92 122 162 208 254 307 368
#
# _framework density 19.299958
#
# number of rings (size 3 to 8) (size 9 to 14) (size 15 to 20)
#    0.000    1.286    2.857    3.429    0.000    4.571 
#    0.000    9.286    0.000    0.000    0.000    0.000 
#    0.000    0.000    0.000    0.000    0.000    0.000 
#
# Total GULP energy -156551.759573 kJ/mol
# GULP energy per Si atom -5591.134270 kJ/mol
# Density = 1.925603 g / cm^3
# Si number density = 19.299958 Si / 1000 Ang^3
#
#
#
# Elastic Constant Matrix: (Units=GPa)
#
#
# Indices 1 2 3 4 5 6 
#
# 1 110.3663 21.5177 25.3597 0.0000 -29.6650 0.0000
# 2 21.5177 39.4677 13.3716 0.0000 -6.6854 0.0000
# 3 25.3597 13.3716 98.2086 0.0000 -22.6588 0.0000
# 4 0.0000 0.0000 0.0000 36.7572 0.0000 -5.3658
# 5 -29.6650 -6.6854 -22.6588 0.0000 26.9232 0.0000
# 6 0.0000 0.0000 0.0000 -5.3658 0.0000 29.8636
#
#
#
# Elastic Compliance Matrix: (Units=1/GPa)
#
#
# Indices 1 2 3 4 5 6 
#
# 1 0.013831 -0.005268 0.000447 0.000000 0.014307 0.000000
# 2 -0.005268 0.028998 -0.002812 0.000000 -0.000971 0.000000
# 3 0.000447 -0.002812 0.012909 0.000000 0.010659 0.000000
# 4 0.000000 0.000000 0.000000 0.027938 0.000000 0.005020
# 5 0.014307 -0.000971 0.010659 0.000000 0.061636 0.000000
# 6 0.000000 0.000000 0.000000 0.005020 0.000000 0.034388
#
#
# Mechanical properties :
#
#
# Convention : Reuss Voigt Hill
#
# Bulk Modulus (GPa) = 24.70911 40.94896 32.82904
# Shear Modulus (GPa) = 23.98583 31.22836 27.60709
#
# Velocity S-wave (km/s) = 3.52915 4.02687 3.78620
# Velocity P-wave (km/s) = 5.42559 6.54859 6.01336
#
# Compressibility (1/GPa) = 0.04047090
#
# Stress axis : x y z
#
# Youngs Moduli (GPa) = 72.30241 34.48553 77.46527
#
# Poissons Ratio (x) = 0.18168 -0.03462
# Poissons Ratio (y) = 0.38092 0.21781
# Poissons Ratio (z) = -0.03231 0.09696
#
# Static dielectric constant tensor:
#      x y z
#    x 1.673390 0.000000 0.004910 
#    y 0.000000 1.656230 0.000000 
#    z 0.004910 0.000000 1.626680 
# 
# From -- ./inp_files/308960.got.cif
#   From: 2010.05.17/outbox.cif.g08.bks.cpg/sg12_155_cif.got.tgz:308960.got - 2010.06.03 13:09:07.
