data_PCOD9217804
_publ_section_title
;
Structure prediction by ZEFSAII (Michael W. Deem and Ramdas Pophale) SiO2 
 PCOD9217804
Probable space group: C 2/M
;
_chemical_formula_sum "Si O2"
_cell_formula_units_Z 44
_cell_length_a 26.965423
_cell_length_b 9.431258
_cell_length_c 24.335560
_cell_angle_alpha 90.000000
_cell_angle_beta 19.751725
_cell_angle_gamma 90.000000
_cell_volume 2091.530980
_symmetry_space_group_name_H-M "C 2/M"
_symmetry_group_IT_number 12
_symmetry_cell_setting 'monoclinic'
loop_
_space_group_symop_operation_xyz
x,y,z
-x,y,-z
-x,-y,-z
x,-y,z
1/2+x,1/2+y,z
1/2-x,1/2+y,-z
1/2-x,1/2-y,-z
1/2+x,1/2-y,z
loop_
_atom_site_type_symbol
_atom_site_label
_atom_site_fract_x
_atom_site_fract_y
_atom_site_fract_z
Si Si1 0.665525 0.837559 0.846205
Si Si2 0.667926 0.160521 0.237802
Si Si3 0.885083 0.789289 0.914432
Si Si4 0.375662 0.335096 0.521041
Si Si5 0.715133 0.666015 0.592023
Si Si6 0.245952 0.000000 0.029445
O O1 0.724623 0.728915 0.829428
O O2 0.771006 0.832142 0.683419
O O3 0.670039 0.000000 0.863515
O O4 0.500000 0.807945 0.000000
O O5 0.528989 0.262721 0.376686
O O6 0.624386 0.000000 0.297704
O O7 0.754519 0.157997 0.090072
O O8 0.859367 0.624839 0.930977
O O9 0.039665 0.821726 0.781423
O O10 0.866362 0.876420 0.877791
O O11 0.397989 0.500000 0.481930
O O12 0.300049 0.244621 0.552181
O O13 0.756083 0.500000 0.546437
O O14 0.750000 0.750000 0.500000
#
# Coordination Sequence:
#
# PCOD9217804 Si02
#       6
#     8   8   8   8   8   4
#     4  10  23  45  71  97 130 171 217 269 329 392
#     4  12  25  42  69  99 132 171 219 271 330 389
#     4  11  25  43  66  96 129 172 219 269 324 390
#     4  11  26  44  66  98 133 172 221 271 325 388
#     4  12  27  44  66  96 136 175 220 269 325 386
#     4  10  24  42  70  90 132 170 224 264 324 382
#
# _framework density 21.037222
#
# number of rings (size 3 to 8) (size 9 to 14) (size 15 to 20)
#    0.000    0.909    1.818    3.273   10.182    4.000 
#    0.000    0.000    0.000    0.000    0.000    0.000 
#    0.000    0.000    0.000    0.000    0.000    0.000 
#
# Total GULP energy -122623.040878 kJ/mol
# GULP energy per Si atom -5573.774585 kJ/mol
# Density = 2.098934 g / cm^3
# Si number density = 21.037222 Si / 1000 Ang^3
#
#
#
# Elastic Constant Matrix: (Units=GPa)
#
#
# Indices 1 2 3 4 5 6 
#
# 1 62.3679 55.9011 8.5549 -0.0003 -18.1380 0.0001
# 2 55.9011 228.1290 29.9733 -0.0008 -21.4089 0.0004
# 3 8.5549 29.9733 102.6506 -0.0011 -19.3761 0.0008
# 4 -0.0003 -0.0008 -0.0011 17.0791 0.0007 -19.9922
# 5 -18.1380 -21.4089 -19.3761 0.0007 28.1048 -0.0003
# 6 0.0001 0.0004 0.0008 -19.9922 -0.0003 3.2389
#
#
#
# Elastic Compliance Matrix: (Units=1/GPa)
#
#
# Indices 1 2 3 4 5 6 
#
# 1 0.023952 -0.004895 0.001894 0.000000 0.013035 0.000000
# 2 -0.004895 0.005780 -0.001201 0.000000 0.000416 0.000000
# 3 0.001894 -0.001201 0.011488 0.000000 0.008227 0.000000
# 4 0.000000 0.000000 0.000000 -0.009405 0.000000 -0.058054
# 5 0.013035 0.000416 0.008227 0.000000 0.049982 0.000001
# 6 0.000000 0.000000 0.000000 -0.058054 0.000001 -0.049595
#
#
# Mechanical properties :
#
#
# Convention : Reuss Voigt Hill
#
# Bulk Modulus (GPa) = 30.47437 64.66734 47.57085
# Shear Modulus (GPa) = 97.00447 29.59913 63.30180
#
# Velocity S-wave (km/s) = 6.79787 3.75505 5.49142
# Velocity P-wave (km/s) = 8.72537 7.04321 7.92902
#
# Compressibility (1/GPa) = 0.03281446
#
# Stress axis : x y z
#
# Youngs Moduli (GPa) = 41.74969 173.01771 87.05032
#
# Poissons Ratio (x) = 0.84689 -0.16483
# Poissons Ratio (y) = 0.20436 0.10457
# Poissons Ratio (z) = -0.07905 0.20784
#
# Static dielectric constant tensor:
#      x y z
#    x 1.755410 0.000000 0.029270 
#    y 0.000000 1.743680 0.000000 
#    z 0.029270 0.000000 1.773030 
# 
# From -- ./inp_files/370528.got.cif
#   From: 2010.05.17/outbox.cif.g08.bks.cpg/sg12_186_cif.got.tgz:370528.got - 2010.06.03 13:09:07.
