data_PCOD9217363
_publ_section_title
;
Structure prediction by ZEFSAII (Michael W. Deem and Ramdas Pophale) SiO2 
 PCOD9217363
Probable space group: C 2/M
;
_chemical_formula_sum "Si O2"
_cell_formula_units_Z 40
_cell_length_a 18.440279
_cell_length_b 16.292137
_cell_length_c 5.056804
_cell_angle_alpha 90.000000
_cell_angle_beta 93.632786
_cell_angle_gamma 90.000000
_cell_volume 1516.170798
_symmetry_space_group_name_H-M "C 2/M"
_symmetry_group_IT_number 12
_symmetry_cell_setting 'monoclinic'
loop_
_space_group_symop_operation_xyz
x,y,z
-x,y,-z
-x,-y,-z
x,-y,z
1/2+x,1/2+y,z
1/2-x,1/2+y,-z
1/2-x,1/2-y,-z
1/2+x,1/2-y,z
loop_
_atom_site_type_symbol
_atom_site_label
_atom_site_fract_x
_atom_site_fract_y
_atom_site_fract_z
Si Si1 0.552632 0.412066 0.265358
Si Si2 0.085359 0.251512 0.065087
Si Si3 0.709570 0.321221 0.826307
Si Si4 0.082488 0.404962 0.418113
Si Si5 0.233915 0.407618 0.674538
O O1 0.500000 0.408863 0.500000
O O2 0.592458 0.500000 0.284450
O O3 0.595576 0.327851 0.255703
O O4 0.500000 0.414164 0.000000
O O5 0.128700 0.216817 0.822581
O O6 0.105173 0.336883 0.207990
O O7 0.000000 0.259581 0.000000
O O8 0.728117 0.395245 0.033132
O O9 0.750000 0.250000 0.000000
O O10 0.737153 0.345999 0.545472
O O11 0.082260 0.500000 0.320882
O O12 0.145668 0.399062 0.654322
O O13 0.000000 0.387990 0.500000
O O14 0.246562 0.500000 0.582240
#
# Coordination Sequence:
#
# PCOD9217363 Si02
#       5
#     8   8   8   8   8
#     4   9  19  37  59  89 128 170 220 279 339 406
#     4  11  25  42  70 105 145 191 243 300 371 439
#     4  12  26  47  74 105 148 195 246 310 367 446
#     4  10  23  42  70 108 149 193 248 307 370 444
#     4  11  26  49  76 108 148 198 249 306 379 450
#
# _framework density 26.382252000000001
#
# number of rings (size 3 to 8) (size 9 to 14) (size 15 to 20)
#    0.000    1.400    2.000    1.800    2.800    5.200 
#    0.000    4.000    0.000    0.000    0.000    0.000 
#    0.000    0.000    0.000    0.000    0.000    0.000 
#
# Total GULP energy -111827.889292 kJ/mol
# GULP energy per Si atom -5591.394465 kJ/mol
# Density = 2.632220 g / cm^3
# Si number density = 26.382252 Si / 1000 Ang^3
#
#
#
# Elastic Constant Matrix: (Units=GPa)
#
#
# Indices 1 2 3 4 5 6 
#
# 1 153.0380 -4.4080 27.9993 0.0000 15.0849 0.0000
# 2 -4.4080 192.8817 37.7666 0.0000 -16.9658 0.0000
# 3 27.9993 37.7666 127.2796 0.0000 -7.7753 0.0000
# 4 0.0000 0.0000 0.0000 40.6597 0.0000 -7.4595
# 5 15.0849 -16.9658 -7.7753 0.0000 30.6097 0.0000
# 6 0.0000 0.0000 0.0000 -7.4595 0.0000 16.0348
#
#
#
# Elastic Compliance Matrix: (Units=1/GPa)
#
#
# Indices 1 2 3 4 5 6 
#
# 1 0.007278 0.000190 -0.001899 0.000000 -0.003964 0.000000
# 2 0.000190 0.005734 -0.001579 0.000000 0.002684 0.000000
# 3 -0.001899 -0.001579 0.008885 0.000000 0.002318 0.000000
# 4 0.000000 0.000000 0.000000 0.026889 0.000000 0.012509
# 5 -0.003964 0.002684 0.002318 0.000000 0.036699 0.000000
# 6 0.000000 0.000000 0.000000 0.012509 0.000000 0.068183
#
#
# Mechanical properties :
#
#
# Convention : Reuss Voigt Hill
#
# Bulk Modulus (GPa) = 65.27964 66.21278 65.74621
# Shear Modulus (GPa) = 30.23831 44.91694 37.57762
#
# Velocity S-wave (km/s) = 3.38917 4.13067 3.77815
# Velocity P-wave (km/s) = 6.33347 6.92111 6.63380
#
# Compressibility (1/GPa) = 0.01531871
#
# Stress axis : x y z
#
# Youngs Moduli (GPa) = 137.39954 174.39467 112.55269
#
# Poissons Ratio (x) = -0.03306 0.21379
# Poissons Ratio (y) = -0.02605 0.17774
# Poissons Ratio (z) = 0.26098 0.27540
#
# Static dielectric constant tensor:
#      x y z
#    x 2.199610 0.000000 0.009360 
#    y 0.000000 2.181460 0.000000 
#    z 0.009360 0.000000 2.012660 
# 
# From -- ./inp_files/15229.got.cif
#   From: 2010.05.17/outbox.cif.g08.bks.cpg/sg12_8_cif.got.tgz:15229.got - 2010.06.03 13:09:07.
