data_PCOD9217078
_publ_section_title
;
Structure prediction by ZEFSAII (Michael W. Deem and Ramdas Pophale) SiO2 
 PCOD9217078
Probable space group: C 2/M
;
_chemical_formula_sum "Si O2"
_cell_formula_units_Z 56
_cell_length_a 22.896389
_cell_length_b 19.744258
_cell_length_c 16.996241
_cell_angle_alpha 90.000000
_cell_angle_beta 20.275265
_cell_angle_gamma 90.000000
_cell_volume 2662.578625
_symmetry_space_group_name_H-M "C 2/M"
_symmetry_group_IT_number 12
_symmetry_cell_setting 'monoclinic'
loop_
_space_group_symop_operation_xyz
x,y,z
-x,y,-z
-x,-y,-z
x,-y,z
1/2+x,1/2+y,z
1/2-x,1/2+y,-z
1/2-x,1/2-y,-z
1/2+x,1/2-y,z
loop_
_atom_site_type_symbol
_atom_site_label
_atom_site_fract_x
_atom_site_fract_y
_atom_site_fract_z
Si Si1 0.956382 0.186419 0.900309
Si Si2 0.879711 0.666042 0.580982
Si Si3 0.614519 0.427125 0.277834
Si Si4 0.105732 0.299670 0.797463
Si Si5 0.992266 0.203543 0.343149
Si Si6 0.996686 0.573638 0.851281
Si Si7 0.717122 0.580122 0.643356
O O1 0.084672 0.247634 0.754058
O O2 0.923958 0.194984 0.848452
O O3 0.056823 0.120917 0.808884
O O4 0.781178 0.194760 0.167856
O O5 0.979954 0.724566 0.404920
O O6 0.796602 0.615120 0.621326
O O7 0.000000 0.638547 0.500000
O O8 0.500000 0.429030 0.500000
O O9 0.582437 0.500000 0.275770
O O10 0.571488 0.356991 0.291894
O O11 0.811076 0.425626 0.050101
O O12 0.295798 0.313072 0.578136
O O13 0.012717 0.367949 0.893533
O O14 0.000000 0.265353 0.000000
O O15 0.028100 0.500000 0.847203
O O16 0.136193 0.584867 0.607757
O O17 0.680180 0.500000 0.702973
#
# Coordination Sequence:
#
# PCOD9217078 Si02
#       7
#     8   8   8   8   8   8   8
#     4  12  25  45  69 100 132 174 224 277 340 400
#     4  12  28  45  67 104 135 174 230 275 333 407
#     4  10  23  43  64  96 141 183 221 268 333 401
#     4  12  21  39  66  94 133 170 219 277 329 391
#     4  12  24  41  69  99 136 176 219 278 332 394
#     4  10  23  41  66  98 133 177 225 271 332 400
#     4  11  24  48  73  95 133 177 222 284 342 392
#
# _framework density 21.032242
#
# number of rings (size 3 to 8) (size 9 to 14) (size 15 to 20)
#    0.000    0.714    4.286    3.000    4.000    3.429 
#    0.000    0.000    0.000    0.000    0.000    0.000 
#    0.000    0.000    0.000    0.000    0.000    0.000 
#
# Total GULP energy -156238.623013 kJ/mol
# GULP energy per Si atom -5579.950822 kJ/mol
# Density = 2.098437 g / cm^3
# Si number density = 21.032242 Si / 1000 Ang^3
#
#
#
# Elastic Constant Matrix: (Units=GPa)
#
#
# Indices 1 2 3 4 5 6 
#
# 1 77.7310 35.0784 6.4628 0.0010 14.8680 -0.0075
# 2 35.0784 98.2175 -3.5510 -0.0004 6.4579 -0.0071
# 3 6.4628 -3.5510 68.4047 0.0029 0.3932 -0.0003
# 4 0.0010 -0.0004 0.0029 29.8747 0.0048 -10.0795
# 5 14.8680 6.4579 0.3932 0.0048 27.5023 -0.0129
# 6 -0.0075 -0.0071 -0.0003 -10.0795 -0.0129 35.5900
#
#
#
# Elastic Compliance Matrix: (Units=1/GPa)
#
#
# Indices 1 2 3 4 5 6 
#
# 1 0.017075 -0.005648 -0.001861 0.000001 -0.007878 0.000000
# 2 -0.005648 0.012230 0.001168 0.000001 0.000165 0.000002
# 3 -0.001861 0.001168 0.014852 -0.000002 0.000520 0.000000
# 4 0.000001 0.000001 -0.000002 0.037009 -0.000002 0.010482
# 5 -0.007878 0.000165 0.000520 -0.000002 0.040574 0.000013
# 6 0.000000 0.000002 0.000000 0.010482 0.000013 0.031066
#
#
# Mechanical properties :
#
#
# Convention : Reuss Voigt Hill
#
# Bulk Modulus (GPa) = 31.77141 35.59262 33.68202
# Shear Modulus (GPa) = 28.41214 32.35094 30.38154
#
# Velocity S-wave (km/s) = 3.67943 3.92619 3.80481
# Velocity P-wave (km/s) = 5.76105 6.12478 5.94570
#
# Compressibility (1/GPa) = 0.03147483
#
# Stress axis : x y z
#
# Youngs Moduli (GPa) = 58.56434 81.76654 67.32945
#
# Poissons Ratio (x) = 0.46179 0.12531
# Poissons Ratio (y) = 0.33075 -0.07861
# Poissons Ratio (z) = 0.10900 -0.09546
#
# Static dielectric constant tensor:
#      x y z
#    x 1.790080 -0.000010 0.023160 
#    y -0.000010 1.754510 0.000000 
#    z 0.023160 0.000000 1.738590 
# 
# From -- ./inp_files/290791.got.cif
#   From: 2010.05.17/outbox.cif.g08.bks.cpg/sg12_146_cif.got.tgz:290791.got - 2010.06.03 13:09:07.
