data_PCOD9217615
_publ_section_title
;
Structure prediction by ZEFSAII (Michael W. Deem and Ramdas Pophale) SiO2 
 PCOD9217615
Probable space group: C 2/M
;
_chemical_formula_sum "Si O2"
_cell_formula_units_Z 56
_cell_length_a 29.716202
_cell_length_b 9.469294
_cell_length_c 11.290486
_cell_angle_alpha 90.000000
_cell_angle_beta 112.330240
_cell_angle_gamma 90.000000
_cell_volume 2938.797396
_symmetry_space_group_name_H-M "C 2/M"
_symmetry_group_IT_number 12
_symmetry_cell_setting 'monoclinic'
loop_
_space_group_symop_operation_xyz
x,y,z
-x,y,-z
-x,-y,-z
x,-y,z
1/2+x,1/2+y,z
1/2-x,1/2+y,-z
1/2-x,1/2-y,-z
1/2+x,1/2-y,z
loop_
_atom_site_type_symbol
_atom_site_label
_atom_site_fract_x
_atom_site_fract_y
_atom_site_fract_z
Si Si1 0.945008 0.339035 0.803681
Si Si2 0.273537 0.332046 0.135633
Si Si3 0.942188 0.338567 0.442187
Si Si4 0.612844 0.334367 0.416459
Si Si5 0.726463 0.667954 0.588559
Si Si6 0.612844 0.665633 0.809231
Si Si7 0.554992 0.160965 0.913666
O O1 0.936805 0.500000 0.751516
O O2 0.902412 0.234269 0.722701
O O3 0.000000 0.296246 0.820160
O O4 0.946091 0.344917 0.946091
O O5 0.262199 0.500000 0.115256
O O6 0.261709 0.288980 0.261709
O O7 0.331591 0.315816 0.174933
O O8 0.250000 0.250000 0.000000
O O9 0.924808 0.500000 0.424807
O O10 0.921478 0.253989 0.531878
O O11 0.921479 0.253988 0.311077
O O12 0.000000 0.339101 0.500000
O O13 0.602071 0.500000 0.409476
O O14 0.668409 0.315816 0.511750
O O15 0.737801 0.500000 0.590857
O O16 0.750000 0.750000 0.500000
O O17 0.602072 0.500000 0.794669
O O18 0.597589 0.734269 0.917880
O O19 0.563196 0.000000 0.877908
#
# Coordination Sequence:
#
# PCOD9217615 Si02
#       7
#     8   8   8   8   8   8   8
#     4   9  19  36  56  81 118 161 203 246 292 353
#     4  10  23  44  65  89 123 159 203 260 317 377
#     4  11  23  37  57  87 121 157 199 241 288 357
#     4  11  22  38  59  85 120 154 192 248 306 360
#     4  10  23  44  65  89 123 159 203 260 317 377
#     4  11  22  38  59  85 120 154 192 248 306 360
#     4   9  19  36  56  81 118 161 203 246 292 353
#
# _framework density 19.055413000000001
#
# number of rings (size 3 to 8) (size 9 to 14) (size 15 to 20)
#    0.000    1.857    1.429    3.000    0.000    9.714 
#    0.000    7.143    0.000    0.000    0.000    0.000 
#    0.000    0.000    0.000    0.000    0.000    0.000 
#
# Total GULP energy -156107.695522 kJ/mol
# GULP energy per Si atom -5575.274840 kJ/mol
# Density = 1.901204 g / cm^3
# Si number density = 19.055413 Si / 1000 Ang^3
#
#
#
# Elastic Constant Matrix: (Units=GPa)
#
#
# Indices 1 2 3 4 5 6 
#
# 1 57.5652 57.4539 43.4229 0.0000 -9.5415 0.0000
# 2 57.4539 104.6007 57.9044 0.0000 -0.2140 0.0000
# 3 43.4229 57.9044 105.2900 0.0000 -13.0803 0.0000
# 4 0.0000 0.0000 0.0000 17.7085 0.0000 6.1290
# 5 -9.5415 -0.2140 -13.0803 0.0000 18.8132 0.0000
# 6 0.0000 0.0000 0.0000 6.1290 0.0000 30.6407
#
#
#
# Elastic Compliance Matrix: (Units=1/GPa)
#
#
# Indices 1 2 3 4 5 6 
#
# 1 0.047896 -0.024151 -0.003817 0.000000 0.021363 0.000000
# 2 -0.024151 0.026480 -0.006662 0.000000 -0.016579 0.000000
# 3 -0.003817 -0.006662 0.015855 0.000000 0.009012 0.000000
# 4 0.000000 0.000000 0.000000 0.060670 0.000000 -0.012136
# 5 0.021363 -0.016579 0.009012 0.000000 0.070066 0.000000
# 6 0.000000 0.000000 0.000000 -0.012136 0.000000 0.035064
#
#
# Mechanical properties :
#
#
# Convention : Reuss Voigt Hill
#
# Bulk Modulus (GPa) = 47.68583 65.00204 56.34394
# Shear Modulus (GPa) = 15.04745 20.67747 17.86246
#
# Velocity S-wave (km/s) = 2.81315 3.29769 3.06501
# Velocity P-wave (km/s) = 5.96916 6.97753 6.49295
#
# Compressibility (1/GPa) = 0.02097059
#
# Stress axis : x y z
#
# Youngs Moduli (GPa) = 20.87837 37.76481 63.07110
#
# Poissons Ratio (x) = 0.91207 0.24075
# Poissons Ratio (y) = 0.50424 0.42018
# Poissons Ratio (z) = 0.07970 0.25159
#
# Static dielectric constant tensor:
#      x y z
#    x 1.664750 0.000000 -0.048440 
#    y 0.000000 1.637910 0.000000 
#    z -0.048440 0.000000 1.766940 
# 
# From -- ./inp_files/186830.got.cif
#   From: 2010.05.17/outbox.cif.g08.bks.cpg/sg12_94_cif.got.tgz:186830.got - 2010.06.03 13:09:07.
