data_PCOD9217629
_publ_section_title
;
Structure prediction by ZEFSAII (Michael W. Deem and Ramdas Pophale) SiO2 
 PCOD9217629
Probable space group: C 2/M
;
_chemical_formula_sum "Si O2"
_cell_formula_units_Z 56
_cell_length_a 24.996294
_cell_length_b 13.840996
_cell_length_c 11.564076
_cell_angle_alpha 90.000000
_cell_angle_beta 39.945286
_cell_angle_gamma 90.000000
_cell_volume 2568.778583
_symmetry_space_group_name_H-M "C 2/M"
_symmetry_group_IT_number 12
_symmetry_cell_setting 'monoclinic'
loop_
_space_group_symop_operation_xyz
x,y,z
-x,y,-z
-x,-y,-z
x,-y,z
1/2+x,1/2+y,z
1/2-x,1/2+y,-z
1/2-x,1/2-y,-z
1/2+x,1/2-y,z
loop_
_atom_site_type_symbol
_atom_site_label
_atom_site_fract_x
_atom_site_fract_y
_atom_site_fract_z
Si Si1 0.385763 0.613855 0.506971
Si Si2 0.815078 0.882699 0.385540
Si Si3 0.951445 0.222500 0.725083
Si Si4 0.809983 0.262445 0.790364
Si Si5 0.679928 0.616077 0.888353
Si Si6 0.512434 0.885048 0.166865
Si Si7 0.864683 0.615876 0.231854
O O1 0.372407 0.500000 0.539498
O O2 0.379136 0.641452 0.382060
O O3 0.475254 0.644356 0.407561
O O4 0.315767 0.671174 0.694793
O O5 0.833243 0.853982 0.223846
O O6 0.724698 0.848343 0.579690
O O7 0.812449 0.000000 0.385274
O O8 0.900503 0.262959 0.700026
O O9 0.991304 0.315942 0.718784
O O10 0.885574 0.169492 0.919879
O O11 0.771552 0.349850 0.779894
O O12 0.750000 0.250000 0.000000
O O13 0.671819 0.500000 0.911106
O O14 0.434376 0.865119 0.212829
O O15 0.513942 0.000000 0.188596
O O16 0.595577 0.857498 0.956711
O O17 0.857490 0.500000 0.237528
#
# Coordination Sequence:
#
# PCOD9217629 Si02
#       7
#     8   8   8   8   8   8   8
#     4  11  25  45  70  97 131 175 215 271 331 388
#     4   9  20  37  64  97 127 167 220 267 330 405
#     4  11  24  42  64  99 134 173 230 264 311 408
#     4  10  25  44  63  94 125 165 229 268 306 389
#     4  10  23  44  66  94 137 175 211 278 337 379
#     4   9  19  35  58  89 130 174 214 270 325 373
#     4   8  16  33  55  88 129 171 220 261 318 396
#
# _framework density 21.800243999999999
#
# number of rings (size 3 to 8) (size 9 to 14) (size 15 to 20)
#    0.000    2.286    0.000    1.714    6.000    7.429 
#    0.000    2.143    0.000    1.714    0.000    0.000 
#    0.000    0.000    0.000    0.000    0.000    0.000 
#
# Total GULP energy -156327.814390 kJ/mol
# GULP energy per Si atom -5583.136228 kJ/mol
# Density = 2.175063 g / cm^3
# Si number density = 21.800244 Si / 1000 Ang^3
#
#
#
# Elastic Constant Matrix: (Units=GPa)
#
#
# Indices 1 2 3 4 5 6 
#
# 1 82.3571 12.9017 18.2877 0.0000 11.6882 0.0000
# 2 12.9017 103.1145 13.9348 0.0000 9.2069 0.0000
# 3 18.2877 13.9348 55.4120 0.0000 2.7770 0.0000
# 4 0.0000 0.0000 0.0000 -50.1843 0.0000 3.2079
# 5 11.6882 9.2069 2.7770 0.0000 34.9022 0.0000
# 6 0.0000 0.0000 0.0000 3.2079 0.0000 33.9265
#
#
#
# Elastic Compliance Matrix: (Units=1/GPa)
#
#
# Indices 1 2 3 4 5 6 
#
# 1 0.013764 -0.000800 -0.004137 0.000000 -0.004069 0.000000
# 2 -0.000800 0.010300 -0.002212 0.000000 -0.002273 0.000000
# 3 -0.004137 -0.002212 0.019949 0.000000 0.000382 0.000000
# 4 0.000000 0.000000 0.000000 -0.019807 0.000000 0.001873
# 5 -0.004069 -0.002273 0.000382 0.000000 0.030583 0.000000
# 6 0.000000 0.000000 0.000000 0.001873 0.000000 0.029298
#
#
# Mechanical properties :
#
#
# Convention : Reuss Voigt Hill
#
# Bulk Modulus (GPa) = 33.65408 36.79246 35.22327
# Shear Modulus (GPa) = 46.17157 16.77949 31.47553
#
# Velocity S-wave (km/s) = 4.60710 2.77734 3.80388
# Velocity P-wave (km/s) = 6.61600 5.21523 5.95693
#
# Compressibility (1/GPa) = 0.02971408
#
# Stress axis : x y z
#
# Youngs Moduli (GPa) = 72.65459 97.08776 50.12695
#
# Poissons Ratio (x) = 0.07764 0.20740
# Poissons Ratio (y) = 0.05810 0.11090
# Poissons Ratio (z) = 0.30061 0.21479
#
# Static dielectric constant tensor:
#      x y z
#    x 1.813220 0.000000 0.001500 
#    y 0.000000 1.762900 0.000000 
#    z 0.001500 0.000000 1.842580 
# 
# From -- ./inp_files/183451.got.cif
#   From: 2010.05.17/outbox.cif.g08.bks.cpg/sg12_92_cif.got.tgz:183451.got - 2010.06.03 13:09:07.
