data_PCOD9217129
_publ_section_title
;
Structure prediction by ZEFSAII (Michael W. Deem and Ramdas Pophale) SiO2 
 PCOD9217129
Probable space group: C 2/M
;
_chemical_formula_sum "Si O2"
_cell_formula_units_Z 56
_cell_length_a 11.974907
_cell_length_b 31.575458
_cell_length_c 14.407164
_cell_angle_alpha 90.000000
_cell_angle_beta 32.166299
_cell_angle_gamma 90.000000
_cell_volume 2900.152147
_symmetry_space_group_name_H-M "C 2/M"
_symmetry_group_IT_number 12
_symmetry_cell_setting 'monoclinic'
loop_
_space_group_symop_operation_xyz
x,y,z
-x,y,-z
-x,-y,-z
x,-y,z
1/2+x,1/2+y,z
1/2-x,1/2+y,-z
1/2-x,1/2-y,-z
1/2+x,1/2-y,z
loop_
_atom_site_type_symbol
_atom_site_label
_atom_site_fract_x
_atom_site_fract_y
_atom_site_fract_z
Si Si1 0.516079 0.762808 0.690599
Si Si2 0.015697 0.601377 0.283367
Si Si3 0.832916 0.172655 0.798670
Si Si4 0.394269 0.451657 0.972629
Si Si5 0.583369 0.834672 0.794522
Si Si6 0.156056 0.883188 0.672702
Si Si7 0.773626 0.826711 0.198740
O O1 0.750000 0.750000 0.500000
O O2 0.391006 0.719500 0.793009
O O3 0.539195 0.793823 0.761875
O O4 0.393487 0.789478 0.698030
O O5 0.890735 0.624643 0.289160
O O6 0.861069 0.597244 0.479666
O O7 0.150984 0.561614 0.155667
O O8 0.192831 0.635347 0.189807
O O9 0.769939 0.173429 0.735226
O O10 0.020460 0.141326 0.691322
O O11 0.628391 0.157892 0.998296
O O12 0.414194 0.500000 0.926178
O O13 0.500000 0.448707 0.000000
O O14 0.516488 0.418791 0.820972
O O15 0.212328 0.847368 0.709771
O O16 0.000000 0.812906 0.000000
#
# Coordination Sequence:
#
# PCOD9217129 Si02
#       7
#     8   8   8   8   8   8   8
#     4  11  25  39  57  89 126 165 217 283 316 368
#     4  11  21  40  64  92 127 167 211 257 316 388
#     4  11  23  40  64  85 123 169 220 271 315 377
#     4  11  23  42  66 100 138 162 200 264 322 394
#     4  10  23  42  60  87 119 170 220 263 326 371
#     4  12  22  39  68  95 126 175 212 258 324 384
#     4  11  21  39  63  87 124 170 217 260 319 380
#
# _framework density 19.309332000000001
#
# number of rings (size 3 to 8) (size 9 to 14) (size 15 to 20)
#    0.000    1.000    4.286    3.429    4.000    2.857 
#    2.571    1.429    0.000    1.714    0.000    2.000 
#    0.000    0.000    0.000    0.000    0.000    0.000 
#
# Total GULP energy -156503.345862 kJ/mol
# GULP energy per Si atom -5589.405209 kJ/mol
# Density = 1.926538 g / cm^3
# Si number density = 19.309332 Si / 1000 Ang^3
#
#
#
# Elastic Constant Matrix: (Units=GPa)
#
#
# Indices 1 2 3 4 5 6 
#
# 1 111.4917 40.7246 33.9806 0.0000 -1.7515 0.0000
# 2 40.7246 97.8574 41.0181 0.0000 -5.9683 0.0000
# 3 33.9806 41.0181 119.3252 0.0000 2.7120 0.0000
# 4 0.0000 0.0000 0.0000 10.3178 0.0000 -5.7232
# 5 -1.7515 -5.9683 2.7120 0.0000 21.6426 0.0000
# 6 0.0000 0.0000 0.0000 -5.7232 0.0000 18.8976
#
#
#
# Elastic Compliance Matrix: (Units=1/GPa)
#
#
# Indices 1 2 3 4 5 6 
#
# 1 0.010900 -0.003774 -0.001808 0.000000 0.000068 0.000000
# 2 -0.003774 0.013569 -0.003678 0.000000 0.003897 0.000000
# 3 -0.001808 -0.003678 0.010215 0.000000 -0.002441 0.000000
# 4 0.000000 0.000000 0.000000 0.116489 0.000000 0.035279
# 5 0.000068 0.003897 -0.002441 0.000000 0.047591 0.000000
# 6 0.000000 0.000000 0.000000 0.035279 0.000000 0.063601
#
#
# Mechanical properties :
#
#
# Convention : Reuss Voigt Hill
#
# Bulk Modulus (GPa) = 61.86857 62.23564 62.05211
# Shear Modulus (GPa) = 17.46577 24.36834 20.91705
#
# Velocity S-wave (km/s) = 3.01079 3.55632 3.29486
# Velocity P-wave (km/s) = 6.64807 7.01170 6.83231
#
# Compressibility (1/GPa) = 0.01616329
#
# Stress axis : x y z
#
# Youngs Moduli (GPa) = 91.74290 73.69720 97.89294
#
# Poissons Ratio (x) = 0.27814 0.17701
# Poissons Ratio (y) = 0.34625 0.36007
# Poissons Ratio (z) = 0.16589 0.27107
#
# Static dielectric constant tensor:
#      x y z
#    x 1.699770 0.000000 0.000630 
#    y 0.000000 1.663250 0.000000 
#    z 0.000630 0.000000 1.722240 
# 
# From -- ./inp_files/210004.got.cif
#   From: 2010.05.17/outbox.cif.g08.bks.cpg/sg12_106_cif.got.tgz:210004.got - 2010.06.03 13:09:07.
