data_PCOD9217653
_publ_section_title
;
Structure prediction by ZEFSAII (Michael W. Deem and Ramdas Pophale) SiO2 
 PCOD9217653
Probable space group: C 2/M
;
_chemical_formula_sum "Si O2"
_cell_formula_units_Z 40
_cell_length_a 12.135804
_cell_length_b 14.164683
_cell_length_c 10.638366
_cell_angle_alpha 90.000000
_cell_angle_beta 68.453068
_cell_angle_gamma 90.000000
_cell_volume 1700.935893
_symmetry_space_group_name_H-M "C 2/M"
_symmetry_group_IT_number 12
_symmetry_cell_setting 'monoclinic'
loop_
_space_group_symop_operation_xyz
x,y,z
-x,y,-z
-x,-y,-z
x,-y,z
1/2+x,1/2+y,z
1/2-x,1/2+y,-z
1/2-x,1/2-y,-z
1/2+x,1/2-y,z
loop_
_atom_site_type_symbol
_atom_site_label
_atom_site_fract_x
_atom_site_fract_y
_atom_site_fract_z
Si Si1 0.834236 0.840219 0.951214
Si Si2 0.591137 0.390743 0.801791
Si Si3 0.474607 0.111712 0.328945
Si Si4 0.240501 0.396903 0.734045
Si Si5 0.677019 0.198023 0.380902
O O1 0.770396 0.897415 0.867923
O O2 0.970566 0.830817 0.847279
O O3 0.750000 0.750000 0.000000
O O4 0.856469 0.885322 0.078475
O O5 0.564707 0.500000 0.783347
O O6 0.693252 0.347434 0.673446
O O7 0.398975 0.120513 0.233714
O O8 0.602684 0.156710 0.294170
O O9 0.393067 0.162656 0.468071
O O10 0.484929 0.000000 0.352213
O O11 0.268989 0.500000 0.666873
O O12 0.310231 0.309674 0.643248
#
# Coordination Sequence:
#
# PCOD9217653 Si02
#       5
#     8   8   8   8   8
#     4  11  23  43  64  93 131 168 211 267 330 385
#     4  11  23  41  69  96 127 171 221 267 316 389
#     4  10  23  44  67  96 134 174 218 268 321 388
#     4  11  24  42  64  95 134 168 214 277 328 377
#     4  11  22  41  71  94 130 176 223 258 325 391
#
# _framework density 23.516465
#
# number of rings (size 3 to 8) (size 9 to 14) (size 15 to 20)
#    0.000    1.200    2.000    5.400    2.800    0.000 
#    0.000    2.000    0.000    7.200    0.000    0.000 
#    0.000    0.000    0.000    0.000    0.000    0.000 
#
# Total GULP energy -111823.032272 kJ/mol
# GULP energy per Si atom -5591.151614 kJ/mol
# Density = 2.346294 g / cm^3
# Si number density = 23.516465 Si / 1000 Ang^3
#
#
#
# Elastic Constant Matrix: (Units=GPa)
#
#
# Indices 1 2 3 4 5 6 
#
# 1 175.1441 62.2914 38.5728 0.0000 5.3318 0.0000
# 2 62.2914 196.2024 15.2548 0.0000 -19.7228 0.0000
# 3 38.5728 15.2548 35.6223 0.0000 -10.2325 0.0000
# 4 0.0000 0.0000 0.0000 19.2637 0.0000 2.2388
# 5 5.3318 -19.7228 -10.2325 0.0000 58.5052 0.0000
# 6 0.0000 0.0000 0.0000 2.2388 0.0000 32.6563
#
#
#
# Elastic Compliance Matrix: (Units=1/GPa)
#
#
# Indices 1 2 3 4 5 6 
#
# 1 0.008705 -0.002361 -0.009340 0.000000 -0.003223 0.000000
# 2 -0.002361 0.006033 0.000652 0.000000 0.002363 0.000000
# 3 -0.009340 0.000652 0.040236 0.000000 0.008108 0.000000
# 4 0.000000 0.000000 0.000000 0.052328 0.000000 -0.003587
# 5 -0.003223 0.002363 0.008108 0.000000 0.019601 0.000000
# 6 0.000000 0.000000 0.000000 -0.003587 0.000000 0.030868
#
#
# Mechanical properties :
#
#
# Convention : Reuss Voigt Hill
#
# Bulk Modulus (GPa) = 30.41830 71.02299 50.72064
# Shear Modulus (GPa) = 26.20167 41.47503 33.83835
#
# Velocity S-wave (km/s) = 3.34156 4.20415 3.79743
# Velocity P-wave (km/s) = 5.27741 7.33713 6.39079
#
# Compressibility (1/GPa) = 0.03287495
#
# Stress axis : x y z
#
# Youngs Moduli (GPa) = 114.88278 165.74620 24.85349
#
# Poissons Ratio (x) = 0.39138 0.23213
# Poissons Ratio (y) = 0.27128 -0.01621
# Poissons Ratio (z) = 1.07301 -0.10807
#
# Static dielectric constant tensor:
#      x y z
#    x 1.904030 0.000000 0.032580 
#    y 0.000000 1.894780 0.000000 
#    z 0.032580 0.000000 1.912290 
# 
# From -- ./inp_files/129583.got.cif
#   From: 2010.05.17/outbox.cif.g08.bks.cpg/sg12_65_cif.got.tgz:129583.got - 2010.06.03 13:09:07.
