data_PCOD9217199
_publ_section_title
;
Structure prediction by ZEFSAII (Michael W. Deem and Ramdas Pophale) SiO2 
 PCOD9217199
Probable space group: C 2/M
;
_chemical_formula_sum "Si O2"
_cell_formula_units_Z 44
_cell_length_a 9.486795
_cell_length_b 9.519439
_cell_length_c 22.485568
_cell_angle_alpha 90.000000
_cell_angle_beta 94.682875
_cell_angle_gamma 90.000000
_cell_volume 2023.869759
_symmetry_space_group_name_H-M "C 2/M"
_symmetry_group_IT_number 12
_symmetry_cell_setting 'monoclinic'
loop_
_space_group_symop_operation_xyz
x,y,z
-x,y,-z
-x,-y,-z
x,-y,z
1/2+x,1/2+y,z
1/2-x,1/2+y,-z
1/2-x,1/2-y,-z
1/2+x,1/2-y,z
loop_
_atom_site_type_symbol
_atom_site_label
_atom_site_fract_x
_atom_site_fract_y
_atom_site_fract_z
Si Si1 0.648648 0.661144 0.038866
Si Si2 0.387559 0.723992 0.573471
Si Si3 0.168051 0.836688 0.648912
Si Si4 0.328673 0.163602 0.841033
Si Si5 0.702509 0.000000 0.493337
Si Si6 0.468374 0.336760 0.229570
O O1 0.697576 0.500000 0.049639
O O2 0.637312 0.742549 0.100621
O O3 0.500000 0.655721 0.000000
O O4 0.750000 0.750000 0.000000
O O5 0.296182 0.741626 0.631074
O O6 0.544321 0.674305 0.595396
O O7 0.302571 0.619286 0.529020
O O8 0.388038 0.876578 0.544075
O O9 0.098936 0.798591 0.709216
O O10 0.213386 0.000000 0.653651
O O11 0.412216 0.231706 0.788743
O O12 0.161916 0.169096 0.821269
O O13 0.367512 0.000000 0.850618
O O14 0.517212 0.500000 0.234241
#
# Coordination Sequence:
#
# PCOD9217199 Si02
#       6
#     8   8   8   8   4   8
#     4  11  24  41  64  95 131 170 211 257 309 367
#     4  11  23  42  66  90 124 163 201 256 314 374
#     4  11  23  43  64  91 124 161 205 259 312 366
#     4  11  23  41  64  95 127 165 211 260 308 365
#     4  10  24  40  64  96 120 162 206 248 312 382
#     4  10  23  42  64  88 124 166 208 256 312 369
#
# _framework density 21.740531000000001
#
# number of rings (size 3 to 8) (size 9 to 14) (size 15 to 20)
#    0.000    1.273    1.818    3.273    0.000   12.364 
#    3.273    0.000    0.000    0.000    0.000    0.000 
#    0.000    0.000    0.000    0.000    0.000    0.000 
#
# Total GULP energy -122625.537012 kJ/mol
# GULP energy per Si atom -5573.888046 kJ/mol
# Density = 2.169105 g / cm^3
# Si number density = 21.740531 Si / 1000 Ang^3
#
#
#
# Elastic Constant Matrix: (Units=GPa)
#
#
# Indices 1 2 3 4 5 6 
#
# 1 54.2885 15.2057 0.8022 0.0000 -17.8972 0.0000
# 2 15.2057 157.9941 25.9119 0.0000 -20.4647 0.0000
# 3 0.8022 25.9119 77.0589 0.0000 -10.1883 0.0000
# 4 0.0000 0.0000 0.0000 37.5680 0.0000 1.4920
# 5 -17.8972 -20.4647 -10.1883 0.0000 36.8006 0.0000
# 6 0.0000 0.0000 0.0000 1.4920 0.0000 6.9815
#
#
#
# Elastic Compliance Matrix: (Units=1/GPa)
#
#
# Indices 1 2 3 4 5 6 
#
# 1 0.022191 -0.001004 0.001515 0.000000 0.010653 0.000000
# 2 -0.001004 0.007133 -0.002001 0.000000 0.002924 0.000000
# 3 0.001515 -0.002001 0.014101 0.000000 0.003528 0.000000
# 4 0.000000 0.000000 0.000000 0.026846 0.000000 -0.005737
# 5 0.010653 0.002924 0.003528 0.000000 0.034957 0.000000
# 6 0.000000 0.000000 0.000000 -0.005737 0.000000 0.144462
#
#
# Mechanical properties :
#
#
# Convention : Reuss Voigt Hill
#
# Bulk Modulus (GPa) = 24.72586 41.46456 33.09521
# Shear Modulus (GPa) = 18.78622 32.76480 25.77551
#
# Velocity S-wave (km/s) = 2.94276 3.88633 3.44699
# Velocity P-wave (km/s) = 4.79002 6.26514 5.57657
#
# Compressibility (1/GPa) = 0.04044349
#
# Stress axis : x y z
#
# Youngs Moduli (GPa) = 45.06331 140.19307 70.91822
#
# Poissons Ratio (x) = 0.14080 -0.10745
# Poissons Ratio (y) = 0.04526 0.14194
# Poissons Ratio (z) = -0.06828 0.28060
#
# Static dielectric constant tensor:
#      x y z
#    x 1.819520 0.000000 -0.047710 
#    y 0.000000 1.743990 0.000000 
#    z -0.047710 0.000000 1.827820 
# 
# From -- ./inp_files/303659.got.cif
#   From: 2010.05.17/outbox.cif.g08.bks.cpg/sg12_152_cif.got.tgz:303659.got - 2010.06.03 13:09:07.
