data_PCOD9217452
_publ_section_title
;
Structure prediction by ZEFSAII (Michael W. Deem and Ramdas Pophale) SiO2 
 PCOD9217452
Probable space group: C 2/M
;
_chemical_formula_sum "Si O2"
_cell_formula_units_Z 56
_cell_length_a 11.907716
_cell_length_b 14.491657
_cell_length_c 18.534406
_cell_angle_alpha 90.000000
_cell_angle_beta 47.897920
_cell_angle_gamma 90.000000
_cell_volume 2373.016210
_symmetry_space_group_name_H-M "C 2/M"
_symmetry_group_IT_number 12
_symmetry_cell_setting 'monoclinic'
loop_
_space_group_symop_operation_xyz
x,y,z
-x,y,-z
-x,-y,-z
x,-y,z
1/2+x,1/2+y,z
1/2-x,1/2+y,-z
1/2-x,1/2-y,-z
1/2+x,1/2-y,z
loop_
_atom_site_type_symbol
_atom_site_label
_atom_site_fract_x
_atom_site_fract_y
_atom_site_fract_z
Si Si1 0.062266 0.904069 0.095649
Si Si2 0.217993 0.270013 0.397682
Si Si3 0.916577 0.397111 0.666495
Si Si4 0.223374 0.106192 0.494114
Si Si5 0.824655 0.356062 0.090721
Si Si6 0.073506 0.705001 0.813377
Si Si7 0.770194 0.646612 0.884198
O O1 0.192889 0.902241 0.101312
O O2 0.972184 0.807908 0.139315
O O3 0.973789 0.000000 0.143316
O O4 0.145862 0.906868 0.982841
O O5 0.119697 0.321877 0.379197
O O6 0.153439 0.184705 0.472284
O O7 0.281071 0.348211 0.424574
O O8 0.352745 0.224955 0.294356
O O9 0.879290 0.500000 0.655408
O O10 0.826456 0.379691 0.780118
O O11 0.096714 0.395872 0.601061
O O12 0.167820 0.000000 0.514013
O O13 0.816867 0.351609 0.180922
O O14 0.796222 0.249387 0.084574
O O15 0.000000 0.382238 0.000000
O O16 0.920558 0.648471 0.868394
#
# Coordination Sequence:
#
# PCOD9217452 Si02
#       7
#     8   8   8   8   8   8   8
#     4  11  24  37  55  89 124 153 201 256 292 338
#     4  11  22  39  68  90 120 161 195 245 310 359
#     4  11  22  37  62  94 121 152 203 254 296 353
#     4  10  23  43  65  93 121 152 200 251 298 361
#     4  11  19  38  60  79 113 166 204 235 290 357
#     4  11  21  39  61  83 118 164 200 235 301 363
#     4  11  20  37  60  84 119 160 201 244 292 350
#
# _framework density 23.598658
#
# number of rings (size 3 to 8) (size 9 to 14) (size 15 to 20)
#    0.000    1.143    5.714    2.143    0.000    2.571 
#    0.000    1.429    0.000    7.714    0.000    0.000 
#    0.000    0.000    0.000    0.000    0.000    0.000 
#
# Total GULP energy -156365.170152 kJ/mol
# GULP energy per Si atom -5584.470363 kJ/mol
# Density = 2.354495 g / cm^3
# Si number density = 23.598658 Si / 1000 Ang^3
#
#
#
# Elastic Constant Matrix: (Units=GPa)
#
#
# Indices 1 2 3 4 5 6 
#
# 1 105.8258 27.1774 16.5382 0.0000 13.4766 0.0000
# 2 27.1774 118.5427 14.1192 0.0000 32.8245 0.0000
# 3 16.5382 14.1192 96.4968 0.0000 31.0933 0.0000
# 4 0.0000 0.0000 0.0000 40.5359 0.0000 34.6977
# 5 13.4766 32.8245 31.0933 0.0000 30.8769 0.0000
# 6 0.0000 0.0000 0.0000 34.6977 0.0000 55.4783
#
#
#
# Elastic Compliance Matrix: (Units=1/GPa)
#
#
# Indices 1 2 3 4 5 6 
#
# 1 0.010267 -0.001802 -0.000991 0.000000 -0.001568 0.000000
# 2 -0.001802 0.013112 0.003891 0.000000 -0.017071 0.000000
# 3 -0.000991 0.003891 0.016516 0.000000 -0.020336 0.000000
# 4 0.000000 0.000000 0.000000 0.053093 0.000000 -0.033206
# 5 -0.001568 -0.017071 -0.020336 0.000000 0.071698 0.000000
# 6 0.000000 0.000000 0.000000 -0.033206 0.000000 0.038793
#
#
# Mechanical properties :
#
#
# Convention : Reuss Voigt Hill
#
# Bulk Modulus (GPa) = 23.75693 48.50387 36.13040
# Shear Modulus (GPa) = 23.22209 42.91360 33.06785
#
# Velocity S-wave (km/s) = 3.14035 4.26899 3.74740
# Velocity P-wave (km/s) = 4.82058 6.70054 5.83675
#
# Compressibility (1/GPa) = 0.04209299
#
# Stress axis : x y z
#
# Youngs Moduli (GPa) = 97.40249 76.26331 60.54667
#
# Poissons Ratio (x) = 0.13739 0.05998
# Poissons Ratio (y) = 0.17547 -0.23558
# Poissons Ratio (z) = 0.09649 -0.29674
#
# Static dielectric constant tensor:
#      x y z
#    x 1.939110 0.000000 0.007750 
#    y 0.000000 1.911370 0.000000 
#    z 0.007750 0.000000 1.910070 
# 
# From -- ./inp_files/263255.got.cif
#   From: 2010.05.17/outbox.cif.g08.bks.cpg/sg12_132_cif.got.tgz:263255.got - 2010.06.03 13:09:07.
