data_PCOD9217483
_publ_section_title
;
Structure prediction by ZEFSAII (Michael W. Deem and Ramdas Pophale) SiO2 
 PCOD9217483
Probable space group: C 2/M
;
_chemical_formula_sum "Si O2"
_cell_formula_units_Z 34
_cell_length_a 20.901755
_cell_length_b 7.561788
_cell_length_c 9.400610
_cell_angle_alpha 90.000000
_cell_angle_beta 83.039901
_cell_angle_gamma 90.000000
_cell_volume 1474.860771
_symmetry_space_group_name_H-M "C 2/M"
_symmetry_group_IT_number 12
_symmetry_cell_setting 'monoclinic'
loop_
_space_group_symop_operation_xyz
x,y,z
-x,y,-z
-x,-y,-z
x,-y,z
1/2+x,1/2+y,z
1/2-x,1/2+y,-z
1/2-x,1/2-y,-z
1/2+x,1/2-y,z
loop_
_atom_site_type_symbol
_atom_site_label
_atom_site_fract_x
_atom_site_fract_y
_atom_site_fract_z
Si Si1 0.860391 0.711937 0.127362
Si Si2 0.237484 0.787602 0.338899
Si Si3 0.971928 0.794283 0.310915
Si Si4 0.884418 0.790706 0.795031
Si Si5 0.500000 0.000000 0.500000
O O1 0.861776 0.500000 0.134513
O O2 0.796738 0.777048 0.226158
O O3 0.922976 0.780314 0.193460
O O4 0.861947 0.763328 0.962437
O O5 0.250000 0.750000 0.500000
O O6 0.169803 0.718139 0.296098
O O7 0.235595 0.000000 0.323214
O O8 0.042849 0.723819 0.245265
O O9 0.954826 0.657781 0.439243
O O10 0.973140 0.000000 0.354459
O O11 0.889847 0.000000 0.768782
#
# Coordination Sequence:
#
# PCOD9217483 Si02
#       5
#     8   8   8   8   2
#     4  11  23  41  67  98 132 174 223 275 332 398
#     4  10  24  42  63  93 131 172 222 274 332 396
#     4  11  25  43  70 100 134 177 223 275 332 399
#     4  10  23  43  66  95 130 174 225 276 331 395
#     4  12  26  44  66 102 144 172 220 274 344 394
#
# _framework density 23.053023
#
# number of rings (size 3 to 8) (size 9 to 14) (size 15 to 20)
#    0.000    1.412    1.176    2.471    4.941    5.647 
#    0.000    0.000    0.000    0.000    0.000    0.000 
#    0.000    0.000    0.000    0.000    0.000    0.000 
#
# Total GULP energy -94868.394311 kJ/mol
# GULP energy per Si atom -5580.493783 kJ/mol
# Density = 2.300055 g / cm^3
# Si number density = 23.053023 Si / 1000 Ang^3
#
#
#
# Elastic Constant Matrix: (Units=GPa)
#
#
# Indices 1 2 3 4 5 6 
#
# 1 177.3384 8.1019 52.8694 0.0000 12.6138 0.0000
# 2 8.1019 99.7224 -12.8387 0.0000 9.9708 0.0000
# 3 52.8694 -12.8387 81.6906 0.0000 19.8784 0.0000
# 4 0.0000 0.0000 0.0000 10.5574 0.0000 6.3837
# 5 12.6138 9.9708 19.8784 0.0000 49.1802 0.0000
# 6 0.0000 0.0000 0.0000 6.3837 0.0000 14.9651
#
#
#
# Elastic Compliance Matrix: (Units=1/GPa)
#
#
# Indices 1 2 3 4 5 6 
#
# 1 0.007131 -0.001253 -0.004912 0.000000 0.000410 0.000000
# 2 -0.001253 0.010877 0.003304 0.000000 -0.003219 0.000000
# 3 -0.004912 0.003304 0.017519 0.000000 -0.006491 0.000000
# 4 0.000000 0.000000 0.000000 0.127644 0.000000 -0.054449
# 5 0.000410 -0.003219 -0.006491 0.000000 0.023504 0.000000
# 6 0.000000 0.000000 0.000000 -0.054449 0.000000 0.090049
#
#
# Mechanical properties :
#
#
# Convention : Reuss Voigt Hill
#
# Bulk Modulus (GPa) = 33.55190 50.55739 42.05464
# Shear Modulus (GPa) = 17.10090 35.64845 26.37467
#
# Velocity S-wave (km/s) = 2.72657 3.93665 3.38611
# Velocity P-wave (km/s) = 4.94955 6.53005 5.79394
#
# Compressibility (1/GPa) = 0.02980457
#
# Stress axis : x y z
#
# Youngs Moduli (GPa) = 140.22425 91.93868 57.08047
#
# Poissons Ratio (x) = 0.11518 0.28039
# Poissons Ratio (y) = 0.17568 -0.18857
# Poissons Ratio (z) = 0.68880 -0.30373
#
# Static dielectric constant tensor:
#      x y z
#    x 1.928310 0.000000 -0.041760 
#    y 0.000000 1.886530 0.000000 
#    z -0.041760 0.000000 1.879080 
# 
# From -- ./inp_files/82050.got.cif
#   From: 2010.05.17/outbox.cif.g08.bks.cpg/sg12_42_cif.got.tgz:82050.got - 2010.06.03 13:09:07.
