data_PCOD9217914
_publ_section_title
;
Structure prediction by ZEFSAII (Michael W. Deem and Ramdas Pophale) SiO2 
 PCOD9217914
Probable space group: C 2/M
;
_chemical_formula_sum "Si O2"
_cell_formula_units_Z 56
_cell_length_a 8.376222
_cell_length_b 20.803173
_cell_length_c 15.017480
_cell_angle_alpha 90.000000
_cell_angle_beta 71.182142
_cell_angle_gamma 90.000000
_cell_volume 2476.953295
_symmetry_space_group_name_H-M "C 2/M"
_symmetry_group_IT_number 12
_symmetry_cell_setting 'monoclinic'
loop_
_space_group_symop_operation_xyz
x,y,z
-x,y,-z
-x,-y,-z
x,-y,z
1/2+x,1/2+y,z
1/2-x,1/2+y,-z
1/2-x,1/2-y,-z
1/2+x,1/2-y,z
loop_
_atom_site_type_symbol
_atom_site_label
_atom_site_fract_x
_atom_site_fract_y
_atom_site_fract_z
Si Si1 0.342793 0.576576 0.730754
Si Si2 0.574269 0.922621 0.619244
Si Si3 0.704612 0.842697 0.247133
Si Si4 0.694821 0.573523 0.933428
Si Si5 0.634040 0.574441 0.558091
Si Si6 0.976741 0.254468 0.162698
Si Si7 0.754828 0.342829 0.081203
O O1 0.358462 0.500000 0.737640
O O2 0.191985 0.587138 0.686363
O O3 0.520471 0.602024 0.658219
O O4 0.300839 0.608074 0.831540
O O5 0.404511 0.881966 0.661777
O O6 0.692853 0.900879 0.515807
O O7 0.544395 0.000000 0.617853
O O8 0.785139 0.895458 0.166625
O O9 0.844928 0.789106 0.241910
O O10 0.574571 0.800763 0.211614
O O11 0.754266 0.500000 0.922608
O O12 0.500000 0.574275 0.000000
O O13 0.795114 0.617022 0.986258
O O14 0.500000 0.573710 0.500000
O O15 0.668549 0.500000 0.574639
O O16 0.887916 0.297246 0.104749
O O17 0.100299 0.205185 0.091051
#
# Coordination Sequence:
#
# PCOD9217914 Si02
#       7
#     8   8   8   8   8   8   8
#     4   9  16  30  55  85 114 143 180 230 284 330
#     4   9  16  30  55  85 114 143 180 230 284 330
#     4  11  21  40  56  82 110 150 183 234 263 328
#     4  11  24  40  60  87 114 141 176 223 286 338
#     4   7  12  24  48  82 112 141 178 221 276 337
#     4  10  24  37  60  77 108 150 198 223 266 309
#     4  11  21  40  56  82 110 150 183 234 263 328
#
# _framework density 22.608419999999999
#
# number of rings (size 3 to 8) (size 9 to 14) (size 15 to 20)
#    0.000    2.286    2.857    2.571    0.000    4.000 
#    0.000    0.714    0.000    6.000    0.000    3.000 
#    0.000    0.000    0.000    0.000    0.000    0.000 
#
# Total GULP energy -156570.706820 kJ/mol
# GULP energy per Si atom -5591.810958 kJ/mol
# Density = 2.255696 g / cm^3
# Si number density = 22.608420 Si / 1000 Ang^3
#
#
#
# Elastic Constant Matrix: (Units=GPa)
#
#
# Indices 1 2 3 4 5 6 
#
# 1 58.5364 31.2528 11.9965 0.0000 -11.7715 0.0000
# 2 31.2528 94.1614 24.7597 0.0000 -10.6468 0.0000
# 3 11.9965 24.7597 105.3226 0.0000 -12.0122 0.0000
# 4 0.0000 0.0000 0.0000 15.4392 0.0000 -12.5072
# 5 -11.7715 -10.6468 -12.0122 0.0000 34.6833 0.0000
# 6 0.0000 0.0000 0.0000 -12.5072 0.0000 27.4790
#
#
#
# Elastic Compliance Matrix: (Units=1/GPa)
#
#
# Indices 1 2 3 4 5 6 
#
# 1 0.021686 -0.006515 -0.000341 0.000000 0.005242 0.000000
# 2 -0.006515 0.013518 -0.002306 0.000000 0.001140 0.000000
# 3 -0.000341 -0.002306 0.010392 0.000000 0.002776 0.000000
# 4 0.000000 0.000000 0.000000 0.102601 0.000000 0.046700
# 5 0.005242 0.001140 0.002776 0.000000 0.031923 0.000000
# 6 0.000000 0.000000 0.000000 0.046700 0.000000 0.057647
#
#
# Mechanical properties :
#
#
# Convention : Reuss Voigt Hill
#
# Bulk Modulus (GPa) = 36.66705 43.78204 40.22455
# Shear Modulus (GPa) = 18.85504 28.18774 23.52139
#
# Velocity S-wave (km/s) = 2.89101 3.53481 3.22899
# Velocity P-wave (km/s) = 5.23426 6.00560 5.63315
#
# Compressibility (1/GPa) = 0.02727244
#
# Stress axis : x y z
#
# Youngs Moduli (GPa) = 46.11268 73.97697 96.22743
#
# Poissons Ratio (x) = 0.48199 0.03277
# Poissons Ratio (y) = 0.30044 0.22187
# Poissons Ratio (z) = 0.01570 0.17057
#
# Static dielectric constant tensor:
#      x y z
#    x 1.926470 0.000000 -0.029270 
#    y 0.000000 1.789120 0.000000 
#    z -0.029270 0.000000 1.848560 
# 
# From -- ./inp_files/258011.got.cif
#   From: 2010.05.17/outbox.cif.g08.bks.cpg/sg12_130_cif.got.tgz:258011.got - 2010.06.03 13:09:07.
