data_PCOD9217778
_publ_section_title
;
Structure prediction by ZEFSAII (Michael W. Deem and Ramdas Pophale) SiO2 
 PCOD9217778
Probable space group: C 2/M
;
_chemical_formula_sum "Si O2"
_cell_formula_units_Z 36
_cell_length_a 15.395011
_cell_length_b 13.808475
_cell_length_c 9.239757
_cell_angle_alpha 90.000000
_cell_angle_beta 124.143720
_cell_angle_gamma 90.000000
_cell_volume 1625.637464
_symmetry_space_group_name_H-M "C 2/M"
_symmetry_group_IT_number 12
_symmetry_cell_setting 'monoclinic'
loop_
_space_group_symop_operation_xyz
x,y,z
-x,y,-z
-x,-y,-z
x,-y,z
1/2+x,1/2+y,z
1/2-x,1/2+y,-z
1/2-x,1/2-y,-z
1/2+x,1/2-y,z
loop_
_atom_site_type_symbol
_atom_site_label
_atom_site_fract_x
_atom_site_fract_y
_atom_site_fract_z
Si Si1 0.609922 0.391564 0.275393
Si Si2 0.500000 0.236853 0.000000
Si Si3 0.809436 0.386970 0.942798
Si Si4 0.381203 0.315708 0.413240
Si Si5 0.677638 0.892086 0.699904
O O1 0.564876 0.500000 0.234687
O O2 0.302152 0.345164 0.212521
O O3 0.657297 0.365369 0.475308
O O4 0.702690 0.388162 0.244781
O O5 0.599267 0.171945 0.051910
O O6 0.527686 0.309045 0.157291
O O7 0.814431 0.500000 0.908241
O O8 0.823665 0.379968 0.128589
O O9 0.500000 0.348812 0.500000
O O10 0.379013 0.199338 0.424225
O O11 0.637198 0.000000 0.625082
#
# Coordination Sequence:
#
# PCOD9217778 Si02
#       5
#     8   4   8   8   8
#     4  11  25  43  68 100 133 173 220 271 328 389
#     4  12  24  44  72  94 134 176 218 272 326 390
#     4  11  25  45  69  99 132 173 222 268 327 391
#     4  12  25  44  68  98 134 175 217 274 327 386
#     4  10  23  45  69  97 134 175 219 269 325 392
#
# _framework density 22.145160000000001
#
# number of rings (size 3 to 8) (size 9 to 14) (size 15 to 20)
#    0.000    0.889    2.222    4.000    3.111    2.222 
#    0.000    1.111    0.000    0.000    0.000    0.000 
#    0.000    0.000    0.000    0.000    0.000    0.000 
#
# Total GULP energy -100761.371137 kJ/mol
# GULP energy per Si atom -5597.853952 kJ/mol
# Density = 2.209476 g / cm^3
# Si number density = 22.145160 Si / 1000 Ang^3
#
#
#
# Elastic Constant Matrix: (Units=GPa)
#
#
# Indices 1 2 3 4 5 6 
#
# 1 89.8026 47.4166 19.7085 0.0000 14.2728 0.0000
# 2 47.4166 165.9384 20.5892 0.0000 -1.4451 0.0000
# 3 19.7085 20.5892 21.8790 0.0000 -3.5481 0.0000
# 4 0.0000 0.0000 0.0000 11.4471 0.0000 1.7954
# 5 14.2728 -1.4451 -3.5481 0.0000 30.4021 0.0000
# 6 0.0000 0.0000 0.0000 1.7954 0.0000 3.0401
#
#
#
# Elastic Compliance Matrix: (Units=1/GPa)
#
#
# Indices 1 2 3 4 5 6 
#
# 1 0.017682 -0.003352 -0.014418 0.000000 -0.010143 0.000000
# 2 -0.003352 0.007464 -0.003763 0.000000 0.001489 0.000000
# 3 -0.014418 -0.003763 0.064525 0.000000 0.014121 0.000000
# 4 0.000000 0.000000 0.000000 0.096276 0.000000 -0.056857
# 5 -0.010143 0.001489 0.014121 0.000000 0.039373 0.000000
# 6 0.000000 0.000000 0.000000 -0.056857 0.000000 0.362515
#
#
# Mechanical properties :
#
#
# Convention : Reuss Voigt Hill
#
# Bulk Modulus (GPa) = 21.45727 50.33876 35.89802
# Shear Modulus (GPa) = 7.73471 21.63822 14.68647
#
# Velocity S-wave (km/s) = 1.87091 3.12926 2.57804
# Velocity P-wave (km/s) = 3.79177 5.98640 5.01071
#
# Compressibility (1/GPa) = 0.04660425
#
# Stress axis : x y z
#
# Youngs Moduli (GPa) = 56.55550 133.97610 15.49785
#
# Poissons Ratio (x) = 0.44907 0.22345
# Poissons Ratio (y) = 0.18957 0.05832
# Poissons Ratio (z) = 0.81543 0.50417
#
# Static dielectric constant tensor:
#      x y z
#    x 1.788980 0.000000 0.003010 
#    y 0.000000 1.820270 0.000000 
#    z 0.003010 0.000000 1.814800 
# 
# From -- ./inp_files/47253.got.cif
#   From: 2010.05.17/outbox.cif.g08.bks.cpg/sg12_24_cif.got.tgz:47253.got - 2010.06.03 13:09:07.
