data_PCOD9217983
_publ_section_title
;
Structure prediction by ZEFSAII (Michael W. Deem and Ramdas Pophale) SiO2 
 PCOD9217983
Probable space group: C 2/M
;
_chemical_formula_sum "Si O2"
_cell_formula_units_Z 36
_cell_length_a 9.994843
_cell_length_b 7.772470
_cell_length_c 20.113126
_cell_angle_alpha 90.000000
_cell_angle_beta 95.729810
_cell_angle_gamma 90.000000
_cell_volume 1554.673971
_symmetry_space_group_name_H-M "C 2/M"
_symmetry_group_IT_number 12
_symmetry_cell_setting 'monoclinic'
loop_
_space_group_symop_operation_xyz
x,y,z
-x,y,-z
-x,-y,-z
x,-y,z
1/2+x,1/2+y,z
1/2-x,1/2+y,-z
1/2-x,1/2-y,-z
1/2+x,1/2-y,z
loop_
_atom_site_type_symbol
_atom_site_label
_atom_site_fract_x
_atom_site_fract_y
_atom_site_fract_z
Si Si1 0.113633 0.205289 0.956201
Si Si2 0.355120 0.202438 0.193943
Si Si3 0.500000 0.748144 0.500000
Si Si4 0.624519 0.801385 0.270356
Si Si5 0.238081 0.205462 0.414070
O O1 0.113167 0.276191 0.881816
O O2 0.098200 0.000000 0.949367
O O3 0.250000 0.250000 0.000000
O O4 0.000000 0.273012 0.000000
O O5 0.479346 0.271319 0.243883
O O6 0.218192 0.289784 0.210210
O O7 0.340218 0.000000 0.206795
O O8 0.620198 0.705381 0.559777
O O9 0.614970 0.790320 0.449515
O O10 0.700739 0.715299 0.335289
O O11 0.606577 0.000000 0.288270
O O12 0.247282 0.000000 0.432003
#
# Coordination Sequence:
#
# PCOD9217983 Si02
#       5
#     8   8   4   8   8
#     4  11  24  41  64  94 127 164 206 252 304 362
#     4  11  24  42  64  91 124 163 206 253 305 361
#     4  10  24  40  62  92 124 158 202 254 306 362
#     4  11  25  42  63  92 125 161 204 254 307 364
#     4  11  23  41  64  90 122 161 204 251 305 365
#
# _framework density 23.155982000000002
#
# number of rings (size 3 to 8) (size 9 to 14) (size 15 to 20)
#    0.000    1.111    0.000    5.333    0.000   17.778 
#    0.000    0.000    0.000    0.000    0.000    0.000 
#    0.000    0.000    0.000    0.000    0.000    0.000 
#
# Total GULP energy -100292.400827 kJ/mol
# GULP energy per Si atom -5571.800046 kJ/mol
# Density = 2.310328 g / cm^3
# Si number density = 23.155982 Si / 1000 Ang^3
#
#
#
# Elastic Constant Matrix: (Units=GPa)
#
#
# Indices 1 2 3 4 5 6 
#
# 1 154.5727 -7.9656 4.8209 0.0000 8.9246 0.0000
# 2 -7.9656 72.6871 -1.6689 0.0000 3.4287 0.0000
# 3 4.8209 -1.6689 96.0636 0.0000 11.0240 0.0000
# 4 0.0000 0.0000 0.0000 4.7810 0.0000 1.1879
# 5 8.9246 3.4287 11.0240 0.0000 42.5461 0.0000
# 6 0.0000 0.0000 0.0000 1.1879 0.0000 3.0140
#
#
#
# Elastic Compliance Matrix: (Units=1/GPa)
#
#
# Indices 1 2 3 4 5 6 
#
# 1 0.006596 0.000786 -0.000156 0.000000 -0.001407 0.000000
# 2 0.000786 0.013917 0.000361 0.000000 -0.001380 0.000000
# 3 -0.000156 0.000361 0.010743 0.000000 -0.002780 0.000000
# 4 0.000000 0.000000 0.000000 0.231866 0.000000 -0.091384
# 5 -0.001407 -0.001380 -0.002780 0.000000 0.024630 0.000000
# 6 0.000000 0.000000 0.000000 -0.091384 0.000000 0.367800
#
#
# Mechanical properties :
#
#
# Convention : Reuss Voigt Hill
#
# Bulk Modulus (GPa) = 30.08731 34.85514 32.47123
# Shear Modulus (GPa) = 7.52274 31.94401 19.73338
#
# Velocity S-wave (km/s) = 1.80438 3.71821 2.92240
# Velocity P-wave (km/s) = 4.16684 5.78951 5.04386
#
# Compressibility (1/GPa) = 0.03323660
#
# Stress axis : x y z
#
# Youngs Moduli (GPa) = 151.60696 71.85425 93.08494
#
# Poissons Ratio (x) = -0.05645 0.01452
# Poissons Ratio (y) = -0.11910 -0.03357
# Poissons Ratio (z) = 0.02365 -0.02592
#
# Static dielectric constant tensor:
#      x y z
#    x 1.810320 0.000000 -0.006110 
#    y 0.000000 1.948060 0.000000 
#    z -0.006110 0.000000 1.847530 
# 
# From -- ./inp_files/298747.got.cif
#   From: 2010.05.17/outbox.cif.g08.bks.cpg/sg12_150_cif.got.tgz:298747.got - 2010.06.03 13:09:07.
