data_PCOD9217354
_publ_section_title
;
Structure prediction by ZEFSAII (Michael W. Deem and Ramdas Pophale) SiO2 
 PCOD9217354
Probable space group: C 2/M
;
_chemical_formula_sum "Si O2"
_cell_formula_units_Z 32
_cell_length_a 9.739816
_cell_length_b 25.508253
_cell_length_c 5.232807
_cell_angle_alpha 90.000000
_cell_angle_beta 80.916537
_cell_angle_gamma 90.000000
_cell_volume 1283.764730
_symmetry_space_group_name_H-M "C 2/M"
_symmetry_group_IT_number 12
_symmetry_cell_setting 'monoclinic'
loop_
_space_group_symop_operation_xyz
x,y,z
-x,y,-z
-x,-y,-z
x,-y,z
1/2+x,1/2+y,z
1/2-x,1/2+y,-z
1/2-x,1/2-y,-z
1/2+x,1/2-y,z
loop_
_atom_site_type_symbol
_atom_site_label
_atom_site_fract_x
_atom_site_fract_y
_atom_site_fract_z
Si Si1 0.902719 0.608657 0.775562
Si Si2 0.910604 0.164899 0.781161
Si Si3 0.155105 0.056692 0.076190
Si Si4 0.148655 0.725880 0.318522
O O1 0.778455 0.566895 0.836984
O O2 0.829714 0.666643 0.783151
O O3 0.000000 0.601217 0.500000
O O4 0.000000 0.607716 0.000000
O O5 0.859425 0.223702 0.861850
O O6 0.000000 0.171228 0.500000
O O7 0.829433 0.110110 0.760401
O O8 0.000000 0.152455 0.000000
O O9 0.177359 0.000000 0.198097
O O10 0.000000 0.053569 0.000000
O O11 0.250000 0.750000 0.500000
O O12 0.000000 0.719464 0.500000
#
# Coordination Sequence:
#
# PCOD9217354 Si02
#       4
#     8   8   8   8
#     4  11  27  49  73 107 151 191 238 295 366 437
#     4  10  23  42  69 103 145 183 229 293 357 415
#     4  10  25  47  77 108 142 191 251 302 355 424
#     4  10  24  42  71 107 145 187 234 290 359 436
#
# _framework density 24.926686
#
# number of rings (size 3 to 8) (size 9 to 14) (size 15 to 20)
#    0.000    1.750    0.000    0.750   21.000    2.500 
#    0.000    5.000    0.000    0.000    0.000    0.000 
#    0.000    0.000    0.000    0.000    0.000    0.000 
#
# Total GULP energy -89237.182289 kJ/mol
# GULP energy per Si atom -5577.323893 kJ/mol
# Density = 2.486995 g / cm^3
# Si number density = 24.926686 Si / 1000 Ang^3
#
#
#
# Elastic Constant Matrix: (Units=GPa)
#
#
# Indices 1 2 3 4 5 6 
#
# 1 130.2121 22.4994 29.6827 0.0000 -2.5202 0.0000
# 2 22.4994 203.8319 9.8729 0.0000 -15.0470 0.0000
# 3 29.6827 9.8729 94.7716 0.0000 0.5050 0.0000
# 4 0.0000 0.0000 0.0000 3.7465 0.0000 25.7344
# 5 -2.5202 -15.0470 0.5050 0.0000 42.8391 0.0000
# 6 0.0000 0.0000 0.0000 25.7344 0.0000 -38.9773
#
#
#
# Elastic Compliance Matrix: (Units=1/GPa)
#
#
# Indices 1 2 3 4 5 6 
#
# 1 0.008402 -0.000786 -0.002551 0.000000 0.000248 0.000000
# 2 -0.000786 0.005137 -0.000299 0.000000 0.001762 0.000000
# 3 -0.002551 -0.000299 0.011384 0.000000 -0.000389 0.000000
# 4 0.000000 0.000000 0.000000 0.048222 0.000000 0.031838
# 5 0.000248 0.001762 -0.000389 0.000000 0.023981 0.000000
# 6 0.000000 0.000000 0.000000 0.031838 0.000000 -0.004635
#
#
# Mechanical properties :
#
#
# Convention : Reuss Voigt Hill
#
# Bulk Modulus (GPa) = 56.64809 61.43618 59.04214
# Shear Modulus (GPa) = 47.32829 25.97237 36.65033
#
# Velocity S-wave (km/s) = 4.36213 3.23143 3.83864
# Velocity P-wave (km/s) = 6.93874 6.21475 6.58670
#
# Compressibility (1/GPa) = 0.01765285
#
# Stress axis : x y z
#
# Youngs Moduli (GPa) = 119.02182 194.65776 87.84393
#
# Poissons Ratio (x) = 0.15291 0.22409
# Poissons Ratio (y) = 0.09349 0.02622
# Poissons Ratio (z) = 0.30362 0.05811
#
# Static dielectric constant tensor:
#      x y z
#    x 2.108050 0.000000 0.045420 
#    y 0.000000 2.264300 0.000000 
#    z 0.045420 0.000000 2.064510 
# 
# From -- ./inp_files/7258.got.cif
#   From: 2010.05.17/outbox.cif.g08.bks.cpg/sg12_4_cif.got.tgz:7258.got - 2010.06.03 13:09:07.
