data_PCOD9217207
_publ_section_title
;
Structure prediction by ZEFSAII (Michael W. Deem and Ramdas Pophale) SiO2 
 PCOD9217207
Probable space group: C 2/M
;
_chemical_formula_sum "Si O2"
_cell_formula_units_Z 64
_cell_length_a 20.340868
_cell_length_b 8.683113
_cell_length_c 19.376301
_cell_angle_alpha 90.000000
_cell_angle_beta 92.687238
_cell_angle_gamma 90.000000
_cell_volume 3418.518770
_symmetry_space_group_name_H-M "C 2/M"
_symmetry_group_IT_number 12
_symmetry_cell_setting 'monoclinic'
loop_
_space_group_symop_operation_xyz
x,y,z
-x,y,-z
-x,-y,-z
x,-y,z
1/2+x,1/2+y,z
1/2-x,1/2+y,-z
1/2-x,1/2-y,-z
1/2+x,1/2-y,z
loop_
_atom_site_type_symbol
_atom_site_label
_atom_site_fract_x
_atom_site_fract_y
_atom_site_fract_z
Si Si1 0.053080 0.185321 0.560959
Si Si2 0.968794 0.317338 0.289646
Si Si3 0.349302 0.316376 0.197228
Si Si4 0.295795 0.683924 0.442269
Si Si5 0.387982 0.182986 0.765731
Si Si6 0.244920 0.817690 0.295114
Si Si7 0.582881 0.313099 0.935459
Si Si8 0.930474 0.813629 0.910113
O O1 0.036869 0.269887 0.631203
O O2 0.127581 0.225493 0.543069
O O3 0.000000 0.223854 0.500000
O O4 0.050784 0.000000 0.572250
O O5 0.956473 0.500000 0.280643
O O6 0.914200 0.224005 0.244605
O O7 0.041358 0.282325 0.264816
O O8 0.339014 0.500000 0.196664
O O9 0.288887 0.237216 0.232704
O O10 0.365933 0.262483 0.120272
O O11 0.290895 0.500000 0.442523
O O12 0.250000 0.750000 0.500000
O O13 0.273262 0.743591 0.366348
O O14 0.329324 0.264938 0.722562
O O15 0.392485 0.239952 0.844760
O O16 0.377510 0.000000 0.763075
O O17 0.248851 0.000000 0.301916
O O18 0.582865 0.500000 0.935027
O O19 0.508004 0.268404 0.911697
O O20 0.594692 0.266507 0.015112
O O21 0.927432 0.000000 0.904928
#
# Coordination Sequence:
#
# PCOD9217207 Si02
#       8
#     8   8   8   8   8   8   8   8
#     4  10  23  42  64  91 121 156 199 243 293 352
#     4  11  23  38  60  90 122 156 199 248 297 352
#     4  11  20  37  63  90 119 158 200 247 301 357
#     4  11  24  43  65  91 124 162 199 245 296 356
#     4  11  24  40  58  89 125 159 202 254 304 355
#     4  12  26  43  63  87 119 162 206 251 300 359
#     4   8  16  30  57  89 119 155 198 245 298 360
#     4   9  16  33  57  87 120 156 201 245 297 361
#
# _framework density 18.721558000000002
#
# number of rings (size 3 to 8) (size 9 to 14) (size 15 to 20)
#    0.000    1.625    2.500    3.375    1.750    2.250 
#    0.000    3.125    0.000    0.000    0.000    0.000 
#    0.000    0.000    0.000    0.000    0.000    0.000 
#
# Total GULP energy -178785.786187 kJ/mol
# GULP energy per Si atom -5587.055818 kJ/mol
# Density = 1.867895 g / cm^3
# Si number density = 18.721558 Si / 1000 Ang^3
#
#
#
# Elastic Constant Matrix: (Units=GPa)
#
#
# Indices 1 2 3 4 5 6 
#
# 1 69.0452 31.5821 31.7462 0.0000 2.7561 0.0000
# 2 31.5821 42.2138 22.1847 0.0000 -2.8010 0.0000
# 3 31.7462 22.1847 89.9113 0.0000 -12.4894 0.0000
# 4 0.0000 0.0000 0.0000 19.6100 0.0000 -5.0025
# 5 2.7561 -2.8010 -12.4894 0.0000 29.2685 0.0000
# 6 0.0000 0.0000 0.0000 -5.0025 0.0000 24.4427
#
#
#
# Elastic Compliance Matrix: (Units=1/GPa)
#
#
# Indices 1 2 3 4 5 6 
#
# 1 0.024562 -0.015830 -0.005632 0.000000 -0.006231 0.000000
# 2 -0.015830 0.037422 -0.003125 0.000000 0.003738 0.000000
# 3 -0.005632 -0.003125 0.014791 0.000000 0.006543 0.000000
# 4 0.000000 0.000000 0.000000 0.053803 0.000000 0.011012
# 5 -0.006231 0.003738 0.006543 0.000000 0.037903 0.000000
# 6 0.000000 0.000000 0.000000 0.011012 0.000000 0.043166
#
#
# Mechanical properties :
#
#
# Convention : Reuss Voigt Hill
#
# Bulk Modulus (GPa) = 36.23046 41.35516 38.79281
# Shear Modulus (GPa) = 18.51701 22.37472 20.44586
#
# Velocity S-wave (km/s) = 3.14837 3.46082 3.30828
# Velocity P-wave (km/s) = 5.71057 6.17310 5.94633
#
# Compressibility (1/GPa) = 0.02760108
#
# Stress axis : x y z
#
# Youngs Moduli (GPa) = 40.71261 26.72204 67.61017
#
# Poissons Ratio (x) = 0.42300 0.38080
# Poissons Ratio (y) = 0.64447 0.21128
# Poissons Ratio (z) = 0.22931 0.08351
#
# Static dielectric constant tensor:
#      x y z
#    x 1.632690 0.000000 -0.013550 
#    y 0.000000 1.631670 0.000000 
#    z -0.013550 0.000000 1.634400 
# 
# From -- ./inp_files/314062.got.cif
#   From: 2010.05.17/outbox.cif.g08.bks.cpg/sg12_158_cif.got.tgz:314062.got - 2010.06.03 13:09:07.
