data_PCOD9217069
_publ_section_title
;
Structure prediction by ZEFSAII (Michael W. Deem and Ramdas Pophale) SiO2 
 PCOD9217069
Probable space group: C 2/M
;
_chemical_formula_sum "Si O2"
_cell_formula_units_Z 26
_cell_length_a 12.639004
_cell_length_b 17.435993
_cell_length_c 8.785559
_cell_angle_alpha 90.000000
_cell_angle_beta 31.967146
_cell_angle_gamma 90.000000
_cell_volume 1025.037752
_symmetry_space_group_name_H-M "C 2/M"
_symmetry_group_IT_number 12
_symmetry_cell_setting 'monoclinic'
loop_
_space_group_symop_operation_xyz
x,y,z
-x,y,-z
-x,-y,-z
x,-y,z
1/2+x,1/2+y,z
1/2-x,1/2+y,-z
1/2-x,1/2-y,-z
1/2+x,1/2-y,z
loop_
_atom_site_type_symbol
_atom_site_label
_atom_site_fract_x
_atom_site_fract_y
_atom_site_fract_z
Si Si1 0.426301 0.854637 0.297159
Si Si2 0.203696 0.087075 0.853114
Si Si3 0.000000 0.500000 0.000000
Si Si4 0.498976 0.695728 0.320667
O O1 0.359209 0.874654 0.549813
O O2 0.537930 0.773386 0.176781
O O3 0.222972 0.833571 0.453222
O O4 0.510105 0.930941 0.117737
O O5 0.256097 0.000000 0.822931
O O6 0.000000 0.086703 0.000000
O O7 0.150131 0.132584 0.070372
O O8 0.500000 0.705223 0.500000
#
# Coordination Sequence:
#
# PCOD9217069 Si02
#       4
#     8   8   2   8
#     4  10  23  42  64  91 128 164 208 260 311 368
#     4   9  18  38  61  89 125 163 207 252 302 365
#     4  12  24  44  66  92 124 170 202 266 318 370
#     4  10  23  41  66  94 124 167 211 253 308 373
#
# _framework density 25.364916999999998
#
# number of rings (size 3 to 8) (size 9 to 14) (size 15 to 20)
#    0.000    2.154    1.538    0.000   12.923    1.846 
#    0.000    0.769    0.000    0.000    0.000    0.000 
#    0.000    0.000    0.000    0.000    0.000    0.000 
#
# Total GULP energy -72598.538982 kJ/mol
# GULP energy per Si atom -5584.502999 kJ/mol
# Density = 2.530719 g / cm^3
# Si number density = 25.364917 Si / 1000 Ang^3
#
#
#
# Elastic Constant Matrix: (Units=GPa)
#
#
# Indices 1 2 3 4 5 6 
#
# 1 138.0656 47.2774 35.5874 -0.0016 28.5412 0.0009
# 2 47.2774 216.8178 56.3916 -0.0011 22.3599 -0.0003
# 3 35.5874 56.3916 101.2883 -0.0030 42.5602 0.0003
# 4 -0.0016 -0.0011 -0.0030 44.2977 0.0018 21.0486
# 5 28.5412 22.3599 42.5602 0.0018 37.8178 -0.0004
# 6 0.0009 -0.0003 0.0003 21.0486 -0.0004 31.5747
#
#
#
# Elastic Compliance Matrix: (Units=1/GPa)
#
#
# Indices 1 2 3 4 5 6 
#
# 1 0.008932 -0.001368 0.000220 0.000001 -0.006180 -0.000001
# 2 -0.001368 0.005605 -0.003190 0.000000 0.001308 0.000000
# 3 0.000220 -0.003190 0.020581 0.000004 -0.021442 -0.000003
# 4 0.000001 0.000000 0.000004 0.033040 -0.000006 -0.022026
# 5 -0.006180 0.001308 -0.021442 -0.000006 0.054464 0.000005
# 6 -0.000001 0.000000 -0.000003 -0.022026 0.000005 0.046354
#
#
# Mechanical properties :
#
#
# Convention : Reuss Voigt Hill
#
# Bulk Modulus (GPa) = 37.81619 81.63162 59.72391
# Shear Modulus (GPa) = 26.81461 43.86572 35.34017
#
# Velocity S-wave (km/s) = 3.25492 4.16310 3.73670
# Velocity P-wave (km/s) = 5.39140 7.44052 6.49725
#
# Compressibility (1/GPa) = 0.02644370
#
# Stress axis : x y z
#
# Youngs Moduli (GPa) = 111.95619 178.40999 48.58843
#
# Poissons Ratio (x) = 0.24398 -0.01068
# Poissons Ratio (y) = 0.15310 0.15497
# Poissons Ratio (z) = -0.02461 0.56905
#
# Static dielectric constant tensor:
#      x y z
#    x 2.063630 0.000000 -0.111450 
#    y 0.000000 1.906360 0.000000 
#    z -0.111450 0.000000 1.973940 
# 
# From -- ./inp_files/45829.got.cif
#   From: 2010.05.17/outbox.cif.g08.bks.cpg/sg12_23_cif.got.tgz:45829.got - 2010.06.03 13:09:07.
