data_PCOD9217712
_publ_section_title
;
Structure prediction by ZEFSAII (Michael W. Deem and Ramdas Pophale) SiO2 
 PCOD9217712
Probable space group: C 2/M
;
_chemical_formula_sum "Si O2"
_cell_formula_units_Z 32
_cell_length_a 10.956698
_cell_length_b 21.834391
_cell_length_c 7.782855
_cell_angle_alpha 90.000000
_cell_angle_beta 51.169824
_cell_angle_gamma 90.000000
_cell_volume 1450.445931
_symmetry_space_group_name_H-M "C 2/M"
_symmetry_group_IT_number 12
_symmetry_cell_setting 'monoclinic'
loop_
_space_group_symop_operation_xyz
x,y,z
-x,y,-z
-x,-y,-z
x,-y,z
1/2+x,1/2+y,z
1/2-x,1/2+y,-z
1/2-x,1/2-y,-z
1/2+x,1/2-y,z
loop_
_atom_site_type_symbol
_atom_site_label
_atom_site_fract_x
_atom_site_fract_y
_atom_site_fract_z
Si Si1 0.744927 0.500000 0.707402
Si Si2 0.661079 0.132005 0.291019
Si Si3 0.655045 0.686891 0.580319
Si Si4 0.446056 0.500000 0.770412
Si Si5 0.823492 0.133458 0.795377
O O1 0.838957 0.562035 0.644827
O O2 0.631635 0.500000 0.642352
O O3 0.635466 0.500000 0.972124
O O4 0.500000 0.161574 0.500000
O O5 0.806628 0.158323 0.269110
O O6 0.694604 0.137837 0.059448
O O7 0.750000 0.750000 0.500000
O O8 0.468206 0.679339 0.715594
O O9 0.725670 0.650186 0.353966
O O10 0.389008 0.563852 0.740555
#
# Coordination Sequence:
#
# PCOD9217712 Si02
#       5
#     4   8   8   4   8
#     4   9  17  35  65 100 131 163 206 266 335 397
#     4  11  23  41  65  97 134 171 208 266 335 388
#     4  11  25  42  63  93 125 173 227 264 320 376
#     4   9  16  36  72 100 123 163 214 273 332 380
#     4  10  23  44  69  98 128 168 221 273 321 395
#
# _framework density 22.062180999999999
#
# number of rings (size 3 to 8) (size 9 to 14) (size 15 to 20)
#    0.000    1.750    2.500    1.125    3.500    5.000 
#    4.500    0.000    0.000    6.000    0.000    0.000 
#    0.000    0.000    0.000    0.000    0.000    0.000 
#
# Total GULP energy -89252.448528 kJ/mol
# GULP energy per Si atom -5578.278033 kJ/mol
# Density = 2.201197 g / cm^3
# Si number density = 22.062181 Si / 1000 Ang^3
#
#
#
# Elastic Constant Matrix: (Units=GPa)
#
#
# Indices 1 2 3 4 5 6 
#
# 1 41.2260 14.2877 31.1526 0.0000 10.4585 0.0000
# 2 14.2877 108.4384 10.7539 0.0000 2.0129 0.0000
# 3 31.1526 10.7539 114.2208 0.0000 9.0953 0.0000
# 4 0.0000 0.0000 0.0000 -214.1155 0.0000 215.1628
# 5 10.4585 2.0129 9.0953 0.0000 41.0379 0.0000
# 6 0.0000 0.0000 0.0000 215.1628 0.0000 -111.0572
#
#
#
# Elastic Compliance Matrix: (Units=1/GPa)
#
#
# Indices 1 2 3 4 5 6 
#
# 1 0.033336 -0.003454 -0.008249 0.000000 -0.006498 0.000000
# 2 -0.003454 0.009669 -0.000001 0.000000 0.000406 0.000000
# 3 -0.008249 -0.000001 0.011032 0.000000 -0.000343 0.000000
# 4 0.000000 0.000000 0.000000 0.004932 0.000000 0.009556
# 5 -0.006498 0.000406 -0.000343 0.000000 0.026080 0.000000
# 6 0.000000 0.000000 0.000000 0.009556 0.000000 0.009510
#
#
# Mechanical properties :
#
#
# Convention : Reuss Voigt Hill
#
# Bulk Modulus (GPa) = 32.64792 41.80819 37.22806
# Shear Modulus (GPa) = 39.00879 -42.98089 -1.98605
#
# Velocity S-wave (km/s) = 4.20947 -4.41860 -0.94982
# Velocity P-wave (km/s) = 6.20133 2.65343 3.96332
#
# Compressibility (1/GPa) = 0.03062982
#
# Stress axis : x y z
#
# Youngs Moduli (GPa) = 29.99798 103.41900 90.64321
#
# Poissons Ratio (x) = 0.35716 0.74775
# Poissons Ratio (y) = 0.10360 0.00007
# Poissons Ratio (z) = 0.24746 0.00008
#
# Static dielectric constant tensor:
#      x y z
#    x 1.832880 0.000000 -0.036620 
#    y 0.000000 1.875920 0.000000 
#    z -0.036620 0.000000 1.826080 
# 
# From -- ./inp_files/48319.got.cif
#   From: 2010.05.17/outbox.cif.g08.bks.cpg/sg12_25_cif.got.tgz:48319.got - 2010.06.03 13:09:07.
