data_PCOD9217800
_publ_section_title
;
Structure prediction by ZEFSAII (Michael W. Deem and Ramdas Pophale) SiO2 
 PCOD9217800
Probable space group: C 2/M
;
_chemical_formula_sum "Si O2"
_cell_formula_units_Z 56
_cell_length_a 14.302018
_cell_length_b 24.716590
_cell_length_c 8.689513
_cell_angle_alpha 90.000000
_cell_angle_beta 65.468022
_cell_angle_gamma 90.000000
_cell_volume 2794.432830
_symmetry_space_group_name_H-M "C 2/M"
_symmetry_group_IT_number 12
_symmetry_cell_setting 'monoclinic'
loop_
_space_group_symop_operation_xyz
x,y,z
-x,y,-z
-x,-y,-z
x,-y,z
1/2+x,1/2+y,z
1/2-x,1/2+y,-z
1/2-x,1/2-y,-z
1/2+x,1/2-y,z
loop_
_atom_site_type_symbol
_atom_site_label
_atom_site_fract_x
_atom_site_fract_y
_atom_site_fract_z
Si Si1 0.532605 0.750097 0.311380
Si Si2 0.378619 0.562316 0.612324
Si Si3 0.704240 0.907694 0.515964
Si Si4 0.000025 0.441740 0.184014
Si Si5 0.197080 0.833422 0.142266
Si Si6 0.153037 0.360228 0.231388
Si Si7 0.182198 0.287318 0.659117
O O1 0.500000 0.726549 0.500000
O O2 0.599611 0.704817 0.183058
O O3 0.599858 0.803095 0.309711
O O4 0.434266 0.766895 0.278000
O O5 0.500000 0.569730 0.500000
O O6 0.362683 0.500000 0.678739
O O7 0.312217 0.569462 0.501289
O O8 0.335771 0.610393 0.751256
O O9 0.612342 0.939197 0.663428
O O10 0.688304 0.898676 0.346421
O O11 0.690564 0.846983 0.585710
O O12 0.047009 0.500000 0.192266
O O13 0.065328 0.393022 0.203657
O O14 0.000000 0.437562 0.000000
O O15 0.271094 0.796939 0.203036
O O16 0.255474 0.847359 0.947009
O O17 0.250000 0.250000 0.500000
#
# Coordination Sequence:
#
# PCOD9217800 Si02
#       7
#     8   8   8   8   8   8   8
#     4  12  21  40  65  92 132 173 220 271 325 393
#     4  10  23  45  71  93 120 169 228 280 330 393
#     4  11  22  40  64  92 131 166 214 268 331 395
#     4  11  23  40  65  97 129 170 221 272 329 393
#     4  11  25  40  65  97 135 174 222 270 335 397
#     4  12  24  40  60  97 138 174 209 269 333 404
#     4  11  21  37  65  92 123 174 222 273 328 383
#
# _framework density 20.039845
#
# number of rings (size 3 to 8) (size 9 to 14) (size 15 to 20)
#    0.000    0.857    4.286    3.429    2.000    3.429 
#    0.000    0.714    0.000    1.714    0.000    0.000 
#    0.000    0.000    0.000    0.000    0.000    0.000 
#
# Total GULP energy -156416.343730 kJ/mol
# GULP energy per Si atom -5586.297990 kJ/mol
# Density = 1.999423 g / cm^3
# Si number density = 20.039845 Si / 1000 Ang^3
#
#
#
# Elastic Constant Matrix: (Units=GPa)
#
#
# Indices 1 2 3 4 5 6 
#
# 1 112.4704 44.1840 51.6084 0.0000 -21.3619 0.0000
# 2 44.1840 98.2989 24.5395 0.0000 -7.3782 0.0000
# 3 51.6084 24.5395 116.1734 0.0000 -8.8412 0.0000
# 4 0.0000 0.0000 0.0000 1555.8876 0.0000 -481.3304
# 5 -21.3619 -7.3782 -8.8412 0.0000 18.9310 0.0000
# 6 0.0000 0.0000 0.0000 -481.3304 0.0000 170.0868
#
#
#
# Elastic Compliance Matrix: (Units=1/GPa)
#
#
# Indices 1 2 3 4 5 6 
#
# 1 0.015549 -0.004764 -0.004881 0.000000 0.013410 0.000000
# 2 -0.004764 0.012394 -0.000563 0.000000 -0.000808 0.000000
# 3 -0.004881 -0.000563 0.010845 0.000000 -0.000662 0.000000
# 4 0.000000 0.000000 0.000000 0.005161 0.000000 0.014605
# 5 0.013410 -0.000808 -0.000662 0.000000 0.067331 0.000000
# 6 0.000000 0.000000 0.000000 0.014605 0.000000 0.047210
#
#
# Mechanical properties :
#
#
# Convention : Reuss Voigt Hill
#
# Bulk Modulus (GPa) = 54.43031 63.06740 58.74886
# Shear Modulus (GPa) = 27.02262 362.75514 194.88888
#
# Velocity S-wave (km/s) = 3.67610 13.46885 9.87228
# Velocity P-wave (km/s) = 6.72594 16.53539 12.62255
#
# Compressibility (1/GPa) = 0.01837212
#
# Stress axis : x y z
#
# Youngs Moduli (GPa) = 64.31090 80.68122 92.21210
#
# Poissons Ratio (x) = 0.38439 0.45006
# Poissons Ratio (y) = 0.30640 0.05193
# Poissons Ratio (z) = 0.31388 0.04544
#
# Static dielectric constant tensor:
#      x y z
#    x 1.736290 0.000000 0.016660 
#    y 0.000000 1.647540 0.000000 
#    z 0.016660 0.000000 1.492890 
# 
# From -- ./inp_files/65750.got.cif
#   From: 2010.05.17/outbox.cif.g08.bks.cpg/sg12_33_cif.got.tgz:65750.got - 2010.06.03 13:09:07.
