data_PCOD9217175
_publ_section_title
;
Structure prediction by ZEFSAII (Michael W. Deem and Ramdas Pophale) SiO2 
 PCOD9217175
Probable space group: C 2/M
;
_chemical_formula_sum "Si O2"
_cell_formula_units_Z 60
_cell_length_a 9.177846
_cell_length_b 20.068632
_cell_length_c 20.750130
_cell_angle_alpha 90.000000
_cell_angle_beta 132.697404
_cell_angle_gamma 90.000000
_cell_volume 2808.887767
_symmetry_space_group_name_H-M "C 2/M"
_symmetry_group_IT_number 12
_symmetry_cell_setting 'monoclinic'
loop_
_space_group_symop_operation_xyz
x,y,z
-x,y,-z
-x,-y,-z
x,-y,z
1/2+x,1/2+y,z
1/2-x,1/2+y,-z
1/2-x,1/2-y,-z
1/2+x,1/2-y,z
loop_
_atom_site_type_symbol
_atom_site_label
_atom_site_fract_x
_atom_site_fract_y
_atom_site_fract_z
Si Si1 0.793677 0.834319 0.415172
Si Si2 0.869973 0.927778 0.024299
Si Si3 0.268044 0.079133 0.717489
Si Si4 0.912459 0.704940 0.367050
Si Si5 0.940758 0.666060 0.111535
Si Si6 0.297641 0.751032 0.188963
Si Si7 0.935608 0.123568 0.703294
Si Si8 0.536980 0.500000 0.191839
O O1 0.682174 0.886167 0.335214
O O2 0.858951 0.770385 0.392059
O O3 0.643352 0.810897 0.425604
O O4 0.000000 0.865020 0.500000
O O5 0.714548 0.868711 0.982169
O O6 0.761379 0.000000 0.983761
O O7 0.000000 0.917285 0.000000
O O8 0.008201 0.942223 0.126281
O O9 0.414508 0.109192 0.815499
O O10 0.049944 0.106002 0.671754
O O11 0.277714 0.000000 0.718039
O O12 0.833167 0.716673 0.270075
O O13 0.791740 0.646066 0.365184
O O14 0.839496 0.699737 0.143155
O O15 0.078582 0.720916 0.120257
O O16 0.448412 0.688157 0.233542
O O17 0.957561 0.058493 0.752489
#
# Coordination Sequence:
#
# PCOD9217175 Si02
#       8
#     8   8   8   8   8   8   8   4
#     4  12  24  41  67 100 139 168 205 272 330 383
#     4   9  22  41  60  89 132 166 213 269 327 392
#     4  11  22  41  64  95 127 174 222 261 318 385
#     4  12  20  41  65  99 128 165 221 258 317 394
#     4  11  21  40  65  91 124 168 213 269 322 380
#     4  11  20  36  65  92 119 156 218 267 305 375
#     4  11  21  40  67  93 125 166 221 272 307 384
#     4  10  23  42  63  90 127 168 215 270 320 374
#
# _framework density 21.360766999999999
#
# number of rings (size 3 to 8) (size 9 to 14) (size 15 to 20)
#    0.400    0.667    7.333    0.800    1.867    0.267 
#    3.600    8.000    0.000    0.800    0.000    0.000 
#    0.000    0.000    0.000    0.000    0.000    0.000 
#
# Total GULP energy -167048.167246 kJ/mol
# GULP energy per Si atom -5568.272242 kJ/mol
# Density = 2.131215 g / cm^3
# Si number density = 21.360767 Si / 1000 Ang^3
#
#
#
# Elastic Constant Matrix: (Units=GPa)
#
#
# Indices 1 2 3 4 5 6 
#
# 1 66.5228 26.6993 -6.4832 0.0000 -5.6910 0.0000
# 2 26.6993 78.4150 1.1547 0.0000 -2.7031 0.0000
# 3 -6.4832 1.1547 -16.7614 0.0000 -28.6165 0.0000
# 4 0.0000 0.0000 0.0000 12.7562 0.0000 -4.3964
# 5 -5.6910 -2.7031 -28.6165 0.0000 -9.3115 0.0000
# 6 0.0000 0.0000 0.0000 -4.3964 0.0000 31.1120
#
#
#
# Elastic Compliance Matrix: (Units=1/GPa)
#
#
# Indices 1 2 3 4 5 6 
#
# 1 0.016942 -0.005845 -0.001843 0.000000 -0.002995 0.000000
# 2 -0.005845 0.014846 -0.001070 0.000000 0.002550 0.000000
# 3 -0.001843 -0.001070 0.014475 0.000000 -0.043049 0.000000
# 4 0.000000 0.000000 0.000000 0.082407 0.000000 0.011645
# 5 -0.002995 0.002550 -0.043049 0.000000 0.025996 0.000000
# 6 0.000000 0.000000 0.000000 0.011645 0.000000 0.033788
#
#
# Mechanical properties :
#
#
# Convention : Reuss Voigt Hill
#
# Bulk Modulus (GPa) = 34.78315 18.99089 26.88702
# Shear Modulus (GPa) = 23.19624 14.03170 18.61397
#
# Velocity S-wave (km/s) = 3.29892 2.56577 2.95517
# Velocity P-wave (km/s) = 5.55243 4.20564 4.92529
#
# Compressibility (1/GPa) = 0.02874955
#
# Stress axis : x y z
#
# Youngs Moduli (GPa) = 59.02320 67.35641 69.08352
#
# Poissons Ratio (x) = 0.39369 0.12731
# Poissons Ratio (y) = 0.34498 0.07390
# Poissons Ratio (z) = 0.10877 0.07205
#
# Static dielectric constant tensor:
#      x y z
#    x 1.807980 0.000000 0.035980 
#    y 0.000000 1.754580 0.000000 
#    z 0.035980 0.000000 1.829890 
# 
# From -- ./inp_files/301930.got.cif
#   From: 2010.05.17/outbox.cif.g08.bks.cpg/sg12_151_cif.got.tgz:301930.got - 2010.06.03 13:09:07.
