data_PCOD9217895
_publ_section_title
;
Structure prediction by ZEFSAII (Michael W. Deem and Ramdas Pophale) SiO2 
 PCOD9217895
Probable space group: C 2/M
;
_chemical_formula_sum "Si O2"
_cell_formula_units_Z 48
_cell_length_a 9.403641
_cell_length_b 15.000868
_cell_length_c 16.678507
_cell_angle_alpha 90.000000
_cell_angle_beta 110.764445
_cell_angle_gamma 90.000000
_cell_volume 2199.897838
_symmetry_space_group_name_H-M "C 2/M"
_symmetry_group_IT_number 12
_symmetry_cell_setting 'monoclinic'
loop_
_space_group_symop_operation_xyz
x,y,z
-x,y,-z
-x,-y,-z
x,-y,z
1/2+x,1/2+y,z
1/2-x,1/2+y,-z
1/2-x,1/2-y,-z
1/2+x,1/2-y,z
loop_
_atom_site_type_symbol
_atom_site_label
_atom_site_fract_x
_atom_site_fract_y
_atom_site_fract_z
Si Si1 0.919635 0.899810 0.689784
Si Si2 0.430056 0.598738 0.877725
Si Si3 0.786449 0.397818 0.758699
Si Si4 0.704358 0.099734 0.052664
Si Si5 0.500000 0.248031 0.000000
Si Si6 0.000000 0.256574 0.500000
Si Si7 0.176482 0.712616 0.385876
O O1 0.842423 0.818865 0.629175
O O2 0.878564 0.893706 0.775895
O O3 0.102518 0.888435 0.720932
O O4 0.882871 0.000000 0.654564
O O5 0.382183 0.500000 0.898632
O O6 0.614036 0.600039 0.914577
O O7 0.402092 0.686110 0.923997
O O8 0.821971 0.500000 0.744804
O O9 0.832817 0.384745 0.860359
O O10 0.855480 0.333979 0.705176
O O11 0.658261 0.000000 0.019446
O O12 0.621267 0.177762 0.988361
O O13 0.937547 0.310892 0.564486
O O14 0.852924 0.199125 0.444320
#
# Coordination Sequence:
#
# PCOD9217895 Si02
#       7
#     8   8   8   8   4   4   8
#     4   9  18  35  59  78 101 147 194 222 259 328
#     4   9  19  33  49  75 106 138 182 225 260 315
#     4   9  18  35  59  78 101 147 194 222 259 328
#     4   9  19  33  49  75 106 138 182 225 260 315
#     4  12  18  28  50  80 104 146 168 224 282 320
#     4  10  24  34  58  84 126 134 176 216 288 322
#     4  11  19  40  55  87 110 152 168 231 267 334
#
# _framework density 21.819195000000001
#
# number of rings (size 3 to 8) (size 9 to 14) (size 15 to 20)
#    0.000    2.333    1.667    4.000    0.000    0.000 
#    0.000    5.833    0.000    0.000    0.000    0.000 
#    0.000    0.000    0.000    0.000    0.000    0.000 
#
# Total GULP energy -133833.798653 kJ/mol
# GULP energy per Si atom -5576.408277 kJ/mol
# Density = 2.176953 g / cm^3
# Si number density = 21.819195 Si / 1000 Ang^3
#
#
#
# Elastic Constant Matrix: (Units=GPa)
#
#
# Indices 1 2 3 4 5 6 
#
# 1 70.0690 21.0804 18.8131 0.0000 -12.0892 0.0000
# 2 21.0804 139.6985 36.5409 0.0000 -8.7740 0.0000
# 3 18.8131 36.5409 51.7345 0.0000 -18.8169 0.0000
# 4 0.0000 0.0000 0.0000 18.6714 0.0000 3.5965
# 5 -12.0892 -8.7740 -18.8169 0.0000 37.6811 0.0000
# 6 0.0000 0.0000 0.0000 3.5965 0.0000 12.9470
#
#
#
# Elastic Compliance Matrix: (Units=1/GPa)
#
#
# Indices 1 2 3 4 5 6 
#
# 1 0.016211 -0.001226 -0.003961 0.000000 0.002938 0.000000
# 2 -0.001226 0.008924 -0.006409 0.000000 -0.001516 0.000000
# 3 -0.003961 -0.006409 0.029683 0.000000 0.012060 0.000000
# 4 0.000000 0.000000 0.000000 0.056586 0.000000 -0.015719
# 5 0.002938 -0.001516 0.012060 0.000000 0.033150 0.000000
# 6 0.000000 0.000000 0.000000 -0.015719 0.000000 0.081605
#
#
# Mechanical properties :
#
#
# Convention : Reuss Voigt Hill
#
# Bulk Modulus (GPa) = 31.61852 46.04121 38.82987
# Shear Modulus (GPa) = 19.23875 26.19773 22.71824
#
# Velocity S-wave (km/s) = 2.97262 3.46883 3.23027
# Velocity P-wave (km/s) = 5.12880 6.09842 5.63451
#
# Compressibility (1/GPa) = 0.03162703
#
# Stress axis : x y z
#
# Youngs Moduli (GPa) = 61.68783 112.05176 33.68933
#
# Poissons Ratio (x) = 0.13734 0.13344
# Poissons Ratio (y) = 0.07561 0.21592
# Poissons Ratio (z) = 0.24433 0.71815
#
# Static dielectric constant tensor:
#      x y z
#    x 1.841490 0.000000 -0.030500 
#    y 0.000000 1.803750 0.000000 
#    z -0.030500 0.000000 1.845390 
# 
# From -- ./inp_files/262550.got.cif
#   From: 2010.05.17/outbox.cif.g08.bks.cpg/sg12_132_cif.got.tgz:262550.got - 2010.06.03 13:09:07.
