data_PCOD9217570
_publ_section_title
;
Structure prediction by ZEFSAII (Michael W. Deem and Ramdas Pophale) SiO2 
 PCOD9217570
Probable space group: C 2/M
;
_chemical_formula_sum "Si O2"
_cell_formula_units_Z 56
_cell_length_a 9.723967
_cell_length_b 24.862252
_cell_length_c 19.979024
_cell_angle_alpha 90.000000
_cell_angle_beta 34.046188
_cell_angle_gamma 90.000000
_cell_volume 2704.197783
_symmetry_space_group_name_H-M "C 2/M"
_symmetry_group_IT_number 12
_symmetry_cell_setting 'monoclinic'
loop_
_space_group_symop_operation_xyz
x,y,z
-x,y,-z
-x,-y,-z
x,-y,z
1/2+x,1/2+y,z
1/2-x,1/2+y,-z
1/2-x,1/2-y,-z
1/2+x,1/2-y,z
loop_
_atom_site_type_symbol
_atom_site_label
_atom_site_fract_x
_atom_site_fract_y
_atom_site_fract_z
Si Si1 0.426286 0.342141 0.106852
Si Si2 0.802784 0.435532 0.525217
Si Si3 0.930219 0.619524 0.952386
Si Si4 0.712511 0.224914 0.786857
Si Si5 0.876250 0.625227 0.357782
Si Si6 0.737383 0.437180 0.281953
Si Si7 0.232180 0.744023 0.621114
O O1 0.395390 0.279657 0.138585
O O2 0.162973 0.368505 0.224909
O O3 0.500000 0.345903 0.000000
O O4 0.641448 0.369890 0.061958
O O5 0.830405 0.500000 0.509418
O O6 0.849101 0.409868 0.434522
O O7 0.515451 0.424695 0.655601
O O8 0.000000 0.415791 0.500000
O O9 0.064794 0.674626 0.874824
O O10 0.034681 0.576437 0.857731
O O11 0.000000 0.606522 0.000000
O O12 0.692484 0.230851 0.715192
O O13 0.000491 0.222224 0.689336
O O14 0.749538 0.598314 0.344341
O O15 0.778089 0.685573 0.410156
O O16 0.735336 0.500000 0.301209
O O17 0.500000 0.768351 0.500000
#
# Coordination Sequence:
#
# PCOD9217570 Si02
#       7
#     8   8   8   8   8   8   8
#     4  11  22  42  64  94 125 168 220 266 312 382
#     4  10  23  43  69  97 127 163 212 268 321 385
#     4  12  24  40  63  91 128 169 217 265 317 376
#     4  11  22  40  62  90 124 173 215 258 318 380
#     4  11  22  41  68  96 127 170 211 264 321 384
#     4  11  23  43  67  94 128 170 214 260 322 385
#     4  11  22  39  60  94 133 165 208 265 320 383
#
# _framework density 20.708542999999999
#
# number of rings (size 3 to 8) (size 9 to 14) (size 15 to 20)
#    0.000    1.000    2.857    4.714    2.000    1.429 
#    0.000    2.143    0.000    0.000    0.000    0.000 
#    0.000    0.000    0.000    0.000    0.000    0.000 
#
# Total GULP energy -156710.886718 kJ/mol
# GULP energy per Si atom -5596.817383 kJ/mol
# Density = 2.066141 g / cm^3
# Si number density = 20.708543 Si / 1000 Ang^3
#
#
#
# Elastic Constant Matrix: (Units=GPa)
#
#
# Indices 1 2 3 4 5 6 
#
# 1 107.6455 5.9195 7.6426 0.0020 -14.6464 0.0003
# 2 5.9195 33.7921 0.2348 0.0044 -16.7762 0.0035
# 3 7.6426 0.2348 53.8524 0.0170 -16.1009 0.0111
# 4 0.0020 0.0044 0.0170 10.3095 0.0010 -2.7011
# 5 -14.6464 -16.7762 -16.1009 0.0010 48.3831 0.0006
# 6 0.0003 0.0035 0.0111 -2.7011 0.0006 15.6789
#
#
#
# Elastic Compliance Matrix: (Units=1/GPa)
#
#
# Indices 1 2 3 4 5 6 
#
# 1 0.009708 -0.000406 -0.000599 -0.000001 0.002599 0.000000
# 2 -0.000406 0.036533 0.004052 -0.000028 0.013893 -0.000016
# 3 -0.000599 0.004052 0.021102 -0.000043 0.008246 -0.000024
# 4 -0.000001 -0.000028 -0.000043 0.101583 -0.000027 0.017500
# 5 0.002599 0.013893 0.008246 -0.000027 0.029016 -0.000015
# 6 0.000000 -0.000016 -0.000024 0.017500 -0.000015 0.066795
#
#
# Mechanical properties :
#
#
# Convention : Reuss Voigt Hill
#
# Bulk Modulus (GPa) = 13.61726 24.76487 19.19107
# Shear Modulus (GPa) = 17.66023 26.97385 22.31704
#
# Velocity S-wave (km/s) = 2.92344 3.61300 3.28635
# Velocity P-wave (km/s) = 4.24091 5.42123 4.86698
#
# Compressibility (1/GPa) = 0.07343623
#
# Stress axis : x y z
#
# Youngs Moduli (GPa) = 103.00574 27.37264 47.38879
#
# Poissons Ratio (x) = 0.01112 0.02839
# Poissons Ratio (y) = 0.04186 -0.19202
# Poissons Ratio (z) = 0.06171 -0.11091
#
# Static dielectric constant tensor:
#      x y z
#    x 1.749710 0.000000 -0.031990 
#    y 0.000000 1.725230 0.000000 
#    z -0.031990 0.000000 1.729700 
# 
# From -- ./inp_files/124261.got.cif
#   From: 2010.05.17/outbox.cif.g08.bks.cpg/sg12_63_cif.got.tgz:124261.got - 2010.06.03 13:09:07.
