data_PCOD9217979
_publ_section_title
;
Structure prediction by ZEFSAII (Michael W. Deem and Ramdas Pophale) SiO2 
 PCOD9217979
Probable space group: C 2/M
;
_chemical_formula_sum "Si O2"
_cell_formula_units_Z 44
_cell_length_a 9.658278
_cell_length_b 9.331552
_cell_length_c 26.229600
_cell_angle_alpha 90.000000
_cell_angle_beta 123.952449
_cell_angle_gamma 90.000000
_cell_volume 1960.931212
_symmetry_space_group_name_H-M "C 2/M"
_symmetry_group_IT_number 12
_symmetry_cell_setting 'monoclinic'
loop_
_space_group_symop_operation_xyz
x,y,z
-x,y,-z
-x,-y,-z
x,-y,z
1/2+x,1/2+y,z
1/2-x,1/2+y,-z
1/2-x,1/2-y,-z
1/2+x,1/2-y,z
loop_
_atom_site_type_symbol
_atom_site_label
_atom_site_fract_x
_atom_site_fract_y
_atom_site_fract_z
Si Si1 0.626036 0.332351 0.436880
Si Si2 0.488358 0.759856 0.053536
Si Si3 0.259986 0.000000 0.026181
Si Si4 0.238209 0.667436 0.362693
Si Si5 0.659707 0.830513 0.827396
Si Si6 0.827822 0.830739 0.755562
O O1 0.671884 0.500000 0.442316
O O2 0.750000 0.250000 0.500000
O O3 0.435150 0.325082 0.416248
O O4 0.639799 0.255259 0.385114
O O5 0.668331 0.711220 0.109323
O O6 0.395326 0.874204 0.068709
O O7 0.500000 0.833406 0.000000
O O8 0.373077 0.623206 0.020191
O O9 0.188553 0.500000 0.351460
O O10 0.215933 0.739357 0.303145
O O11 0.698461 0.809587 0.775037
O O12 0.507805 0.727805 0.810487
O O13 0.627714 0.000000 0.827875
O O14 0.836148 0.000000 0.745894
#
# Coordination Sequence:
#
# PCOD9217979 Si02
#       6
#     8   8   4   8   8   8
#     4  11  24  41  68 104 138 177 220 265 319 377
#     4  11  24  40  64  90 123 163 204 262 327 389
#     4  10  24  40  62  90 124 158 208 250 332 388
#     4  11  24  44  67  94 135 173 219 269 320 379
#     4  11  26  43  65  94 129 163 217 268 322 392
#     4  11  26  44  65  94 125 171 217 266 321 381
#
# _framework density 22.438317000000001
#
# number of rings (size 3 to 8) (size 9 to 14) (size 15 to 20)
#    0.000    1.091    0.909    3.818    6.364    9.455 
#    0.000    0.000    0.000    0.000    0.000    0.000 
#    0.000    0.000    0.000    0.000    0.000    0.000 
#
# Total GULP energy -122735.639643 kJ/mol
# GULP energy per Si atom -5578.892711 kJ/mol
# Density = 2.238725 g / cm^3
# Si number density = 22.438317 Si / 1000 Ang^3
#
#
#
# Elastic Constant Matrix: (Units=GPa)
#
#
# Indices 1 2 3 4 5 6 
#
# 1 67.7212 36.1335 -6.8359 0.0000 -1.1162 0.0000
# 2 36.1335 158.1033 15.1113 0.0000 4.4958 0.0000
# 3 -6.8359 15.1113 62.1460 0.0000 -4.7048 0.0000
# 4 0.0000 0.0000 0.0000 38.6869 0.0000 0.3433
# 5 -1.1162 4.4958 -4.7048 0.0000 38.3704 0.0000
# 6 0.0000 0.0000 0.0000 0.3433 0.0000 12.3317
#
#
#
# Elastic Compliance Matrix: (Units=1/GPa)
#
#
# Indices 1 2 3 4 5 6 
#
# 1 0.017398 -0.004309 0.003066 0.000000 0.001387 0.000000
# 2 -0.004309 0.007578 -0.002416 0.000000 -0.001309 0.000000
# 3 0.003066 -0.002416 0.017204 0.000000 0.002482 0.000000
# 4 0.000000 0.000000 0.000000 0.025855 0.000000 -0.000720
# 5 0.001387 -0.001309 0.002482 0.000000 0.026560 0.000000
# 6 0.000000 0.000000 0.000000 -0.000720 0.000000 0.081112
#
#
# Mechanical properties :
#
#
# Convention : Reuss Voigt Hill
#
# Bulk Modulus (GPa) = 28.68339 41.86535 35.27437
# Shear Modulus (GPa) = 25.68810 34.11525 29.90167
#
# Velocity S-wave (km/s) = 3.38721 3.90346 3.65446
# Velocity P-wave (km/s) = 5.30175 6.24616 5.79323
#
# Compressibility (1/GPa) = 0.03486338
#
# Stress axis : x y z
#
# Youngs Moduli (GPa) = 57.47866 131.96405 58.12706
#
# Poissons Ratio (x) = 0.56859 -0.17824
# Poissons Ratio (y) = 0.24766 0.14042
# Poissons Ratio (z) = -0.17625 0.31878
#
# Static dielectric constant tensor:
#      x y z
#    x 1.902650 0.000000 -0.058990 
#    y 0.000000 1.740430 0.000000 
#    z -0.058990 0.000000 1.861890 
# 
# From -- ./inp_files/357438.got.cif
#   From: 2010.05.17/outbox.cif.g08.bks.cpg/sg12_179_cif.got.tgz:357438.got - 2010.06.03 13:09:07.
