data_PCOD9217760
_publ_section_title
;
Structure prediction by ZEFSAII (Michael W. Deem and Ramdas Pophale) SiO2 
 PCOD9217760
Probable space group: C 2/M
;
_chemical_formula_sum "Si O2"
_cell_formula_units_Z 30
_cell_length_a 15.022820
_cell_length_b 17.833679
_cell_length_c 5.145193
_cell_angle_alpha 90.000000
_cell_angle_beta 70.049324
_cell_angle_gamma 90.000000
_cell_volume 1295.733808
_symmetry_space_group_name_H-M "C 2/M"
_symmetry_group_IT_number 12
_symmetry_cell_setting 'monoclinic'
loop_
_space_group_symop_operation_xyz
x,y,z
-x,y,-z
-x,-y,-z
x,-y,z
1/2+x,1/2+y,z
1/2-x,1/2+y,-z
1/2-x,1/2-y,-z
1/2+x,1/2-y,z
loop_
_atom_site_type_symbol
_atom_site_label
_atom_site_fract_x
_atom_site_fract_y
_atom_site_fract_z
Si Si1 0.931500 0.500000 0.314009
Si Si2 0.500000 0.500000 0.500000
Si Si3 0.298709 0.917024 0.758812
Si Si4 0.934817 0.705095 0.815870
Si Si5 0.906535 0.120988 0.920032
O O1 0.860190 0.430357 0.435120
O O2 0.000000 0.500000 0.500000
O O3 0.000000 0.500000 0.000000
O O4 0.423490 0.565932 0.662946
O O5 0.348827 0.852352 0.871499
O O6 0.304763 0.000000 0.880230
O O7 0.188959 0.899586 0.833720
O O8 0.902901 0.791649 0.855018
O O9 0.000000 0.695474 0.500000
O O10 0.000000 0.691033 0.000000
O O11 0.000000 0.106061 0.000000
#
# Coordination Sequence:
#
# PCOD9217760 Si02
#       5
#     4   2   8   8   8
#     4  10  23  45  67 105 146 186 239 298 359 429
#     4  12  20  42  76  94 144 182 252 296 382 412
#     4  10  24  45  72 109 146 192 251 295 373 443
#     4  11  25  48  72 106 151 199 243 306 370 435
#     4  11  24  48  71 108 146 192 247 312 368 440
#
# _framework density 23.152905000000001
#
# number of rings (size 3 to 8) (size 9 to 14) (size 15 to 20)
#    0.800    0.533    2.667    2.000    0.000    4.800 
#   14.400    4.000    0.000    0.000    0.000    0.000 
#    0.000    0.000    0.000    0.000    0.000    0.000 
#
# Total GULP energy -83593.266483 kJ/mol
# GULP energy per Si atom -5572.884432 kJ/mol
# Density = 2.310021 g / cm^3
# Si number density = 23.152905 Si / 1000 Ang^3
#
#
#
# Elastic Constant Matrix: (Units=GPa)
#
#
# Indices 1 2 3 4 5 6 
#
# 1 158.1250 94.3974 83.8172 0.0000 -40.8255 0.0000
# 2 94.3974 149.8541 37.2597 0.0000 -14.6841 0.0000
# 3 83.8172 37.2597 151.0826 0.0000 -24.0744 0.0000
# 4 0.0000 0.0000 0.0000 25.3848 0.0000 -20.8329
# 5 -40.8255 -14.6841 -24.0744 0.0000 44.0641 0.0000
# 6 0.0000 0.0000 0.0000 -20.8329 0.0000 4.7473
#
#
#
# Elastic Compliance Matrix: (Units=1/GPa)
#
#
# Indices 1 2 3 4 5 6 
#
# 1 0.016726 -0.008167 -0.005728 0.000000 0.009646 0.000000
# 2 -0.008167 0.011194 0.001269 0.000000 -0.003143 0.000000
# 3 -0.005728 0.001269 0.009536 0.000000 0.000326 0.000000
# 4 0.000000 0.000000 0.000000 -0.015143 0.000000 -0.066453
# 5 0.009646 -0.003143 0.000326 0.000000 0.030762 0.000000
# 6 0.000000 0.000000 0.000000 -0.066453 0.000000 -0.080973
#
#
# Mechanical properties :
#
#
# Convention : Reuss Voigt Hill
#
# Bulk Modulus (GPa) = 81.93724 98.89002 90.41363
# Shear Modulus (GPa) = 3515.96343 31.07841 1773.52092
#
# Velocity S-wave (km/s) = 39.01129 3.66773 27.70680
# Velocity P-wave (km/s) = 45.43832 7.79364 32.59894
#
# Compressibility (1/GPa) = 0.01220446
#
# Stress axis : x y z
#
# Youngs Moduli (GPa) = 59.78558 89.33199 104.86965
#
# Poissons Ratio (x) = 0.72957 0.60072
# Poissons Ratio (y) = 0.48827 -0.13312
# Poissons Ratio (z) = 0.34247 -0.11340
#
# Static dielectric constant tensor:
#      x y z
#    x 1.871580 0.000000 0.035360 
#    y 0.000000 1.893030 0.000000 
#    z 0.035360 0.000000 1.922320 
# 
# From -- ./inp_files/9920.got.cif
#   From: 2010.05.17/outbox.cif.g08.bks.cpg/sg12_5_cif.got.tgz:9920.got - 2010.06.03 13:09:07.
