data_PCOD9217964
_publ_section_title
;
Structure prediction by ZEFSAII (Michael W. Deem and Ramdas Pophale) SiO2 
 PCOD9217964
Probable space group: C 2/M
;
_chemical_formula_sum "Si O2"
_cell_formula_units_Z 28
_cell_length_a 8.749357
_cell_length_b 31.306697
_cell_length_c 4.968723
_cell_angle_alpha 90.000000
_cell_angle_beta 104.089709
_cell_angle_gamma 90.000000
_cell_volume 1320.055490
_symmetry_space_group_name_H-M "C 2/M"
_symmetry_group_IT_number 12
_symmetry_cell_setting 'monoclinic'
loop_
_space_group_symop_operation_xyz
x,y,z
-x,y,-z
-x,-y,-z
x,-y,z
1/2+x,1/2+y,z
1/2-x,1/2+y,-z
1/2-x,1/2-y,-z
1/2+x,1/2-y,z
loop_
_atom_site_type_symbol
_atom_site_label
_atom_site_fract_x
_atom_site_fract_y
_atom_site_fract_z
Si Si1 0.746531 0.308417 0.258562
Si Si2 0.500000 0.258631 0.500000
Si Si3 0.616018 0.952884 0.301426
Si Si4 0.322172 0.863285 0.804536
O O1 0.595956 0.286467 0.328024
O O2 0.813915 0.339332 0.519189
O O3 0.876615 0.271151 0.285951
O O4 0.725257 0.336083 0.981321
O O5 0.500000 0.942049 0.500000
O O6 0.723810 0.912423 0.274856
O O7 0.687932 0.000000 0.383206
O O8 0.500000 0.957100 0.000000
O O9 0.500000 0.863516 0.000000
#
# Coordination Sequence:
#
# PCOD9217964 Si02
#       4
#     8   4   8   8
#     4  11  23  37  56  76 108 142 182 225 266 314
#     4  10  24  40  54  78 104 144 190 226 264 312
#     4   9  17  29  49  78 111 139 169 212 265 320
#     4  11  19  34  54  81 108 141 173 219 271 321
#
# _framework density 21.211227999999998
#
# number of rings (size 3 to 8) (size 9 to 14) (size 15 to 20)
#    0.000    1.714    2.857    3.429    0.000    8.000 
#    0.000    0.000    0.000    0.000    0.000    6.000 
#    0.000    0.000    0.000    0.000    0.000    0.000 
#
# Total GULP energy -78230.018418 kJ/mol
# GULP energy per Si atom -5587.858458 kJ/mol
# Density = 2.116295 g / cm^3
# Si number density = 21.211228 Si / 1000 Ang^3
#
#
#
# Elastic Constant Matrix: (Units=GPa)
#
#
# Indices 1 2 3 4 5 6 
#
# 1 66.5616 58.5197 8.2594 0.0000 -17.7602 0.0000
# 2 58.5197 189.6812 32.3732 0.0000 -27.0279 0.0000
# 3 8.2594 32.3732 105.4477 0.0000 -20.3284 0.0000
# 4 0.0000 0.0000 0.0000 28.9836 0.0000 -13.1851
# 5 -17.7602 -27.0279 -20.3284 0.0000 27.9262 0.0000
# 6 0.0000 0.0000 0.0000 -13.1851 0.0000 6.1089
#
#
#
# Elastic Compliance Matrix: (Units=1/GPa)
#
#
# Indices 1 2 3 4 5 6 
#
# 1 0.022661 -0.005882 0.001991 0.000000 0.010168 0.000000
# 2 -0.005882 0.007710 -0.001383 0.000000 0.002714 0.000000
# 3 0.001991 -0.001383 0.011328 0.000000 0.008174 0.000000
# 4 0.000000 0.000000 0.000000 1.902646 0.000000 4.106580
# 5 0.010168 0.002714 0.008174 0.000000 0.050852 0.000000
# 6 0.000000 0.000000 0.000000 4.106580 0.000000 9.027143
#
#
# Mechanical properties :
#
#
# Convention : Reuss Voigt Hill
#
# Bulk Modulus (GPa) = 32.10232 62.22169 47.16201
# Shear Modulus (GPa) = 0.45276 30.10627 15.27952
#
# Velocity S-wave (km/s) = 0.46251 3.77152 2.68685
# Velocity P-wave (km/s) = 3.93099 6.95441 5.64874
#
# Compressibility (1/GPa) = 0.03115040
#
# Stress axis : x y z
#
# Youngs Moduli (GPa) = 44.12789 129.70944 88.27899
#
# Poissons Ratio (x) = 0.76300 -0.17578
# Poissons Ratio (y) = 0.25958 0.12209
# Poissons Ratio (z) = -0.08787 0.17938
#
# Static dielectric constant tensor:
#      x y z
#    x 1.768770 0.000000 0.021470 
#    y 0.000000 1.861790 0.000000 
#    z 0.021470 0.000000 1.736380 
# 
# From -- ./inp_files/3332.got.cif
#   From: 2010.05.17/outbox.cif.g08.bks.cpg/sg12_2_cif.got.tgz:3332.got - 2010.06.03 13:09:07.
