data_PCOD9217823
_publ_section_title
;
Structure prediction by ZEFSAII (Michael W. Deem and Ramdas Pophale) SiO2 
 PCOD9217823
Probable space group: C 2/M
;
_chemical_formula_sum "Si O2"
_cell_formula_units_Z 36
_cell_length_a 15.668915
_cell_length_b 9.863996
_cell_length_c 9.710108
_cell_angle_alpha 90.000000
_cell_angle_beta 85.686526
_cell_angle_gamma 90.000000
_cell_volume 1496.525000
_symmetry_space_group_name_H-M "C 2/M"
_symmetry_group_IT_number 12
_symmetry_cell_setting 'monoclinic'
loop_
_space_group_symop_operation_xyz
x,y,z
-x,y,-z
-x,-y,-z
x,-y,z
1/2+x,1/2+y,z
1/2-x,1/2+y,-z
1/2-x,1/2-y,-z
1/2+x,1/2-y,z
loop_
_atom_site_type_symbol
_atom_site_label
_atom_site_fract_x
_atom_site_fract_y
_atom_site_fract_z
Si Si1 0.730986 0.500000 0.009369
Si Si2 0.465783 0.302104 0.356534
Si Si3 0.933447 0.500000 0.291681
Si Si4 0.242217 0.000000 0.395761
Si Si5 0.857873 0.801270 0.775290
Si Si6 0.317030 0.500000 0.304745
Si Si7 0.609809 0.000000 0.150414
O O1 0.707388 0.500000 0.851606
O O2 0.834532 0.500000 0.996091
O O3 0.690296 0.370482 0.090926
O O4 0.500000 0.348488 0.500000
O O5 0.453941 0.141064 0.363832
O O6 0.541959 0.338226 0.242002
O O7 0.378404 0.371386 0.323814
O O8 0.830750 0.500000 0.302104
O O9 0.006424 0.500000 0.162399
O O10 0.188682 0.130949 0.349886
O O11 0.249256 0.000000 0.559413
O O12 0.860366 0.639293 0.780001
#
# Coordination Sequence:
#
# PCOD9217823 Si02
#       7
#     4   8   4   4   8   4   4
#     4  11  25  43  70 104 137 188 234 281 339 415
#     4  11  22  44  70 102 140 183 224 288 355 405
#     4  10  26  42  68 106 143 177 228 291 349 413
#     4  11  23  44  71 110 134 179 235 288 340 413
#     4  10  23  45  75  96 142 186 230 280 350 413
#     4  12  25  40  73 106 142 175 240 287 336 416
#     4  10  23  48  72 100 138 190 227 286 351 410
#
# _framework density 24.055731999999999
#
# number of rings (size 3 to 8) (size 9 to 14) (size 15 to 20)
#    0.000    1.333    2.222    2.667    3.111    6.222 
#    0.000    2.222    0.000    0.000    0.000    0.000 
#    0.000    0.000    0.000    0.000    0.000    0.000 
#
# Total GULP energy -100583.936909 kJ/mol
# GULP energy per Si atom -5587.996495 kJ/mol
# Density = 2.400098 g / cm^3
# Si number density = 24.055732 Si / 1000 Ang^3
#
#
#
# Elastic Constant Matrix: (Units=GPa)
#
#
# Indices 1 2 3 4 5 6 
#
# 1 115.2462 32.9690 49.3705 0.0000 -35.6179 0.0000
# 2 32.9690 177.4519 35.2722 0.0000 -9.7321 0.0000
# 3 49.3705 35.2722 147.9681 0.0000 -9.3180 0.0000
# 4 0.0000 0.0000 0.0000 41.8747 0.0000 -9.2810
# 5 -35.6179 -9.7321 -9.3180 0.0000 41.5645 0.0000
# 6 0.0000 0.0000 0.0000 -9.2810 0.0000 31.4195
#
#
#
# Elastic Compliance Matrix: (Units=1/GPa)
#
#
# Indices 1 2 3 4 5 6 
#
# 1 0.013967 -0.001270 -0.003674 0.000000 0.010848 0.000000
# 2 -0.001270 0.006080 -0.001019 0.000000 0.000107 0.000000
# 3 -0.003674 -0.001019 0.008129 0.000000 -0.001565 0.000000
# 4 0.000000 0.000000 0.000000 0.025554 0.000000 0.007548
# 5 0.010848 0.000107 -0.001565 0.000000 0.033029 0.000000
# 6 0.000000 0.000000 0.000000 0.007548 0.000000 0.034057
#
#
# Mechanical properties :
#
#
# Convention : Reuss Voigt Hill
#
# Bulk Modulus (GPa) = 61.54126 75.09885 68.32006
# Shear Modulus (GPa) = 36.19067 44.50870 40.34969
#
# Velocity S-wave (km/s) = 3.88293 4.30610 4.09998
# Velocity P-wave (km/s) = 6.76323 7.48397 7.13271
#
# Compressibility (1/GPa) = 0.01624926
#
# Stress axis : x y z
#
# Youngs Moduli (GPa) = 71.59754 164.48416 123.02365
#
# Poissons Ratio (x) = 0.20884 0.45204
# Poissons Ratio (y) = 0.09090 0.12535
# Poissons Ratio (z) = 0.26308 0.16759
#
# Static dielectric constant tensor:
#      x y z
#    x 1.951700 0.000000 -0.040190 
#    y 0.000000 1.920410 0.000000 
#    z -0.040190 0.000000 1.908480 
# 
# From -- ./inp_files/71174.got.cif
#   From: 2010.05.17/outbox.cif.g08.bks.cpg/sg12_36_cif.got.tgz:71174.got - 2010.06.03 13:09:07.
