data_PCOD9217299
_publ_section_title
;
Structure prediction by ZEFSAII (Michael W. Deem and Ramdas Pophale) SiO2 
 PCOD9217299
Probable space group: C 2/M
;
_chemical_formula_sum "Si O2"
_cell_formula_units_Z 56
_cell_length_a 25.681905
_cell_length_b 25.411774
_cell_length_c 11.037744
_cell_angle_alpha 90.000000
_cell_angle_beta 22.678585
_cell_angle_gamma 90.000000
_cell_volume 2777.383595
_symmetry_space_group_name_H-M "C 2/M"
_symmetry_group_IT_number 12
_symmetry_cell_setting 'monoclinic'
loop_
_space_group_symop_operation_xyz
x,y,z
-x,y,-z
-x,-y,-z
x,-y,z
1/2+x,1/2+y,z
1/2-x,1/2+y,-z
1/2-x,1/2-y,-z
1/2+x,1/2-y,z
loop_
_atom_site_type_symbol
_atom_site_label
_atom_site_fract_x
_atom_site_fract_y
_atom_site_fract_z
Si Si1 0.640138 0.335316 0.980845
Si Si2 0.413403 0.560417 0.306554
Si Si3 0.582195 0.442855 0.197664
Si Si4 0.929450 0.671793 0.280994
Si Si5 0.645100 0.770174 0.127843
Si Si6 0.080477 0.209450 0.704100
Si Si7 0.311748 0.145150 0.154253
O O1 0.772837 0.342993 0.613699
O O2 0.648825 0.385224 0.051014
O O3 0.642230 0.278779 0.040885
O O4 0.500243 0.331275 0.207043
O O5 0.374554 0.500000 0.361963
O O6 0.498732 0.558185 0.249383
O O7 0.279800 0.594707 0.621880
O O8 0.500000 0.578274 0.000000
O O9 0.500000 0.443654 0.500000
O O10 0.656619 0.500000 0.035312
O O11 0.927141 0.732088 0.332332
O O12 0.000000 0.669701 0.000000
O O13 0.032156 0.639867 0.145366
O O14 0.500000 0.776792 0.500000
O O15 0.750000 0.750000 0.000000
O O16 0.690927 0.825334 0.969543
O O17 0.232511 0.190543 0.401025
O O18 0.000000 0.211331 0.000000
#
# Coordination Sequence:
#
# PCOD9217299 Si02
#       7
#     8   8   8   8   8   8   8
#     4  12  22  39  61  89 124 168 208 257 316 377
#     4  10  23  43  70  98 124 165 222 271 318 383
#     4  10  23  42  66  95 122 159 217 274 318 369
#     4  11  23  36  55  91 133 163 201 255 319 389
#     4  12  25  39  58  87 128 170 215 258 311 388
#     4  11  20  36  59  87 123 165 206 249 305 377
#     4  12  22  39  61  90 125 164 210 264 319 374
#
# _framework density 20.162862000000001
#
# number of rings (size 3 to 8) (size 9 to 14) (size 15 to 20)
#    0.000    0.857    4.286    3.429    4.000    2.286 
#    0.000    0.714    0.000    1.286    0.000    0.000 
#    0.000    0.000    0.000    0.000    0.000    0.000 
#
# Total GULP energy -156002.977176 kJ/mol
# GULP energy per Si atom -5571.534899 kJ/mol
# Density = 2.011697 g / cm^3
# Si number density = 20.162862 Si / 1000 Ang^3
#
#
#
# Elastic Constant Matrix: (Units=GPa)
#
#
# Indices 1 2 3 4 5 6 
#
# 1 70.0027 4.4799 14.4248 0.0016 7.9742 -0.0013
# 2 4.4799 105.3440 24.0569 -0.0002 13.7916 0.0006
# 3 14.4248 24.0569 108.6875 0.0013 16.2963 0.0015
# 4 0.0016 -0.0002 0.0013 20.7312 -0.0002 11.3597
# 5 7.9742 13.7916 16.2963 -0.0002 31.8456 0.0006
# 6 -0.0013 0.0006 0.0015 11.3597 0.0006 15.9723
#
#
#
# Elastic Compliance Matrix: (Units=1/GPa)
#
#
# Indices 1 2 3 4 5 6 
#
# 1 0.014940 0.000112 -0.001559 -0.000003 -0.002992 0.000004
# 2 0.000112 0.010364 -0.001767 0.000000 -0.003612 0.000000
# 3 -0.001559 -0.001767 0.010425 0.000000 -0.004179 -0.000001
# 4 -0.000003 0.000000 0.000000 0.079039 0.000002 -0.056214
# 5 -0.002992 -0.003612 -0.004179 0.000002 0.035854 -0.000003
# 6 0.000004 0.000000 -0.000001 -0.056214 -0.000003 0.102588
#
#
# Mechanical properties :
#
#
# Convention : Reuss Voigt Hill
#
# Bulk Modulus (GPa) = 34.12761 41.10637 37.61699
# Shear Modulus (GPa) = 18.55933 29.78133 24.17033
#
# Velocity S-wave (km/s) = 3.03722 3.84740 3.46606
# Velocity P-wave (km/s) = 5.40947 6.33783 5.89196
#
# Compressibility (1/GPa) = 0.02930178
#
# Stress axis : x y z
#
# Youngs Moduli (GPa) = 66.93415 96.48360 95.91950
#
# Poissons Ratio (x) = -0.01084 0.14955
# Poissons Ratio (y) = -0.00752 0.16952
# Poissons Ratio (z) = 0.10436 0.17052
#
# Static dielectric constant tensor:
#      x y z
#    x 1.810170 0.000000 -0.003790 
#    y 0.000000 1.766780 0.000000 
#    z -0.003790 0.000000 1.727800 
# 
# From -- ./inp_files/185125.got.cif
#   From: 2010.05.17/outbox.cif.g08.bks.cpg/sg12_93_cif.got.tgz:185125.got - 2010.06.03 13:09:07.
