data_PCOD9217189
_publ_section_title
;
Structure prediction by ZEFSAII (Michael W. Deem and Ramdas Pophale) SiO2 
 PCOD9217189
Probable space group: C 2/M
;
_chemical_formula_sum "Si O2"
_cell_formula_units_Z 40
_cell_length_a 9.619164
_cell_length_b 9.784015
_cell_length_c 21.471213
_cell_angle_alpha 90.000000
_cell_angle_beta 101.006366
_cell_angle_gamma 90.000000
_cell_volume 1983.573116
_symmetry_space_group_name_H-M "C 2/M"
_symmetry_group_IT_number 12
_symmetry_cell_setting 'monoclinic'
loop_
_space_group_symop_operation_xyz
x,y,z
-x,y,-z
-x,-y,-z
x,-y,z
1/2+x,1/2+y,z
1/2-x,1/2+y,-z
1/2-x,1/2-y,-z
1/2+x,1/2-y,z
loop_
_atom_site_type_symbol
_atom_site_label
_atom_site_fract_x
_atom_site_fract_y
_atom_site_fract_z
Si Si1 0.464545 0.234886 0.849325
Si Si2 0.616715 0.000000 0.063299
Si Si3 0.250409 0.161480 0.437142
Si Si4 0.004262 0.339389 0.364571
Si Si5 0.443492 0.500000 0.065561
Si Si6 0.807843 0.340420 0.231135
O O1 0.503780 0.370210 0.890696
O O2 0.338345 0.261280 0.789628
O O3 0.600131 0.181419 0.823367
O O4 0.407928 0.128754 0.894644
O O5 0.773660 0.000000 0.049416
O O6 0.500000 0.000000 0.000000
O O7 0.250000 0.250000 0.500000
O O8 0.402069 0.168436 0.416040
O O9 0.133439 0.235718 0.384071
O O10 0.218850 0.000000 0.444695
O O11 0.048408 0.500000 0.361512
O O12 0.905951 0.301043 0.297559
O O13 0.500000 0.500000 0.000000
O O14 0.774498 0.500000 0.235924
#
# Coordination Sequence:
#
# PCOD9217189 Si02
#       6
#     8   4   8   8   4   8
#     4  12  24  44  67  95 127 169 215 264 328 383
#     4  12  28  44  66  98 130 164 219 267 318 390
#     4  11  23  41  65  96 133 174 218 265 317 379
#     4  10  23  42  63  95 129 171 216 265 322 379
#     4  12  28  44  68  96 128 172 213 267 322 390
#     4  11  23  42  68  94 129 167 213 270 322 382
#
# _framework density 20.165627000000001
#
# number of rings (size 3 to 8) (size 9 to 14) (size 15 to 20)
#    0.000    0.800    4.000    3.000    2.800    5.600 
#    3.600    0.000    0.000    0.000    0.000    0.000 
#    0.000    0.000    0.000    0.000    0.000    0.000 
#
# Total GULP energy -111873.341364 kJ/mol
# GULP energy per Si atom -5593.667068 kJ/mol
# Density = 2.011973 g / cm^3
# Si number density = 20.165627 Si / 1000 Ang^3
#
#
#
# Elastic Constant Matrix: (Units=GPa)
#
#
# Indices 1 2 3 4 5 6 
#
# 1 74.0463 22.2607 -6.5749 0.0000 5.4164 0.0000
# 2 22.2607 100.2303 17.5556 0.0000 16.8319 0.0000
# 3 -6.5749 17.5556 73.0488 0.0000 8.5223 0.0000
# 4 0.0000 0.0000 0.0000 38.1816 0.0000 1.1036
# 5 5.4164 16.8319 8.5223 0.0000 41.2550 0.0000
# 6 0.0000 0.0000 0.0000 1.1036 0.0000 22.7396
#
#
#
# Elastic Compliance Matrix: (Units=1/GPa)
#
#
# Indices 1 2 3 4 5 6 
#
# 1 0.014844 -0.003535 0.002300 0.000000 -0.000982 0.000000
# 2 -0.003535 0.011881 -0.002728 0.000000 -0.003820 0.000000
# 3 0.002300 -0.002728 0.014815 0.000000 -0.002249 0.000000
# 4 0.000000 0.000000 0.000000 0.026227 0.000000 -0.001273
# 5 -0.000982 -0.003820 -0.002249 0.000000 0.026392 0.000000
# 6 0.000000 0.000000 0.000000 -0.001273 0.000000 0.044038
#
#
# Mechanical properties :
#
#
# Convention : Reuss Voigt Hill
#
# Bulk Modulus (GPa) = 29.74902 34.86758 32.30830
# Shear Modulus (GPa) = 31.78105 34.70751 33.24428
#
# Velocity S-wave (km/s) = 3.97419 4.15314 4.06465
# Velocity P-wave (km/s) = 5.98693 6.35030 6.17129
#
# Compressibility (1/GPa) = 0.03361456
#
# Stress axis : x y z
#
# Youngs Moduli (GPa) = 67.36836 84.16543 67.50133
#
# Poissons Ratio (x) = 0.29750 -0.15526
# Poissons Ratio (y) = 0.23813 0.18414
# Poissons Ratio (z) = -0.15495 0.22960
#
# Static dielectric constant tensor:
#      x y z
#    x 1.688500 0.000000 0.009740 
#    y 0.000000 1.676980 0.000000 
#    z 0.009740 0.000000 1.722690 
# 
# From -- ./inp_files/331769.got.cif
#   From: 2010.05.17/outbox.cif.g08.bks.cpg/sg12_166_cif.got.tgz:331769.got - 2010.06.03 13:09:07.
