data_PCOD9217852
_publ_section_title
;
Structure prediction by ZEFSAII (Michael W. Deem and Ramdas Pophale) SiO2 
 PCOD9217852
Probable space group: C 2/M
;
_chemical_formula_sum "Si O2"
_cell_formula_units_Z 32
_cell_length_a 15.594635
_cell_length_b 17.522535
_cell_length_c 10.947139
_cell_angle_alpha 90.000000
_cell_angle_beta 23.445662
_cell_angle_gamma 90.000000
_cell_volume 1190.211076
_symmetry_space_group_name_H-M "C 2/M"
_symmetry_group_IT_number 12
_symmetry_cell_setting 'monoclinic'
loop_
_space_group_symop_operation_xyz
x,y,z
-x,y,-z
-x,-y,-z
x,-y,z
1/2+x,1/2+y,z
1/2-x,1/2+y,-z
1/2-x,1/2-y,-z
1/2+x,1/2-y,z
loop_
_atom_site_type_symbol
_atom_site_label
_atom_site_fract_x
_atom_site_fract_y
_atom_site_fract_z
Si Si1 0.743965 0.586055 0.305360
Si Si2 0.772188 0.706863 0.846167
Si Si3 0.092169 0.409061 0.165092
Si Si4 0.116751 0.857955 0.735583
O O1 0.656393 0.500000 0.420652
O O2 0.640970 0.624680 0.558502
O O3 0.752226 0.611474 0.153098
O O4 0.000000 0.583238 0.000000
O O5 0.805505 0.617981 0.841976
O O6 0.000000 0.733389 0.500000
O O7 0.750000 0.750000 0.000000
O O8 0.558360 0.711359 0.044635
O O9 0.051576 0.500000 0.210981
O O10 0.866852 0.362858 0.447678
O O11 0.000000 0.904052 0.000000
#
# Coordination Sequence:
#
# PCOD9217852 Si02
#       4
#     8   8   8   8
#     4   8  17  35  63 100 137 177 221 272 345 416
#     4  12  29  50  70 102 142 191 242 288 350 427
#     4  10  23  46  74 109 143 181 237 294 351 421
#     4  11  22  43  69 101 141 183 231 292 354 411
#
# _framework density 26.885987
#
# number of rings (size 3 to 8) (size 9 to 14) (size 15 to 20)
#    0.000    1.750    2.500    2.250    3.500    5.500 
#    0.000    2.500    0.000    0.000    0.000    0.000 
#    0.000    0.000    0.000    0.000    0.000    0.000 
#
# Total GULP energy -89215.144086 kJ/mol
# GULP energy per Si atom -5575.946505 kJ/mol
# Density = 2.682479 g / cm^3
# Si number density = 26.885987 Si / 1000 Ang^3
#
#
#
# Elastic Constant Matrix: (Units=GPa)
#
#
# Indices 1 2 3 4 5 6 
#
# 1 133.0016 27.6145 51.8542 -0.0558 9.4957 -0.0250
# 2 27.6145 61.6687 32.3296 -0.0157 -6.3536 -0.0046
# 3 51.8542 32.3296 232.1155 -0.0263 13.7697 -0.0113
# 4 -0.0558 -0.0157 -0.0263 8.2898 0.0805 1.9709
# 5 9.4957 -6.3536 13.7697 0.0805 67.4314 0.0175
# 6 -0.0250 -0.0046 -0.0113 1.9709 0.0175 15.2833
#
#
#
# Elastic Compliance Matrix: (Units=1/GPa)
#
#
# Indices 1 2 3 4 5 6 
#
# 1 0.008865 -0.003346 -0.001439 0.000060 -0.001270 0.000006
# 2 -0.003346 0.019076 -0.002069 -0.000019 0.002691 -0.000002
# 3 -0.001439 -0.002069 0.004978 0.000012 -0.001009 0.000000
# 4 0.000060 -0.000019 0.000012 0.124448 -0.000157 -0.016048
# 5 -0.001270 0.002691 -0.001009 -0.000157 0.015468 0.000001
# 6 0.000006 -0.000002 0.000000 -0.016048 0.000001 0.067501
#
#
# Mechanical properties :
#
#
# Convention : Reuss Voigt Hill
#
# Bulk Modulus (GPa) = 52.05519 72.26469 62.15994
# Shear Modulus (GPa) = 19.19771 39.20007 29.19889
#
# Velocity S-wave (km/s) = 2.67505 3.82253 3.29907
# Velocity P-wave (km/s) = 5.38003 6.81314 6.13855
#
# Compressibility (1/GPa) = 0.01921038
#
# Stress axis : x y z
#
# Youngs Moduli (GPa) = 112.80071 52.42187 200.89531
#
# Poissons Ratio (x) = 0.17541 0.28910
# Poissons Ratio (y) = 0.37744 0.41567
# Poissons Ratio (z) = 0.16233 0.10847
#
# Static dielectric constant tensor:
#      x y z
#    x 2.154480 -0.000020 0.009060 
#    y -0.000020 2.144360 0.000020 
#    z 0.009060 0.000020 2.107060 
# 
# From -- ./inp_files/160410.got.cif
#   From: 2010.05.17/outbox.cif.g08.bks.cpg/sg12_81_cif.got.tgz:160410.got - 2010.06.03 13:09:07.
