data_PCOD9217101
_publ_section_title
;
Structure prediction by ZEFSAII (Michael W. Deem and Ramdas Pophale) SiO2 
 PCOD9217101
Probable space group: C 2/M
;
_chemical_formula_sum "Si O2"
_cell_formula_units_Z 40
_cell_length_a 5.393328
_cell_length_b 21.202229
_cell_length_c 19.451336
_cell_angle_alpha 90.000000
_cell_angle_beta 127.249880
_cell_angle_gamma 90.000000
_cell_volume 1770.527358
_symmetry_space_group_name_H-M "C 2/M"
_symmetry_group_IT_number 12
_symmetry_cell_setting 'monoclinic'
loop_
_space_group_symop_operation_xyz
x,y,z
-x,y,-z
-x,-y,-z
x,-y,z
1/2+x,1/2+y,z
1/2-x,1/2+y,-z
1/2-x,1/2-y,-z
1/2+x,1/2-y,z
loop_
_atom_site_type_symbol
_atom_site_label
_atom_site_fract_x
_atom_site_fract_y
_atom_site_fract_z
Si Si1 0.829094 0.392075 0.798074
Si Si2 0.000000 0.381127 0.500000
Si Si3 0.702546 0.286145 0.102980
Si Si4 0.127864 0.500000 0.428868
Si Si5 0.245100 0.000000 0.896245
Si Si6 0.951335 0.500000 0.249162
Si Si7 0.069861 0.791955 0.341890
O O1 0.791469 0.437024 0.857739
O O2 0.570883 0.340724 0.737303
O O3 0.147541 0.352884 0.855658
O O4 0.852548 0.439331 0.738571
O O5 0.052745 0.431979 0.448838
O O6 0.263692 0.334156 0.571937
O O7 0.484833 0.259841 0.126823
O O8 0.500000 0.291807 0.000000
O O9 0.500000 0.500000 0.500000
O O10 0.925728 0.500000 0.325674
O O11 0.872704 0.000000 0.847663
O O12 0.500000 0.000000 0.000000
O O13 0.305931 0.747504 0.338605
#
# Coordination Sequence:
#
# PCOD9217101 Si02
#       7
#     8   4   8   4   4   4   8
#     4  11  26  45  70 104 142 187 248 302 376 439
#     4  11  26  46  74 112 150 191 254 306 368 453
#     4  10  23  41  68  99 134 182 235 291 358 429
#     4  11  24  45  80 107 147 202 246 307 381 443
#     4  11  28  45  74 106 143 196 254 319 382 437
#     4  11  26  45  74 101 146 192 246 312 380 447
#     4  12  28  47  77 111 152 200 246 306 378 448
#
# _framework density 22.592137000000001
#
# number of rings (size 3 to 8) (size 9 to 14) (size 15 to 20)
#    0.000    1.000    0.000    4.200   14.000    4.800 
#    0.000    0.000    0.000    0.000    0.000    0.000 
#    0.000    0.000    0.000    0.000    0.000    0.000 
#
# Total GULP energy -111756.225782 kJ/mol
# GULP energy per Si atom -5587.811289 kJ/mol
# Density = 2.254072 g / cm^3
# Si number density = 22.592137 Si / 1000 Ang^3
#
#
#
# Elastic Constant Matrix: (Units=GPa)
#
#
# Indices 1 2 3 4 5 6 
#
# 1 92.1998 65.5546 32.5979 0.0000 11.3416 0.0000
# 2 65.5546 181.2281 64.3772 0.0000 11.9662 0.0000
# 3 32.5979 64.3772 125.6802 0.0000 0.4844 0.0000
# 4 0.0000 0.0000 0.0000 -31.0077 0.0000 28.8924
# 5 11.3416 11.9662 0.4844 0.0000 29.8858 0.0000
# 6 0.0000 0.0000 0.0000 28.8924 0.0000 32.3206
#
#
#
# Elastic Compliance Matrix: (Units=1/GPa)
#
#
# Indices 1 2 3 4 5 6 
#
# 1 0.015203 -0.004705 -0.001518 0.000000 -0.003861 0.000000
# 2 -0.004705 0.008417 -0.003085 0.000000 -0.001535 0.000000
# 3 -0.001518 -0.003085 0.009924 0.000000 0.001651 0.000000
# 4 0.000000 0.000000 0.000000 -0.017595 0.000000 0.015728
# 5 -0.003861 -0.001535 0.001651 0.000000 0.035514 0.000000
# 6 0.000000 0.000000 0.000000 0.015728 0.000000 0.016880
#
#
# Mechanical properties :
#
#
# Convention : Reuss Voigt Hill
#
# Bulk Modulus (GPa) = 66.99026 80.46304 73.72665
# Shear Modulus (GPa) = 54.38529 22.01165 38.19847
#
# Velocity S-wave (km/s) = 4.91171 3.12477 4.11638
# Velocity P-wave (km/s) = 7.86657 6.97938 7.43622
#
# Compressibility (1/GPa) = 0.01492754
#
# Stress axis : x y z
#
# Youngs Moduli (GPa) = 65.77618 118.80548 100.76075
#
# Poissons Ratio (x) = 0.55898 0.15299
# Poissons Ratio (y) = 0.30948 0.31087
# Poissons Ratio (z) = 0.09987 0.36654
#
# Static dielectric constant tensor:
#      x y z
#    x 1.876220 0.000000 0.036670 
#    y 0.000000 1.848340 0.000000 
#    z 0.036670 0.000000 1.700950 
# 
# From -- ./inp_files/297863.got.cif
#   From: 2010.05.17/outbox.cif.g08.bks.cpg/sg12_149_cif.got.tgz:297863.got - 2010.06.03 13:09:07.
