data_PCOD9217826
_publ_section_title
;
Structure prediction by ZEFSAII (Michael W. Deem and Ramdas Pophale) SiO2 
 PCOD9217826
Probable space group: C 2/M
;
_chemical_formula_sum "Si O2"
_cell_formula_units_Z 32
_cell_length_a 14.451048
_cell_length_b 17.102532
_cell_length_c 12.236196
_cell_angle_alpha 90.000000
_cell_angle_beta 152.133638
_cell_angle_gamma 90.000000
_cell_volume 1413.529895
_symmetry_space_group_name_H-M "C 2/M"
_symmetry_group_IT_number 12
_symmetry_cell_setting 'monoclinic'
loop_
_space_group_symop_operation_xyz
x,y,z
-x,y,-z
-x,-y,-z
x,-y,z
1/2+x,1/2+y,z
1/2-x,1/2+y,-z
1/2-x,1/2-y,-z
1/2+x,1/2-y,z
loop_
_atom_site_type_symbol
_atom_site_label
_atom_site_fract_x
_atom_site_fract_y
_atom_site_fract_z
Si Si1 0.371923 0.500000 0.095852
Si Si2 0.318489 0.626192 0.617543
Si Si3 0.690784 0.000000 0.119877
Si Si4 0.150268 0.704131 0.256099
Si Si5 0.221931 0.500000 0.695339
Si Si6 0.500000 0.637115 0.500000
O O1 0.509428 0.575651 0.260097
O O2 0.184619 0.500000 0.980633
O O3 0.336493 0.500000 0.929299
O O4 0.144234 0.641371 0.348053
O O5 0.385493 0.710780 0.729656
O O6 0.258915 0.575322 0.659349
O O7 0.824410 0.923502 0.285120
O O8 0.500000 0.000000 0.000000
O O9 0.377495 0.694773 0.452252
O O10 0.000000 0.692627 0.000000
O O11 0.000000 0.500000 0.500000
#
# Coordination Sequence:
#
# PCOD9217826 Si02
#       6
#     4   8   4   8   4   4
#     4  11  21  48  71 101 142 193 240 302 356 419
#     4  10  23  46  68 103 145 189 244 292 361 430
#     4  11  24  43  72 102 141 189 238 293 361 426
#     4  11  23  43  73 103 144 190 237 299 360 429
#     4  11  25  39  69 102 138 189 245 294 349 435
#     4  11  24  42  66 103 142 182 232 299 358 426
#
# _framework density 22.638359999999999
#
# number of rings (size 3 to 8) (size 9 to 14) (size 15 to 20)
#    0.000    1.250    2.500    3.750    1.750    4.000 
#    0.000    7.500    0.000    0.000    0.000    0.000 
#    0.000    0.000    0.000    0.000    0.000    0.000 
#
# Total GULP energy -89337.005732 kJ/mol
# GULP energy per Si atom -5583.562858 kJ/mol
# Density = 2.258683 g / cm^3
# Si number density = 22.638360 Si / 1000 Ang^3
#
#
#
# Elastic Constant Matrix: (Units=GPa)
#
#
# Indices 1 2 3 4 5 6 
#
# 1 175.0902 64.6235 60.6381 0.0000 3.5352 0.0000
# 2 64.6235 136.5245 59.2056 0.0000 -2.5783 0.0000
# 3 60.6381 59.2056 142.5179 0.0000 -31.5881 0.0000
# 4 0.0000 0.0000 0.0000 16.9413 0.0000 -15.0665
# 5 3.5352 -2.5783 -31.5881 0.0000 52.0281 0.0000
# 6 0.0000 0.0000 0.0000 -15.0665 0.0000 6.0342
#
#
#
# Elastic Compliance Matrix: (Units=1/GPa)
#
#
# Indices 1 2 3 4 5 6 
#
# 1 0.007610 -0.002465 -0.002722 0.000000 -0.002292 0.000000
# 2 -0.002465 0.009934 -0.003388 0.000000 -0.001397 0.000000
# 3 -0.002722 -0.003388 0.011076 0.000000 0.006742 0.000000
# 4 0.000000 0.000000 0.000000 -0.048362 0.000000 -0.120752
# 5 -0.002292 -0.001397 0.006742 0.000000 0.023400 0.000000
# 6 0.000000 0.000000 0.000000 -0.120752 0.000000 -0.135778
#
#
# Mechanical properties :
#
#
# Convention : Reuss Voigt Hill
#
# Bulk Modulus (GPa) = 87.17313 91.45191 89.31252
# Shear Modulus (GPa) = -44.98578 32.97843 -6.00367
#
# Velocity S-wave (km/s) = -4.46258 3.82088 -1.63026
# Velocity P-wave (km/s) = 3.46952 7.74274 5.99949
#
# Compressibility (1/GPa) = 0.01147142
#
# Stress axis : x y z
#
# Youngs Moduli (GPa) = 131.40445 100.66114 90.28233
#
# Poissons Ratio (x) = 0.24815 0.24573
# Poissons Ratio (y) = 0.32393 0.30585
# Poissons Ratio (z) = 0.35765 0.34101
#
# Static dielectric constant tensor:
#      x y z
#    x 1.878240 0.000000 -0.068240 
#    y 0.000000 1.844620 0.000000 
#    z -0.068240 0.000000 1.984820 
# 
# From -- ./inp_files/145996.got.cif
#   From: 2010.05.17/outbox.cif.g08.bks.cpg/sg12_73_cif.got.tgz:145996.got - 2010.06.03 13:09:07.
