data_PCOD9217959
_publ_section_title
;
Structure prediction by ZEFSAII (Michael W. Deem and Ramdas Pophale) SiO2 
 PCOD9217959
Probable space group: C 2/M
;
_chemical_formula_sum "Si O2"
_cell_formula_units_Z 64
_cell_length_a 15.031143
_cell_length_b 23.308400
_cell_length_c 9.199119
_cell_angle_alpha 90.000000
_cell_angle_beta 91.991587
_cell_angle_gamma 90.000000
_cell_volume 3220.981920
_symmetry_space_group_name_H-M "C 2/M"
_symmetry_group_IT_number 12
_symmetry_cell_setting 'monoclinic'
loop_
_space_group_symop_operation_xyz
x,y,z
-x,y,-z
-x,-y,-z
x,-y,z
1/2+x,1/2+y,z
1/2-x,1/2+y,-z
1/2-x,1/2-y,-z
1/2+x,1/2-y,z
loop_
_atom_site_type_symbol
_atom_site_label
_atom_site_fract_x
_atom_site_fract_y
_atom_site_fract_z
Si Si1 0.098482 0.636118 0.706294
Si Si2 0.795778 0.741036 0.157934
Si Si3 0.102675 0.346558 0.368764
Si Si4 0.167633 0.226639 0.399835
Si Si5 0.607200 0.396400 0.365205
Si Si6 0.728690 0.630768 0.827250
Si Si7 0.076346 0.063246 0.674940
Si Si8 0.253841 0.932006 0.134465
O O1 0.128721 0.694903 0.792828
O O2 0.125407 0.635965 0.536253
O O3 0.152179 0.585633 0.787512
O O4 0.992003 0.631120 0.692529
O O5 0.712760 0.719222 0.247106
O O6 0.818568 0.807055 0.195585
O O7 0.750000 0.750000 0.000000
O O8 0.097116 0.277403 0.383449
O O9 0.180490 0.362589 0.260726
O O10 0.250000 0.250000 0.500000
O O11 0.131625 0.164974 0.436380
O O12 0.507310 0.395801 0.297246
O O13 0.598432 0.436646 0.504881
O O14 0.677802 0.416612 0.249410
O O15 0.664681 0.583654 0.757110
O O16 0.744853 0.609372 0.992863
O O17 0.049751 0.000000 0.721758
O O18 0.249630 0.000000 0.099506
#
# Coordination Sequence:
#
# PCOD9217959 Si02
#       8
#     8   8   8   8   8   8   8   8
#     4  11  22  42  65  98 130 171 214 263 324 383
#     4  11  20  38  61  92 128 162 206 256 317 389
#     4  10  24  39  67  95 135 163 213 271 323 385
#     4  11  19  36  61  95 128 168 204 257 322 385
#     4  11  22  39  64  94 126 169 216 263 320 387
#     4  11  24  41  63  93 125 171 213 267 321 381
#     4  11  24  40  61  93 129 168 219 266 312 375
#     4  12  24  44  67  89 128 176 217 266 326 383
#
# _framework density 19.869717000000001
#
# number of rings (size 3 to 8) (size 9 to 14) (size 15 to 20)
#    0.000    1.000    3.750    4.125    1.750    2.000 
#    0.000    5.000    0.000    0.000    0.000    0.000 
#    0.000    0.000    0.000    0.000    0.000    0.000 
#
# Total GULP energy -178428.675610 kJ/mol
# GULP energy per Si atom -5575.896113 kJ/mol
# Density = 1.982449 g / cm^3
# Si number density = 19.869717 Si / 1000 Ang^3
#
#
#
# Elastic Constant Matrix: (Units=GPa)
#
#
# Indices 1 2 3 4 5 6 
#
# 1 88.7136 30.5296 41.3855 0.0000 4.9026 0.0000
# 2 30.5296 104.5989 14.4550 0.0000 0.2778 0.0000
# 3 41.3855 14.4550 89.7626 0.0000 12.9864 0.0000
# 4 0.0000 0.0000 0.0000 23.1480 0.0000 -2.8201
# 5 4.9026 0.2778 12.9864 0.0000 14.3637 0.0000
# 6 0.0000 0.0000 0.0000 -2.8201 0.0000 9.5314
#
#
#
# Elastic Compliance Matrix: (Units=1/GPa)
#
#
# Indices 1 2 3 4 5 6 
#
# 1 0.015618 -0.003630 -0.006736 0.000000 0.000830 0.000000
# 2 -0.003630 0.010647 -0.000219 0.000000 0.001231 0.000000
# 3 -0.006736 -0.000219 0.016047 0.000000 -0.012205 0.000000
# 4 0.000000 0.000000 0.000000 0.044816 0.000000 0.013260
# 5 0.000830 0.001231 -0.012205 0.000000 0.080348 0.000000
# 6 0.000000 0.000000 0.000000 0.013260 0.000000 0.108839
#
#
# Mechanical properties :
#
#
# Convention : Reuss Voigt Hill
#
# Bulk Modulus (GPa) = 47.29961 50.64617 48.97289
# Shear Modulus (GPa) = 16.41862 22.52229 19.47046
#
# Velocity S-wave (km/s) = 2.87769 3.37040 3.13374
# Velocity P-wave (km/s) = 5.90745 6.37892 6.14771
#
# Compressibility (1/GPa) = 0.02114182
#
# Stress axis : x y z
#
# Youngs Moduli (GPa) = 64.02850 93.92519 62.31551
#
# Poissons Ratio (x) = 0.34093 0.41978
# Poissons Ratio (y) = 0.23241 0.01365
# Poissons Ratio (z) = 0.43132 0.02058
#
# Static dielectric constant tensor:
#      x y z
#    x 1.679860 0.000000 -0.009630 
#    y 0.000000 1.748510 0.000000 
#    z -0.009630 0.000000 1.662160 
# 
# From -- ./inp_files/65857.got.cif
#   From: 2010.05.17/outbox.cif.g08.bks.cpg/sg12_33_cif.got.tgz:65857.got - 2010.06.03 13:09:07.
