data_PCOD9217549
_publ_section_title
;
Structure prediction by ZEFSAII (Michael W. Deem and Ramdas Pophale) SiO2 
 PCOD9217549
Probable space group: C 2/M
;
_chemical_formula_sum "Si O2"
_cell_formula_units_Z 40
_cell_length_a 19.893764
_cell_length_b 18.464684
_cell_length_c 5.193339
_cell_angle_alpha 90.000000
_cell_angle_beta 65.981159
_cell_angle_gamma 90.000000
_cell_volume 1742.497100
_symmetry_space_group_name_H-M "C 2/M"
_symmetry_group_IT_number 12
_symmetry_cell_setting 'monoclinic'
loop_
_space_group_symop_operation_xyz
x,y,z
-x,y,-z
-x,-y,-z
x,-y,z
1/2+x,1/2+y,z
1/2-x,1/2+y,-z
1/2-x,1/2-y,-z
1/2+x,1/2-y,z
loop_
_atom_site_type_symbol
_atom_site_label
_atom_site_fract_x
_atom_site_fract_y
_atom_site_fract_z
Si Si1 0.733458 0.000000 0.236689
Si Si2 0.953524 0.643358 0.828438
Si Si3 0.810043 0.279197 0.103206
Si Si4 0.543192 0.587311 0.678086
Si Si5 0.699104 0.633505 0.590205
Si Si6 0.134222 0.500000 0.890831
O O1 0.780225 0.927811 0.232169
O O2 0.699195 0.000000 0.006034
O O3 0.668457 0.000000 0.551900
O O4 0.916701 0.569221 0.982150
O O5 0.000000 0.631394 0.500000
O O6 0.885371 0.694870 0.864058
O O7 0.000000 0.672183 0.000000
O O8 0.771768 0.345478 0.315701
O O9 0.824762 0.210771 0.260340
O O10 0.750000 0.250000 0.000000
O O11 0.500000 0.616366 0.500000
O O12 0.538711 0.500000 0.683133
O O13 0.629165 0.605932 0.541861
O O14 0.500000 0.612345 0.000000
#
# Coordination Sequence:
#
# PCOD9217549 Si02
#       6
#     4   8   8   8   8   4
#     4  12  24  43  80 109 134 191 243 296 360 418
#     4  12  27  48  74 108 148 190 239 294 364 427
#     4  11  27  48  72 103 144 193 238 296 349 434
#     4  10  23  43  68 103 138 175 228 292 353 411
#     4  11  25  46  73 103 141 186 245 294 354 428
#     4  12  24  45  74 109 148 183 241 300 351 428
#
# _framework density 22.955562
#
# number of rings (size 3 to 8) (size 9 to 14) (size 15 to 20)
#    0.000    0.800    3.000    3.000    8.400    0.800 
#    0.000    0.000    0.000    0.000    0.000    0.000 
#    0.000    0.000    0.000    0.000    0.000    0.000 
#
# Total GULP energy -112007.625227 kJ/mol
# GULP energy per Si atom -5600.381261 kJ/mol
# Density = 2.290331 g / cm^3
# Si number density = 22.955562 Si / 1000 Ang^3
#
#
#
# Elastic Constant Matrix: (Units=GPa)
#
#
# Indices 1 2 3 4 5 6 
#
# 1 105.2199 23.1209 6.3116 0.0000 3.6496 0.0000
# 2 23.1209 59.4489 16.1275 0.0000 -11.2120 0.0000
# 3 6.3116 16.1275 66.3154 0.0000 -5.4222 0.0000
# 4 0.0000 0.0000 0.0000 9.6796 0.0000 8.6860
# 5 3.6496 -11.2120 -5.4222 0.0000 44.8035 0.0000
# 6 0.0000 0.0000 0.0000 8.6860 0.0000 28.9364
#
#
#
# Elastic Compliance Matrix: (Units=1/GPa)
#
#
# Indices 1 2 3 4 5 6 
#
# 1 0.010557 -0.004458 -0.000083 0.000000 -0.001986 0.000000
# 2 -0.004458 0.020637 -0.004184 0.000000 0.005021 0.000000
# 3 -0.000083 -0.004184 0.016180 0.000000 0.000918 0.000000
# 4 0.000000 0.000000 0.000000 0.141397 0.000000 -0.042444
# 5 -0.001986 0.005021 0.000918 0.000000 0.023849 0.000000
# 6 0.000000 0.000000 0.000000 -0.042444 0.000000 0.047299
#
#
# Mechanical properties :
#
#
# Convention : Reuss Voigt Hill
#
# Bulk Modulus (GPa) = 33.41749 35.78935 34.60342
# Shear Modulus (GPa) = 17.40074 29.04552 23.22313
#
# Velocity S-wave (km/s) = 2.75620 3.56096 3.18410
# Velocity P-wave (km/s) = 4.97171 5.70366 5.35022
#
# Compressibility (1/GPa) = 0.02992445
#
# Stress axis : x y z
#
# Youngs Moduli (GPa) = 94.72092 48.45675 61.80504
#
# Poissons Ratio (x) = 0.21602 0.00513
# Poissons Ratio (y) = 0.42226 0.25859
# Poissons Ratio (z) = 0.00786 0.20274
#
# Static dielectric constant tensor:
#      x y z
#    x 1.912190 0.000000 0.045120 
#    y 0.000000 1.806070 0.000000 
#    z 0.045120 0.000000 1.774180 
# 
# From -- ./inp_files/15182.got.cif
#   From: 2010.05.17/outbox.cif.g08.bks.cpg/sg12_8_cif.got.tgz:15182.got - 2010.06.03 13:09:07.
