data_PCOD9217992
_publ_section_title
;
Structure prediction by ZEFSAII (Michael W. Deem and Ramdas Pophale) SiO2 
 PCOD9217992
Probable space group: C 2/M
;
_chemical_formula_sum "Si O2"
_cell_formula_units_Z 36
_cell_length_a 10.033578
_cell_length_b 9.273436
_cell_length_c 22.198826
_cell_angle_alpha 90.000000
_cell_angle_beta 125.057537
_cell_angle_gamma 90.000000
_cell_volume 1690.773116
_symmetry_space_group_name_H-M "C 2/M"
_symmetry_group_IT_number 12
_symmetry_cell_setting 'monoclinic'
loop_
_space_group_symop_operation_xyz
x,y,z
-x,y,-z
-x,-y,-z
x,-y,z
1/2+x,1/2+y,z
1/2-x,1/2+y,-z
1/2-x,1/2-y,-z
1/2+x,1/2-y,z
loop_
_atom_site_type_symbol
_atom_site_label
_atom_site_fract_x
_atom_site_fract_y
_atom_site_fract_z
Si Si1 0.327078 0.769173 0.436666
Si Si2 0.916256 0.827791 0.199380
Si Si3 0.305159 0.669395 0.953884
Si Si4 0.676582 0.500000 0.472953
Si Si5 0.757305 0.172336 0.285393
O O1 0.500000 0.839501 0.500000
O O2 0.319661 0.624475 0.473563
O O3 0.323084 0.734046 0.365449
O O4 0.188171 0.874947 0.423457
O O5 0.779395 0.752400 0.123123
O O6 0.871414 0.803309 0.257588
O O7 0.086724 0.751746 0.229364
O O8 0.922402 0.000000 0.189853
O O9 0.257578 0.500000 0.942150
O O10 0.500000 0.676348 0.000000
O O11 0.250000 0.750000 0.000000
O O12 0.734955 0.000000 0.286539
#
# Coordination Sequence:
#
# PCOD9217992 Si02
#       5
#     8   8   8   4   8
#     4  11  24  41  64  91 124 169 222 275 330 391
#     4  11  26  45  67 100 134 176 219 265 328 390
#     4  11  24  44  73 104 137 173 216 265 318 386
#     4  10  24  40  64  90 124 160 226 272 336 386
#     4  11  26  43  66  94 136 175 218 276 334 390
#
# _framework density 21.292036
#
# number of rings (size 3 to 8) (size 9 to 14) (size 15 to 20)
#    0.000    1.111    1.111    3.333    7.778    7.111 
#    0.000    0.000    0.000    0.000    0.000    0.000 
#    0.000    0.000    0.000    0.000    0.000    0.000 
#
# Total GULP energy -100241.643886 kJ/mol
# GULP energy per Si atom -5568.980216 kJ/mol
# Density = 2.124357 g / cm^3
# Si number density = 21.292036 Si / 1000 Ang^3
#
#
#
# Elastic Constant Matrix: (Units=GPa)
#
#
# Indices 1 2 3 4 5 6 
#
# 1 35.8977 13.1662 12.9239 0.0000 -8.6150 0.0000
# 2 13.1662 103.6745 24.0387 0.0000 -14.0693 0.0000
# 3 12.9239 24.0387 112.2135 0.0000 -15.5543 0.0000
# 4 0.0000 0.0000 0.0000 342.7822 0.0000 -151.8677
# 5 -8.6150 -14.0693 -15.5543 0.0000 39.7602 0.0000
# 6 0.0000 0.0000 0.0000 -151.8677 0.0000 66.3778
#
#
#
# Elastic Compliance Matrix: (Units=1/GPa)
#
#
# Indices 1 2 3 4 5 6 
#
# 1 0.030842 -0.002730 -0.002300 0.000000 0.004817 0.000000
# 2 -0.002730 0.010717 -0.001626 0.000000 0.002565 0.000000
# 3 -0.002300 -0.001626 0.009914 0.000000 0.002805 0.000000
# 4 0.000000 0.000000 0.000000 -0.213662 0.000000 -0.488843
# 5 0.004817 0.002565 0.002805 0.000000 0.028199 0.000000
# 6 0.000000 0.000000 0.000000 -0.488843 0.000000 -1.103373
#
#
# Mechanical properties :
#
#
# Convention : Reuss Voigt Hill
#
# Bulk Modulus (GPa) = 26.20411 39.11592 32.66002
# Shear Modulus (GPa) = -4.12769 103.22784 49.55007
#
# Velocity S-wave (km/s) = -1.39385 6.97045 4.82930
# Velocity P-wave (km/s) = 3.12143 9.12107 6.81679
#
# Compressibility (1/GPa) = 0.03816195
#
# Stress axis : x y z
#
# Youngs Moduli (GPa) = 32.42316 93.30690 100.87247
#
# Poissons Ratio (x) = 0.25472 0.23197
# Poissons Ratio (y) = 0.08851 0.16402
# Poissons Ratio (z) = 0.07456 0.15171
#
# Static dielectric constant tensor:
#      x y z
#    x 1.831160 0.000000 0.056610 
#    y 0.000000 1.721970 0.000000 
#    z 0.056610 0.000000 1.765890 
# 
# From -- ./inp_files/334679.got.cif
#   From: 2010.05.17/outbox.cif.g08.bks.cpg/sg12_168_cif.got.tgz:334679.got - 2010.06.03 13:09:07.
