data_PCOD9217584
_publ_section_title
;
Structure prediction by ZEFSAII (Michael W. Deem and Ramdas Pophale) SiO2 
 PCOD9217584
Probable space group: C 2/M
;
_chemical_formula_sum "Si O2"
_cell_formula_units_Z 48
_cell_length_a 14.163083
_cell_length_b 21.021556
_cell_length_c 5.790588
_cell_angle_alpha 90.000000
_cell_angle_beta 88.150977
_cell_angle_gamma 90.000000
_cell_volume 1723.134340
_symmetry_space_group_name_H-M "C 2/M"
_symmetry_group_IT_number 12
_symmetry_cell_setting 'monoclinic'
loop_
_space_group_symop_operation_xyz
x,y,z
-x,y,-z
-x,-y,-z
x,-y,z
1/2+x,1/2+y,z
1/2-x,1/2+y,-z
1/2-x,1/2-y,-z
1/2+x,1/2-y,z
loop_
_atom_site_type_symbol
_atom_site_label
_atom_site_fract_x
_atom_site_fract_y
_atom_site_fract_z
Si Si1 0.110233 0.428926 0.786440
Si Si2 0.758332 0.930580 0.142713
Si Si3 0.702452 0.370879 0.441452
Si Si4 0.123823 0.746806 0.244583
Si Si5 0.560368 0.429356 0.195110
Si Si6 0.417138 0.207077 0.252445
O O1 0.074699 0.500000 0.739042
O O2 0.204318 0.411275 0.632890
O O3 0.047453 0.366541 0.758723
O O4 0.154802 0.428904 0.039897
O O5 0.781404 0.868067 0.286674
O O6 0.768166 0.000000 0.262835
O O7 0.836999 0.933338 0.938127
O O8 0.682589 0.310603 0.283248
O O9 0.598333 0.403340 0.433248
O O10 0.136177 0.713911 0.498204
O O11 0.008819 0.751954 0.251797
O O12 0.137711 0.719592 0.983997
O O13 0.520315 0.500000 0.227603
O O14 0.500000 0.395502 0.000000
#
# Coordination Sequence:
#
# PCOD9217584 Si02
#       6
#     8   8   8   8   8   8
#     4  10  23  43  70  98 132 171 223 287 343 397
#     4   9  19  36  57  90 128 167 219 276 334 399
#     4  11  22  36  64  91 130 175 220 271 337 403
#     4  10  25  43  70  93 141 180 225 278 331 408
#     4   9  19  32  50  81 122 166 219 277 327 386
#     4  10  24  48  66 101 136 180 230 277 335 405
#
# _framework density 27.856211999999999
#
# number of rings (size 3 to 8) (size 9 to 14) (size 15 to 20)
#    0.000    2.167    0.000    2.500    9.333    3.333 
#    0.000    5.833    0.000    0.000    0.000    0.000 
#    0.000    0.000    0.000    0.000    0.000    0.000 
#
# Total GULP energy -133764.439317 kJ/mol
# GULP energy per Si atom -5573.518305 kJ/mol
# Density = 2.779281 g / cm^3
# Si number density = 27.856212 Si / 1000 Ang^3
#
#
#
# Elastic Constant Matrix: (Units=GPa)
#
#
# Indices 1 2 3 4 5 6 
#
# 1 62.0769 -5.9466 0.6518 0.0000 -4.0074 0.0000
# 2 -5.9466 114.5408 40.7708 0.0000 2.6379 0.0000
# 3 0.6518 40.7708 151.6856 0.0000 19.4732 0.0000
# 4 0.0000 0.0000 0.0000 39.0180 0.0000 -0.5517
# 5 -4.0074 2.6379 19.4732 0.0000 32.6649 0.0000
# 6 0.0000 0.0000 0.0000 -0.5517 0.0000 12.6663
#
#
#
# Elastic Compliance Matrix: (Units=1/GPa)
#
#
# Indices 1 2 3 4 5 6 
#
# 1 0.016363 0.001025 -0.000642 0.000000 0.002307 0.000000
# 2 0.001025 0.009739 -0.002748 0.000000 0.000977 0.000000
# 3 -0.000642 -0.002748 0.007922 0.000000 -0.004579 0.000000
# 4 0.000000 0.000000 0.000000 0.025645 0.000000 0.001117
# 5 0.002307 0.000977 -0.004579 0.000000 0.033548 0.000000
# 6 0.000000 0.000000 0.000000 0.001117 0.000000 0.078998
#
#
# Mechanical properties :
#
#
# Convention : Reuss Voigt Hill
#
# Bulk Modulus (GPa) = 34.13616 44.36172 39.24894
# Shear Modulus (GPa) = 26.77959 36.39167 31.58563
#
# Velocity S-wave (km/s) = 3.10393 3.61835 3.37097
# Velocity P-wave (km/s) = 5.01267 5.78070 5.41033
#
# Compressibility (1/GPa) = 0.02929445
#
# Stress axis : x y z
#
# Youngs Moduli (GPa) = 61.11374 102.67750 126.23453
#
# Poissons Ratio (x) = -0.10523 0.08104
# Poissons Ratio (y) = -0.06264 0.34684
# Poissons Ratio (z) = 0.03924 0.28212
#
# Static dielectric constant tensor:
#      x y z
#    x 2.161960 0.000000 -0.008230 
#    y 0.000000 2.333270 0.000000 
#    z -0.008230 0.000000 2.322210 
# 
# From -- ./inp_files/16690.got.cif
#   From: 2010.05.17/outbox.cif.g08.bks.cpg/sg12_9_cif.got.tgz:16690.got - 2010.06.03 13:09:07.
