data_PCOD9217361
_publ_section_title
;
Structure prediction by ZEFSAII (Michael W. Deem and Ramdas Pophale) SiO2 
 PCOD9217361
Probable space group: C 2/M
;
_chemical_formula_sum "Si O2"
_cell_formula_units_Z 58
_cell_length_a 11.815117
_cell_length_b 30.131038
_cell_length_c 7.278703
_cell_angle_alpha 90.000000
_cell_angle_beta 82.324466
_cell_angle_gamma 90.000000
_cell_volume 2568.014336
_symmetry_space_group_name_H-M "C 2/M"
_symmetry_group_IT_number 12
_symmetry_cell_setting 'monoclinic'
loop_
_space_group_symop_operation_xyz
x,y,z
-x,y,-z
-x,-y,-z
x,-y,z
1/2+x,1/2+y,z
1/2-x,1/2+y,-z
1/2-x,1/2-y,-z
1/2+x,1/2-y,z
loop_
_atom_site_type_symbol
_atom_site_label
_atom_site_fract_x
_atom_site_fract_y
_atom_site_fract_z
Si Si1 0.022356 0.362921 0.203929
Si Si2 0.719114 0.805541 0.118525
Si Si3 0.102675 0.772673 0.352848
Si Si4 0.000000 0.000000 0.500000
Si Si5 0.052868 0.845744 0.801567
Si Si6 0.721049 0.162905 0.693139
Si Si7 0.673185 0.582143 0.519387
Si Si8 0.901401 0.451243 0.674505
O O1 0.909633 0.347023 0.332598
O O2 0.139500 0.340934 0.239802
O O3 0.048542 0.414708 0.200717
O O4 0.000000 0.348627 0.000000
O O5 0.654844 0.760349 0.189082
O O6 0.846257 0.812124 0.161841
O O7 0.720279 0.819842 0.904292
O O8 0.211399 0.797329 0.424913
O O9 0.000000 0.752686 0.500000
O O10 0.039167 0.814995 0.277800
O O11 0.900600 0.960252 0.523354
O O12 0.099533 0.885276 0.666540
O O13 0.000000 0.864637 0.000000
O O14 0.783669 0.115701 0.649864
O O15 0.784332 0.564992 0.605945
O O16 0.884036 0.500000 0.759314
O O17 0.000000 0.453585 0.500000
#
# Coordination Sequence:
#
# PCOD9217361 Si02
#       8
#     8   8   8   2   8   8   8   8
#     4  10  23  42  69  97 138 183 229 289 357 419
#     4  11  26  43  68 100 144 183 240 300 348 408
#     4  12  26  43  67 105 139 190 244 294 352 426
#     4  12  28  44  76 112 140 184 236 298 348 440
#     4  12  26  44  71  97 143 191 232 301 357 421
#     4  11  23  45  71  98 138 191 233 286 349 426
#     4  12  24  47  75 103 140 191 237 289 362 428
#     4  11  22  41  69 106 136 172 230 294 354 421
#
# _framework density 22.585543999999999
#
# number of rings (size 3 to 8) (size 9 to 14) (size 15 to 20)
#    0.000    0.690    6.207    1.241    1.931    3.034 
#    0.000    0.345    7.586    0.000    0.000    0.000 
#    0.000    0.000    0.000    0.000    0.000    0.000 
#
# Total GULP energy -161728.688030 kJ/mol
# GULP energy per Si atom -5576.851311 kJ/mol
# Density = 2.253414 g / cm^3
# Si number density = 22.585544 Si / 1000 Ang^3
#
#
#
# Elastic Constant Matrix: (Units=GPa)
#
#
# Indices 1 2 3 4 5 6 
#
# 1 130.1849 50.1993 23.0052 0.0000 -27.6741 0.0000
# 2 50.1993 148.0534 31.7086 0.0000 -23.9954 0.0000
# 3 23.0052 31.7086 85.9029 0.0000 -25.2176 0.0000
# 4 0.0000 0.0000 0.0000 20.7663 0.0000 -9.9033
# 5 -27.6741 -23.9954 -25.2176 0.0000 27.1973 0.0000
# 6 0.0000 0.0000 0.0000 -9.9033 0.0000 28.8771
#
#
#
# Elastic Compliance Matrix: (Units=1/GPa)
#
#
# Indices 1 2 3 4 5 6 
#
# 1 0.010368 -0.002164 0.000768 0.000000 0.009353 0.000000
# 2 -0.002164 0.008423 -0.001366 0.000000 0.003962 0.000000
# 3 0.000768 -0.001366 0.016234 0.000000 0.014628 0.000000
# 4 0.000000 0.000000 0.000000 0.057570 0.000000 0.019744
# 5 0.009353 0.003962 0.014628 0.000000 0.063344 0.000000
# 6 0.000000 0.000000 0.000000 0.019744 0.000000 0.041401
#
#
# Mechanical properties :
#
#
# Convention : Reuss Voigt Hill
#
# Bulk Modulus (GPa) = 33.89877 63.77418 48.83648
# Shear Modulus (GPa) = 23.50743 32.65002 28.07872
#
# Velocity S-wave (km/s) = 3.22967 3.80625 3.52975
# Velocity P-wave (km/s) = 5.38046 6.90034 6.18725
#
# Compressibility (1/GPa) = 0.02949960
#
# Stress axis : x y z
#
# Youngs Moduli (GPa) = 96.44751 118.72380 61.59926
#
# Poissons Ratio (x) = 0.25693 -0.04729
# Poissons Ratio (y) = 0.20872 0.08416
# Poissons Ratio (z) = -0.07404 0.16222
#
# Static dielectric constant tensor:
#      x y z
#    x 1.918120 0.000000 -0.004710 
#    y 0.000000 1.852620 0.000000 
#    z -0.004710 0.000000 1.932850 
# 
# From -- ./inp_files/54217.got.cif
#   From: 2010.05.17/outbox.cif.g08.bks.cpg/sg12_28_cif.got.tgz:54217.got - 2010.06.03 13:09:07.
