data_PCOD9217512
_publ_section_title
;
Structure prediction by ZEFSAII (Michael W. Deem and Ramdas Pophale) SiO2 
 PCOD9217512
Probable space group: C 2/M
;
_chemical_formula_sum "Si O2"
_cell_formula_units_Z 56
_cell_length_a 24.212362
_cell_length_b 23.201961
_cell_length_c 18.973251
_cell_angle_alpha 90.000000
_cell_angle_beta 166.007132
_cell_angle_gamma 90.000000
_cell_volume 2577.281765
_symmetry_space_group_name_H-M "C 2/M"
_symmetry_group_IT_number 12
_symmetry_cell_setting 'monoclinic'
loop_
_space_group_symop_operation_xyz
x,y,z
-x,y,-z
-x,-y,-z
x,-y,z
1/2+x,1/2+y,z
1/2-x,1/2+y,-z
1/2-x,1/2-y,-z
1/2+x,1/2-y,z
loop_
_atom_site_type_symbol
_atom_site_label
_atom_site_fract_x
_atom_site_fract_y
_atom_site_fract_z
Si Si1 0.068175 0.164113 0.239624
Si Si2 0.304581 0.880925 0.665971
Si Si3 0.759313 0.124669 0.167336
Si Si4 0.230789 0.250880 0.328697
Si Si5 0.834366 0.933327 0.114199
Si Si6 0.246379 0.567222 0.841099
Si Si7 0.843063 0.258136 0.241691
O O1 0.232868 0.132771 0.497163
O O2 0.208314 0.208789 0.366791
O O3 0.921459 0.112583 0.023084
O O4 0.876306 0.202666 0.041320
O O5 0.288955 0.818970 0.683349
O O6 0.107737 0.921913 0.450976
O O7 0.565818 0.898263 0.980967
O O8 0.739755 0.102104 0.063243
O O9 0.759460 0.194642 0.162180
O O10 0.000000 0.108652 0.500000
O O11 0.476693 0.243282 0.597832
O O12 0.000000 0.235178 0.000000
O O13 0.784681 0.000000 0.064829
O O14 0.744797 0.919338 0.923829
O O15 0.318619 0.500000 0.924432
O O16 0.000000 0.572697 0.500000
O O17 0.000000 0.281472 0.500000
#
# Coordination Sequence:
#
# PCOD9217512 Si02
#       7
#     8   8   8   8   8   8   8
#     4  11  23  38  60  97 124 158 215 259 315 381
#     4  11  24  41  62  91 127 169 208 264 321 380
#     4  11  23  41  64  90 131 169 209 259 323 376
#     4  12  22  37  62  90 127 168 206 254 319 387
#     4  10  23  43  67  95 124 169 218 261 316 376
#     4   9  20  42  68  91 126 168 210 261 315 370
#     4  11  21  37  59  91 129 169 202 256 318 382
#
# _framework density 21.728318999999999
#
# number of rings (size 3 to 8) (size 9 to 14) (size 15 to 20)
#    0.000    1.286    4.286    1.714    0.000    3.714 
#    0.000    0.714    0.000    1.286    0.000    0.000 
#    0.000    0.000    0.000    0.000    0.000    0.000 
#
# Total GULP energy -156426.329853 kJ/mol
# GULP energy per Si atom -5586.654638 kJ/mol
# Density = 2.167886 g / cm^3
# Si number density = 21.728319 Si / 1000 Ang^3
#
#
#
# Elastic Constant Matrix: (Units=GPa)
#
#
# Indices 1 2 3 4 5 6 
#
# 1 42.7262 10.2046 20.6503 -0.0094 16.2624 0.0002
# 2 10.2046 45.8869 3.3172 -0.0097 -8.4373 0.0017
# 3 20.6503 3.3172 80.4795 -0.0489 15.9111 -0.0018
# 4 -0.0094 -0.0097 -0.0489 128.6505 -0.0080 -15.4050
# 5 16.2624 -8.4373 15.9111 -0.0080 36.6982 -0.0023
# 6 0.0002 0.0017 -0.0018 -15.4050 -0.0023 5.4169
#
#
#
# Elastic Compliance Matrix: (Units=1/GPa)
#
#
# Indices 1 2 3 4 5 6 
#
# 1 0.034122 -0.009975 -0.005361 -0.000003 -0.015090 -0.000015
# 2 -0.009975 0.026018 -0.000623 0.000002 0.010672 0.000002
# 3 -0.005361 -0.000623 0.014640 0.000008 -0.004115 0.000026
# 4 -0.000003 0.000002 0.000008 0.011787 0.000003 0.033520
# 5 -0.015090 0.010672 -0.004115 0.000003 0.038174 0.000020
# 6 -0.000015 0.000002 0.000026 0.033520 0.000020 0.279936
#
#
# Mechanical properties :
#
#
# Convention : Reuss Voigt Hill
#
# Bulk Modulus (GPa) = 23.33036 26.38188 24.85612
# Shear Modulus (GPa) = 11.08935 43.14782 27.11858
#
# Velocity S-wave (km/s) = 2.26157 4.46105 3.53664
# Velocity P-wave (km/s) = 4.19288 6.22115 5.30485
#
# Compressibility (1/GPa) = 0.04286261
#
# Stress axis : x y z
#
# Youngs Moduli (GPa) = 29.30680 38.43424 68.30446
#
# Poissons Ratio (x) = 0.38339 0.36617
# Poissons Ratio (y) = 0.29234 0.04254
# Poissons Ratio (z) = 0.15711 0.02394
#
# Static dielectric constant tensor:
#      x y z
#    x 1.848630 0.000000 -0.007070 
#    y 0.000000 1.761960 0.000000 
#    z -0.007070 0.000000 1.840520 
# 
# From -- ./inp_files/354550.got.cif
#   From: 2010.05.17/outbox.cif.g08.bks.cpg/sg12_178_cif.got.tgz:354550.got - 2010.06.03 13:09:07.
