data_PCOD9217437
_publ_section_title
;
Structure prediction by ZEFSAII (Michael W. Deem and Ramdas Pophale) SiO2 
 PCOD9217437
Probable space group: C 2/M
;
_chemical_formula_sum "Si O2"
_cell_formula_units_Z 48
_cell_length_a 9.856968
_cell_length_b 14.261492
_cell_length_c 17.558106
_cell_angle_alpha 90.000000
_cell_angle_beta 90.000000
_cell_angle_gamma 90.000000
_cell_volume 2468.231985
_symmetry_space_group_name_H-M "C 2/M"
_symmetry_group_IT_number 12
_symmetry_cell_setting 'monoclinic'
loop_
_space_group_symop_operation_xyz
x,y,z
-x,y,-z
-x,-y,-z
x,-y,z
1/2+x,1/2+y,z
1/2-x,1/2+y,-z
1/2-x,1/2-y,-z
1/2+x,1/2-y,z
loop_
_atom_site_type_symbol
_atom_site_label
_atom_site_fract_x
_atom_site_fract_y
_atom_site_fract_z
Si Si1 0.227867 0.611917 0.307056
Si Si2 0.960799 0.611680 0.835124
Si Si3 0.227866 0.111917 0.192944
Si Si4 0.120400 0.730880 0.447746
Si Si5 0.120400 0.230880 0.052255
Si Si6 0.460799 0.388320 0.664875
O O1 0.214300 0.500000 0.317000
O O2 0.149659 0.635903 0.229387
O O3 0.161276 0.663711 0.378439
O O4 0.387984 0.633664 0.304974
O O5 0.953622 0.500000 0.849952
O O6 0.931391 0.672874 0.909293
O O7 0.112016 0.633664 0.804974
O O8 0.161276 0.163711 0.121561
O O9 0.149659 0.135903 0.270613
O O10 0.214300 0.000000 0.183000
O O11 0.250000 0.750000 0.500000
O O12 0.068609 0.827126 0.409293
O O13 0.000000 0.691606 0.500000
O O14 0.250000 0.250000 0.000000
O O15 0.000000 0.191606 0.000000
O O16 0.453622 0.500000 0.650048
#
# Coordination Sequence:
#
# PCOD9217437 Si02
#       6
#     8   8   8   8   8   8
#     4  10  23  43  65  90 121 162 208 252 301 362
#     4  10  23  43  66  89 121 164 207 251 301 362
#     4  10  23  43  65  90 121 162 208 252 301 362
#     4  12  25  40  62  93 126 163 201 250 309 364
#     4  12  25  40  62  93 126 163 201 250 309 364
#     4  10  23  43  66  89 121 164 207 251 301 362
#
# _framework density 19.447118
#
# number of rings (size 3 to 8) (size 9 to 14) (size 15 to 20)
#    0.000    1.333    3.333    1.000    4.667    5.333 
#    0.000    0.000    0.000    0.000    0.000    0.000 
#    0.000    0.000    0.000    0.000    0.000    0.000 
#
# Total GULP energy -134210.903146 kJ/mol
# GULP energy per Si atom -5592.120964 kJ/mol
# Density = 1.940286 g / cm^3
# Si number density = 19.447118 Si / 1000 Ang^3
#
#
#
# Elastic Constant Matrix: (Units=GPa)
#
#
# Indices 1 2 3 4 5 6 
#
# 1 128.1380 26.6913 37.0351 0.0000 0.0000 0.0000
# 2 26.6913 46.9090 24.2254 0.0000 0.0001 0.0000
# 3 37.0351 24.2254 81.4959 0.0000 0.0000 0.0000
# 4 0.0000 0.0000 0.0000 22.7575 0.0000 -0.0003
# 5 0.0000 0.0001 0.0000 0.0000 54.5296 0.0000
# 6 0.0000 0.0000 0.0000 -0.0003 0.0000 16.8679
#
#
#
# Elastic Compliance Matrix: (Units=1/GPa)
#
#
# Indices 1 2 3 4 5 6 
#
# 1 0.009513 -0.003757 -0.003206 0.000000 0.000000 0.000000
# 2 -0.003757 0.026668 -0.006220 0.000000 0.000000 0.000000
# 3 -0.003206 -0.006220 0.015577 0.000000 0.000000 0.000000
# 4 0.000000 0.000000 0.000000 0.043941 0.000000 0.000001
# 5 0.000000 0.000000 0.000000 0.000000 0.018339 0.000000
# 6 0.000000 0.000000 0.000000 0.000001 0.000000 0.059284
#
#
# Mechanical properties :
#
#
# Convention : Reuss Voigt Hill
#
# Bulk Modulus (GPa) = 39.38418 48.04962 43.71690
# Shear Modulus (GPa) = 24.02082 30.07043 27.04563
#
# Velocity S-wave (km/s) = 3.51834 3.93653 3.73329
# Velocity P-wave (km/s) = 6.06637 6.73967 6.41186
#
# Compressibility (1/GPa) = 0.02539091
#
# Stress axis : x y z
#
# Youngs Moduli (GPa) = 105.11417 37.49830 64.19892
#
# Poissons Ratio (x) = 0.14089 0.20585
# Poissons Ratio (y) = 0.39494 0.39931
# Poissons Ratio (z) = 0.33704 0.23323
#
# Static dielectric constant tensor:
#      x y z
#    x 1.671500 0.000000 0.000000 
#    y 0.000000 1.680880 0.000000 
#    z 0.000000 0.000000 1.637440 
# 
# From -- ./inp_files/255759.got.cif
#   From: 2010.05.17/outbox.cif.g08.bks.cpg/sg12_128_cif.got.tgz:255759.got - 2010.06.03 13:09:07.
