data_PCOD9217339
_publ_section_title
;
Structure prediction by ZEFSAII (Michael W. Deem and Ramdas Pophale) SiO2 
 PCOD9217339
Probable space group: C 2/M
;
_chemical_formula_sum "Si O2"
_cell_formula_units_Z 28
_cell_length_a 5.523410
_cell_length_b 29.064705
_cell_length_c 8.017920
_cell_angle_alpha 90.000000
_cell_angle_beta 120.255220
_cell_angle_gamma 90.000000
_cell_volume 1111.841533
_symmetry_space_group_name_H-M "C 2/M"
_symmetry_group_IT_number 12
_symmetry_cell_setting 'monoclinic'
loop_
_space_group_symop_operation_xyz
x,y,z
-x,y,-z
-x,-y,-z
x,-y,z
1/2+x,1/2+y,z
1/2-x,1/2+y,-z
1/2-x,1/2-y,-z
1/2+x,1/2-y,z
loop_
_atom_site_type_symbol
_atom_site_label
_atom_site_fract_x
_atom_site_fract_y
_atom_site_fract_z
Si Si1 0.500000 0.573723 0.000000
Si Si2 0.714772 0.366228 0.794830
Si Si3 0.541314 0.266777 0.281610
Si Si4 0.427399 0.049506 0.670291
O O1 0.488469 0.605471 0.156802
O O2 0.790498 0.548107 0.120694
O O3 0.570227 0.317595 0.716862
O O4 0.786761 0.402210 0.673291
O O5 0.000000 0.358023 0.000000
O O6 0.750000 0.250000 0.500000
O O7 0.254610 0.236373 0.196812
O O8 0.500000 0.050129 0.500000
O O9 0.282574 0.000000 0.655959
#
# Coordination Sequence:
#
# PCOD9217339 Si02
#       4
#     4   8   8   8
#     4  10  23  42  68 104 148 192 234 302 369 434
#     4  10  24  44  69 104 148 190 244 304 370 442
#     4  10  24  44  69 103 141 189 247 303 369 435
#     4  10  23  43  71 106 143 190 243 299 368 441
#
# _framework density 25.183443
#
# number of rings (size 3 to 8) (size 9 to 14) (size 15 to 20)
#    0.000    2.000    0.000    0.429    8.000   13.143 
#    0.000    2.857    0.000    0.000    0.000    0.000 
#    0.000    0.000    0.000    0.000    0.000    0.000 
#
# Total GULP energy -78218.155684 kJ/mol
# GULP energy per Si atom -5587.011120 kJ/mol
# Density = 2.512612 g / cm^3
# Si number density = 25.183443 Si / 1000 Ang^3
#
#
#
# Elastic Constant Matrix: (Units=GPa)
#
#
# Indices 1 2 3 4 5 6 
#
# 1 144.8126 72.9282 28.4729 0.0000 16.5425 0.0000
# 2 72.9282 246.9566 50.8978 0.0000 12.6201 0.0000
# 3 28.4729 50.8978 92.5414 0.0000 27.4011 0.0000
# 4 0.0000 0.0000 0.0000 47.2838 0.0000 -30.7016
# 5 16.5425 12.6201 27.4011 0.0000 58.7954 0.0000
# 6 0.0000 0.0000 0.0000 -30.7016 0.0000 124.4626
#
#
#
# Elastic Compliance Matrix: (Units=1/GPa)
#
#
# Indices 1 2 3 4 5 6 
#
# 1 0.008364 -0.002204 -0.000933 0.000000 -0.001445 0.000000
# 2 -0.002204 0.005150 -0.002333 0.000000 0.000602 0.000000
# 3 -0.000933 -0.002333 0.014095 0.000000 -0.005806 0.000000
# 4 0.000000 0.000000 0.000000 0.025182 0.000000 0.006212
# 5 -0.001445 0.000602 -0.005806 0.000000 0.019991 0.000000
# 6 0.000000 0.000000 0.000000 0.006212 0.000000 0.009567
#
#
# Mechanical properties :
#
#
# Convention : Reuss Voigt Hill
#
# Bulk Modulus (GPa) = 59.98972 87.65649 73.82310
# Shear Modulus (GPa) = 50.58396 68.24248 59.41322
#
# Velocity S-wave (km/s) = 4.48663 5.21124 4.86245
# Velocity P-wave (km/s) = 7.12127 8.43161 7.80399
#
# Compressibility (1/GPa) = 0.01666952
#
# Stress axis : x y z
#
# Youngs Moduli (GPa) = 119.56172 194.17182 70.94632
#
# Poissons Ratio (x) = 0.42789 0.06622
# Poissons Ratio (y) = 0.26348 0.16550
# Poissons Ratio (z) = 0.11160 0.45294
#
# Static dielectric constant tensor:
#      x y z
#    x 2.107510 0.000000 -0.073210 
#    y 0.000000 1.969370 0.000000 
#    z -0.073210 0.000000 2.063910 
# 
# From -- ./inp_files/34701.got.cif
#   From: 2010.05.17/outbox.cif.g08.bks.cpg/sg12_18_cif.got.tgz:34701.got - 2010.06.03 13:09:07.
