data_PCOD9217066
_publ_section_title
;
Structure prediction by ZEFSAII (Michael W. Deem and Ramdas Pophale) SiO2 
 PCOD9217066
Probable space group: C 2/M
;
_chemical_formula_sum "Si O2"
_cell_formula_units_Z 44
_cell_length_a 10.800795
_cell_length_b 17.771545
_cell_length_c 11.797927
_cell_angle_alpha 90.000000
_cell_angle_beta 116.442839
_cell_angle_gamma 90.000000
_cell_volume 2027.652601
_symmetry_space_group_name_H-M "C 2/M"
_symmetry_group_IT_number 12
_symmetry_cell_setting 'monoclinic'
loop_
_space_group_symop_operation_xyz
x,y,z
-x,y,-z
-x,-y,-z
x,-y,z
1/2+x,1/2+y,z
1/2-x,1/2+y,-z
1/2-x,1/2-y,-z
1/2+x,1/2-y,z
loop_
_atom_site_type_symbol
_atom_site_label
_atom_site_fract_x
_atom_site_fract_y
_atom_site_fract_z
Si Si1 0.737637 0.500000 0.570154
Si Si2 0.380329 0.653728 0.374610
Si Si3 0.547996 0.000000 0.788923
Si Si4 0.178637 0.744934 0.158130
Si Si5 0.793207 0.000000 0.713249
Si Si6 0.488384 0.371030 0.165548
Si Si7 0.694769 0.862484 0.955009
O O1 0.664759 0.575489 0.586431
O O2 0.732031 0.500000 0.431673
O O3 0.892139 0.500000 0.682822
O O4 0.500000 0.689250 0.500000
O O5 0.251381 0.707774 0.296405
O O6 0.443035 0.636727 0.276877
O O7 0.651514 0.000000 0.724111
O O8 0.588372 0.926512 0.877696
O O9 0.045991 0.792367 0.141443
O O10 0.283353 0.802401 0.136998
O O11 0.156757 0.680641 0.055116
O O12 0.886465 0.929051 0.786315
O O13 0.350394 0.394160 0.041541
#
# Coordination Sequence:
#
# PCOD9217066 Si02
#       7
#     4   8   4   8   4   8   8
#     4  12  27  47  67  97 147 174 236 297 329 403
#     4  11  24  46  71  98 132 189 231 278 348 400
#     4  12  26  44  71 106 133 192 228 275 353 408
#     4  10  23  41  66 105 140 172 218 293 337 408
#     4  12  23  44  71 102 132 187 231 294 332 402
#     4  11  22  42  74 101 134 178 236 280 339 405
#     4  10  23  44  68 104 143 177 221 284 348 408
#
# _framework density 21.699968999999999
#
# number of rings (size 3 to 8) (size 9 to 14) (size 15 to 20)
#    0.000    1.091    3.636    2.182    0.000    9.455 
#    3.273    6.364    0.000    0.000    0.000    0.000 
#    0.000    0.000    0.000    0.000    0.000    0.000 
#
# Total GULP energy -123183.935906 kJ/mol
# GULP energy per Si atom -5599.269814 kJ/mol
# Density = 2.165058 g / cm^3
# Si number density = 21.699969 Si / 1000 Ang^3
#
#
#
# Elastic Constant Matrix: (Units=GPa)
#
#
# Indices 1 2 3 4 5 6 
#
# 1 85.6892 27.8718 33.6037 0.0000 13.6710 0.0000
# 2 27.8718 84.7056 61.6311 0.0000 5.8385 0.0000
# 3 33.6037 61.6311 144.2813 0.0000 13.1705 0.0000
# 4 0.0000 0.0000 0.0000 1.6453 0.0000 44.6302
# 5 13.6710 5.8385 13.1705 0.0000 41.7591 0.0000
# 6 0.0000 0.0000 0.0000 44.6302 0.0000 -49.3303
#
#
#
# Elastic Compliance Matrix: (Units=1/GPa)
#
#
# Indices 1 2 3 4 5 6 
#
# 1 0.013892 -0.003203 -0.001537 0.000000 -0.003615 0.000000
# 2 -0.003203 0.017868 -0.006954 0.000000 0.000744 0.000000
# 3 -0.001537 -0.006954 0.010425 0.000000 -0.001812 0.000000
# 4 0.000000 0.000000 0.000000 0.023796 0.000000 0.021529
# 5 -0.003615 0.000744 -0.001812 0.000000 0.025598 0.000000
# 6 0.000000 0.000000 0.000000 0.021529 0.000000 -0.000794
#
#
# Mechanical properties :
#
#
# Convention : Reuss Voigt Hill
#
# Bulk Modulus (GPa) = 53.20525 62.32103 57.76314
# Shear Modulus (GPa) = 41.51424 11.58611 26.55018
#
# Velocity S-wave (km/s) = 4.37865 2.31318 3.50167
# Velocity P-wave (km/s) = 7.08062 5.99301 6.55940
#
# Compressibility (1/GPa) = 0.01879514
#
# Stress axis : x y z
#
# Youngs Moduli (GPa) = 71.98617 55.96471 95.92322
#
# Poissons Ratio (x) = 0.17928 0.14744
# Poissons Ratio (y) = 0.23060 0.66710
# Poissons Ratio (z) = 0.11065 0.38921
#
# Static dielectric constant tensor:
#      x y z
#    x 1.802930 0.000000 0.017030 
#    y 0.000000 1.806150 0.000000 
#    z 0.017030 0.000000 1.774600 
# 
# From -- ./inp_files/131601.got.cif
#   From: 2010.05.17/outbox.cif.g08.bks.cpg/sg12_66_cif.got.tgz:131601.got - 2010.06.03 13:09:07.
