data_PCOD9217978
_publ_section_title
;
Structure prediction by ZEFSAII (Michael W. Deem and Ramdas Pophale) SiO2 
 PCOD9217978
Probable space group: C 2/M
;
_chemical_formula_sum "Si O2"
_cell_formula_units_Z 56
_cell_length_a 14.357133
_cell_length_b 23.035240
_cell_length_c 17.925400
_cell_angle_alpha 90.000000
_cell_angle_beta 30.339136
_cell_angle_gamma 90.000000
_cell_volume 2994.480718
_symmetry_space_group_name_H-M "C 2/M"
_symmetry_group_IT_number 12
_symmetry_cell_setting 'monoclinic'
loop_
_space_group_symop_operation_xyz
x,y,z
-x,y,-z
-x,-y,-z
x,-y,z
1/2+x,1/2+y,z
1/2-x,1/2+y,-z
1/2-x,1/2-y,-z
1/2+x,1/2-y,z
loop_
_atom_site_type_symbol
_atom_site_label
_atom_site_fract_x
_atom_site_fract_y
_atom_site_fract_z
Si Si1 0.485226 0.695954 0.306526
Si Si2 0.187239 0.616489 0.099677
Si Si3 0.047983 0.500000 0.554529
Si Si4 0.403146 0.216673 0.641057
Si Si5 0.134201 0.650697 0.974405
Si Si6 0.980462 0.778931 0.891309
Si Si7 0.807054 0.000000 0.092003
Si Si8 0.116503 0.622035 0.565103
O O1 0.526722 0.745635 0.337749
O O2 0.654874 0.651629 0.197112
O O3 0.490828 0.720700 0.218167
O O4 0.296213 0.661718 0.448639
O O5 0.285045 0.557735 0.058158
O O6 0.005295 0.622317 0.275907
O O7 0.125919 0.614894 0.056164
O O8 0.331354 0.670263 0.010345
O O9 0.153446 0.557804 0.508788
O O10 0.000000 0.500000 0.500000
O O11 0.857001 0.500000 0.733562
O O12 0.500000 0.241483 0.500000
O O13 0.183084 0.213260 0.786467
O O14 0.483404 0.152870 0.597444
O O15 0.000000 0.634556 0.000000
O O16 0.090684 0.717320 0.029564
O O17 0.000000 0.000000 0.000000
#
# Coordination Sequence:
#
# PCOD9217978 Si02
#       8
#     8   8   4   8   8   8   4   8
#     4  11  23  38  57  86 125 158 197 241 300 356
#     4  10  24  40  62  85 125 156 199 251 295 351
#     4  10  24  40  62  86 119 157 198 243 289 346
#     4  12  23  34  60  90 124 156 201 243 293 362
#     4  11  22  40  61  89 120 158 200 242 301 358
#     4  11  23  39  58  89 125 162 191 246 298 354
#     4  10  24  42  63  94 116 159 203 241 297 355
#     4  11  23  39  58  88 121 158 197 245 298 348
#
# _framework density 18.701072
#
# number of rings (size 3 to 8) (size 9 to 14) (size 15 to 20)
#    0.000    1.143    2.857    4.286    6.000    1.143 
#    0.000    0.357    0.000    0.000    0.000    3.500 
#    0.000    0.000    0.000    0.000    0.000    0.000 
#
# Total GULP energy -156479.471869 kJ/mol
# GULP energy per Si atom -5588.552567 kJ/mol
# Density = 1.865851 g / cm^3
# Si number density = 18.701072 Si / 1000 Ang^3
#
#
#
# Elastic Constant Matrix: (Units=GPa)
#
#
# Indices 1 2 3 4 5 6 
#
# 1 141.1812 54.6092 51.3039 0.0284 -3.4619 -0.0184
# 2 54.6092 65.3427 27.6669 0.0127 11.0052 -0.0041
# 3 51.3039 27.6669 84.2650 0.0531 -6.4540 -0.0472
# 4 0.0284 0.0127 0.0531 14.8141 -0.0263 5.2281
# 5 -3.4619 11.0052 -6.4540 -0.0263 41.6924 0.0173
# 6 -0.0184 -0.0041 -0.0472 5.2281 0.0173 17.0671
#
#
#
# Elastic Compliance Matrix: (Units=1/GPa)
#
#
# Indices 1 2 3 4 5 6 
#
# 1 0.012082 -0.008726 -0.004288 0.000006 0.002643 -0.000006
# 2 -0.008726 0.025505 -0.003676 -0.000005 -0.008026 -0.000004
# 3 -0.004288 -0.003676 0.015921 -0.000059 0.003079 0.000054
# 4 0.000006 -0.000005 -0.000059 0.075686 0.000050 -0.023185
# 5 0.002643 -0.008026 0.003079 0.000050 0.026800 -0.000033
# 6 -0.000006 -0.000004 0.000054 -0.023185 -0.000033 0.065695
#
#
# Mechanical properties :
#
#
# Convention : Reuss Voigt Hill
#
# Bulk Modulus (GPa) = 49.68538 61.99431 55.83984
# Shear Modulus (GPa) = 19.10020 25.19532 22.14776
#
# Velocity S-wave (km/s) = 3.19931 3.67449 3.44511
# Velocity P-wave (km/s) = 6.34613 7.15714 6.76380
#
# Compressibility (1/GPa) = 0.02012665
#
# Stress axis : x y z
#
# Youngs Moduli (GPa) = 82.77052 39.20784 62.81057
#
# Poissons Ratio (x) = 0.34215 0.26934
# Poissons Ratio (y) = 0.72229 0.23088
# Poissons Ratio (z) = 0.35493 0.14412
#
# Static dielectric constant tensor:
#      x y z
#    x 1.654930 0.000000 0.029410 
#    y 0.000000 1.645650 0.000010 
#    z 0.029410 0.000010 1.690160 
# 
# From -- ./inp_files/272386.got.cif
#   From: 2010.05.17/outbox.cif.g08.bks.cpg/sg12_137_cif.got.tgz:272386.got - 2010.06.03 13:09:07.
