data_PCOD9217952
_publ_section_title
;
Structure prediction by ZEFSAII (Michael W. Deem and Ramdas Pophale) SiO2 
 PCOD9217952
Probable space group: C 2/M
;
_chemical_formula_sum "Si O2"
_cell_formula_units_Z 64
_cell_length_a 17.652551
_cell_length_b 21.776877
_cell_length_c 19.436321
_cell_angle_alpha 90.000000
_cell_angle_beta 158.037426
_cell_angle_gamma 90.000000
_cell_volume 2794.407571
_symmetry_space_group_name_H-M "C 2/M"
_symmetry_group_IT_number 12
_symmetry_cell_setting 'monoclinic'
loop_
_space_group_symop_operation_xyz
x,y,z
-x,y,-z
-x,-y,-z
x,-y,z
1/2+x,1/2+y,z
1/2-x,1/2+y,-z
1/2-x,1/2-y,-z
1/2+x,1/2-y,z
loop_
_atom_site_type_symbol
_atom_site_label
_atom_site_fract_x
_atom_site_fract_y
_atom_site_fract_z
Si Si1 0.768611 0.243683 0.308858
Si Si2 0.025251 0.624741 0.945475
Si Si3 0.724451 0.629304 0.182491
Si Si4 0.819127 0.700694 0.132178
Si Si5 0.638886 0.070159 0.493615
Si Si6 0.357988 0.116367 0.661861
Si Si7 0.971412 0.176944 0.318481
Si Si8 0.893299 0.183313 0.715072
O O1 0.607900 0.189205 0.160989
O O2 0.729405 0.307100 0.232417
O O3 0.750612 0.268354 0.370976
O O4 0.000000 0.222543 0.500000
O O5 0.954760 0.592023 0.815369
O O6 0.000000 0.595258 0.000000
O O7 0.263226 0.639470 0.137641
O O8 0.740058 0.648606 0.116530
O O9 0.932489 0.590340 0.360071
O O10 0.500000 0.600936 0.000000
O O11 0.882591 0.754227 0.238316
O O12 0.996908 0.673794 0.235779
O O13 0.616963 0.708257 0.917950
O O14 0.632392 0.078500 0.403129
O O15 0.813685 0.116083 0.668291
O O16 0.683179 0.000000 0.545160
O O17 0.133306 0.137537 0.497519
O O18 0.113709 0.180553 0.371444
#
# Coordination Sequence:
#
# PCOD9217952 Si02
#       8
#     8   8   8   8   8   8   8   8
#     4  12  23  36  56  91 138 180 209 250 313 386
#     4  12  25  38  59  95 135 172 206 252 321 418
#     4  11  21  35  57  85 131 174 217 264 320 384
#     4  11  19  35  58  88 126 166 213 260 318 386
#     4  10  24  45  65  89 121 170 234 294 334 365
#     4  10  24  39  63  89 125 164 216 275 324 387
#     4  11  21  37  59  91 128 171 213 256 321 397
#     4  11  20  37  62  86 122 170 220 273 311 383
#
# _framework density 22.902887
#
# number of rings (size 3 to 8) (size 9 to 14) (size 15 to 20)
#    0.000    1.000    5.000    2.625    3.500    0.250 
#    0.000    3.750    0.000    0.375    0.000    3.500 
#    0.000    0.000    0.000    0.000    0.000    0.000 
#
# Total GULP energy -178153.661190 kJ/mol
# GULP energy per Si atom -5567.301912 kJ/mol
# Density = 2.285076 g / cm^3
# Si number density = 22.902887 Si / 1000 Ang^3
#
#
#
# Elastic Constant Matrix: (Units=GPa)
#
#
# Indices 1 2 3 4 5 6 
#
# 1 81.3616 -5.7936 22.0614 -0.0152 12.3155 0.0035
# 2 -5.7936 55.6905 21.7190 -0.0380 21.6242 -0.0016
# 3 22.0614 21.7190 157.7194 -0.1232 22.7271 -0.0309
# 4 -0.0152 -0.0380 -0.1232 7.5079 0.0008 -3.7019
# 5 12.3155 21.6242 22.7271 0.0008 40.4079 0.0056
# 6 0.0035 -0.0016 -0.0309 -3.7019 0.0056 10.2121
#
#
#
# Elastic Compliance Matrix: (Units=1/GPa)
#
#
# Indices 1 2 3 4 5 6 
#
# 1 0.013906 0.004279 -0.001734 0.000023 -0.005553 0.000002
# 2 0.004279 0.024312 -0.002050 0.000123 -0.013162 0.000048
# 3 -0.001734 -0.002050 0.007216 0.000142 -0.002433 0.000075
# 4 0.000023 0.000123 0.000142 0.162185 -0.000164 0.058792
# 5 -0.005553 -0.013162 -0.002433 -0.000164 0.034852 -0.000086
# 6 0.000002 0.000048 0.000075 0.058792 -0.000086 0.119235
#
#
# Mechanical properties :
#
#
# Convention : Reuss Voigt Hill
#
# Bulk Modulus (GPa) = 21.54040 41.19389 31.36714
# Shear Modulus (GPa) = 13.29115 28.74457 21.01786
#
# Velocity S-wave (km/s) = 2.41161 3.54653 3.03263
# Velocity P-wave (km/s) = 4.14488 5.89880 5.09784
#
# Compressibility (1/GPa) = 0.04642439
#
# Stress axis : x y z
#
# Youngs Moduli (GPa) = 71.90976 41.13256 138.58185
#
# Poissons Ratio (x) = -0.17602 0.24034
# Poissons Ratio (y) = -0.30772 0.28406
# Poissons Ratio (z) = 0.12471 0.08431
#
# Static dielectric constant tensor:
#      x y z
#    x 2.102270 -0.000010 -0.179720 
#    y -0.000010 1.852730 0.000020 
#    z -0.179720 0.000020 2.142660 
# 
# From -- ./inp_files/318367.got.cif
#   From: 2010.05.17/outbox.cif.g08.bks.cpg/sg12_160_cif.got.tgz:318367.got - 2010.06.03 13:09:07.
