data_PCOD9217975
_publ_section_title
;
Structure prediction by ZEFSAII (Michael W. Deem and Ramdas Pophale) SiO2 
 PCOD9217975
Probable space group: C 2/M
;
_chemical_formula_sum "Si O2"
_cell_formula_units_Z 48
_cell_length_a 9.308578
_cell_length_b 20.457853
_cell_length_c 12.302454
_cell_angle_alpha 90.000000
_cell_angle_beta 74.638364
_cell_angle_gamma 90.000000
_cell_volume 2259.098419
_symmetry_space_group_name_H-M "C 2/M"
_symmetry_group_IT_number 12
_symmetry_cell_setting 'monoclinic'
loop_
_space_group_symop_operation_xyz
x,y,z
-x,y,-z
-x,-y,-z
x,-y,z
1/2+x,1/2+y,z
1/2-x,1/2+y,-z
1/2-x,1/2-y,-z
1/2+x,1/2-y,z
loop_
_atom_site_type_symbol
_atom_site_label
_atom_site_fract_x
_atom_site_fract_y
_atom_site_fract_z
Si Si1 0.347506 0.077078 0.090585
Si Si2 0.029823 0.072162 0.642474
Si Si3 0.981867 0.304080 0.381468
Si Si4 0.695436 0.075113 0.645082
Si Si5 0.822574 0.190352 0.289382
Si Si6 0.460343 0.386349 0.890077
O O1 0.356148 0.082718 0.218878
O O2 0.215994 0.124147 0.076683
O O3 0.312732 0.000000 0.073069
O O4 0.500000 0.092292 0.000000
O O5 0.874958 0.086834 0.611032
O O6 0.982948 0.068516 0.779695
O O7 0.142200 0.132620 0.629105
O O8 0.085032 0.000000 0.600909
O O9 0.900239 0.373610 0.402133
O O10 0.879175 0.256891 0.330898
O O11 0.000000 0.277608 0.500000
O O12 0.148247 0.308783 0.300186
O O13 0.669275 0.000000 0.619798
O O14 0.928273 0.172289 0.165794
O O15 0.500000 0.412744 0.000000
#
# Coordination Sequence:
#
# PCOD9217975 Si02
#       6
#     8   8   8   8   8   8
#     4   9  18  32  58  92 126 168 198 229 292 361
#     4   8  17  36  62  88 125 162 190 234 295 357
#     4  12  25  44  66  84 112 158 210 263 313 365
#     4   9  19  38  62  90 124 154 192 251 305 358
#     4  10  24  40  61  89 118 155 206 251 305 362
#     4   9  19  35  56  90 125 159 199 237 293 351
#
# _framework density 21.247415
#
# number of rings (size 3 to 8) (size 9 to 14) (size 15 to 20)
#    1.000    1.500    0.000    3.000    2.333    2.333 
#    0.000    1.667    0.000    2.500    0.000    0.000 
#    0.000    0.000    0.000    0.000    0.000    0.000 
#
# Total GULP energy -133783.825814 kJ/mol
# GULP energy per Si atom -5574.326076 kJ/mol
# Density = 2.119905 g / cm^3
# Si number density = 21.247415 Si / 1000 Ang^3
#
#
#
# Elastic Constant Matrix: (Units=GPa)
#
#
# Indices 1 2 3 4 5 6 
#
# 1 117.2232 46.1522 31.2490 0.0000 -20.9969 0.0000
# 2 46.1522 69.8770 -3.9962 0.0000 3.9617 0.0000
# 3 31.2490 -3.9962 66.8222 0.0000 -10.4236 0.0000
# 4 0.0000 0.0000 0.0000 15.1595 0.0000 2.9995
# 5 -20.9969 3.9617 -10.4236 0.0000 38.5020 0.0000
# 6 0.0000 0.0000 0.0000 2.9995 0.0000 0.1241
#
#
#
# Elastic Compliance Matrix: (Units=1/GPa)
#
#
# Indices 1 2 3 4 5 6 
#
# 1 0.016598 -0.011845 -0.007171 0.000000 0.008329 0.000000
# 2 -0.011845 0.022875 0.005776 0.000000 -0.007249 0.000000
# 3 -0.007171 0.005776 0.018753 0.000000 0.000572 0.000000
# 4 0.000000 0.000000 0.000000 -0.017449 0.000000 0.421580
# 5 0.008329 -0.007249 0.000572 0.000000 0.031416 0.000000
# 6 0.000000 0.000000 0.000000 0.421580 0.000000 -2.130705
#
#
# Mechanical properties :
#
#
# Convention : Reuss Voigt Hill
#
# Bulk Modulus (GPa) = 31.49852 44.52583 38.01217
# Shear Modulus (GPa) = -2.47347 22.79163 10.15908
#
# Velocity S-wave (km/s) = -1.08012 3.27873 2.18900
# Velocity P-wave (km/s) = 3.64709 5.94431 4.93133
#
# Compressibility (1/GPa) = 0.03174753
#
# Stress axis : x y z
#
# Youngs Moduli (GPa) = 60.24990 43.71525 53.32437
#
# Poissons Ratio (x) = 0.51779 0.38238
# Poissons Ratio (y) = 0.71364 -0.30801
# Poissons Ratio (z) = 0.43204 -0.25251
#
# Static dielectric constant tensor:
#      x y z
#    x 1.773800 0.000000 -0.025800 
#    y 0.000000 1.752240 0.000000 
#    z -0.025800 0.000000 1.805240 
# 
# From -- ./inp_files/195972.got.cif
#   From: 2010.05.17/outbox.cif.g08.bks.cpg/sg12_98_cif.got.tgz:195972.got - 2010.06.03 13:09:07.
