data_PCOD9217668
_publ_section_title
;
Structure prediction by ZEFSAII (Michael W. Deem and Ramdas Pophale) SiO2 
 PCOD9217668
Probable space group: C 2/M
;
_chemical_formula_sum "Si O2"
_cell_formula_units_Z 56
_cell_length_a 18.274512
_cell_length_b 14.169538
_cell_length_c 11.600501
_cell_angle_alpha 90.000000
_cell_angle_beta 67.024633
_cell_angle_gamma 90.000000
_cell_volume 2765.562742
_symmetry_space_group_name_H-M "C 2/M"
_symmetry_group_IT_number 12
_symmetry_cell_setting 'monoclinic'
loop_
_space_group_symop_operation_xyz
x,y,z
-x,y,-z
-x,-y,-z
x,-y,z
1/2+x,1/2+y,z
1/2-x,1/2+y,-z
1/2-x,1/2-y,-z
1/2+x,1/2-y,z
loop_
_atom_site_type_symbol
_atom_site_label
_atom_site_fract_x
_atom_site_fract_y
_atom_site_fract_z
Si Si1 0.469713 0.605443 0.887782
Si Si2 0.985319 0.695596 0.145936
Si Si3 0.180167 0.110791 0.339601
Si Si4 0.593637 0.791650 0.443336
Si Si5 0.361944 0.113244 0.819927
Si Si6 0.710537 0.613631 0.057028
Si Si7 0.655626 0.888981 0.634190
O O1 0.478487 0.500000 0.829921
O O2 0.514953 0.695698 0.808873
O O3 0.376595 0.632996 0.941486
O O4 0.500000 0.598139 0.000000
O O5 0.058557 0.643625 0.162064
O O6 0.904291 0.644518 0.229052
O O7 0.000000 0.696161 0.000000
O O8 0.110625 0.180839 0.418434
O O9 0.208024 0.138258 0.193213
O O10 0.254618 0.124440 0.378682
O O11 0.158632 0.000000 0.351477
O O12 0.500000 0.811845 0.500000
O O13 0.633125 0.843069 0.309729
O O14 0.632590 0.831044 0.535344
O O15 0.359099 0.000000 0.813492
O O16 0.285066 0.149557 0.937957
O O17 0.718553 0.500000 0.049146
O O18 0.643079 0.000000 0.620116
#
# Coordination Sequence:
#
# PCOD9217668 Si02
#       7
#     8   8   8   8   8   8   8
#     4   9  19  36  56  85 127 165 202 254 315 374
#     4  11  22  35  60  93 122 162 208 256 319 377
#     4  10  23  44  68  93 126 165 211 269 317 367
#     4  12  25  41  64  93 127 173 214 253 313 380
#     4  11  23  39  62  93 127 164 211 259 316 378
#     4   9  19  37  63  92 122 161 205 259 321 370
#     4  11  24  43  64  90 128 166 210 264 315 370
#
# _framework density 20.249043
#
# number of rings (size 3 to 8) (size 9 to 14) (size 15 to 20)
#    0.000    1.571    1.429    3.000    0.000    7.714 
#    0.000    0.714    0.000    0.857    0.000    0.000 
#    0.000    0.000    0.000    0.000    0.000    0.000 
#
# Total GULP energy -156456.920246 kJ/mol
# GULP energy per Si atom -5587.747152 kJ/mol
# Density = 2.020296 g / cm^3
# Si number density = 20.249043 Si / 1000 Ang^3
#
#
#
# Elastic Constant Matrix: (Units=GPa)
#
#
# Indices 1 2 3 4 5 6 
#
# 1 60.7507 21.3077 10.1157 0.0000 18.5842 0.0000
# 2 21.3077 95.2431 26.9360 0.0000 3.1230 0.0000
# 3 10.1157 26.9360 65.1179 0.0000 17.6823 0.0000
# 4 0.0000 0.0000 0.0000 42.6800 0.0000 2.8126
# 5 18.5842 3.1230 17.6823 0.0000 23.8929 0.0000
# 6 0.0000 0.0000 0.0000 2.8126 0.0000 26.6478
#
#
#
# Elastic Compliance Matrix: (Units=1/GPa)
#
#
# Indices 1 2 3 4 5 6 
#
# 1 0.024426 -0.006049 0.004571 0.000000 -0.021591 0.000000
# 2 -0.006049 0.013520 -0.006822 0.000000 0.007986 0.000000
# 3 0.004571 -0.006822 0.022767 0.000000 -0.019513 0.000000
# 4 0.000000 0.000000 0.000000 0.023594 0.000000 -0.002490
# 5 -0.021591 0.007986 -0.019513 0.000000 0.072044 0.000000
# 6 0.000000 0.000000 0.000000 -0.002490 0.000000 0.037789
#
#
# Mechanical properties :
#
#
# Convention : Reuss Voigt Hill
#
# Bulk Modulus (GPa) = 22.66903 37.53672 30.10287
# Shear Modulus (GPa) = 22.17831 29.49428 25.83629
#
# Velocity S-wave (km/s) = 3.31309 3.82065 3.57589
# Velocity P-wave (km/s) = 5.08476 6.16773 5.65225
#
# Compressibility (1/GPa) = 0.04411305
#
# Stress axis : x y z
#
# Youngs Moduli (GPa) = 40.93958 73.96377 43.92332
#
# Poissons Ratio (x) = 0.44743 -0.20076
# Poissons Ratio (y) = 0.24766 0.29962
# Poissons Ratio (z) = -0.18712 0.50455
#
# Static dielectric constant tensor:
#      x y z
#    x 1.684310 0.000000 0.001100 
#    y 0.000000 1.757740 0.000000 
#    z 0.001100 0.000000 1.705680 
# 
# From -- ./inp_files/156547.got.cif
#   From: 2010.05.17/outbox.cif.g08.bks.cpg/sg12_79_cif.got.tgz:156547.got - 2010.06.03 13:09:07.
