data_PCOD9217399
_publ_section_title
;
Structure prediction by ZEFSAII (Michael W. Deem and Ramdas Pophale) SiO2 
 PCOD9217399
Probable space group: C 2/M
;
_chemical_formula_sum "Si O2"
_cell_formula_units_Z 48
_cell_length_a 23.309305
_cell_length_b 12.658763
_cell_length_c 7.993676
_cell_angle_alpha 90.000000
_cell_angle_beta 79.887507
_cell_angle_gamma 90.000000
_cell_volume 2322.027612
_symmetry_space_group_name_H-M "C 2/M"
_symmetry_group_IT_number 12
_symmetry_cell_setting 'monoclinic'
loop_
_space_group_symop_operation_xyz
x,y,z
-x,y,-z
-x,-y,-z
x,-y,z
1/2+x,1/2+y,z
1/2-x,1/2+y,-z
1/2-x,1/2-y,-z
1/2+x,1/2-y,z
loop_
_atom_site_type_symbol
_atom_site_label
_atom_site_fract_x
_atom_site_fract_y
_atom_site_fract_z
Si Si1 0.341718 0.702405 0.740398
Si Si2 0.951693 0.110853 0.666078
Si Si3 0.380889 0.878725 0.462051
Si Si4 0.130770 0.872805 0.899145
Si Si5 0.973814 0.731248 0.182181
Si Si6 0.718029 0.780529 0.685242
O O1 0.387195 0.624375 0.623638
O O2 0.359078 0.811127 0.635135
O O3 0.359587 0.677111 0.921446
O O4 0.272624 0.683577 0.768369
O O5 0.000000 0.105368 0.500000
O O6 0.972102 0.211180 0.759184
O O7 0.953538 0.000000 0.762454
O O8 0.439049 0.835777 0.339325
O O9 0.331255 0.863509 0.343848
O O10 0.387646 0.000000 0.504659
O O11 0.131280 0.000000 0.897765
O O12 0.071817 0.822507 0.852690
O O13 0.184296 0.821715 0.769722
O O14 0.000000 0.678145 0.000000
O O15 0.750000 0.750000 0.500000
#
# Coordination Sequence:
#
# PCOD9217399 Si02
#       6
#     8   8   8   8   8   8
#     4  11  21  40  63  92 125 158 203 256 302 367
#     4  11  22  37  62  93 127 162 198 248 311 367
#     4  10  23  43  63  85 119 169 213 254 302 352
#     4  11  23  39  66  96 125 159 197 250 317 369
#     4  11  22  40  62  90 131 157 203 254 305 366
#     4   9  22  42  62  88 123 159 204 256 299 359
#
# _framework density 20.671588
#
# number of rings (size 3 to 8) (size 9 to 14) (size 15 to 20)
#    0.000    1.500    3.333    1.500    0.000    5.000 
#    0.000    7.500    0.000    0.000    0.000    0.000 
#    0.000    0.000    0.000    0.000    0.000    0.000 
#
# Total GULP energy -133634.194950 kJ/mol
# GULP energy per Si atom -5568.091456 kJ/mol
# Density = 2.062454 g / cm^3
# Si number density = 20.671588 Si / 1000 Ang^3
#
#
#
# Elastic Constant Matrix: (Units=GPa)
#
#
# Indices 1 2 3 4 5 6 
#
# 1 119.2889 26.6630 7.6623 0.0000 -12.3249 0.0000
# 2 26.6630 106.1671 32.8672 0.0000 -1.2467 0.0000
# 3 7.6623 32.8672 67.5662 0.0000 -19.5930 0.0000
# 4 0.0000 0.0000 0.0000 -18.8312 0.0000 33.0197
# 5 -12.3249 -1.2467 -19.5930 0.0000 40.2107 0.0000
# 6 0.0000 0.0000 0.0000 33.0197 0.0000 -23.0910
#
#
#
# Elastic Compliance Matrix: (Units=1/GPa)
#
#
# Indices 1 2 3 4 5 6 
#
# 1 0.009245 -0.002658 0.001214 0.000000 0.003343 0.000000
# 2 -0.002658 0.012103 -0.006654 0.000000 -0.003682 0.000000
# 3 0.001214 -0.006654 0.020901 0.000000 0.010350 0.000000
# 4 0.000000 0.000000 0.000000 0.035228 0.000000 0.050376
# 5 0.003343 -0.003682 0.010350 0.000000 0.030822 0.000000
# 6 0.000000 0.000000 0.000000 0.050376 0.000000 0.028729
#
#
# Mechanical properties :
#
#
# Convention : Reuss Voigt Hill
#
# Bulk Modulus (GPa) = 38.38405 47.48969 42.93687
# Shear Modulus (GPa) = 30.88156 14.71301 22.79729
#
# Velocity S-wave (km/s) = 3.86931 2.67076 3.32449
# Velocity P-wave (km/s) = 6.21055 5.70385 5.96258
#
# Compressibility (1/GPa) = 0.02605249
#
# Stress axis : x y z
#
# Youngs Moduli (GPa) = 108.17166 82.62174 47.84563
#
# Poissons Ratio (x) = 0.21963 -0.05809
# Poissons Ratio (y) = 0.28755 0.31835
# Poissons Ratio (z) = -0.13133 0.54974
#
# Static dielectric constant tensor:
#      x y z
#    x 2.041500 0.000000 -0.085580 
#    y 0.000000 1.716520 0.000000 
#    z -0.085580 0.000000 1.857030 
# 
# From -- ./inp_files/94305.got.cif
#   From: 2010.05.17/outbox.cif.g08.bks.cpg/sg12_48_cif.got.tgz:94305.got - 2010.06.03 13:09:07.
