data_PCOD9217011
_publ_section_title
;
Structure prediction by ZEFSAII (Michael W. Deem and Ramdas Pophale) SiO2 
 PCOD9217011
Probable space group: C 2/M
;
_chemical_formula_sum "Si O2"
_cell_formula_units_Z 56
_cell_length_a 26.194119
_cell_length_b 12.744849
_cell_length_c 9.325759
_cell_angle_alpha 90.000000
_cell_angle_beta 110.749138
_cell_angle_gamma 90.000000
_cell_volume 2911.384485
_symmetry_space_group_name_H-M "C 2/M"
_symmetry_group_IT_number 12
_symmetry_cell_setting 'monoclinic'
loop_
_space_group_symop_operation_xyz
x,y,z
-x,y,-z
-x,-y,-z
x,-y,z
1/2+x,1/2+y,z
1/2-x,1/2+y,-z
1/2-x,1/2-y,-z
1/2+x,1/2-y,z
loop_
_atom_site_type_symbol
_atom_site_label
_atom_site_fract_x
_atom_site_fract_y
_atom_site_fract_z
Si Si1 0.732186 0.119842 0.132823
Si Si2 0.109997 0.622924 0.540354
Si Si3 0.433971 0.622267 0.097617
Si Si4 0.526871 0.292073 0.375991
Si Si5 0.661600 0.741977 0.844108
Si Si6 0.611087 0.616962 0.258553
Si Si7 0.694238 0.801144 0.389004
O O1 0.790470 0.178128 0.187311
O O2 0.708183 0.126818 0.268127
O O3 0.738235 0.000000 0.092013
O O4 0.691915 0.182149 0.986699
O O5 0.102515 0.500000 0.560600
O O6 0.055511 0.679059 0.424691
O O7 0.127237 0.688612 0.698087
O O8 0.159116 0.640715 0.475699
O O9 0.445594 0.500000 0.144678
O O10 0.480240 0.696148 0.210427
O O11 0.377717 0.661209 0.112907
O O12 0.426912 0.628749 0.919526
O O13 0.500000 0.323683 0.500000
O O14 0.575680 0.365146 0.366430
O O15 0.634340 0.500000 0.278744
O O16 0.656758 0.705006 0.298728
O O17 0.750000 0.750000 0.500000
#
# Coordination Sequence:
#
# PCOD9217011 Si02
#       7
#     8   8   8   8   8   8   8
#     4  11  23  40  64  90 126 166 203 253 305 358
#     4  11  24  43  64  88 124 167 204 251 312 362
#     4  11  22  41  65  89 123 165 202 253 310 360
#     4  11  23  41  62  94 123 152 203 260 304 366
#     4  11  22  42  61  94 125 158 213 252 294 372
#     4  10  23  41  64  89 123 165 202 248 309 367
#     4  11  22  42  61  93 128 160 206 254 298 369
#
# _framework density 19.234833999999999
#
# number of rings (size 3 to 8) (size 9 to 14) (size 15 to 20)
#    0.000    1.143    4.286    2.143    0.000    3.714 
#    0.000    0.000    0.000    1.714    0.000    0.000 
#    0.000    0.000    0.000    0.000    0.000    0.000 
#
# Total GULP energy -156422.804595 kJ/mol
# GULP energy per Si atom -5586.528736 kJ/mol
# Density = 1.919105 g / cm^3
# Si number density = 19.234834 Si / 1000 Ang^3
#
#
#
# Elastic Constant Matrix: (Units=GPa)
#
#
# Indices 1 2 3 4 5 6 
#
# 1 79.3474 34.9377 33.2376 0.0000 -0.9065 0.0000
# 2 34.9377 87.0222 30.5790 0.0000 6.0536 0.0000
# 3 33.2376 30.5790 55.6675 0.0000 -7.3606 0.0000
# 4 0.0000 0.0000 0.0000 16.7647 0.0000 -0.2123
# 5 -0.9065 6.0536 -7.3606 0.0000 41.2476 0.0000
# 6 0.0000 0.0000 0.0000 -0.2123 0.0000 14.5442
#
#
#
# Elastic Compliance Matrix: (Units=1/GPa)
#
#
# Indices 1 2 3 4 5 6 
#
# 1 0.018015 -0.004206 -0.008513 0.000000 -0.000506 0.000000
# 2 -0.004206 0.015755 -0.006617 0.000000 -0.003585 0.000000
# 3 -0.008513 -0.006617 0.027432 0.000000 0.005679 0.000000
# 4 0.000000 0.000000 0.000000 0.059660 0.000000 0.000871
# 5 -0.000506 -0.003585 0.005679 0.000000 0.025772 0.000000
# 6 0.000000 0.000000 0.000000 0.000871 0.000000 0.068768
#
#
# Mechanical properties :
#
#
# Convention : Reuss Voigt Hill
#
# Bulk Modulus (GPa) = 44.38473 46.61620 45.50047
# Shear Modulus (GPa) = 19.11431 22.73015 20.92223
#
# Velocity S-wave (km/s) = 3.15577 3.44134 3.30165
# Velocity P-wave (km/s) = 6.03356 6.33075 6.18394
#
# Compressibility (1/GPa) = 0.02253027
#
# Stress axis : x y z
#
# Youngs Moduli (GPa) = 55.50971 63.47361 36.45358
#
# Poissons Ratio (x) = 0.26698 0.31031
# Poissons Ratio (y) = 0.23348 0.24121
# Poissons Ratio (z) = 0.47253 0.42000
#
# Static dielectric constant tensor:
#      x y z
#    x 1.670870 0.000000 -0.004400 
#    y 0.000000 1.638150 0.000000 
#    z -0.004400 0.000000 1.667860 
# 
# From -- ./inp_files/103140.got.cif
#   From: 2010.05.17/outbox.cif.g08.bks.cpg/sg12_52_cif.got.tgz:103140.got - 2010.06.03 13:09:07.
