data_PCOD9217070
_publ_section_title
;
Structure prediction by ZEFSAII (Michael W. Deem and Ramdas Pophale) SiO2 
 PCOD9217070
Probable space group: C 2/M
;
_chemical_formula_sum "Si O2"
_cell_formula_units_Z 50
_cell_length_a 25.679654
_cell_length_b 8.832758
_cell_length_c 15.712301
_cell_angle_alpha 90.000000
_cell_angle_beta 131.045218
_cell_angle_gamma 90.000000
_cell_volume 2687.862018
_symmetry_space_group_name_H-M "C 2/M"
_symmetry_group_IT_number 12
_symmetry_cell_setting 'monoclinic'
loop_
_space_group_symop_operation_xyz
x,y,z
-x,y,-z
-x,-y,-z
x,-y,z
1/2+x,1/2+y,z
1/2-x,1/2+y,-z
1/2-x,1/2-y,-z
1/2+x,1/2-y,z
loop_
_atom_site_type_symbol
_atom_site_label
_atom_site_fract_x
_atom_site_fract_y
_atom_site_fract_z
Si Si1 0.286409 0.182934 0.621311
Si Si2 0.055407 0.667873 0.221841
Si Si3 0.434919 0.320793 0.190344
Si Si4 0.703107 0.181475 0.024422
Si Si5 0.211277 0.817346 0.714360
Si Si6 0.500000 0.000000 0.000000
Si Si7 0.069774 0.681254 0.626062
O O1 0.250000 0.250000 0.500000
O O2 0.367039 0.225136 0.707255
O O3 0.247409 0.230218 0.665517
O O4 0.283993 0.000000 0.616764
O O5 0.058579 0.500000 0.268816
O O6 0.006800 0.774502 0.224468
O O7 0.022867 0.629259 0.095168
O O8 0.425473 0.500000 0.183479
O O9 0.430924 0.254420 0.281158
O O10 0.373242 0.246699 0.069405
O O11 0.738614 0.218727 0.152396
O O12 0.700570 0.000000 0.013882
O O13 0.750000 0.250000 0.000000
O O14 0.137513 0.741306 0.650529
O O15 0.202572 0.000000 0.704308
O O16 0.073488 0.500000 0.638436
O O17 0.000000 0.720071 0.500000
#
# Coordination Sequence:
#
# PCOD9217070 Si02
#       7
#     8   8   8   8   8   2   8
#     4  10  23  42  64  92 126 168 215 260 321 390
#     4   9  21  40  68  91 122 166 220 262 318 383
#     4  12  25  40  63  96 132 170 209 266 328 385
#     4  11  22  38  64  94 129 166 211 261 318 383
#     4  10  23  41  66  94 125 166 210 262 322 382
#     4   8  20  40  74  88 118 168 224 266 320 374
#     4  11  25  43  64  91 125 168 217 262 318 388
#
# _framework density 18.602145
#
# number of rings (size 3 to 8) (size 9 to 14) (size 15 to 20)
#    0.480    1.120    1.600    2.400    4.480    3.200 
#    0.000    0.400    0.000    0.000    0.000    0.000 
#    0.000    0.000    0.000    0.000    0.000    0.000 
#
# Total GULP energy -139351.126355 kJ/mol
# GULP energy per Si atom -5574.045054 kJ/mol
# Density = 1.855981 g / cm^3
# Si number density = 18.602145 Si / 1000 Ang^3
#
#
#
# Elastic Constant Matrix: (Units=GPa)
#
#
# Indices 1 2 3 4 5 6 
#
# 1 176.8078 53.6973 97.6976 0.0000 5.9019 0.0000
# 2 53.6973 56.2273 54.0558 0.0000 5.6571 0.0000
# 3 97.6976 54.0558 128.3230 0.0000 0.3555 0.0000
# 4 0.0000 0.0000 0.0000 23.6860 0.0000 -2.3091
# 5 5.9019 5.6571 0.3555 0.0000 28.5235 0.0000
# 6 0.0000 0.0000 0.0000 -2.3091 0.0000 33.4262
#
#
#
# Elastic Compliance Matrix: (Units=1/GPa)
#
#
# Indices 1 2 3 4 5 6 
#
# 1 0.010281 -0.003636 -0.006292 0.000000 -0.001328 0.000000
# 2 -0.003636 0.032157 -0.010763 0.000000 -0.005491 0.000000
# 3 -0.006292 -0.010763 0.017108 0.000000 0.003223 0.000000
# 4 0.000000 0.000000 0.000000 0.042505 0.000000 0.002936
# 5 -0.001328 -0.005491 0.003223 0.000000 0.036382 0.000000
# 6 0.000000 0.000000 0.000000 0.002936 0.000000 0.030119
#
#
# Mechanical properties :
#
#
# Convention : Reuss Voigt Hill
#
# Bulk Modulus (GPa) = 55.05191 85.80662 70.42927
# Shear Modulus (GPa) = 23.14926 27.52098 25.33512
#
# Velocity S-wave (km/s) = 3.53149 3.85054 3.69446
# Velocity P-wave (km/s) = 6.80347 8.12381 7.49278
#
# Compressibility (1/GPa) = 0.01816467
#
# Stress axis : x y z
#
# Youngs Moduli (GPa) = 97.26396 31.09784 58.45123
#
# Poissons Ratio (x) = 0.11306 0.36780
# Poissons Ratio (y) = 0.35363 0.62909
# Poissons Ratio (z) = 0.61202 0.33469
#
# Static dielectric constant tensor:
#      x y z
#    x 1.635020 0.000000 0.014340 
#    y 0.000000 1.632010 0.000000 
#    z 0.014340 0.000000 1.620770 
# 
# From -- ./inp_files/244367.got.cif
#   From: 2010.05.17/outbox.cif.g08.bks.cpg/sg12_123_cif.got.tgz:244367.got - 2010.06.03 13:09:07.
