data_PCOD9217008
_publ_section_title
;
Structure prediction by ZEFSAII (Michael W. Deem and Ramdas Pophale) SiO2 
 PCOD9217008
Probable space group: C 2/M
;
_chemical_formula_sum "Si O2"
_cell_formula_units_Z 20
_cell_length_a 7.739548
_cell_length_b 17.815627
_cell_length_c 10.460037
_cell_angle_alpha 90.000000
_cell_angle_beta 137.387844
_cell_angle_gamma 90.000000
_cell_volume 976.470680
_symmetry_space_group_name_H-M "C 2/M"
_symmetry_group_IT_number 12
_symmetry_cell_setting 'monoclinic'
loop_
_space_group_symop_operation_xyz
x,y,z
-x,y,-z
-x,-y,-z
x,-y,z
1/2+x,1/2+y,z
1/2-x,1/2+y,-z
1/2-x,1/2-y,-z
1/2+x,1/2-y,z
loop_
_atom_site_type_symbol
_atom_site_label
_atom_site_fract_x
_atom_site_fract_y
_atom_site_fract_z
Si Si1 0.221314 0.689486 0.374571
Si Si2 0.000000 0.316137 0.000000
Si Si3 0.268671 0.088719 0.078501
O O1 0.500000 0.656012 0.500000
O O2 0.250000 0.750000 0.500000
O O3 0.124609 0.726080 0.186940
O O4 0.005408 0.627309 0.281886
O O5 0.208534 0.369705 0.046111
O O6 0.306563 0.000000 0.085414
O O7 0.000000 0.101721 0.000000
#
# Coordination Sequence:
#
# PCOD9217008 Si02
#       3
#     8   4   8
#     4  10  23  41  63  97 134 177 221 267 329 397
#     4   8  21  40  66  92 135 174 206 286 317 392
#     4   9  19  41  70  98 130 171 219 273 335 394
#
# _framework density 20.481926000000001
#
# number of rings (size 3 to 8) (size 9 to 14) (size 15 to 20)
#    2.400    0.400    0.000    0.600    0.000    5.600 
#    3.600    0.000    0.000    6.000    0.000    1.400 
#    0.000    0.000    0.000    0.000    0.000    0.000 
#
# Total GULP energy -55677.248939 kJ/mol
# GULP energy per Si atom -5567.724894 kJ/mol
# Density = 2.043531 g / cm^3
# Si number density = 20.481926 Si / 1000 Ang^3
#
#
#
# Elastic Constant Matrix: (Units=GPa)
#
#
# Indices 1 2 3 4 5 6 
#
# 1 141.5305 61.5604 61.5433 0.0000 11.4869 0.0000
# 2 61.5604 94.7422 55.2433 0.0000 -0.6432 0.0000
# 3 61.5433 55.2433 137.9458 0.0000 -9.6750 0.0000
# 4 0.0000 0.0000 0.0000 13.4667 0.0000 12.6958
# 5 11.4869 -0.6432 -9.6750 0.0000 53.0859 0.0000
# 6 0.0000 0.0000 0.0000 12.6958 0.0000 11.4469
#
#
#
# Elastic Compliance Matrix: (Units=1/GPa)
#
#
# Indices 1 2 3 4 5 6 
#
# 1 0.010932 -0.005425 -0.002912 0.000000 -0.002962 0.000000
# 2 -0.005425 0.016501 -0.004144 0.000000 0.000619 0.000000
# 3 -0.002912 -0.004144 0.010382 0.000000 0.002472 0.000000
# 4 0.000000 0.000000 0.000000 -1.627819 0.000000 1.805423
# 5 -0.002962 0.000619 0.002472 0.000000 0.019936 0.000000
# 6 0.000000 0.000000 0.000000 1.805423 0.000000 -1.915045
#
#
# Mechanical properties :
#
#
# Convention : Reuss Voigt Hill
#
# Bulk Modulus (GPa) = 77.81665 81.21250 79.51458
# Shear Modulus (GPa) = -1.44682 28.65799 13.60559
#
# Velocity S-wave (km/s) = -0.84138 3.74463 2.58015
# Velocity P-wave (km/s) = 6.09356 7.64416 6.91247
#
# Compressibility (1/GPa) = 0.01285072
#
# Stress axis : x y z
#
# Youngs Moduli (GPa) = 91.47223 60.60294 96.32431
#
# Poissons Ratio (x) = 0.32879 0.28053
# Poissons Ratio (y) = 0.49627 0.39919
# Poissons Ratio (z) = 0.26640 0.25115
#
# Static dielectric constant tensor:
#      x y z
#    x 1.777260 0.000000 -0.001710 
#    y 0.000000 1.721170 0.000000 
#    z -0.001710 0.000000 1.762840 
# 
# From -- ./inp_files/35527.got.cif
#   From: 2010.05.17/outbox.cif.g08.bks.cpg/sg12_18_cif.got.tgz:35527.got - 2010.06.03 13:09:07.
