data_PCOD9217954
_publ_section_title
;
Structure prediction by ZEFSAII (Michael W. Deem and Ramdas Pophale) SiO2 
 PCOD9217954
Probable space group: C 2/M
;
_chemical_formula_sum "Si O2"
_cell_formula_units_Z 40
_cell_length_a 8.881766
_cell_length_b 17.801786
_cell_length_c 11.482452
_cell_angle_alpha 90.000000
_cell_angle_beta 68.978283
_cell_angle_gamma 90.000000
_cell_volume 1694.673564
_symmetry_space_group_name_H-M "C 2/M"
_symmetry_group_IT_number 12
_symmetry_cell_setting 'monoclinic'
loop_
_space_group_symop_operation_xyz
x,y,z
-x,y,-z
-x,-y,-z
x,-y,z
1/2+x,1/2+y,z
1/2-x,1/2+y,-z
1/2-x,1/2-y,-z
1/2+x,1/2-y,z
loop_
_atom_site_type_symbol
_atom_site_label
_atom_site_fract_x
_atom_site_fract_y
_atom_site_fract_z
Si Si1 0.557247 0.265009 0.717338
Si Si2 0.806893 0.412003 0.073132
Si Si3 0.820161 0.854873 0.642559
Si Si4 0.736784 0.154618 0.148520
Si Si5 0.637660 0.000000 0.297014
Si Si6 0.739411 0.000000 0.528085
O O1 0.698490 0.210058 0.634831
O O2 0.487617 0.317702 0.635429
O O3 0.410256 0.212870 0.799975
O O4 0.626795 0.312625 0.805376
O O5 0.764575 0.500000 0.073196
O O6 0.756928 0.384108 0.213623
O O7 0.724277 0.362038 0.996230
O O8 0.000000 0.405329 0.000000
O O9 0.817355 0.925797 0.559557
O O10 0.678873 0.074536 0.214670
O O11 0.736851 0.000000 0.389667
O O12 0.448263 0.000000 0.379752
#
# Coordination Sequence:
#
# PCOD9217954 Si02
#       6
#     8   8   8   8   4   4
#     4  10  24  39  63  90 132 156 195 253 304 362
#     4  11  20  34  64  89 122 160 204 247 286 362
#     4  11  22  42  61  94 121 162 202 245 304 357
#     4  11  22  42  61  94 121 162 202 245 304 357
#     4  11  22  42  68  89 116 161 211 251 293 362
#     4  11  22  42  68  89 116 161 211 251 293 362
#
# _framework density 23.603366999999999
#
# number of rings (size 3 to 8) (size 9 to 14) (size 15 to 20)
#    0.000    1.200    6.000    0.000    0.000    6.400 
#    0.000    9.000    0.000    0.000    0.000    0.000 
#    0.000    0.000    0.000    0.000    0.000    0.000 
#
# Total GULP energy -112188.214314 kJ/mol
# GULP energy per Si atom -5609.410716 kJ/mol
# Density = 2.354964 g / cm^3
# Si number density = 23.603367 Si / 1000 Ang^3
#
#
#
# Elastic Constant Matrix: (Units=GPa)
#
#
# Indices 1 2 3 4 5 6 
#
# 1 126.8653 69.5710 32.4040 0.0000 25.7113 0.0000
# 2 69.5710 162.2241 46.1319 0.0000 17.7354 0.0000
# 3 32.4040 46.1319 93.0465 0.0000 11.9259 0.0000
# 4 0.0000 0.0000 0.0000 31.8163 0.0000 18.1820
# 5 25.7113 17.7354 11.9259 0.0000 35.8686 0.0000
# 6 0.0000 0.0000 0.0000 18.1820 0.0000 27.6205
#
#
#
# Elastic Compliance Matrix: (Units=1/GPa)
#
#
# Indices 1 2 3 4 5 6 
#
# 1 0.011581 -0.003945 -0.001319 0.000000 -0.005912 0.000000
# 2 -0.003945 0.008736 -0.002889 0.000000 -0.000531 0.000000
# 3 -0.001319 -0.002889 0.012884 0.000000 -0.001909 0.000000
# 4 0.000000 0.000000 0.000000 0.050384 0.000000 -0.033167
# 5 -0.005912 -0.000531 -0.001909 0.000000 0.033015 0.000000
# 6 0.000000 0.000000 0.000000 -0.033167 0.000000 0.058038
#
#
# Mechanical properties :
#
#
# Convention : Reuss Voigt Hill
#
# Bulk Modulus (GPa) = 59.19477 75.37217 67.28347
# Shear Modulus (GPa) = 25.43539 34.66300 30.04920
#
# Velocity S-wave (km/s) = 3.28627 3.83634 3.57191
# Velocity P-wave (km/s) = 6.28751 7.18509 6.75123
#
# Compressibility (1/GPa) = 0.01689338
#
# Stress axis : x y z
#
# Youngs Moduli (GPa) = 86.34864 114.47112 77.61554
#
# Poissons Ratio (x) = 0.45159 0.10241
# Poissons Ratio (y) = 0.34065 0.22425
# Poissons Ratio (z) = 0.11393 0.33073
#
# Static dielectric constant tensor:
#      x y z
#    x 1.907510 0.000000 -0.018190 
#    y 0.000000 1.836550 0.000000 
#    z -0.018190 0.000000 1.874360 
# 
# From -- ./inp_files/118962.got.cif
#   From: 2010.05.17/outbox.cif.g08.bks.cpg/sg12_60_cif.got.tgz:118962.got - 2010.06.03 13:09:07.
