data_PCOD9217598
_publ_section_title
;
Structure prediction by ZEFSAII (Michael W. Deem and Ramdas Pophale) SiO2 
 PCOD9217598
Probable space group: C 2/M
;
_chemical_formula_sum "Si O2"
_cell_formula_units_Z 32
_cell_length_a 12.634251
_cell_length_b 23.473332
_cell_length_c 4.955718
_cell_angle_alpha 90.000000
_cell_angle_beta 106.372562
_cell_angle_gamma 90.000000
_cell_volume 1410.109229
_symmetry_space_group_name_H-M "C 2/M"
_symmetry_group_IT_number 12
_symmetry_cell_setting 'monoclinic'
loop_
_space_group_symop_operation_xyz
x,y,z
-x,y,-z
-x,-y,-z
x,-y,z
1/2+x,1/2+y,z
1/2-x,1/2+y,-z
1/2-x,1/2-y,-z
1/2+x,1/2-y,z
loop_
_atom_site_type_symbol
_atom_site_label
_atom_site_fract_x
_atom_site_fract_y
_atom_site_fract_z
Si Si1 0.884574 0.500000 0.226013
Si Si2 0.281241 0.684384 0.989872
Si Si3 0.069525 0.379243 0.814820
Si Si4 0.386199 0.630135 0.569498
Si Si5 0.376129 0.500000 0.752849
O O1 0.893393 0.441980 0.064700
O O2 0.754283 0.500000 0.232746
O O3 0.000000 0.500000 0.500000
O O4 0.173188 0.655440 0.796300
O O5 0.372874 0.664248 0.840525
O O6 0.250000 0.750000 0.000000
O O7 0.299585 0.654970 0.292552
O O8 0.000000 0.386328 0.500000
O O9 0.000000 0.350538 0.000000
O O10 0.500000 0.642006 0.500000
O O11 0.378787 0.561800 0.609068
O O12 0.500000 0.500000 0.000000
#
# Coordination Sequence:
#
# PCOD9217598 Si02
#       5
#     4   8   8   8   4
#     4  10  23  43  75 106 154 188 256 314 402 451
#     4  12  27  48  74 107 148 204 262 322 386 466
#     4  11  24  44  69 103 141 190 244 314 385 457
#     4  12  27  48  76 110 153 200 256 323 400 471
#     4  12  25  49  79 120 161 209 260 330 408 487
#
# _framework density 22.693279
#
# number of rings (size 3 to 8) (size 9 to 14) (size 15 to 20)
#    0.000    0.500    2.500    5.250    3.500    5.000 
#    0.000    0.000    0.000    0.000    0.000    0.000 
#    0.000    0.000    0.000    0.000    0.000    0.000 
#
# Total GULP energy -89140.589554 kJ/mol
# GULP energy per Si atom -5571.286847 kJ/mol
# Density = 2.264163 g / cm^3
# Si number density = 22.693279 Si / 1000 Ang^3
#
#
#
# Elastic Constant Matrix: (Units=GPa)
#
#
# Indices 1 2 3 4 5 6 
#
# 1 165.8095 36.3255 27.1031 0.0000 -12.1838 0.0000
# 2 36.3255 180.7568 54.9435 0.0000 5.9067 0.0000
# 3 27.1031 54.9435 103.8324 0.0000 -6.6428 0.0000
# 4 0.0000 0.0000 0.0000 51.3195 0.0000 20.1953
# 5 -12.1838 5.9067 -6.6428 0.0000 49.0307 0.0000
# 6 0.0000 0.0000 0.0000 20.1953 0.0000 23.5306
#
#
#
# Elastic Compliance Matrix: (Units=1/GPa)
#
#
# Indices 1 2 3 4 5 6 
#
# 1 0.006551 -0.001050 -0.001052 0.000000 0.001612 0.000000
# 2 -0.001050 0.006841 -0.003445 0.000000 -0.001552 0.000000
# 3 -0.001052 -0.003445 0.011841 0.000000 0.001758 0.000000
# 4 0.000000 0.000000 0.000000 0.029423 0.000000 -0.025253
# 5 0.001612 -0.001552 0.001758 0.000000 0.021221 0.000000
# 6 0.000000 0.000000 0.000000 -0.025253 0.000000 0.064171
#
#
# Mechanical properties :
#
#
# Convention : Reuss Voigt Hill
#
# Bulk Modulus (GPa) = 70.71899 76.34919 73.53409
# Shear Modulus (GPa) = 32.08097 46.91127 39.49612
#
# Velocity S-wave (km/s) = 3.76397 4.55157 4.17637
# Velocity P-wave (km/s) = 7.07959 7.83194 7.46525
#
# Compressibility (1/GPa) = 0.01414047
#
# Stress axis : x y z
#
# Youngs Moduli (GPa) = 152.64158 146.17318 84.45245
#
# Poissons Ratio (x) = 0.15343 0.08880
# Poissons Ratio (y) = 0.16022 0.29097
# Poissons Ratio (z) = 0.16051 0.50362
#
# Static dielectric constant tensor:
#      x y z
#    x 1.925910 0.000000 0.105580 
#    y 0.000000 1.734860 0.000000 
#    z 0.105580 0.000000 1.985090 
# 
# From -- ./inp_files/7135.got.cif
#   From: 2010.05.17/outbox.cif.g08.bks.cpg/sg12_4_cif.got.tgz:7135.got - 2010.06.03 13:09:07.
