data_PCOD9217812
_publ_section_title
;
Structure prediction by ZEFSAII (Michael W. Deem and Ramdas Pophale) SiO2 
 PCOD9217812
Probable space group: C 2/M
;
_chemical_formula_sum "Si O2"
_cell_formula_units_Z 24
_cell_length_a 13.702306
_cell_length_b 20.604095
_cell_length_c 5.355356
_cell_angle_alpha 90.000000
_cell_angle_beta 39.446836
_cell_angle_gamma 90.000000
_cell_volume 960.631372
_symmetry_space_group_name_H-M "C 2/M"
_symmetry_group_IT_number 12
_symmetry_cell_setting 'monoclinic'
loop_
_space_group_symop_operation_xyz
x,y,z
-x,y,-z
-x,-y,-z
x,-y,z
1/2+x,1/2+y,z
1/2-x,1/2+y,-z
1/2-x,1/2-y,-z
1/2+x,1/2-y,z
loop_
_atom_site_type_symbol
_atom_site_label
_atom_site_fract_x
_atom_site_fract_y
_atom_site_fract_z
Si Si1 0.397019 0.431831 0.959107
Si Si2 0.601889 0.924833 0.046671
Si Si3 0.316077 0.321265 0.859776
O O1 0.500000 0.433609 0.500000
O O2 0.309550 0.500000 0.134078
O O3 0.500000 0.430039 0.000000
O O4 0.297551 0.367579 0.137247
O O5 0.500000 0.920121 0.500000
O O6 0.731037 0.868269 0.826623
O O7 0.662570 0.000000 0.919470
O O8 0.500000 0.915964 0.000000
O O9 0.000000 0.189412 0.500000
O O10 0.250000 0.250000 0.000000
#
# Coordination Sequence:
#
# PCOD9217812 Si02
#       3
#     8   8   8
#     4   9  19  37  62  92 123 159 210 269 324 382
#     4  10  23  45  72 102 137 176 222 280 343 405
#     4  11  24  43  68  99 138 182 229 279 336 404
#
# _framework density 24.983571000000001
#
# number of rings (size 3 to 8) (size 9 to 14) (size 15 to 20)
#    0.000    2.000    0.000    2.000    0.000    8.667 
#    0.000   26.667    0.000    0.000    0.000    0.000 
#    0.000    0.000    0.000    0.000    0.000    0.000 
#
# Total GULP energy -66938.370393 kJ/mol
# GULP energy per Si atom -5578.197533 kJ/mol
# Density = 2.492671 g / cm^3
# Si number density = 24.983571 Si / 1000 Ang^3
#
#
#
# Elastic Constant Matrix: (Units=GPa)
#
#
# Indices 1 2 3 4 5 6 
#
# 1 274.4143 133.0195 57.6500 0.0000 13.9852 0.0000
# 2 133.0195 323.1677 41.5046 0.0000 -32.0428 0.0000
# 3 57.6500 41.5046 150.0089 0.0000 14.4895 0.0000
# 4 0.0000 0.0000 0.0000 -124.7469 0.0000 44.5719
# 5 13.9852 -32.0428 14.4895 0.0000 53.9183 0.0000
# 6 0.0000 0.0000 0.0000 44.5719 0.0000 25.0747
#
#
#
# Elastic Compliance Matrix: (Units=1/GPa)
#
#
# Indices 1 2 3 4 5 6 
#
# 1 0.005042 -0.002159 -0.001119 0.000000 -0.002290 0.000000
# 2 -0.002159 0.004409 -0.000716 0.000000 0.003373 0.000000
# 3 -0.001119 -0.000716 0.007502 0.000000 -0.002151 0.000000
# 4 0.000000 0.000000 0.000000 -0.004903 0.000000 0.008715
# 5 -0.002290 0.003373 -0.002151 0.000000 0.021723 0.000000
# 6 0.000000 0.000000 0.000000 0.008715 0.000000 0.024390
#
#
# Mechanical properties :
#
#
# Convention : Reuss Voigt Hill
#
# Bulk Modulus (GPa) = 111.53740 134.65988 123.09864
# Shear Modulus (GPa) = 72.31486 25.21036 48.76261
#
# Velocity S-wave (km/s) = 5.38589 3.18004 4.42270
# Velocity P-wave (km/s) = 9.13336 8.21584 8.68672
#
# Compressibility (1/GPa) = 0.00896560
#
# Stress axis : x y z
#
# Youngs Moduli (GPa) = 198.31541 226.78996 133.29091
#
# Poissons Ratio (x) = 0.48960 0.14920
# Poissons Ratio (y) = 0.42813 0.09545
# Poissons Ratio (z) = 0.22199 0.16241
#
# Static dielectric constant tensor:
#      x y z
#    x 2.035850 0.000000 -0.093540 
#    y 0.000000 2.045690 0.000000 
#    z -0.093540 0.000000 2.221820 
# 
# From -- ./inp_files/5536.got.cif
#   From: 2010.05.17/outbox.cif.g08.bks.cpg/sg12_3_cif.got.tgz:5536.got - 2010.06.03 13:09:07.
