data_PCOD9217645
_publ_section_title
;
Structure prediction by ZEFSAII (Michael W. Deem and Ramdas Pophale) SiO2 
 PCOD9217645
Probable space group: C 2/M
;
_chemical_formula_sum "Si O2"
_cell_formula_units_Z 48
_cell_length_a 20.421832
_cell_length_b 8.846759
_cell_length_c 13.769312
_cell_angle_alpha 90.000000
_cell_angle_beta 89.930364
_cell_angle_gamma 90.000000
_cell_volume 2487.658812
_symmetry_space_group_name_H-M "C 2/M"
_symmetry_group_IT_number 12
_symmetry_cell_setting 'monoclinic'
loop_
_space_group_symop_operation_xyz
x,y,z
-x,y,-z
-x,-y,-z
x,-y,z
1/2+x,1/2+y,z
1/2-x,1/2+y,-z
1/2-x,1/2-y,-z
1/2+x,1/2-y,z
loop_
_atom_site_type_symbol
_atom_site_label
_atom_site_fract_x
_atom_site_fract_y
_atom_site_fract_z
Si Si1 0.876575 0.180935 0.851401
Si Si2 0.380330 0.319115 0.079443
Si Si3 0.440305 0.180498 0.428422
Si Si4 0.229835 0.681234 0.783657
Si Si5 0.009571 0.320067 0.788332
Si Si6 0.698092 0.679825 0.574107
O O1 0.804703 0.217344 0.811049
O O2 0.935183 0.265156 0.797295
O O3 0.886112 0.000000 0.842182
O O4 0.879660 0.219244 0.965680
O O5 0.375798 0.500000 0.088776
O O6 0.319582 0.243387 0.135082
O O7 0.446143 0.261604 0.131195
O O8 0.500000 0.215554 0.500000
O O9 0.461257 0.215097 0.317885
O O10 0.374899 0.269490 0.454439
O O11 0.427392 0.000000 0.434422
O O12 0.222799 0.500000 0.777496
O O13 0.211366 0.754196 0.681126
O O14 0.013411 0.500000 0.802282
O O15 0.703582 0.500000 0.575009
O O16 0.750000 0.750000 0.500000
#
# Coordination Sequence:
#
# PCOD9217645 Si02
#       6
#     8   8   8   8   8   8
#     4  10  24  41  61  91 129 168 211 260 309 369
#     4  11  22  40  64  91 125 169 212 257 314 371
#     4  10  23  44  67  94 128 163 205 257 312 373
#     4  11  23  42  65  93 128 165 208 261 312 368
#     4  11  23  39  63  93 127 166 208 259 315 371
#     4  12  26  44  68  96 127 165 206 255 311 373
#
# _framework density 19.295249999999999
#
# number of rings (size 3 to 8) (size 9 to 14) (size 15 to 20)
#    0.000    1.167    1.667    4.000    2.333    5.667 
#    0.000    0.000    0.000    0.000    0.000    0.000 
#    0.000    0.000    0.000    0.000    0.000    0.000 
#
# Total GULP energy -134297.244033 kJ/mol
# GULP energy per Si atom -5595.718501 kJ/mol
# Density = 1.925133 g / cm^3
# Si number density = 19.295250 Si / 1000 Ang^3
#
#
#
# Elastic Constant Matrix: (Units=GPa)
#
#
# Indices 1 2 3 4 5 6 
#
# 1 111.3268 49.1720 23.5628 0.0000 -9.3404 0.0000
# 2 49.1720 65.3781 32.8487 0.0000 -5.9120 0.0000
# 3 23.5628 32.8487 54.4467 0.0000 -1.3153 0.0000
# 4 0.0000 0.0000 0.0000 25.7451 0.0000 -5.2259
# 5 -9.3404 -5.9120 -1.3153 0.0000 40.4555 0.0000
# 6 0.0000 0.0000 0.0000 -5.2259 0.0000 40.0577
#
#
#
# Elastic Compliance Matrix: (Units=1/GPa)
#
#
# Indices 1 2 3 4 5 6 
#
# 1 0.013565 -0.010222 0.000337 0.000000 0.001649 0.000000
# 2 -0.010222 0.029969 -0.013619 0.000000 0.001577 0.000000
# 3 0.000337 -0.013619 0.026412 0.000000 -0.001054 0.000000
# 4 0.000000 0.000000 0.000000 0.039899 0.000000 0.005205
# 5 0.001649 0.001577 -0.001054 0.000000 0.025295 0.000000
# 6 0.000000 0.000000 0.000000 0.005205 0.000000 0.025643
#
#
# Mechanical properties :
#
#
# Convention : Reuss Voigt Hill
#
# Bulk Modulus (GPa) = 43.59800 49.14653 46.37227
# Shear Modulus (GPa) = 23.20846 29.62286 26.41566
#
# Velocity S-wave (km/s) = 3.47191 3.92247 3.70405
# Velocity P-wave (km/s) = 6.22226 6.78531 6.50987
#
# Compressibility (1/GPa) = 0.02293683
#
# Stress axis : x y z
#
# Youngs Moduli (GPa) = 73.72046 33.36731 37.86149
#
# Poissons Ratio (x) = 0.34109 -0.01275
# Poissons Ratio (y) = 0.75360 0.51564
# Poissons Ratio (z) = -0.02483 0.45443
#
# Static dielectric constant tensor:
#      x y z
#    x 1.647750 0.000000 0.006090 
#    y 0.000000 1.644480 0.000000 
#    z 0.006090 0.000000 1.643750 
# 
# From -- ./inp_files/221552.got.cif
#   From: 2010.05.17/outbox.cif.g08.bks.cpg/sg12_111_cif.got.tgz:221552.got - 2010.06.03 13:09:07.
