data_PCOD9217603
_publ_section_title
;
Structure prediction by ZEFSAII (Michael W. Deem and Ramdas Pophale) SiO2 
 PCOD9217603
Probable space group: C 2/M
;
_chemical_formula_sum "Si O2"
_cell_formula_units_Z 44
_cell_length_a 27.395440
_cell_length_b 11.983201
_cell_length_c 17.129635
_cell_angle_alpha 90.000000
_cell_angle_beta 156.685148
_cell_angle_gamma 90.000000
_cell_volume 2225.650617
_symmetry_space_group_name_H-M "C 2/M"
_symmetry_group_IT_number 12
_symmetry_cell_setting 'monoclinic'
loop_
_space_group_symop_operation_xyz
x,y,z
-x,y,-z
-x,-y,-z
x,-y,z
1/2+x,1/2+y,z
1/2-x,1/2+y,-z
1/2-x,1/2-y,-z
1/2+x,1/2-y,z
loop_
_atom_site_type_symbol
_atom_site_label
_atom_site_fract_x
_atom_site_fract_y
_atom_site_fract_z
Si Si1 0.815098 0.374270 0.414879
Si Si2 0.920342 0.500000 0.999730
Si Si3 0.704551 0.000000 0.461877
Si Si4 0.829865 0.739233 0.924160
Si Si5 0.131170 0.126950 0.736263
Si Si6 0.195277 0.000000 0.556979
Si Si7 0.500636 0.312116 0.699503
O O1 0.824189 0.500000 0.395856
O O2 0.782963 0.395884 0.459221
O O3 0.718907 0.302834 0.223679
O O4 0.944105 0.309527 0.600241
O O5 0.881412 0.616729 0.981246
O O6 0.833352 0.500000 0.794806
O O7 0.068148 0.500000 0.223887
O O8 0.796318 0.000000 0.524211
O O9 0.719162 0.713755 0.822181
O O10 0.932642 0.810306 0.119617
O O11 0.000000 0.128627 0.500000
O O12 0.097764 0.154539 0.776047
O O13 0.180343 0.000000 0.802527
O O14 0.115890 0.104818 0.470824
#
# Coordination Sequence:
#
# PCOD9217603 Si02
#       7
#     8   4   4   8   8   4   8
#     4  10  23  44  63  91 138 170 217 268 336 391
#     4  12  21  43  70 100 125 169 225 274 322 396
#     4  10  25  47  66  97 135 174 223 271 342 389
#     4  12  23  42  68  97 136 175 216 275 331 398
#     4  11  21  38  67 101 131 172 225 272 328 390
#     4  12  25  44  72 100 128 174 230 280 324 384
#     4  12  24  43  66  98 137 172 221 281 327 392
#
# _framework density 19.769500000000001
#
# number of rings (size 3 to 8) (size 9 to 14) (size 15 to 20)
#    0.545    0.182    7.273    0.818    1.273    0.727 
#    0.000    3.636    0.000    0.000    0.000    0.000 
#    0.000    0.000    0.000    0.000    0.000    0.000 
#
# Total GULP energy -122714.828063 kJ/mol
# GULP energy per Si atom -5577.946730 kJ/mol
# Density = 1.972450 g / cm^3
# Si number density = 19.769500 Si / 1000 Ang^3
#
#
#
# Elastic Constant Matrix: (Units=GPa)
#
#
# Indices 1 2 3 4 5 6 
#
# 1 83.2746 24.1717 14.5137 0.0000 -6.8897 0.0000
# 2 24.1717 83.5632 17.6373 0.0000 3.6219 0.0000
# 3 14.5137 17.6373 74.9834 0.0000 -19.1482 0.0000
# 4 0.0000 0.0000 0.0000 33.5577 0.0000 43.1506
# 5 -6.8897 3.6219 -19.1482 0.0000 25.0437 0.0000
# 6 0.0000 0.0000 0.0000 43.1506 0.0000 169.5990
#
#
#
# Elastic Compliance Matrix: (Units=1/GPa)
#
#
# Indices 1 2 3 4 5 6 
#
# 1 0.013590 -0.003934 -0.000752 0.000000 0.003733 0.000000
# 2 -0.003934 0.014273 -0.004224 0.000000 -0.006376 0.000000
# 3 -0.000752 -0.004224 0.018116 0.000000 0.014255 0.000000
# 4 0.000000 0.000000 0.000000 0.044289 0.000000 -0.011268
# 5 0.003733 -0.006376 0.014255 0.000000 0.052779 0.000000
# 6 0.000000 0.000000 0.000000 -0.011268 0.000000 0.008763
#
#
# Mechanical properties :
#
#
# Convention : Reuss Voigt Hill
#
# Bulk Modulus (GPa) = 35.51303 39.38518 37.44910
# Shear Modulus (GPa) = 27.93044 58.00664 42.96854
#
# Velocity S-wave (km/s) = 3.76281 5.42265 4.66711
# Velocity P-wave (km/s) = 6.07296 7.69236 6.93012
#
# Compressibility (1/GPa) = 0.02815868
#
# Stress axis : x y z
#
# Youngs Moduli (GPa) = 73.58168 70.06265 55.20092
#
# Poissons Ratio (x) = 0.27565 0.04150
# Poissons Ratio (y) = 0.28949 0.23317
# Poissons Ratio (z) = 0.05532 0.29594
#
# Static dielectric constant tensor:
#      x y z
#    x 1.696360 0.000000 -0.022570 
#    y 0.000000 1.700010 0.000000 
#    z -0.022570 0.000000 1.691460 
# 
# From -- ./inp_files/296572.got.cif
#   From: 2010.05.17/outbox.cif.g08.bks.cpg/sg12_149_cif.got.tgz:296572.got - 2010.06.03 13:09:07.
