data_PCOD9217344
_publ_section_title
;
Structure prediction by ZEFSAII (Michael W. Deem and Ramdas Pophale) SiO2 
 PCOD9217344
Probable space group: C 2/M
;
_chemical_formula_sum "Si O2"
_cell_formula_units_Z 64
_cell_length_a 14.427285
_cell_length_b 19.068447
_cell_length_c 14.309405
_cell_angle_alpha 90.000000
_cell_angle_beta 50.733849
_cell_angle_gamma 90.000000
_cell_volume 3047.773423
_symmetry_space_group_name_H-M "C 2/M"
_symmetry_group_IT_number 12
_symmetry_cell_setting 'monoclinic'
loop_
_space_group_symop_operation_xyz
x,y,z
-x,y,-z
-x,-y,-z
x,-y,z
1/2+x,1/2+y,z
1/2-x,1/2+y,-z
1/2-x,1/2-y,-z
1/2+x,1/2-y,z
loop_
_atom_site_type_symbol
_atom_site_label
_atom_site_fract_x
_atom_site_fract_y
_atom_site_fract_z
Si Si1 0.991550 0.326386 0.787985
Si Si2 0.883042 0.889710 0.134217
Si Si3 0.402287 0.196944 0.481348
Si Si4 0.854932 0.185808 0.840071
Si Si5 0.377999 0.222436 0.131366
Si Si6 0.288857 0.576554 0.387831
Si Si7 0.940903 0.854575 0.438316
Si Si8 0.230803 0.419558 0.058870
O O1 0.909562 0.256101 0.851168
O O2 0.903462 0.390256 0.865774
O O3 0.036190 0.326499 0.653920
O O4 0.105808 0.317743 0.781632
O O5 0.879979 0.805696 0.145545
O O6 0.875930 0.920473 0.242233
O O7 0.771564 0.911902 0.140670
O O8 0.000000 0.909960 0.000000
O O9 0.500000 0.193581 0.500000
O O10 0.297366 0.143059 0.570091
O O11 0.371895 0.279676 0.492490
O O12 0.737738 0.203950 0.854447
O O13 0.953900 0.159359 0.704022
O O14 0.817505 0.130227 0.942466
O O15 0.500000 0.203464 0.000000
O O16 0.229320 0.500000 0.426019
O O17 0.356718 0.589423 0.441953
O O18 0.000000 0.872591 0.500000
O O19 0.240866 0.500000 0.023589
#
# Coordination Sequence:
#
# PCOD9217344 Si02
#       8
#     8   8   8   8   8   8   8   8
#     4  11  22  41  65  94 127 167 219 266 316 381
#     4  11  23  39  64  96 125 166 212 262 322 383
#     4  10  23  42  68  96 125 167 217 276 318 371
#     4  11  22  42  65  98 128 165 220 271 320 368
#     4  11  21  37  69  97 125 163 215 272 315 369
#     4  12  26  43  64  95 137 172 210 265 326 390
#     4  10  24  42  68  95 123 170 222 273 312 374
#     4  12  24  39  62  93 135 171 203 258 325 394
#
# _framework density 20.998937000000002
#
# number of rings (size 3 to 8) (size 9 to 14) (size 15 to 20)
#    0.000    1.000    2.500    5.625    5.250    3.500 
#    0.000    1.250    0.000    0.000    0.000    0.000 
#    0.000    0.000    0.000    0.000    0.000    0.000 
#
# Total GULP energy -179047.030665 kJ/mol
# GULP energy per Si atom -5595.219708 kJ/mol
# Density = 2.095114 g / cm^3
# Si number density = 20.998937 Si / 1000 Ang^3
#
#
#
# Elastic Constant Matrix: (Units=GPa)
#
#
# Indices 1 2 3 4 5 6 
#
# 1 89.5297 20.9128 6.3099 0.0000 15.3620 0.0000
# 2 20.9128 77.4357 33.9443 0.0000 6.3417 0.0000
# 3 6.3099 33.9443 77.9854 0.0000 14.2114 0.0000
# 4 0.0000 0.0000 0.0000 -11.2615 0.0000 -8.8382
# 5 15.3620 6.3417 14.2114 0.0000 35.1903 0.0000
# 6 0.0000 0.0000 0.0000 -8.8382 0.0000 -0.8751
#
#
#
# Elastic Compliance Matrix: (Units=1/GPa)
#
#
# Indices 1 2 3 4 5 6 
#
# 1 0.012887 -0.003722 0.001598 0.000000 -0.005600 0.000000
# 2 -0.003722 0.017034 -0.007394 0.000000 0.001541 0.000000
# 3 0.001598 -0.007394 0.017051 0.000000 -0.006251 0.000000
# 4 0.000000 0.000000 0.000000 0.012820 0.000000 -0.129480
# 5 -0.005600 0.001541 -0.006251 0.000000 0.033108 0.000000
# 6 0.000000 0.000000 0.000000 -0.129480 0.000000 0.164981
#
#
# Mechanical properties :
#
#
# Convention : Reuss Voigt Hill
#
# Bulk Modulus (GPa) = 35.79618 40.80943 38.30280
# Shear Modulus (GPa) = 17.46841 16.86301 17.16571
#
# Velocity S-wave (km/s) = 2.88735 2.83687 2.86222
# Velocity P-wave (km/s) = 5.31031 5.49606 5.40398
#
# Compressibility (1/GPa) = 0.02793594
#
# Stress axis : x y z
#
# Youngs Moduli (GPa) = 77.59606 58.70543 58.64711
#
# Poissons Ratio (x) = 0.21852 -0.09372
# Poissons Ratio (y) = 0.28883 0.43364
# Poissons Ratio (z) = -0.12400 0.43407
#
# Static dielectric constant tensor:
#      x y z
#    x 1.660670 0.000000 0.006070 
#    y 0.000000 1.729700 0.000000 
#    z 0.006070 0.000000 1.771960 
# 
# From -- ./inp_files/216777.got.cif
#   From: 2010.05.17/outbox.cif.g08.bks.cpg/sg12_109_cif.got.tgz:216777.got - 2010.06.03 13:09:07.
