data_PCOD9217757
_publ_section_title
;
Structure prediction by ZEFSAII (Michael W. Deem and Ramdas Pophale) SiO2 
 PCOD9217757
Probable space group: C 2/M
;
_chemical_formula_sum "Si O2"
_cell_formula_units_Z 60
_cell_length_a 28.834028
_cell_length_b 9.396123
_cell_length_c 12.474421
_cell_angle_alpha 90.000000
_cell_angle_beta 66.619364
_cell_angle_gamma 90.000000
_cell_volume 3102.162008
_symmetry_space_group_name_H-M "C 2/M"
_symmetry_group_IT_number 12
_symmetry_cell_setting 'monoclinic'
loop_
_space_group_symop_operation_xyz
x,y,z
-x,y,-z
-x,-y,-z
x,-y,z
1/2+x,1/2+y,z
1/2-x,1/2+y,-z
1/2-x,1/2-y,-z
1/2+x,1/2-y,z
loop_
_atom_site_type_symbol
_atom_site_label
_atom_site_fract_x
_atom_site_fract_y
_atom_site_fract_z
Si Si1 0.635413 0.167672 0.840258
Si Si2 0.093222 0.167690 0.296231
Si Si3 0.700075 0.831426 0.579600
Si Si4 0.671549 0.749542 0.042733
Si Si5 0.384671 0.166289 0.520327
Si Si6 0.744800 0.000000 0.050668
Si Si7 0.464154 0.664552 0.136115
Si Si8 0.004414 0.667905 0.684158
O O1 0.681191 0.201747 0.716806
O O2 0.588417 0.263257 0.848271
O O3 0.623159 0.000000 0.835850
O O4 0.650462 0.195721 0.948384
O O5 0.126372 0.196216 0.160192
O O6 0.122120 0.231846 0.372359
O O7 0.040831 0.253212 0.334577
O O8 0.084329 0.000000 0.316653
O O9 0.750000 0.750000 0.500000
O O10 0.654336 0.800388 0.539291
O O11 0.709619 0.000000 0.565288
O O12 0.710930 0.623592 0.984808
O O13 0.701414 0.875770 0.073861
O O14 0.441722 0.181594 0.424465
O O15 0.377407 0.000000 0.557232
O O16 0.457288 0.500000 0.176351
O O17 0.488828 0.756383 0.207808
O O18 0.500000 0.666329 0.000000
O O19 0.993290 0.500000 0.704864
#
# Coordination Sequence:
#
# PCOD9217757 Si02
#       8
#     8   8   8   8   8   4   8   8
#     4  11  23  43  69  95 133 173 218 273 327 397
#     4  12  26  42  66 100 136 172 221 277 330 396
#     4  10  23  45  66  97 131 170 220 273 326 389
#     4  11  24  45  67  98 130 173 224 275 336 400
#     4  10  23  45  67  95 134 175 222 271 325 395
#     4  10  24  44  66  90 134 172 218 274 336 384
#     4  11  24  39  63  98 136 174 216 269 328 389
#     4  11  23  43  69  95 133 175 220 270 330 397
#
# _framework density 19.341349999999998
#
# number of rings (size 3 to 8) (size 9 to 14) (size 15 to 20)
#    0.000    1.200    2.667    2.400    2.800    9.067 
#    2.400    0.000    0.000    0.000    0.000    0.000 
#    0.000    0.000    0.000    0.000    0.000    0.000 
#
# Total GULP energy -167184.609753 kJ/mol
# GULP energy per Si atom -5572.820325 kJ/mol
# Density = 1.929733 g / cm^3
# Si number density = 19.341350 Si / 1000 Ang^3
#
#
#
# Elastic Constant Matrix: (Units=GPa)
#
#
# Indices 1 2 3 4 5 6 
#
# 1 55.3670 30.9269 13.6474 0.0000 -3.3913 0.0000
# 2 30.9269 120.0872 36.9221 0.0000 -2.3099 0.0000
# 3 13.6474 36.9221 89.0355 0.0000 10.8018 0.0000
# 4 0.0000 0.0000 0.0000 22.2159 0.0000 -5.3214
# 5 -3.3913 -2.3099 10.8018 0.0000 11.9569 0.0000
# 6 0.0000 0.0000 0.0000 -5.3214 0.0000 18.9632
#
#
#
# Elastic Compliance Matrix: (Units=1/GPa)
#
#
# Indices 1 2 3 4 5 6 
#
# 1 0.021719 -0.004768 -0.002232 0.000000 0.007256 0.000000
# 2 -0.004768 0.011002 -0.004409 0.000000 0.004756 0.000000
# 3 -0.002232 -0.004409 0.015254 0.000000 -0.015265 0.000000
# 4 0.000000 0.000000 0.000000 0.048256 0.000000 0.013542
# 5 0.007256 0.004756 -0.015265 0.000000 0.100401 0.000000
# 6 0.000000 0.000000 0.000000 0.013542 0.000000 0.056534
#
#
# Mechanical properties :
#
#
# Convention : Reuss Voigt Hill
#
# Bulk Modulus (GPa) = 39.74901 47.49805 43.62353
# Shear Modulus (GPa) = 17.58279 22.82675 20.20477
#
# Velocity S-wave (km/s) = 3.01836 3.43914 3.23560
# Velocity P-wave (km/s) = 5.72217 6.35463 6.04668
#
# Compressibility (1/GPa) = 0.02515786
#
# Stress axis : x y z
#
# Youngs Moduli (GPa) = 46.04254 90.89191 65.55728
#
# Poissons Ratio (x) = 0.43333 0.14635
# Poissons Ratio (y) = 0.21951 0.28902
# Poissons Ratio (z) = 0.10278 0.40071
#
# Static dielectric constant tensor:
#      x y z
#    x 1.649420 0.000000 0.006400 
#    y 0.000000 1.648630 0.000000 
#    z 0.006400 0.000000 1.673400 
# 
# From -- ./inp_files/187358.got.cif
#   From: 2010.05.17/outbox.cif.g08.bks.cpg/sg12_94_cif.got.tgz:187358.got - 2010.06.03 13:09:07.
