data_PCOD9217422
_publ_section_title
;
Structure prediction by ZEFSAII (Michael W. Deem and Ramdas Pophale) SiO2 
 PCOD9217422
Probable space group: C 2/M
;
_chemical_formula_sum "Si O2"
_cell_formula_units_Z 42
_cell_length_a 19.135138
_cell_length_b 18.396565
_cell_length_c 6.731255
_cell_angle_alpha 90.000000
_cell_angle_beta 60.521121
_cell_angle_gamma 90.000000
_cell_volume 2062.774220
_symmetry_space_group_name_H-M "C 2/M"
_symmetry_group_IT_number 12
_symmetry_cell_setting 'monoclinic'
loop_
_space_group_symop_operation_xyz
x,y,z
-x,y,-z
-x,-y,-z
x,-y,z
1/2+x,1/2+y,z
1/2-x,1/2+y,-z
1/2-x,1/2-y,-z
1/2+x,1/2-y,z
loop_
_atom_site_type_symbol
_atom_site_label
_atom_site_fract_x
_atom_site_fract_y
_atom_site_fract_z
Si Si1 0.311612 0.413863 0.656248
Si Si2 0.417589 0.679944 0.215088
Si Si3 0.844413 0.579336 0.376249
Si Si4 0.422461 0.194054 0.517876
Si Si5 0.500000 0.000000 0.000000
Si Si6 0.829337 0.205596 0.940572
O O1 0.320391 0.500000 0.660106
O O2 0.376965 0.378112 0.418091
O O3 0.223543 0.397840 0.685192
O O4 0.321327 0.372995 0.850837
O O5 0.436847 0.752920 0.311436
O O6 0.500000 0.653639 0.000000
O O7 0.353700 0.699214 0.133729
O O8 0.818308 0.500000 0.493777
O O9 0.857619 0.636494 0.532594
O O10 0.930645 0.562407 0.152685
O O11 0.500000 0.154293 0.500000
O O12 0.395498 0.248145 0.729150
O O13 0.750000 0.250000 0.000000
#
# Coordination Sequence:
#
# PCOD9217422 Si02
#       6
#     8   8   8   8   2   8
#     4  10  23  43  64  90 132 165 207 265 315 374
#     4  11  23  40  65  92 126 164 216 264 318 374
#     4   9  20  38  60  90 128 169 205 254 314 375
#     4  11  22  38  63  93 127 164 209 267 308 370
#     4   8  20  36  62  88 126 168 204 238 320 380
#     4  11  23  40  65  97 122 170 216 258 316 381
#
# _framework density 20.360928999999999
#
# number of rings (size 3 to 8) (size 9 to 14) (size 15 to 20)
#    0.571    1.143    1.905    2.286    1.333    6.095 
#    0.000    1.905    0.000    0.000    0.000    0.000 
#    0.000    0.000    0.000    0.000    0.000    0.000 
#
# Total GULP energy -116932.296920 kJ/mol
# GULP energy per Si atom -5568.204615 kJ/mol
# Density = 2.031459 g / cm^3
# Si number density = 20.360929 Si / 1000 Ang^3
#
#
#
# Elastic Constant Matrix: (Units=GPa)
#
#
# Indices 1 2 3 4 5 6 
#
# 1 87.5794 16.1634 15.2853 0.0000 10.0179 0.0000
# 2 16.1634 58.9209 8.0925 0.0000 8.9469 0.0000
# 3 15.2853 8.0925 50.8128 0.0000 7.4126 0.0000
# 4 0.0000 0.0000 0.0000 13.7976 0.0000 -2.7991
# 5 10.0179 8.9469 7.4126 0.0000 30.5917 0.0000
# 6 0.0000 0.0000 0.0000 -2.7991 0.0000 32.9879
#
#
#
# Elastic Compliance Matrix: (Units=1/GPa)
#
#
# Indices 1 2 3 4 5 6 
#
# 1 0.012743 -0.002677 -0.003019 0.000000 -0.002658 0.000000
# 2 -0.002677 0.018552 -0.001540 0.000000 -0.004176 0.000000
# 3 -0.003019 -0.001540 0.021379 0.000000 -0.003741 0.000000
# 4 0.000000 0.000000 0.000000 0.073746 0.000000 0.006258
# 5 -0.002658 -0.004176 -0.003741 0.000000 0.035687 0.000000
# 6 0.000000 0.000000 0.000000 0.006258 0.000000 0.030845
#
#
# Mechanical properties :
#
#
# Convention : Reuss Voigt Hill
#
# Bulk Modulus (GPa) = 26.17706 30.71062 28.44384
# Shear Modulus (GPa) = 22.71077 25.99357 24.35217
#
# Velocity S-wave (km/s) = 3.34340 3.57689 3.46211
# Velocity P-wave (km/s) = 5.27151 5.67227 5.47556
#
# Compressibility (1/GPa) = 0.03820139
#
# Stress axis : x y z
#
# Youngs Moduli (GPa) = 78.47204 53.90258 46.77414
#
# Poissons Ratio (x) = 0.14432 0.14122
# Poissons Ratio (y) = 0.21011 0.07203
# Poissons Ratio (z) = 0.23692 0.08301
#
# Static dielectric constant tensor:
#      x y z
#    x 1.789220 0.000000 -0.068110 
#    y 0.000000 1.718730 0.000000 
#    z -0.068110 0.000000 1.756360 
# 
# From -- ./inp_files/16002.got.cif
#   From: 2010.05.17/outbox.cif.g08.bks.cpg/sg12_9_cif.got.tgz:16002.got - 2010.06.03 13:09:07.
