data_PCOD9217213
_publ_section_title
;
Structure prediction by ZEFSAII (Michael W. Deem and Ramdas Pophale) SiO2 
 PCOD9217213
Probable space group: C 2/M
;
_chemical_formula_sum "Si O2"
_cell_formula_units_Z 56
_cell_length_a 19.485599
_cell_length_b 8.725226
_cell_length_c 29.645345
_cell_angle_alpha 90.000000
_cell_angle_beta 32.553327
_cell_angle_gamma 90.000000
_cell_volume 2712.047632
_symmetry_space_group_name_H-M "C 2/M"
_symmetry_group_IT_number 12
_symmetry_cell_setting 'monoclinic'
loop_
_space_group_symop_operation_xyz
x,y,z
-x,y,-z
-x,-y,-z
x,-y,z
1/2+x,1/2+y,z
1/2-x,1/2+y,-z
1/2-x,1/2-y,-z
1/2+x,1/2-y,z
loop_
_atom_site_type_symbol
_atom_site_label
_atom_site_fract_x
_atom_site_fract_y
_atom_site_fract_z
Si Si1 0.223733 0.815561 0.158635
Si Si2 0.535977 0.181331 0.553713
Si Si3 0.042515 0.182312 0.647027
Si Si4 0.237624 0.182178 0.706536
Si Si5 0.297380 0.182865 0.020973
Si Si6 0.275128 0.820691 0.379851
Si Si7 0.074818 0.182537 0.886341
O O1 0.346443 0.741882 0.114352
O O2 0.096919 0.773696 0.256515
O O3 0.236604 0.000000 0.153505
O O4 0.215432 0.771304 0.110611
O O5 0.570365 0.228050 0.585686
O O6 0.386970 0.217618 0.630319
O O7 0.628572 0.272669 0.469338
O O8 0.553802 0.000000 0.536563
O O9 0.143439 0.225569 0.629288
O O10 0.044439 0.000000 0.637263
O O11 0.187756 0.273922 0.691223
O O12 0.161621 0.215316 0.794277
O O13 0.226395 0.000000 0.703634
O O14 0.439975 0.237364 0.953441
O O15 0.293516 0.000000 0.019644
O O16 0.250000 0.250000 0.000000
O O17 0.292702 0.000000 0.377943
O O18 0.056792 0.000000 0.899747
#
# Coordination Sequence:
#
# PCOD9217213 Si02
#       7
#     8   8   8   8   8   8   8
#     4  10  23  43  67  93 127 167 210 258 312 372
#     4  11  22  42  66  91 124 166 212 262 316 376
#     4  11  23  41  65  92 125 167 212 263 316 373
#     4  10  23  42  64  91 126 166 209 259 316 375
#     4  11  25  44  66  98 133 169 208 257 314 372
#     4  12  26  40  60  92 128 167 212 264 317 374
#     4  11  23  42  68  97 128 166 211 258 311 375
#
# _framework density 20.648605
#
# number of rings (size 3 to 8) (size 9 to 14) (size 15 to 20)
#    0.000    1.143    1.429    4.286    2.000    7.429 
#    0.000    0.000    0.000    0.000    0.000    0.000 
#    0.000    0.000    0.000    0.000    0.000    0.000 
#
# Total GULP energy -156703.917294 kJ/mol
# GULP energy per Si atom -5596.568475 kJ/mol
# Density = 2.060161 g / cm^3
# Si number density = 20.648605 Si / 1000 Ang^3
#
#
#
# Elastic Constant Matrix: (Units=GPa)
#
#
# Indices 1 2 3 4 5 6 
#
# 1 61.5560 8.6950 9.6528 0.0009 21.4439 -0.0041
# 2 8.6950 14.4075 16.3762 0.0009 7.6912 0.0010
# 3 9.6528 16.3762 55.9881 0.0013 12.9038 0.0003
# 4 0.0009 0.0009 0.0013 30.3724 0.0008 2.5509
# 5 21.4439 7.6912 12.9038 0.0008 37.0095 0.0001
# 6 -0.0041 0.0010 0.0003 2.5509 0.0001 36.1511
#
#
#
# Elastic Compliance Matrix: (Units=1/GPa)
#
#
# Indices 1 2 3 4 5 6 
#
# 1 0.021018 -0.008392 0.001344 0.000000 -0.010903 0.000003
# 2 -0.008392 0.112440 -0.029551 -0.000001 -0.008201 -0.000004
# 3 0.001344 -0.029551 0.027225 0.000000 -0.004129 0.000001
# 4 0.000000 -0.000001 0.000000 0.033121 0.000000 -0.002337
# 5 -0.010903 -0.008201 -0.004129 0.000000 0.036481 -0.000001
# 6 0.000003 -0.000004 0.000001 -0.002337 -0.000001 0.027827
#
#
# Mechanical properties :
#
#
# Convention : Reuss Voigt Hill
#
# Bulk Modulus (GPa) = 11.43061 22.37775 16.90418
# Shear Modulus (GPa) = 13.87074 27.18844 20.52959
#
# Velocity S-wave (km/s) = 2.59463 3.63260 3.15657
# Velocity P-wave (km/s) = 3.81103 5.33435 4.63569
#
# Compressibility (1/GPa) = 0.08748436
#
# Stress axis : x y z
#
# Youngs Moduli (GPa) = 47.57792 8.89365 36.73155
#
# Poissons Ratio (x) = 0.07463 -0.04935
# Poissons Ratio (y) = 0.39925 1.08546
# Poissons Ratio (z) = -0.06393 0.26282
#
# Static dielectric constant tensor:
#      x y z
#    x 1.712020 0.000000 0.007220 
#    y 0.000000 1.686180 0.000000 
#    z 0.007220 0.000000 1.743340 
# 
# From -- ./inp_files/275556.got.cif
#   From: 2010.05.17/outbox.cif.g08.bks.cpg/sg12_138_cif.got.tgz:275556.got - 2010.06.03 13:09:07.
