data_PCOD9217204
_publ_section_title
;
Structure prediction by ZEFSAII (Michael W. Deem and Ramdas Pophale) SiO2 
 PCOD9217204
Probable space group: C 2/M
;
_chemical_formula_sum "Si O2"
_cell_formula_units_Z 48
_cell_length_a 11.645618
_cell_length_b 23.954437
_cell_length_c 7.908722
_cell_angle_alpha 90.000000
_cell_angle_beta 82.373513
_cell_angle_gamma 90.000000
_cell_volume 2186.734643
_symmetry_space_group_name_H-M "C 2/M"
_symmetry_group_IT_number 12
_symmetry_cell_setting 'monoclinic'
loop_
_space_group_symop_operation_xyz
x,y,z
-x,y,-z
-x,-y,-z
x,-y,z
1/2+x,1/2+y,z
1/2-x,1/2+y,-z
1/2-x,1/2-y,-z
1/2+x,1/2-y,z
loop_
_atom_site_type_symbol
_atom_site_label
_atom_site_fract_x
_atom_site_fract_y
_atom_site_fract_z
Si Si1 0.356432 0.138689 0.203775
Si Si2 0.320722 0.565843 0.594472
Si Si3 0.273299 0.621971 0.127900
Si Si4 0.634918 0.260620 0.900745
Si Si5 0.528022 0.564001 0.776400
Si Si6 0.551882 0.934926 0.300508
O O1 0.281780 0.109225 0.363692
O O2 0.372544 0.205201 0.212187
O O3 0.475371 0.104957 0.196734
O O4 0.291613 0.129090 0.038090
O O5 0.286192 0.500000 0.629750
O O6 0.410670 0.586863 0.720163
O O7 0.387165 0.566948 0.405115
O O8 0.323180 0.680961 0.186757
O O9 0.391448 0.587174 0.092093
O O10 0.180571 0.589421 0.259628
O O11 0.500000 0.266953 0.000000
O O12 0.750000 0.250000 0.000000
O O13 0.503690 0.500000 0.812118
O O14 0.500000 0.932576 0.500000
O O15 0.550216 0.000000 0.248378
#
# Coordination Sequence:
#
# PCOD9217204 Si02
#       6
#     8   8   8   8   8   8
#     4  11  22  38  63  89 119 160 215 260 307 372
#     4   9  19  36  57  84 122 163 195 243 309 374
#     4  11  23  37  64  91 120 161 213 264 310 372
#     4  10  23  42  64  89 129 173 212 262 330 387
#     4   9  19  36  56  83 123 161 196 241 311 377
#     4  11  24  43  65  91 130 173 209 259 330 394
#
# _framework density 21.950538999999999
#
# number of rings (size 3 to 8) (size 9 to 14) (size 15 to 20)
#    0.000    1.833    0.000    5.500    4.667    6.000 
#    0.000    5.000    0.000    0.000    0.000    0.000 
#    0.000    0.000    0.000    0.000    0.000    0.000 
#
# Total GULP energy -133733.971716 kJ/mol
# GULP energy per Si atom -5572.248821 kJ/mol
# Density = 2.190058 g / cm^3
# Si number density = 21.950539 Si / 1000 Ang^3
#
#
#
# Elastic Constant Matrix: (Units=GPa)
#
#
# Indices 1 2 3 4 5 6 
#
# 1 144.9165 50.4831 -2.3999 0.0000 -1.4747 0.0000
# 2 50.4831 112.8663 -12.2892 0.0000 -6.6661 0.0000
# 3 -2.3999 -12.2892 41.5442 0.0000 3.8424 0.0000
# 4 0.0000 0.0000 0.0000 45.0063 0.0000 -15.8599
# 5 -1.4747 -6.6661 3.8424 0.0000 44.2284 0.0000
# 6 0.0000 0.0000 0.0000 -15.8599 0.0000 21.9173
#
#
#
# Elastic Compliance Matrix: (Units=1/GPa)
#
#
# Indices 1 2 3 4 5 6 
#
# 1 0.008193 -0.003745 -0.000613 0.000000 -0.000238 0.000000
# 2 -0.003745 0.010926 0.002898 0.000000 0.001270 0.000000
# 3 -0.000613 0.002898 0.025055 0.000000 -0.001760 0.000000
# 4 0.000000 0.000000 0.000000 0.029824 0.000000 0.021582
# 5 -0.000238 0.001270 -0.001760 0.000000 0.022946 0.000000
# 6 0.000000 0.000000 0.000000 0.021582 0.000000 0.061243
#
#
# Mechanical properties :
#
#
# Convention : Reuss Voigt Hill
#
# Bulk Modulus (GPa) = 24.23971 41.21279 32.72625
# Shear Modulus (GPa) = 28.59454 39.79925 34.19690
#
# Velocity S-wave (km/s) = 3.61318 4.26271 3.95131
# Velocity P-wave (km/s) = 5.33607 6.56077 5.97985
#
# Compressibility (1/GPa) = 0.04125462
#
# Stress axis : x y z
#
# Youngs Moduli (GPa) = 122.06095 91.52672 39.91146
#
# Poissons Ratio (x) = 0.34278 0.02445
# Poissons Ratio (y) = 0.45714 -0.11567
# Poissons Ratio (z) = 0.07477 -0.26526
#
# Static dielectric constant tensor:
#      x y z
#    x 1.440490 0.000000 0.111000 
#    y 0.000000 1.791870 0.000000 
#    z 0.111000 0.000000 1.851200 
# 
# From -- ./inp_files/50642.got.cif
#   From: 2010.05.17/outbox.cif.g08.bks.cpg/sg12_26_cif.got.tgz:50642.got - 2010.06.03 13:09:07.
