data_PCOD9217616
_publ_section_title
;
Structure prediction by ZEFSAII (Michael W. Deem and Ramdas Pophale) SiO2 
 PCOD9217616
Probable space group: C 2/M
;
_chemical_formula_sum "Si O2"
_cell_formula_units_Z 40
_cell_length_a 28.517715
_cell_length_b 11.748560
_cell_length_c 12.259996
_cell_angle_alpha 90.000000
_cell_angle_beta 149.466659
_cell_angle_gamma 90.000000
_cell_volume 2086.831173
_symmetry_space_group_name_H-M "C 2/M"
_symmetry_group_IT_number 12
_symmetry_cell_setting 'monoclinic'
loop_
_space_group_symop_operation_xyz
x,y,z
-x,y,-z
-x,-y,-z
x,-y,z
1/2+x,1/2+y,z
1/2-x,1/2+y,-z
1/2-x,1/2-y,-z
1/2+x,1/2-y,z
loop_
_atom_site_type_symbol
_atom_site_label
_atom_site_fract_x
_atom_site_fract_y
_atom_site_fract_z
Si Si1 0.256508 0.779887 0.387101
Si Si2 0.914208 0.252247 0.091956
Si Si3 0.115071 0.136220 0.505750
Si Si4 0.110712 0.870978 0.740953
Si Si5 0.423858 0.000000 0.012759
Si Si6 0.367855 0.000000 0.655595
O O1 0.250000 0.750000 0.500000
O O2 0.308527 0.681741 0.423898
O O3 0.319063 0.890825 0.508072
O O4 0.155682 0.800667 0.135796
O O5 0.876252 0.216497 0.134798
O O6 0.017386 0.200248 0.290206
O O7 0.912459 0.386176 0.061042
O O8 0.147503 0.160349 0.695191
O O9 0.101258 0.000000 0.470021
O O10 0.000000 0.876146 0.500000
O O11 0.140527 0.000000 0.830364
O O12 0.363187 0.000000 0.779365
O O13 0.526943 0.000000 0.171433
#
# Coordination Sequence:
#
# PCOD9217616 Si02
#       6
#     8   8   8   8   4   4
#     4  12  26  40  64  92 125 162 211 255 304 366
#     4  11  22  40  66  93 121 166 203 252 310 367
#     4  10  23  44  65  91 123 162 210 254 302 369
#     4   8  17  38  65  89 120 159 202 253 308 361
#     4  11  22  42  64  84 130 174 196 248 323 364
#     4  11  24  44  59  86 133 168 203 253 311 360
#
# _framework density 19.167816999999999
#
# number of rings (size 3 to 8) (size 9 to 14) (size 15 to 20)
#    0.000    1.600    4.000    1.800    5.600    1.600 
#    0.000    6.500    0.000    0.000    0.000    0.000 
#    0.000    0.000    0.000    0.000    0.000    0.000 
#
# Total GULP energy -111622.500125 kJ/mol
# GULP energy per Si atom -5581.125006 kJ/mol
# Density = 1.912419 g / cm^3
# Si number density = 19.167817 Si / 1000 Ang^3
#
#
#
# Elastic Constant Matrix: (Units=GPa)
#
#
# Indices 1 2 3 4 5 6 
#
# 1 136.1652 46.6196 28.1735 0.0000 -23.1052 0.0000
# 2 46.6196 110.8539 30.7328 0.0000 -18.9154 0.0000
# 3 28.1735 30.7328 70.5241 0.0000 -14.9828 0.0000
# 4 0.0000 0.0000 0.0000 37.3920 0.0000 -10.3945
# 5 -23.1052 -18.9154 -14.9828 0.0000 30.8564 0.0000
# 6 0.0000 0.0000 0.0000 -10.3945 0.0000 33.6255
#
#
#
# Elastic Compliance Matrix: (Units=1/GPa)
#
#
# Indices 1 2 3 4 5 6 
#
# 1 0.009383 -0.002723 -0.001587 0.000000 0.004586 0.000000
# 2 -0.002723 0.011670 -0.003246 0.000000 0.003538 0.000000
# 3 -0.001587 -0.003246 0.017342 0.000000 0.005242 0.000000
# 4 0.000000 0.000000 0.000000 0.029258 0.000000 0.009044
# 5 0.004586 0.003538 0.005242 0.000000 0.040557 0.000000
# 6 0.000000 0.000000 0.000000 0.009044 0.000000 0.032535
#
#
# Mechanical properties :
#
#
# Convention : Reuss Voigt Hill
#
# Bulk Modulus (GPa) = 42.95237 58.73277 50.84257
# Shear Modulus (GPa) = 30.55898 34.50926 32.53412
#
# Velocity S-wave (km/s) = 3.99718 4.24769 4.12434
# Velocity P-wave (km/s) = 6.61517 7.40034 7.01874
#
# Compressibility (1/GPa) = 0.02328160
#
# Stress axis : x y z
#
# Youngs Moduli (GPa) = 106.57544 85.69086 57.66412
#
# Poissons Ratio (x) = 0.23338 0.09153
# Poissons Ratio (y) = 0.29026 0.18716
# Poissons Ratio (z) = 0.16917 0.27813
#
# Static dielectric constant tensor:
#      x y z
#    x 1.686800 0.000000 0.010190 
#    y 0.000000 1.707140 0.000000 
#    z 0.010190 0.000000 1.661620 
# 
# From -- ./inp_files/182749.got.cif
#   From: 2010.05.17/outbox.cif.g08.bks.cpg/sg12_92_cif.got.tgz:182749.got - 2010.06.03 13:09:07.
