data_PCOD9217463
_publ_section_title
;
Structure prediction by ZEFSAII (Michael W. Deem and Ramdas Pophale) SiO2 
 PCOD9217463
Probable space group: C 2/M
;
_chemical_formula_sum "Si O2"
_cell_formula_units_Z 56
_cell_length_a 14.089941
_cell_length_b 17.797523
_cell_length_c 20.538126
_cell_angle_alpha 90.000000
_cell_angle_beta 148.865177
_cell_angle_gamma 90.000000
_cell_volume 2662.963178
_symmetry_space_group_name_H-M "C 2/M"
_symmetry_group_IT_number 12
_symmetry_cell_setting 'monoclinic'
loop_
_space_group_symop_operation_xyz
x,y,z
-x,y,-z
-x,-y,-z
x,-y,z
1/2+x,1/2+y,z
1/2-x,1/2+y,-z
1/2-x,1/2-y,-z
1/2+x,1/2-y,z
loop_
_atom_site_type_symbol
_atom_site_label
_atom_site_fract_x
_atom_site_fract_y
_atom_site_fract_z
Si Si1 0.195379 0.731761 0.862740
Si Si2 0.753504 0.500000 0.918346
Si Si3 0.185010 0.147541 0.956651
Si Si4 0.374878 0.644651 0.362587
Si Si5 0.289815 0.700751 0.774183
Si Si6 0.631593 0.313407 0.395562
Si Si7 0.188168 0.500000 0.198320
Si Si8 0.466027 0.084650 0.556453
O O1 0.276573 0.793735 0.959650
O O2 0.299157 0.723332 0.855735
O O3 0.999134 0.768178 0.730368
O O4 0.198935 0.656253 0.908227
O O5 0.972057 0.500000 0.058211
O O6 0.677713 0.571703 0.911932
O O7 0.721881 0.500000 0.821854
O O8 0.978874 0.168509 0.857895
O O9 0.500000 0.636536 0.500000
O O10 0.271306 0.724972 0.301356
O O11 0.504706 0.649472 0.375575
O O12 0.245568 0.573798 0.272429
O O13 0.126462 0.639216 0.676537
O O14 0.750000 0.250000 0.500000
O O15 0.770895 0.374585 0.450075
O O16 0.500000 0.079124 0.500000
O O17 0.468998 0.000000 0.586193
#
# Coordination Sequence:
#
# PCOD9217463 Si02
#       8
#     8   4   8   8   8   8   4   8
#     4  10  23  43  66 100 132 179 234 283 344 400
#     4  11  26  50  69 101 137 185 232 291 352 413
#     4  11  25  43  73 100 133 182 235 286 348 420
#     4  11  25  43  71 103 141 182 230 285 349 415
#     4  11  23  43  69 101 139 184 228 292 343 417
#     4  11  22  42  67  97 139 180 231 282 338 408
#     4  11  27  48  70 101 144 182 233 292 353 407
#     4  11  24  41  65 100 139 184 225 280 343 410
#
# _framework density 21.029207
#
# number of rings (size 3 to 8) (size 9 to 14) (size 15 to 20)
#    0.000    1.143    2.857    3.643    8.000    0.000 
#    2.571    0.714    0.000    0.000    0.000    0.000 
#    0.000    0.000    0.000    0.000    0.000    0.000 
#
# Total GULP energy -156448.927636 kJ/mol
# GULP energy per Si atom -5587.461701 kJ/mol
# Density = 2.098134 g / cm^3
# Si number density = 21.029207 Si / 1000 Ang^3
#
#
#
# Elastic Constant Matrix: (Units=GPa)
#
#
# Indices 1 2 3 4 5 6 
#
# 1 122.0822 40.4407 37.8620 0.0026 3.3875 0.0024
# 2 40.4407 133.0640 46.3356 0.0079 7.6867 0.0071
# 3 37.8620 46.3356 119.8609 0.0119 -8.1803 0.0107
# 4 0.0026 0.0079 0.0119 45.0782 0.0022 18.9986
# 5 3.3875 7.6867 -8.1803 0.0022 43.4619 0.0018
# 6 0.0024 0.0071 0.0107 18.9986 0.0018 56.1534
#
#
#
# Elastic Compliance Matrix: (Units=1/GPa)
#
#
# Indices 1 2 3 4 5 6 
#
# 1 0.009612 -0.002077 -0.002289 0.000000 -0.000812 0.000000
# 2 -0.002077 0.009345 -0.003098 0.000000 -0.002074 0.000000
# 3 -0.002289 -0.003098 0.010447 -0.000002 0.002693 -0.000001
# 4 0.000000 0.000000 -0.000002 0.025873 -0.000001 -0.008754
# 5 -0.000812 -0.002074 0.002693 -0.000001 0.023946 -0.000001
# 6 0.000000 0.000000 -0.000001 -0.008754 -0.000001 0.020770
#
#
# Mechanical properties :
#
#
# Convention : Reuss Voigt Hill
#
# Bulk Modulus (GPa) = 69.07816 69.36488 69.22152
# Shear Modulus (GPa) = 41.75513 45.62995 43.69254
#
# Velocity S-wave (km/s) = 4.46082 4.66320 4.56313
# Velocity P-wave (km/s) = 7.71050 7.87722 7.79431
#
# Compressibility (1/GPa) = 0.01447636
#
# Stress axis : x y z
#
# Youngs Moduli (GPa) = 104.04056 107.00799 95.71847
#
# Poissons Ratio (x) = 0.22229 0.21906
# Poissons Ratio (y) = 0.21612 0.29653
# Poissons Ratio (z) = 0.23810 0.33151
#
# Static dielectric constant tensor:
#      x y z
#    x 1.728080 0.000000 -0.017610 
#    y 0.000000 1.805090 0.000000 
#    z -0.017610 0.000000 1.811070 
# 
# From -- ./inp_files/311775.got.cif
#   From: 2010.05.17/outbox.cif.g08.bks.cpg/sg12_156_cif.got.tgz:311775.got - 2010.06.03 13:09:07.
