data_PCOD9217915
_publ_section_title
;
Structure prediction by ZEFSAII (Michael W. Deem and Ramdas Pophale) SiO2 
 PCOD9217915
Probable space group: C 2/M
;
_chemical_formula_sum "Si O2"
_cell_formula_units_Z 48
_cell_length_a 8.524274
_cell_length_b 21.035956
_cell_length_c 11.925778
_cell_angle_alpha 90.000000
_cell_angle_beta 98.667180
_cell_angle_gamma 90.000000
_cell_volume 2114.065105
_symmetry_space_group_name_H-M "C 2/M"
_symmetry_group_IT_number 12
_symmetry_cell_setting 'monoclinic'
loop_
_space_group_symop_operation_xyz
x,y,z
-x,y,-z
-x,-y,-z
x,-y,z
1/2+x,1/2+y,z
1/2-x,1/2+y,-z
1/2-x,1/2-y,-z
1/2+x,1/2-y,z
loop_
_atom_site_type_symbol
_atom_site_label
_atom_site_fract_x
_atom_site_fract_y
_atom_site_fract_z
Si Si1 0.821570 0.658735 0.600168
Si Si2 0.386238 0.925573 0.822768
Si Si3 0.641832 0.573172 0.424015
Si Si4 0.391127 0.753256 0.308293
Si Si5 0.246738 0.575097 0.950632
Si Si6 0.902757 0.159120 0.791916
O O1 0.836809 0.614215 0.710751
O O2 0.785059 0.614755 0.490508
O O3 0.674998 0.705966 0.604654
O O4 0.973345 0.703461 0.624351
O O5 0.572647 0.917165 0.873309
O O6 0.361981 0.000000 0.797445
O O7 0.284657 0.909453 0.922563
O O8 0.500000 0.574400 0.500000
O O9 0.687494 0.500000 0.410010
O O10 0.586008 0.606242 0.304365
O O11 0.252118 0.798034 0.249428
O O12 0.457177 0.709439 0.214126
O O13 0.288336 0.500000 0.946235
O O14 0.368832 0.620674 0.901133
#
# Coordination Sequence:
#
# PCOD9217915 Si02
#       6
#     8   8   8   8   8   8
#     4  11  21  42  58  90 120 157 199 247 286 359
#     4   9  18  36  63  90 119 156 197 248 302 349
#     4  11  24  40  64  91 120 155 190 249 308 344
#     4  10  24  37  63  84 120 162 205 233 294 344
#     4   9  18  36  63  90 119 156 197 248 302 349
#     4  11  21  42  58  90 120 157 199 247 286 359
#
# _framework density 22.705072000000001
#
# number of rings (size 3 to 8) (size 9 to 14) (size 15 to 20)
#    0.000    1.833    3.333    2.000    0.000    4.667 
#    0.000    6.667    0.000    2.000    0.000    0.000 
#    0.000    0.000    0.000    0.000    0.000    0.000 
#
# Total GULP energy -134386.308043 kJ/mol
# GULP energy per Si atom -5599.429502 kJ/mol
# Density = 2.265339 g / cm^3
# Si number density = 22.705072 Si / 1000 Ang^3
#
#
#
# Elastic Constant Matrix: (Units=GPa)
#
#
# Indices 1 2 3 4 5 6 
#
# 1 66.8140 38.3548 13.3132 0.0000 -12.5359 0.0000
# 2 38.3548 119.2882 46.9557 0.0000 -13.4213 0.0000
# 3 13.3132 46.9557 89.4840 0.0000 -8.4522 0.0000
# 4 0.0000 0.0000 0.0000 28.6691 0.0000 -13.4099
# 5 -12.5359 -13.4213 -8.4522 0.0000 27.3214 0.0000
# 6 0.0000 0.0000 0.0000 -13.4099 0.0000 28.5670
#
#
#
# Elastic Compliance Matrix: (Units=1/GPa)
#
#
# Indices 1 2 3 4 5 6 
#
# 1 0.019322 -0.005811 0.000765 0.000000 0.006248 0.000000
# 2 -0.005811 0.012664 -0.005609 0.000000 0.001820 0.000000
# 3 0.000765 -0.005609 0.014192 0.000000 0.001986 0.000000
# 4 0.000000 0.000000 0.000000 0.044694 0.000000 0.020980
# 5 0.006248 0.001820 0.001986 0.000000 0.040976 0.000000
# 6 0.000000 0.000000 0.000000 0.020980 0.000000 0.044854
#
#
# Mechanical properties :
#
#
# Convention : Reuss Voigt Hill
#
# Bulk Modulus (GPa) = 40.21164 52.53707 46.37436
# Shear Modulus (GPa) = 24.23621 28.70902 26.47261
#
# Velocity S-wave (km/s) = 3.27071 3.55974 3.41828
# Velocity P-wave (km/s) = 5.65794 6.33126 6.00404
#
# Compressibility (1/GPa) = 0.02486842
#
# Stress axis : x y z
#
# Youngs Moduli (GPa) = 51.75315 78.96412 70.46112
#
# Poissons Ratio (x) = 0.45884 -0.05387
# Poissons Ratio (y) = 0.30073 0.39521
# Poissons Ratio (z) = -0.03957 0.44290
#
# Static dielectric constant tensor:
#      x y z
#    x 1.889400 0.000000 -0.025150 
#    y 0.000000 1.801580 0.000000 
#    z -0.025150 0.000000 1.821270 
# 
# From -- ./inp_files/196470.got.cif
#   From: 2010.05.17/outbox.cif.g08.bks.cpg/sg12_99_cif.got.tgz:196470.got - 2010.06.03 13:09:07.
