data_PCOD9217031
_publ_section_title
;
Structure prediction by ZEFSAII (Michael W. Deem and Ramdas Pophale) SiO2 
 PCOD9217031
Probable space group: C 2/M
;
_chemical_formula_sum "Si O2"
_cell_formula_units_Z 34
_cell_length_a 32.004283
_cell_length_b 7.868941
_cell_length_c 7.795041
_cell_angle_alpha 90.000000
_cell_angle_beta 59.045379
_cell_angle_gamma 90.000000
_cell_volume 1683.506823
_symmetry_space_group_name_H-M "C 2/M"
_symmetry_group_IT_number 12
_symmetry_cell_setting 'monoclinic'
loop_
_space_group_symop_operation_xyz
x,y,z
-x,y,-z
-x,-y,-z
x,-y,z
1/2+x,1/2+y,z
1/2-x,1/2+y,-z
1/2-x,1/2-y,-z
1/2+x,1/2-y,z
loop_
_atom_site_type_symbol
_atom_site_label
_atom_site_fract_x
_atom_site_fract_y
_atom_site_fract_z
Si Si1 0.862895 0.686668 0.067475
Si Si2 0.916141 0.000000 0.465735
Si Si3 0.927756 0.000000 0.821640
Si Si4 0.757682 0.201878 0.181434
Si Si5 0.500000 0.500000 0.000000
Si Si6 0.350184 0.195801 0.495294
O O1 0.879208 0.500000 0.975393
O O2 0.805810 0.707824 0.147329
O O3 0.867952 0.697153 0.261982
O O4 0.893826 0.835267 0.919510
O O5 0.943596 0.000000 0.589559
O O6 0.881666 0.166694 0.529731
O O7 0.950262 0.000000 0.226311
O O8 0.967180 0.000000 0.889837
O O9 0.706856 0.245042 0.380871
O O10 0.765383 0.000000 0.182067
O O11 0.750000 0.250000 0.000000
O O12 0.353723 0.000000 0.552529
#
# Coordination Sequence:
#
# PCOD9217031 Si02
#       6
#     8   4   4   8   2   8
#     4  11  22  41  66  96 140 183 224 273 334 402
#     4  12  25  45  77  98 137 175 224 287 343 402
#     4  12  25  47  73 104 133 179 222 289 347 400
#     4  11  22  35  56  96 141 184 229 267 320 399
#     4  12  26  52  74 102 132 166 242 284 354 412
#     4  10  23  41  64  97 139 184 223 270 333 402
#
# _framework density 20.195938999999999
#
# number of rings (size 3 to 8) (size 9 to 14) (size 15 to 20)
#    0.000    0.941    3.529    3.176    3.294    2.824 
#    0.000    2.353    0.000    2.824    0.000    0.000 
#    0.000    0.000    0.000    0.000    0.000    0.000 
#
# Total GULP energy -94766.953310 kJ/mol
# GULP energy per Si atom -5574.526665 kJ/mol
# Density = 2.014997 g / cm^3
# Si number density = 20.195939 Si / 1000 Ang^3
#
#
#
# Elastic Constant Matrix: (Units=GPa)
#
#
# Indices 1 2 3 4 5 6 
#
# 1 132.2073 49.8540 17.7940 0.0000 9.9588 0.0000
# 2 49.8540 118.3390 20.8714 0.0000 -6.4657 0.0000
# 3 17.7940 20.8714 48.0526 0.0000 13.3768 0.0000
# 4 0.0000 0.0000 0.0000 -10.0597 0.0000 -1.6698
# 5 9.9588 -6.4657 13.3768 0.0000 38.6691 0.0000
# 6 0.0000 0.0000 0.0000 -1.6698 0.0000 -13.5715
#
#
#
# Elastic Compliance Matrix: (Units=1/GPa)
#
#
# Indices 1 2 3 4 5 6 
#
# 1 0.009385 -0.003924 -0.001013 0.000000 -0.002723 0.000000
# 2 -0.003924 0.011168 -0.004646 0.000000 0.004485 0.000000
# 3 -0.001013 -0.004646 0.025835 0.000000 -0.009453 0.000000
# 4 0.000000 0.000000 0.000000 -0.101479 0.000000 0.012486
# 5 -0.002723 0.004485 -0.009453 0.000000 0.030582 0.000000
# 6 0.000000 0.000000 0.000000 0.012486 0.000000 -0.075220
#
#
# Mechanical properties :
#
#
# Convention : Reuss Voigt Hill
#
# Bulk Modulus (GPa) = 36.73523 52.84865 44.79194
# Shear Modulus (GPa) = -69.94090 17.01286 -26.46402
#
# Velocity S-wave (km/s) = -5.89121 2.90554 -3.62382
# Velocity P-wave (km/s) = 5.29587 6.12217 2.17196
#
# Compressibility (1/GPa) = 0.02722182
#
# Stress axis : x y z
#
# Youngs Moduli (GPa) = 106.55370 89.54294 38.70673
#
# Poissons Ratio (x) = 0.35135 0.03921
# Poissons Ratio (y) = 0.41809 0.17984
# Poissons Ratio (z) = 0.10795 0.41604
#
# Static dielectric constant tensor:
#      x y z
#    x 1.679980 0.000000 0.022120 
#    y 0.000000 1.730170 0.000000 
#    z 0.022120 0.000000 1.707610 
# 
# From -- ./inp_files/100908.got.cif
#   From: 2010.05.17/outbox.cif.g08.bks.cpg/sg12_51_cif.got.tgz:100908.got - 2010.06.03 13:09:07.
