data_PCOD9217542
_publ_section_title
;
Structure prediction by ZEFSAII (Michael W. Deem and Ramdas Pophale) SiO2 
 PCOD9217542
Probable space group: C 2/M
;
_chemical_formula_sum "Si O2"
_cell_formula_units_Z 28
_cell_length_a 8.500486
_cell_length_b 21.426885
_cell_length_c 8.747020
_cell_angle_alpha 90.000000
_cell_angle_beta 53.757414
_cell_angle_gamma 90.000000
_cell_volume 1284.927592
_symmetry_space_group_name_H-M "C 2/M"
_symmetry_group_IT_number 12
_symmetry_cell_setting 'monoclinic'
loop_
_space_group_symop_operation_xyz
x,y,z
-x,y,-z
-x,-y,-z
x,-y,z
1/2+x,1/2+y,z
1/2-x,1/2+y,-z
1/2-x,1/2-y,-z
1/2+x,1/2-y,z
loop_
_atom_site_type_symbol
_atom_site_label
_atom_site_fract_x
_atom_site_fract_y
_atom_site_fract_z
Si Si1 0.940845 0.070865 0.357619
Si Si2 0.302014 0.834585 0.671694
Si Si3 0.500000 0.756019 0.000000
Si Si4 0.831139 0.620469 0.985059
O O1 0.128469 0.090578 0.150366
O O2 0.000000 0.074268 0.500000
O O3 0.775237 0.120341 0.415644
O O4 0.883240 0.000000 0.354787
O O5 0.500000 0.802616 0.500000
O O6 0.129920 0.787138 0.815991
O O7 0.346990 0.878384 0.793319
O O8 0.350332 0.805405 0.009872
O O9 0.000000 0.593068 0.000000
#
# Coordination Sequence:
#
# PCOD9217542 Si02
#       4
#     8   8   4   8
#     4  11  25  46  69  98 135 178 232 282 332 399
#     4  12  24  42  70 102 137 181 221 273 341 396
#     4  10  24  44  66 106 142 168 226 278 326 424
#     4  10  23  43  67  99 141 174 220 278 335 397
#
# _framework density 21.791111999999998
#
# number of rings (size 3 to 8) (size 9 to 14) (size 15 to 20)
#    0.857    0.286    2.857    2.571    0.000    5.714 
#    0.000    0.000    0.000    0.000    0.000    0.000 
#    0.000    0.000    0.000    0.000    0.000    0.000 
#
# Total GULP energy -78152.991122 kJ/mol
# GULP energy per Si atom -5582.356509 kJ/mol
# Density = 2.174151 g / cm^3
# Si number density = 21.791112 Si / 1000 Ang^3
#
#
#
# Elastic Constant Matrix: (Units=GPa)
#
#
# Indices 1 2 3 4 5 6 
#
# 1 34.6787 16.4695 -23.0626 0.0000 2.1383 0.0000
# 2 16.4695 90.0189 23.9492 0.0000 -13.7773 0.0000
# 3 -23.0626 23.9492 109.9145 0.0000 -12.0011 0.0000
# 4 0.0000 0.0000 0.0000 0.7295 0.0000 9.6221
# 5 2.1383 -13.7773 -12.0011 0.0000 30.0163 0.0000
# 6 0.0000 0.0000 0.0000 9.6221 0.0000 23.3578
#
#
#
# Elastic Compliance Matrix: (Units=1/GPa)
#
#
# Indices 1 2 3 4 5 6 
#
# 1 0.041372 -0.010976 0.010666 0.000000 -0.003721 0.000000
# 2 -0.010976 0.015341 -0.005010 0.000000 0.005820 0.000000
# 3 0.010666 -0.005010 0.012646 0.000000 0.001996 0.000000
# 4 0.000000 0.000000 0.000000 -0.309186 0.000000 0.127368
# 5 -0.003721 0.005820 0.001996 0.000000 0.037050 0.000000
# 6 0.000000 0.000000 0.000000 0.127368 0.000000 -0.009656
#
#
# Mechanical properties :
#
#
# Convention : Reuss Voigt Hill
#
# Bulk Modulus (GPa) = 17.03077 29.92494 23.47786
# Shear Modulus (GPa) = -27.43912 25.30445 -1.06734
#
# Velocity S-wave (km/s) = -3.55235 3.41138 -0.70062
# Velocity P-wave (km/s) = 2.99887 5.41102 3.18480
#
# Compressibility (1/GPa) = 0.05871724
#
# Stress axis : x y z
#
# Youngs Moduli (GPa) = 24.17104 65.18618 79.07855
#
# Poissons Ratio (x) = 0.71551 -0.84346
# Poissons Ratio (y) = 0.26531 0.39620
# Poissons Ratio (z) = -0.25781 0.32660
#
# Static dielectric constant tensor:
#      x y z
#    x 1.870410 0.000000 0.000580 
#    y 0.000000 1.752330 0.000000 
#    z 0.000580 0.000000 1.765850 
# 
# From -- ./inp_files/121555.got.cif
#   From: 2010.05.17/outbox.cif.g08.bks.cpg/sg12_61_cif.got.tgz:121555.got - 2010.06.03 13:09:07.
