data_PCOD9217366
_publ_section_title
;
Structure prediction by ZEFSAII (Michael W. Deem and Ramdas Pophale) SiO2 
 PCOD9217366
Probable space group: C 2/M
;
_chemical_formula_sum "Si O2"
_cell_formula_units_Z 44
_cell_length_a 8.271522
_cell_length_b 32.022616
_cell_length_c 8.578612
_cell_angle_alpha 90.000000
_cell_angle_beta 87.054711
_cell_angle_gamma 90.000000
_cell_volume 2269.264942
_symmetry_space_group_name_H-M "C 2/M"
_symmetry_group_IT_number 12
_symmetry_cell_setting 'monoclinic'
loop_
_space_group_symop_operation_xyz
x,y,z
-x,y,-z
-x,-y,-z
x,-y,z
1/2+x,1/2+y,z
1/2-x,1/2+y,-z
1/2-x,1/2-y,-z
1/2+x,1/2-y,z
loop_
_atom_site_type_symbol
_atom_site_label
_atom_site_fract_x
_atom_site_fract_y
_atom_site_fract_z
Si Si1 0.664449 0.124739 0.411835
Si Si2 0.176204 0.792214 0.069803
Si Si3 0.832709 0.373618 0.947921
Si Si4 0.396833 0.454285 0.345830
Si Si5 0.817883 0.793703 0.561849
Si Si6 0.000000 0.926013 0.000000
O O1 0.500000 0.110084 0.500000
O O2 0.641400 0.137250 0.233969
O O3 0.785325 0.085733 0.385692
O O4 0.724083 0.165196 0.505500
O O5 0.170023 0.789680 0.254485
O O6 0.250000 0.750000 0.000000
O O7 0.296696 0.830000 0.030476
O O8 0.000000 0.800049 0.000000
O O9 0.669390 0.400247 0.987670
O O10 0.000000 0.393513 0.000000
O O11 0.500000 0.456199 0.500000
O O12 0.314108 0.500000 0.335645
O O13 0.488920 0.447978 0.173171
O O14 0.750000 0.750000 0.500000
O O15 0.000000 0.799769 0.500000
#
# Coordination Sequence:
#
# PCOD9217366 Si02
#       6
#     8   8   8   8   8   4
#     4  11  24  41  65  95 132 172 218 274 335 396
#     4  12  24  40  60  87 127 171 220 275 329 393
#     4  11  23  40  64  96 126 173 223 270 332 401
#     4  10  23  42  70  99 131 176 223 276 343 407
#     4  12  25  41  63  91 130 171 219 271 329 395
#     4  10  23  42  70  96 138 170 224 276 346 398
#
# _framework density 19.38954
#
# number of rings (size 3 to 8) (size 9 to 14) (size 15 to 20)
#    0.000    0.909    0.909    6.273    7.636    0.364 
#    0.000    0.000    0.000    2.727    0.000    0.000 
#    0.000    0.000    0.000    0.000    0.000    0.000 
#
# Total GULP energy -122676.786732 kJ/mol
# GULP energy per Si atom -5576.217579 kJ/mol
# Density = 1.934541 g / cm^3
# Si number density = 19.389540 Si / 1000 Ang^3
#
#
#
# Elastic Constant Matrix: (Units=GPa)
#
#
# Indices 1 2 3 4 5 6 
#
# 1 97.5853 26.3377 44.8610 0.0000 -1.1909 0.0000
# 2 26.3377 100.5796 48.1225 0.0000 0.0072 0.0000
# 3 44.8610 48.1225 199.8973 0.0000 -1.0502 0.0000
# 4 0.0000 0.0000 0.0000 -38.0593 0.0000 3.9198
# 5 -1.1909 0.0072 -1.0502 0.0000 34.4416 0.0000
# 6 0.0000 0.0000 0.0000 3.9198 0.0000 16.0159
#
#
#
# Elastic Compliance Matrix: (Units=1/GPa)
#
#
# Indices 1 2 3 4 5 6 
#
# 1 0.011796 -0.002060 -0.002149 0.000000 0.000343 0.000000
# 2 -0.002060 0.011597 -0.002330 0.000000 -0.000145 0.000000
# 3 -0.002149 -0.002330 0.006046 0.000000 0.000111 0.000000
# 4 0.000000 0.000000 0.000000 -0.025629 0.000000 0.006272
# 5 0.000343 -0.000145 0.000111 0.000000 0.029050 0.000000
# 6 0.000000 0.000000 0.000000 0.006272 0.000000 0.060903
#
#
# Mechanical properties :
#
#
# Convention : Reuss Voigt Hill
#
# Bulk Modulus (GPa) = 61.12807 70.74498 65.93652
# Shear Modulus (GPa) = 44.52514 21.06238 32.79376
#
# Velocity S-wave (km/s) = 4.79722 3.29944 4.11702
# Velocity P-wave (km/s) = 7.89172 7.14706 7.52860
#
# Compressibility (1/GPa) = 0.01635910
#
# Stress axis : x y z
#
# Youngs Moduli (GPa) = 84.77564 86.23078 165.38607
#
# Poissons Ratio (x) = 0.17768 0.35548
# Poissons Ratio (y) = 0.17468 0.38537
# Poissons Ratio (z) = 0.18222 0.20093
#
# Static dielectric constant tensor:
#      x y z
#    x 1.697160 0.000000 0.003740 
#    y 0.000000 1.623260 0.000000 
#    z 0.003740 0.000000 1.393220 
# 
# From -- ./inp_files/41607.got.cif
#   From: 2010.05.17/outbox.cif.g08.bks.cpg/sg12_21_cif.got.tgz:41607.got - 2010.06.03 13:09:07.
