data_PCOD9217090
_publ_section_title
;
Structure prediction by ZEFSAII (Michael W. Deem and Ramdas Pophale) SiO2 
 PCOD9217090
Probable space group: C 2/M
;
_chemical_formula_sum "Si O2"
_cell_formula_units_Z 34
_cell_length_a 20.289569
_cell_length_b 8.038848
_cell_length_c 18.253929
_cell_angle_alpha 90.000000
_cell_angle_beta 151.731649
_cell_angle_gamma 90.000000
_cell_volume 1410.055871
_symmetry_space_group_name_H-M "C 2/M"
_symmetry_group_IT_number 12
_symmetry_cell_setting 'monoclinic'
loop_
_space_group_symop_operation_xyz
x,y,z
-x,y,-z
-x,-y,-z
x,-y,z
1/2+x,1/2+y,z
1/2-x,1/2+y,-z
1/2-x,1/2-y,-z
1/2+x,1/2-y,z
loop_
_atom_site_type_symbol
_atom_site_label
_atom_site_fract_x
_atom_site_fract_y
_atom_site_fract_z
Si Si1 0.821356 0.696670 0.645007
Si Si2 0.000000 0.500000 0.000000
Si Si3 0.154600 0.685716 0.840704
Si Si4 0.432436 0.202198 0.511934
Si Si5 0.434424 0.683825 0.037339
O O1 0.838090 0.500000 0.661643
O O2 0.750000 0.750000 0.500000
O O3 0.724094 0.743726 0.620128
O O4 0.968751 0.788736 0.796516
O O5 0.961791 0.351004 0.020487
O O6 0.109082 0.500000 0.817774
O O7 0.025406 0.766580 0.671722
O O8 0.250000 0.750000 0.000000
O O9 0.271026 0.676102 0.891320
O O10 0.500000 0.255432 0.500000
O O11 0.435938 0.000000 0.515653
O O12 0.475210 0.500000 0.049964
#
# Coordination Sequence:
#
# PCOD9217090 Si02
#       5
#     8   2   8   8   8
#     4  12  25  44  68 101 137 183 233 282 343 412
#     4  12  26  44  68 104 140 180 232 270 348 410
#     4  10  23  41  67  97 133 178 225 279 342 408
#     4  10  23  43  67  97 133 174 224 284 345 404
#     4  11  25  45  70 102 138 179 229 284 337 408
#
# _framework density 24.112518999999999
#
# number of rings (size 3 to 8) (size 9 to 14) (size 15 to 20)
#    0.000    1.176    1.176    3.882    4.941    5.176 
#    0.000    0.000    0.000    0.000    0.000    0.000 
#    0.000    0.000    0.000    0.000    0.000    0.000 
#
# Total GULP energy -94651.964235 kJ/mol
# GULP energy per Si atom -5567.762602 kJ/mol
# Density = 2.405764 g / cm^3
# Si number density = 24.112519 Si / 1000 Ang^3
#
#
#
# Elastic Constant Matrix: (Units=GPa)
#
#
# Indices 1 2 3 4 5 6 
#
# 1 74.5366 24.5670 28.6032 0.0000 -8.4869 0.0000
# 2 24.5670 153.8719 -6.6964 0.0000 -4.3728 0.0000
# 3 28.6032 -6.6964 8.7687 0.0000 53.0611 0.0000
# 4 0.0000 0.0000 0.0000 32.7202 0.0000 -6.9760
# 5 -8.4869 -4.3728 53.0611 0.0000 18.7475 0.0000
# 6 0.0000 0.0000 0.0000 -6.9760 0.0000 31.7000
#
#
#
# Elastic Compliance Matrix: (Units=1/GPa)
#
#
# Indices 1 2 3 4 5 6 
#
# 1 0.011589 -0.001870 0.004237 0.000000 -0.007183 0.000000
# 2 -0.001870 0.006834 -0.000421 0.000000 0.001940 0.000000
# 3 0.004237 -0.000421 -0.005512 0.000000 0.017420 0.000000
# 4 0.000000 0.000000 0.000000 0.032067 0.000000 0.007057
# 5 -0.007183 0.001940 0.017420 0.000000 0.001238 0.000000
# 6 0.000000 0.000000 0.000000 0.007057 0.000000 0.033099
#
#
# Mechanical properties :
#
#
# Convention : Reuss Voigt Hill
#
# Bulk Modulus (GPa) = 59.51191 36.68055 48.09623
# Shear Modulus (GPa) = 61.71024 29.34708 45.52866
#
# Velocity S-wave (km/s) = 5.06440 3.49247 4.35003
# Velocity P-wave (km/s) = 7.67672 5.61323 6.72460
#
# Compressibility (1/GPa) = 0.01680336
#
# Stress axis : x y z
#
# Youngs Moduli (GPa) = 86.29198 146.32151 -181.43352
#
# Poissons Ratio (x) = 0.27361 0.76881
# Poissons Ratio (y) = 0.16136 -0.07645
# Poissons Ratio (z) = -0.36565 0.06166
#
# Static dielectric constant tensor:
#      x y z
#    x 2.067800 0.000000 -0.121440 
#    y 0.000000 1.881210 0.000000 
#    z -0.121440 0.000000 2.007340 
# 
# From -- ./inp_files/282327.got.cif
#   From: 2010.05.17/outbox.cif.g08.bks.cpg/sg12_142_cif.got.tgz:282327.got - 2010.06.03 13:09:07.
