data_PCOD9217902
_publ_section_title
;
Structure prediction by ZEFSAII (Michael W. Deem and Ramdas Pophale) SiO2 
 PCOD9217902
Probable space group: C 2/M
;
_chemical_formula_sum "Si O2"
_cell_formula_units_Z 32
_cell_length_a 11.162518
_cell_length_b 9.746914
_cell_length_c 13.672489
_cell_angle_alpha 90.000000
_cell_angle_beta 77.557724
_cell_angle_gamma 90.000000
_cell_volume 1452.630543
_symmetry_space_group_name_H-M "C 2/M"
_symmetry_group_IT_number 12
_symmetry_cell_setting 'monoclinic'
loop_
_space_group_symop_operation_xyz
x,y,z
-x,y,-z
-x,-y,-z
x,-y,z
1/2+x,1/2+y,z
1/2-x,1/2+y,-z
1/2-x,1/2-y,-z
1/2+x,1/2-y,z
loop_
_atom_site_type_symbol
_atom_site_label
_atom_site_fract_x
_atom_site_fract_y
_atom_site_fract_z
Si Si1 0.811989 0.000000 0.390229
Si Si2 0.619191 0.785498 0.411286
Si Si3 0.594947 0.500000 0.339023
Si Si4 0.847626 0.500000 0.748812
Si Si5 0.826926 0.500000 0.983572
Si Si6 0.000000 0.250663 0.000000
Si Si7 0.056942 0.000000 0.115630
O O1 0.733125 0.869164 0.435319
O O2 0.951049 0.000000 0.394311
O O3 0.790022 0.000000 0.275315
O O4 0.500000 0.790317 0.500000
O O5 0.653403 0.634579 0.373006
O O6 0.591885 0.869005 0.315006
O O7 0.314970 0.500000 0.966260
O O8 0.849391 0.500000 0.863283
O O9 0.887795 0.359263 0.013581
O O10 0.590750 0.500000 0.223067
O O11 0.005186 0.143119 0.908506
#
# Coordination Sequence:
#
# PCOD9217902 Si02
#       7
#     4   8   4   4   4   4   4
#     4   8  22  38  57  83 119 147 191 236 282 340
#     4   9  20  39  62  86 116 149 191 240 288 341
#     4  12  22  37  62  86 117 158 189 234 290 338
#     4   8  19  40  60  80 120 150 181 245 285 329
#     4  11  21  42  60  83 119 154 193 238 281 341
#     4  10  24  36  60  84 110 156 200 230 284 340
#     4  11  25  37  57  88 121 153 192 236 286 336
#
# _framework density 22.029
#
# number of rings (size 3 to 8) (size 9 to 14) (size 15 to 20)
#    1.500    0.500    0.000    4.125    3.500    3.000 
#    0.000    2.500    0.000    0.000    0.000    0.000 
#    0.000    0.000    0.000    0.000    0.000    0.000 
#
# Total GULP energy -89270.110460 kJ/mol
# GULP energy per Si atom -5579.381904 kJ/mol
# Density = 2.197886 g / cm^3
# Si number density = 22.029000 Si / 1000 Ang^3
#
#
#
# Elastic Constant Matrix: (Units=GPa)
#
#
# Indices 1 2 3 4 5 6 
#
# 1 40.1453 36.3712 25.7404 0.0000 17.3270 0.0000
# 2 36.3712 220.2949 59.0131 0.0000 15.1851 0.0000
# 3 25.7404 59.0131 131.1160 0.0000 9.8250 0.0000
# 4 0.0000 0.0000 0.0000 1327.0217 0.0000 822.8316
# 5 17.3270 15.1851 9.8250 0.0000 24.1042 0.0000
# 6 0.0000 0.0000 0.0000 822.8316 0.0000 536.4657
#
#
#
# Elastic Compliance Matrix: (Units=1/GPa)
#
#
# Indices 1 2 3 4 5 6 
#
# 1 0.042942 -0.004025 -0.004637 0.000000 -0.026443 0.000000
# 2 -0.004025 0.005675 -0.001767 0.000000 0.000039 0.000000
# 3 -0.004637 -0.001767 0.009283 0.000000 0.000663 0.000000
# 4 0.000000 0.000000 0.000000 0.015394 0.000000 -0.023611
# 5 -0.026443 0.000039 0.000663 0.000000 0.060200 0.000000
# 6 0.000000 0.000000 0.000000 -0.023611 0.000000 0.038078
#
#
# Mechanical properties :
#
#
# Convention : Reuss Voigt Hill
#
# Bulk Modulus (GPa) = 26.99666 70.42285 48.70976
# Shear Modulus (GPa) = 24.41681 395.54710 209.98196
#
# Velocity S-wave (km/s) = 3.33287 13.41444 9.77382
# Velocity P-wave (km/s) = 5.20503 16.49143 12.22824
#
# Compressibility (1/GPa) = 0.03704162
#
# Stress axis : x y z
#
# Youngs Moduli (GPa) = 23.28701 176.22671 107.72682
#
# Poissons Ratio (x) = 0.70930 0.49957
# Poissons Ratio (y) = 0.09373 0.19032
# Poissons Ratio (z) = 0.10799 0.31134
#
# Static dielectric constant tensor:
#      x y z
#    x 1.813970 0.000000 0.038860 
#    y 0.000000 1.815870 0.000000 
#    z 0.038860 0.000000 1.804500 
# 
# From -- ./inp_files/201861.got.cif
#   From: 2010.05.17/outbox.cif.g08.bks.cpg/sg12_101_cif.got.tgz:201861.got - 2010.06.03 13:09:07.
