data_PCOD9217875
_publ_section_title
;
Structure prediction by ZEFSAII (Michael W. Deem and Ramdas Pophale) SiO2 
 PCOD9217875
Probable space group: C 2/M
;
_chemical_formula_sum "Si O2"
_cell_formula_units_Z 28
_cell_length_a 12.992772
_cell_length_b 19.345036
_cell_length_c 5.105942
_cell_angle_alpha 90.000000
_cell_angle_beta 116.176423
_cell_angle_gamma 90.000000
_cell_volume 1151.735215
_symmetry_space_group_name_H-M "C 2/M"
_symmetry_group_IT_number 12
_symmetry_cell_setting 'monoclinic'
loop_
_space_group_symop_operation_xyz
x,y,z
-x,y,-z
-x,-y,-z
x,-y,z
1/2+x,1/2+y,z
1/2-x,1/2+y,-z
1/2-x,1/2-y,-z
1/2+x,1/2-y,z
loop_
_atom_site_type_symbol
_atom_site_label
_atom_site_fract_x
_atom_site_fract_y
_atom_site_fract_z
Si Si1 0.352723 0.731274 0.314659
Si Si2 0.567321 0.391076 0.827392
Si Si3 0.275254 0.866176 0.407500
Si Si4 0.917915 0.500000 0.663340
O O1 0.441933 0.692262 0.227003
O O2 0.369083 0.806496 0.454959
O O3 0.308133 0.674277 0.478386
O O4 0.250000 0.750000 0.000000
O O5 0.500000 0.420551 0.500000
O O6 0.500000 0.416930 0.000000
O O7 0.699901 0.393776 0.072770
O O8 0.337671 0.932803 0.584534
O O9 0.000000 0.500000 0.500000
O O10 0.000000 0.500000 0.000000
#
# Coordination Sequence:
#
# PCOD9217875 Si02
#       4
#     8   8   8   4
#     4   9  20  40  71 101 143 184 235 300 359 398
#     4  11  21  38  69 108 135 173 230 294 369 421
#     4  10  23  48  67 101 150 186 238 307 348 419
#     4  12  32  52  72 103 144 205 248 282 360 445
#
# _framework density 24.311142
#
# number of rings (size 3 to 8) (size 9 to 14) (size 15 to 20)
#    0.000    1.714    2.857    0.000    8.000    1.143 
#   10.286    1.429    0.000    0.000    0.000    0.000 
#    0.000    0.000    0.000    0.000    0.000    0.000 
#
# Total GULP energy -77949.402055 kJ/mol
# GULP energy per Si atom -5567.814432 kJ/mol
# Density = 2.425581 g / cm^3
# Si number density = 24.311142 Si / 1000 Ang^3
#
#
#
# Elastic Constant Matrix: (Units=GPa)
#
#
# Indices 1 2 3 4 5 6 
#
# 1 93.3127 43.4353 37.8933 0.0000 -5.1598 0.0000
# 2 43.4353 194.7130 54.8756 0.0000 14.5944 0.0000
# 3 37.8933 54.8756 220.7788 0.0000 3.1072 0.0000
# 4 0.0000 0.0000 0.0000 20.7154 0.0000 5.3022
# 5 -5.1598 14.5944 3.1072 0.0000 43.0378 0.0000
# 6 0.0000 0.0000 0.0000 5.3022 0.0000 2.9531
#
#
#
# Elastic Compliance Matrix: (Units=1/GPa)
#
#
# Indices 1 2 3 4 5 6 
#
# 1 0.012694 -0.002576 -0.001574 0.000000 0.002509 0.000000
# 2 -0.002576 0.006184 -0.001062 0.000000 -0.002329 0.000000
# 3 -0.001574 -0.001062 0.005066 0.000000 -0.000194 0.000000
# 4 0.000000 0.000000 0.000000 0.089320 0.000000 -0.160370
# 5 0.002509 -0.002329 -0.000194 0.000000 0.024340 0.000000
# 6 0.000000 0.000000 0.000000 -0.160370 0.000000 0.626563
#
#
# Mechanical properties :
#
#
# Convention : Reuss Voigt Hill
#
# Bulk Modulus (GPa) = 73.96350 86.80143 80.38247
# Shear Modulus (GPa) = 6.41768 38.18129 22.29949
#
# Velocity S-wave (km/s) = 1.62651 3.96729 3.03191
# Velocity P-wave (km/s) = 5.83242 7.53443 6.73739
#
# Compressibility (1/GPa) = 0.01352018
#
# Stress axis : x y z
#
# Youngs Moduli (GPa) = 78.77992 161.69741 197.38405
#
# Poissons Ratio (x) = 0.41656 0.31061
# Poissons Ratio (y) = 0.20295 0.20967
# Poissons Ratio (z) = 0.12397 0.17176
#
# Static dielectric constant tensor:
#      x y z
#    x 2.311650 0.000000 0.196120 
#    y 0.000000 1.921210 0.000000 
#    z 0.196120 0.000000 2.292940 
# 
# From -- ./inp_files/6156.got.cif
#   From: 2010.05.17/outbox.cif.g08.bks.cpg/sg12_4_cif.got.tgz:6156.got - 2010.06.03 13:09:07.
