data_PCOD9217969
_publ_section_title
;
Structure prediction by ZEFSAII (Michael W. Deem and Ramdas Pophale) SiO2 
 PCOD9217969
Probable space group: C 2/M
;
_chemical_formula_sum "Si O2"
_cell_formula_units_Z 56
_cell_length_a 14.410511
_cell_length_b 28.830875
_cell_length_c 8.779182
_cell_angle_alpha 90.000000
_cell_angle_beta 124.954504
_cell_angle_gamma 90.000000
_cell_volume 2989.489563
_symmetry_space_group_name_H-M "C 2/M"
_symmetry_group_IT_number 12
_symmetry_cell_setting 'monoclinic'
loop_
_space_group_symop_operation_xyz
x,y,z
-x,y,-z
-x,-y,-z
x,-y,z
1/2+x,1/2+y,z
1/2-x,1/2+y,-z
1/2-x,1/2-y,-z
1/2+x,1/2-y,z
loop_
_atom_site_type_symbol
_atom_site_label
_atom_site_fract_x
_atom_site_fract_y
_atom_site_fract_z
Si Si1 0.395252 0.775457 0.292414
Si Si2 0.259136 0.358287 0.971250
Si Si3 0.934230 0.447237 0.682747
Si Si4 0.480563 0.700224 0.161830
Si Si5 0.296714 0.291651 0.444458
Si Si6 0.623898 0.137515 0.156530
Si Si7 0.677893 0.947080 0.750746
O O1 0.500000 0.789069 0.500000
O O2 0.315649 0.818759 0.183760
O O3 0.440682 0.750971 0.182663
O O4 0.332045 0.733432 0.320501
O O5 0.259105 0.405794 0.876688
O O6 0.382649 0.336611 0.105537
O O7 0.197018 0.368180 0.072462
O O8 0.923385 0.500000 0.729378
O O9 0.901035 0.409864 0.776742
O O10 0.858097 0.442375 0.459385
O O11 0.062384 0.441137 0.741147
O O12 0.592870 0.689352 0.365130
O O13 0.500000 0.700807 0.000000
O O14 0.250000 0.250000 0.500000
O O15 0.198745 0.328681 0.329897
O O16 0.500000 0.157178 0.000000
O O17 0.717949 0.000000 0.812595
#
# Coordination Sequence:
#
# PCOD9217969 Si02
#       7
#     8   8   8   8   8   8   8
#     4  10  24  40  58  87 128 165 206 260 308 370
#     4  12  24  38  64  94 126 164 215 262 308 375
#     4   9  20  39  62  92 129 163 198 256 326 384
#     4  11  25  43  63  87 123 173 217 261 306 368
#     4  11  26  42  61  87 127 175 209 259 314 366
#     4  12  26  37  61  98 128 162 205 257 314 384
#     4   9  20  39  62  91 127 163 206 257 316 380
#
# _framework density 18.732294
#
# number of rings (size 3 to 8) (size 9 to 14) (size 15 to 20)
#    0.000    1.429    2.857    2.143   12.000    0.857 
#    0.000    0.000    0.000    1.286    0.000    2.000 
#    0.000    0.000    0.000    0.000    0.000    0.000 
#
# Total GULP energy -156531.915197 kJ/mol
# GULP energy per Si atom -5590.425543 kJ/mol
# Density = 1.868966 g / cm^3
# Si number density = 18.732294 Si / 1000 Ang^3
#
#
#
# Elastic Constant Matrix: (Units=GPa)
#
#
# Indices 1 2 3 4 5 6 
#
# 1 90.6050 43.2349 52.0446 0.0000 -3.1459 0.0000
# 2 43.2349 124.5435 90.1181 0.0000 13.5591 0.0000
# 3 52.0446 90.1181 98.3934 0.0000 15.0267 0.0000
# 4 0.0000 0.0000 0.0000 22.7130 0.0000 -3.0278
# 5 -3.1459 13.5591 15.0267 0.0000 38.3750 0.0000
# 6 0.0000 0.0000 0.0000 -3.0278 0.0000 15.2321
#
#
#
# Elastic Compliance Matrix: (Units=1/GPa)
#
#
# Indices 1 2 3 4 5 6 
#
# 1 0.016896 0.001808 -0.011388 0.000000 0.005206 0.000000
# 2 0.001808 0.024001 -0.023045 0.000000 0.000692 0.000000
# 3 -0.011388 -0.023045 0.038495 0.000000 -0.007865 0.000000
# 4 0.000000 0.000000 0.000000 0.045226 0.000000 0.008990
# 5 0.005206 0.000692 -0.007865 0.000000 0.029321 0.000000
# 6 0.000000 0.000000 0.000000 0.008990 0.000000 0.067438
#
#
# Mechanical properties :
#
#
# Convention : Reuss Voigt Hill
#
# Bulk Modulus (GPa) = 70.70805 76.03745 73.37275
# Shear Modulus (GPa) = 17.16205 23.80698 20.48451
#
# Velocity S-wave (km/s) = 3.03012 3.56884 3.31046
# Velocity P-wave (km/s) = 7.07607 7.59355 7.33937
#
# Compressibility (1/GPa) = 0.01414266
#
# Stress axis : x y z
#
# Youngs Moduli (GPa) = 59.18392 41.66480 25.97759
#
# Poissons Ratio (x) = -0.07534 0.29585
# Poissons Ratio (y) = -0.10702 0.59864
# Poissons Ratio (z) = 0.67402 0.96015
#
# Static dielectric constant tensor:
#      x y z
#    x 1.717570 0.000000 -0.053190 
#    y 0.000000 1.627610 0.000000 
#    z -0.053190 0.000000 1.703630 
# 
# From -- ./inp_files/68319.got.cif
#   From: 2010.05.17/outbox.cif.g08.bks.cpg/sg12_35_cif.got.tgz:68319.got - 2010.06.03 13:09:07.
