data_PCOD9217160
_publ_section_title
;
Structure prediction by ZEFSAII (Michael W. Deem and Ramdas Pophale) SiO2 
 PCOD9217160
Probable space group: C 2/M
;
_chemical_formula_sum "Si O2"
_cell_formula_units_Z 30
_cell_length_a 15.749439
_cell_length_b 13.724383
_cell_length_c 9.160196
_cell_angle_alpha 90.000000
_cell_angle_beta 132.241786
_cell_angle_gamma 90.000000
_cell_volume 1465.814274
_symmetry_space_group_name_H-M "C 2/M"
_symmetry_group_IT_number 12
_symmetry_cell_setting 'monoclinic'
loop_
_space_group_symop_operation_xyz
x,y,z
-x,y,-z
-x,-y,-z
x,-y,z
1/2+x,1/2+y,z
1/2-x,1/2+y,-z
1/2-x,1/2-y,-z
1/2+x,1/2-y,z
loop_
_atom_site_type_symbol
_atom_site_label
_atom_site_fract_x
_atom_site_fract_y
_atom_site_fract_z
Si Si1 0.184595 0.500000 0.145741
Si Si2 0.610984 0.500000 0.815269
Si Si3 0.750015 0.000000 0.545699
Si Si4 0.500000 0.329775 0.500000
Si Si5 0.500000 0.500000 0.000000
Si Si6 0.500000 0.162568 0.000000
Si Si7 0.865191 0.294574 0.570207
O O1 0.256801 0.500000 0.082428
O O2 0.262147 0.500000 0.381935
O O3 0.103383 0.406587 0.067731
O O4 0.559574 0.402633 0.682690
O O5 0.579520 0.500000 0.946446
O O6 0.671215 0.093275 0.495292
O O7 0.877915 0.000000 0.757244
O O8 0.589438 0.261272 0.518261
O O9 0.456966 0.218391 0.807736
O O10 0.750000 0.250000 0.500000
#
# Coordination Sequence:
#
# PCOD9217160 Si02
#       7
#     4   4   4   4   2   4   8
#     4   9  18  41  70  90 126 169 202 257 318 368
#     4  11  23  42  62  93 126 162 213 261 316 379
#     4  10  23  42  62  94 134 166 209 264 312 370
#     4  11  24  41  66  90 126 171 206 259 324 376
#     4  12  24  40  68  92 124 168 208 266 320 370
#     4   9  20  39  66  96 124 164 210 252 310 378
#     4  11  23  41  65  94 129 169 212 261 314 371
#
# _framework density 20.466439000000001
#
# number of rings (size 3 to 8) (size 9 to 14) (size 15 to 20)
#    0.000    1.600    0.000    7.200    0.000    6.933 
#    0.000    4.000    0.000    0.000    0.000    0.000 
#    0.000    0.000    0.000    0.000    0.000    0.000 
#
# Total GULP energy -83554.063530 kJ/mol
# GULP energy per Si atom -5570.270902 kJ/mol
# Density = 2.041986 g / cm^3
# Si number density = 20.466439 Si / 1000 Ang^3
#
#
#
# Elastic Constant Matrix: (Units=GPa)
#
#
# Indices 1 2 3 4 5 6 
#
# 1 200.9354 55.4159 45.7150 0.0000 -22.5734 0.0000
# 2 55.4159 117.6105 14.5677 0.0000 -8.8978 0.0000
# 3 45.7150 14.5677 141.5598 0.0000 -3.8488 0.0000
# 4 0.0000 0.0000 0.0000 -36.5178 0.0000 -10.6029
# 5 -22.5734 -8.8978 -3.8488 0.0000 29.7951 0.0000
# 6 0.0000 0.0000 0.0000 -10.6029 0.0000 5.2780
#
#
#
# Elastic Compliance Matrix: (Units=1/GPa)
#
#
# Indices 1 2 3 4 5 6 
#
# 1 0.006521 -0.002559 -0.001735 0.000000 0.003952 0.000000
# 2 -0.002559 0.009801 -0.000156 0.000000 0.000968 0.000000
# 3 -0.001735 -0.000156 0.007630 0.000000 -0.000376 0.000000
# 4 0.000000 0.000000 0.000000 -0.017296 0.000000 -0.034745
# 5 0.003952 0.000968 -0.000376 0.000000 0.036798 0.000000
# 6 0.000000 0.000000 0.000000 -0.034745 0.000000 0.119666
#
#
# Mechanical properties :
#
#
# Convention : Reuss Voigt Hill
#
# Bulk Modulus (GPa) = 66.43342 76.83366 71.63354
# Shear Modulus (GPa) = 28.24262 22.67155 25.45709
#
# Velocity S-wave (km/s) = 3.71880 3.33189 3.53065
# Velocity P-wave (km/s) = 7.13929 7.24049 7.19007
#
# Compressibility (1/GPa) = 0.01505266
#
# Stress axis : x y z
#
# Youngs Moduli (GPa) = 153.34683 102.03218 131.05578
#
# Poissons Ratio (x) = 0.26107 0.22740
# Poissons Ratio (y) = 0.39237 0.02044
# Poissons Ratio (z) = 0.26608 0.01591
#
# Static dielectric constant tensor:
#      x y z
#    x 1.668430 0.000000 0.015980 
#    y 0.000000 1.808450 0.000000 
#    z 0.015980 0.000000 1.757570 
# 
# From -- ./inp_files/58211.got.cif
#   From: 2010.05.17/outbox.cif.g08.bks.cpg/sg12_30_cif.got.tgz:58211.got - 2010.06.03 13:09:07.
