data_PCOD9217370
_publ_section_title
;
Structure prediction by ZEFSAII (Michael W. Deem and Ramdas Pophale) SiO2 
 PCOD9217370
Probable space group: C 2/M
;
_chemical_formula_sum "Si O2"
_cell_formula_units_Z 40
_cell_length_a 8.274727
_cell_length_b 26.961554
_cell_length_c 8.864309
_cell_angle_alpha 90.000000
_cell_angle_beta 91.993012
_cell_angle_gamma 90.000000
_cell_volume 1976.426584
_symmetry_space_group_name_H-M "C 2/M"
_symmetry_group_IT_number 12
_symmetry_cell_setting 'monoclinic'
loop_
_space_group_symop_operation_xyz
x,y,z
-x,y,-z
-x,-y,-z
x,-y,z
1/2+x,1/2+y,z
1/2-x,1/2+y,-z
1/2-x,1/2-y,-z
1/2+x,1/2-y,z
loop_
_atom_site_type_symbol
_atom_site_label
_atom_site_fract_x
_atom_site_fract_y
_atom_site_fract_z
Si Si1 0.500000 0.902135 0.000000
Si Si2 0.500000 0.100350 0.500000
Si Si3 0.468969 0.646790 0.319833
Si Si4 0.621552 0.269695 0.876695
Si Si5 0.764299 0.443017 0.736467
Si Si6 0.665464 0.164539 0.763243
O O1 0.613815 0.932188 0.119584
O O2 0.383133 0.866674 0.091818
O O3 0.629694 0.068552 0.410014
O O4 0.588697 0.135676 0.621093
O O5 0.500000 0.648816 0.500000
O O6 0.347593 0.687776 0.244513
O O7 0.388010 0.594510 0.272505
O O8 0.642643 0.661683 0.256394
O O9 0.589738 0.219341 0.781239
O O10 0.500000 0.289467 0.000000
O O11 0.750000 0.250000 0.000000
O O12 0.712930 0.500000 0.738044
#
# Coordination Sequence:
#
# PCOD9217370 Si02
#       6
#     4   4   8   8   8   8
#     4  10  23  42  72 100 132 172 229 282 322 402
#     4  10  23  42  70  98 132 176 219 276 330 408
#     4  12  27  44  65 103 141 173 223 285 333 402
#     4  12  25  41  67  98 135 182 219 265 334 405
#     4  11  24  45  69  98 134 180 227 278 339 391
#     4  11  23  43  67  99 135 173 221 270 338 402
#
# _framework density 20.238548000000002
#
# number of rings (size 3 to 8) (size 9 to 14) (size 15 to 20)
#    0.000    0.800    5.000    1.800    4.200    1.200 
#    0.000    3.000    0.000    0.000    0.000    0.000 
#    0.000    0.000    0.000    0.000    0.000    0.000 
#
# Total GULP energy -111536.155494 kJ/mol
# GULP energy per Si atom -5576.807775 kJ/mol
# Density = 2.019248 g / cm^3
# Si number density = 20.238548 Si / 1000 Ang^3
#
#
#
# Elastic Constant Matrix: (Units=GPa)
#
#
# Indices 1 2 3 4 5 6 
#
# 1 25.6710 4.6031 26.8045 0.0000 3.9409 0.0000
# 2 4.6031 166.8115 60.4618 0.0000 12.0193 0.0000
# 3 26.8045 60.4618 130.1711 0.0000 9.6785 0.0000
# 4 0.0000 0.0000 0.0000 10.7794 0.0000 -0.5461
# 5 3.9409 12.0193 9.6785 0.0000 28.6500 0.0000
# 6 0.0000 0.0000 0.0000 -0.5461 0.0000 18.8338
#
#
#
# Elastic Compliance Matrix: (Units=1/GPa)
#
#
# Indices 1 2 3 4 5 6 
#
# 1 0.051274 0.003140 -0.011688 0.000000 -0.004422 0.000000
# 2 0.003140 0.007508 -0.003967 0.000000 -0.002241 0.000000
# 3 -0.011688 -0.003967 0.011989 0.000000 -0.000778 0.000000
# 4 0.000000 0.000000 0.000000 0.092906 0.000000 0.002694
# 5 -0.004422 -0.002241 -0.000778 0.000000 0.036715 0.000000
# 6 0.000000 0.000000 0.000000 0.002694 0.000000 0.053174
#
#
# Mechanical properties :
#
#
# Convention : Reuss Voigt Hill
#
# Bulk Modulus (GPa) = 21.86201 56.26581 39.06391
# Shear Modulus (GPa) = 17.01581 27.03825 22.02703
#
# Velocity S-wave (km/s) = 2.90274 3.65907 3.30262
# Velocity P-wave (km/s) = 4.69682 6.76117 5.82123
#
# Compressibility (1/GPa) = 0.04574145
#
# Stress axis : x y z
#
# Youngs Moduli (GPa) = 19.50290 133.19990 83.40677
#
# Poissons Ratio (x) = -0.41826 0.97486
# Poissons Ratio (y) = -0.06124 0.33088
# Poissons Ratio (z) = 0.22795 0.52841
#
# Static dielectric constant tensor:
#      x y z
#    x 1.771650 0.000000 0.014060 
#    y 0.000000 1.711610 0.000000 
#    z 0.014060 0.000000 1.798600 
# 
# From -- ./inp_files/40476.got.cif
#   From: 2010.05.17/outbox.cif.g08.bks.cpg/sg12_21_cif.got.tgz:40476.got - 2010.06.03 13:09:07.
