data_PCOD9217379
_publ_section_title
;
Structure prediction by ZEFSAII (Michael W. Deem and Ramdas Pophale) SiO2 
 PCOD9217379
Probable space group: C 2/M
;
_chemical_formula_sum "Si O2"
_cell_formula_units_Z 58
_cell_length_a 18.517726
_cell_length_b 24.470082
_cell_length_c 11.825227
_cell_angle_alpha 90.000000
_cell_angle_beta 26.918590
_cell_angle_gamma 90.000000
_cell_volume 2425.862140
_symmetry_space_group_name_H-M "C 2/M"
_symmetry_group_IT_number 12
_symmetry_cell_setting 'monoclinic'
loop_
_space_group_symop_operation_xyz
x,y,z
-x,y,-z
-x,-y,-z
x,-y,z
1/2+x,1/2+y,z
1/2-x,1/2+y,-z
1/2-x,1/2-y,-z
1/2+x,1/2-y,z
loop_
_atom_site_type_symbol
_atom_site_label
_atom_site_fract_x
_atom_site_fract_y
_atom_site_fract_z
Si Si1 0.390578 0.268194 0.384355
Si Si2 0.255757 0.093794 0.577232
Si Si3 0.325869 0.655146 0.098208
Si Si4 0.095956 0.063745 0.180845
Si Si5 0.000000 0.000000 0.000000
Si Si6 0.096828 0.277458 0.269519
Si Si7 0.392755 0.936893 0.936581
Si Si8 0.778102 0.875622 0.637813
O O1 0.250000 0.250000 0.500000
O O2 0.476631 0.219310 0.332206
O O3 0.314521 0.311518 0.579101
O O4 0.532064 0.302046 0.124418
O O5 0.206200 0.143943 0.726819
O O6 0.435268 0.075188 0.356378
O O7 0.255037 0.107318 0.445325
O O8 0.128872 0.047055 0.779352
O O9 0.172479 0.674658 0.239756
O O10 0.371811 0.597537 0.977461
O O11 0.937985 0.091702 0.451421
O O12 0.067293 0.000000 0.197205
O O13 0.249071 0.068750 0.047604
O O14 0.000000 0.243902 0.500000
O O15 0.250000 0.250000 0.000000
O O16 0.390605 0.000000 0.980953
O O17 0.356656 0.895150 0.088492
#
# Coordination Sequence:
#
# PCOD9217379 Si02
#       8
#     8   8   8   8   2   8   8   8
#     4  10  24  48  76 110 144 194 258 322 388 452
#     4  12  27  44  74 110 153 198 249 308 380 453
#     4  10  25  46  73 108 151 193 254 309 382 467
#     4  10  23  42  72 108 149 197 243 305 374 458
#     4  12  24  44  70 106 152 204 236 306 384 444
#     4  10  24  48  74 104 142 199 247 316 384 455
#     4  11  25  46  71 111 156 198 254 301 368 469
#     4  11  25  44  75 107 152 198 246 314 381 458
#
# _framework density 23.909023999999999
#
# number of rings (size 3 to 8) (size 9 to 14) (size 15 to 20)
#    0.000    1.379    0.690    2.897    8.690    4.966 
#    2.483    4.138    0.000    0.000    0.000    0.000 
#    0.000    0.000    0.000    0.000    0.000    0.000 
#
# Total GULP energy -162042.770591 kJ/mol
# GULP energy per Si atom -5587.681745 kJ/mol
# Density = 2.385461 g / cm^3
# Si number density = 23.909024 Si / 1000 Ang^3
#
#
#
# Elastic Constant Matrix: (Units=GPa)
#
#
# Indices 1 2 3 4 5 6 
#
# 1 134.7207 52.7467 52.8992 -0.0068 -24.8841 0.0071
# 2 52.7467 86.0609 27.1061 -0.0096 -5.0492 0.0055
# 3 52.8992 27.1061 136.2620 -0.0006 -3.1479 0.0039
# 4 -0.0068 -0.0096 -0.0006 24.1178 0.0041 -8.1191
# 5 -24.8841 -5.0492 -3.1479 0.0041 46.2397 -0.0063
# 6 0.0071 0.0055 0.0039 -8.1191 -0.0063 5.8541
#
#
#
# Elastic Compliance Matrix: (Units=1/GPa)
#
#
# Indices 1 2 3 4 5 6 
#
# 1 0.012171 -0.006060 -0.003389 -0.000001 0.005658 -0.000001
# 2 -0.006060 0.015480 -0.000764 0.000003 -0.001623 -0.000004
# 3 -0.003389 -0.000764 0.008776 -0.000003 -0.001310 -0.000007
# 4 -0.000001 0.000003 -0.000003 0.077775 0.000008 0.107865
# 5 0.005658 -0.001623 -0.001310 0.000008 0.024405 0.000032
# 6 -0.000001 -0.000004 -0.000007 0.107865 0.000032 0.320416
#
#
# Mechanical properties :
#
#
# Convention : Reuss Voigt Hill
#
# Bulk Modulus (GPa) = 62.49863 69.17194 65.83529
# Shear Modulus (GPa) = 10.31389 30.19510 20.25449
#
# Velocity S-wave (km/s) = 2.07922 3.55761 2.91374
# Velocity P-wave (km/s) = 5.65342 6.77271 6.23822
#
# Compressibility (1/GPa) = 0.01600035
#
# Stress axis : x y z
#
# Youngs Moduli (GPa) = 82.16100 64.60138 113.94560
#
# Poissons Ratio (x) = 0.39151 0.38614
# Poissons Ratio (y) = 0.49793 0.08706
# Poissons Ratio (z) = 0.27843 0.04936
#
# Static dielectric constant tensor:
#      x y z
#    x 1.934940 -0.000010 0.002320 
#    y -0.000010 1.920310 0.000040 
#    z 0.002320 0.000040 1.954950 
# 
# From -- ./inp_files/160905.got.cif
#   From: 2010.05.17/outbox.cif.g08.bks.cpg/sg12_81_cif.got.tgz:160905.got - 2010.06.03 13:09:07.
