data_PCOD9217411
_publ_section_title
;
Structure prediction by ZEFSAII (Michael W. Deem and Ramdas Pophale) SiO2 
 PCOD9217411
Probable space group: C 2/M
;
_chemical_formula_sum "Si O2"
_cell_formula_units_Z 64
_cell_length_a 22.903129
_cell_length_b 17.696320
_cell_length_c 9.939433
_cell_angle_alpha 90.000000
_cell_angle_beta 48.730550
_cell_angle_gamma 90.000000
_cell_volume 3027.857093
_symmetry_space_group_name_H-M "C 2/M"
_symmetry_group_IT_number 12
_symmetry_cell_setting 'monoclinic'
loop_
_space_group_symop_operation_xyz
x,y,z
-x,y,-z
-x,-y,-z
x,-y,z
1/2+x,1/2+y,z
1/2-x,1/2+y,-z
1/2-x,1/2-y,-z
1/2+x,1/2-y,z
loop_
_atom_site_type_symbol
_atom_site_label
_atom_site_fract_x
_atom_site_fract_y
_atom_site_fract_z
Si Si1 0.042456 0.692919 0.658060
Si Si2 0.415250 0.913155 0.921479
Si Si3 0.756972 0.087031 0.740852
Si Si4 0.308183 0.587913 0.975202
Si Si5 0.675835 0.295497 0.569319
Si Si6 0.571917 0.585385 0.791210
Si Si7 0.361785 0.910973 0.690449
Si Si8 0.521847 0.351293 0.315854
O O1 0.110064 0.735393 0.634286
O O2 0.083999 0.639126 0.486221
O O3 0.985464 0.643500 0.836132
O O4 0.993323 0.761684 0.669385
O O5 0.392448 0.906331 0.797367
O O6 0.437800 0.000000 0.911428
O O7 0.335476 0.897893 0.121252
O O8 0.784304 0.090009 0.853900
O O9 0.800802 0.150195 0.590130
O O10 0.769668 0.000000 0.676126
O O11 0.321775 0.500000 0.991369
O O12 0.389660 0.630796 0.860034
O O13 0.229287 0.613491 0.171005
O O14 0.750000 0.250000 0.500000
O O15 0.638102 0.355166 0.729528
O O16 0.600627 0.500000 0.748100
O O17 0.535757 0.607859 0.701499
O O18 0.500000 0.591385 0.000000
O O19 0.365142 0.000000 0.647963
O O20 0.500000 0.376901 0.500000
#
# Coordination Sequence:
#
# PCOD9217411 Si02
#       8
#     8   8   8   8   8   8   8   8
#     4  11  22  35  53  81 117 151 187 234 291 344
#     4   9  18  34  57  83 112 148 185 223 276 341
#     4   9  19  38  61  82 110 149 189 233 287 344
#     4   9  18  33  56  87 116 146 188 234 283 339
#     4  11  25  41  57  79 108 146 191 241 292 343
#     4  10  23  43  64  85 114 156 198 236 287 349
#     4   9  18  33  54  81 116 153 184 220 272 339
#     4  11  22  35  57  93 125 151 187 237 293 344
#
# _framework density 21.137060999999999
#
# number of rings (size 3 to 8) (size 9 to 14) (size 15 to 20)
#    0.000    2.125    0.000    5.250    0.000    7.000 
#    0.000    6.875    0.000    1.500    0.000    0.000 
#    0.000    0.000    0.000    0.000    0.000    0.000 
#
# Total GULP energy -178791.333659 kJ/mol
# GULP energy per Si atom -5587.229177 kJ/mol
# Density = 2.108895 g / cm^3
# Si number density = 21.137061 Si / 1000 Ang^3
#
#
#
# Elastic Constant Matrix: (Units=GPa)
#
#
# Indices 1 2 3 4 5 6 
#
# 1 55.6824 47.8098 36.3058 0.0000 -31.5130 0.0000
# 2 47.8098 103.2070 52.0246 0.0000 -37.2845 0.0000
# 3 36.3058 52.0246 89.9012 0.0000 -37.1867 0.0000
# 4 0.0000 0.0000 0.0000 44.1299 0.0000 -106.8503
# 5 -31.5130 -37.2845 -37.1867 0.0000 38.9364 0.0000
# 6 0.0000 0.0000 0.0000 -106.8503 0.0000 -295.3794
#
#
#
# Elastic Compliance Matrix: (Units=1/GPa)
#
#
# Indices 1 2 3 4 5 6 
#
# 1 0.039219 -0.009881 -0.001495 0.000000 0.020852 0.000000
# 2 -0.009881 0.018477 -0.004449 0.000000 0.005447 0.000000
# 3 -0.001495 -0.004449 0.019901 0.000000 0.013536 0.000000
# 4 0.000000 0.000000 0.000000 0.012080 0.000000 -0.004370
# 5 0.020852 0.005447 0.013536 0.000000 0.060703 0.000000
# 6 0.000000 0.000000 0.000000 -0.004370 0.000000 -0.001805
#
#
# Mechanical properties :
#
#
# Convention : Reuss Voigt Hill
#
# Bulk Modulus (GPa) = 21.76452 57.89675 39.83064
# Shear Modulus (GPa) = 25.57014 -34.95259 -4.69122
#
# Velocity S-wave (km/s) = 3.48189 -4.07088 -1.49139
# Velocity P-wave (km/s) = 5.14626 2.31398 3.98989
#
# Compressibility (1/GPa) = 0.04594633
#
# Stress axis : x y z
#
# Youngs Moduli (GPa) = 25.49790 54.12135 50.24943
#
# Poissons Ratio (x) = 0.53480 0.07511
# Poissons Ratio (y) = 0.25196 0.22356
# Poissons Ratio (z) = 0.03811 0.24078
#
# Static dielectric constant tensor:
#      x y z
#    x 1.771690 0.000000 -0.009010 
#    y 0.000000 1.743620 0.000000 
#    z -0.009010 0.000000 1.770530 
# 
# From -- ./inp_files/183776.got.cif
#   From: 2010.05.17/outbox.cif.g08.bks.cpg/sg12_92_cif.got.tgz:183776.got - 2010.06.03 13:09:07.
