data_PCOD9217703
_publ_section_title
;
Structure prediction by ZEFSAII (Michael W. Deem and Ramdas Pophale) SiO2 
 PCOD9217703
Probable space group: C 2/M
;
_chemical_formula_sum "Si O2"
_cell_formula_units_Z 48
_cell_length_a 13.225202
_cell_length_b 19.749332
_cell_length_c 9.474652
_cell_angle_alpha 90.000000
_cell_angle_beta 62.986293
_cell_angle_gamma 90.000000
_cell_volume 2204.681828
_symmetry_space_group_name_H-M "C 2/M"
_symmetry_group_IT_number 12
_symmetry_cell_setting 'monoclinic'
loop_
_space_group_symop_operation_xyz
x,y,z
-x,y,-z
-x,-y,-z
x,-y,z
1/2+x,1/2+y,z
1/2-x,1/2+y,-z
1/2-x,1/2-y,-z
1/2+x,1/2-y,z
loop_
_atom_site_type_symbol
_atom_site_label
_atom_site_fract_x
_atom_site_fract_y
_atom_site_fract_z
Si Si1 0.532686 0.185833 0.331076
Si Si2 0.303734 0.423300 0.903086
Si Si3 0.133479 0.077866 0.453735
Si Si4 0.856285 0.208398 0.366678
Si Si5 0.290874 0.302534 0.095662
Si Si6 0.462068 0.928913 0.864919
O O1 0.500000 0.155503 0.500000
O O2 0.471816 0.257637 0.352137
O O3 0.667311 0.183509 0.240442
O O4 0.488314 0.136534 0.238886
O O5 0.352072 0.500000 0.885292
O O6 0.307369 0.405134 0.734581
O O7 0.351038 0.364102 0.973181
O O8 0.173925 0.426032 0.038026
O O9 0.154145 0.132588 0.563414
O O10 0.000000 0.078945 0.500000
O O11 0.164015 0.000000 0.472061
O O12 0.750000 0.250000 0.500000
O O13 0.859040 0.215554 0.194548
O O14 0.250000 0.250000 0.000000
O O15 0.495792 0.000000 0.773802
O O16 0.500000 0.929983 0.000000
#
# Coordination Sequence:
#
# PCOD9217703 Si02
#       6
#     8   8   8   8   8   8
#     4  11  24  41  61  91 128 162 207 263 313 380
#     4   9  20  40  64  89 122 160 203 258 314 374
#     4  10  23  44  69  95 129 173 217 266 320 383
#     4  12  25  40  65  95 128 171 216 265 320 384
#     4  11  25  41  62  91 127 166 210 261 322 373
#     4   9  20  37  61  91 123 160 202 249 310 381
#
# _framework density 21.771850000000001
#
# number of rings (size 3 to 8) (size 9 to 14) (size 15 to 20)
#    0.000    1.667    1.667    1.500    9.333    1.000 
#    0.000    0.000    0.000    3.000    0.000    0.000 
#    0.000    0.000    0.000    0.000    0.000    0.000 
#
# Total GULP energy -133830.366702 kJ/mol
# GULP energy per Si atom -5576.265279 kJ/mol
# Density = 2.172230 g / cm^3
# Si number density = 21.771850 Si / 1000 Ang^3
#
#
#
# Elastic Constant Matrix: (Units=GPa)
#
#
# Indices 1 2 3 4 5 6 
#
# 1 28.9454 7.1341 -1.4960 0.0000 11.9862 0.0000
# 2 7.1341 98.2848 47.7625 0.0000 13.3943 0.0000
# 3 -1.4960 47.7625 101.6563 0.0000 17.1501 0.0000
# 4 0.0000 0.0000 0.0000 41.7521 0.0000 9.4893
# 5 11.9862 13.3943 17.1501 0.0000 33.9627 0.0000
# 6 0.0000 0.0000 0.0000 9.4893 0.0000 27.1821
#
#
#
# Elastic Compliance Matrix: (Units=1/GPa)
#
#
# Indices 1 2 3 4 5 6 
#
# 1 0.042259 -0.003234 0.004856 0.000000 -0.016091 0.000000
# 2 -0.003234 0.013594 -0.006256 0.000000 -0.001061 0.000000
# 3 0.004856 -0.006256 0.013905 0.000000 -0.006268 0.000000
# 4 0.000000 0.000000 0.000000 0.026015 0.000000 -0.009082
# 5 -0.016091 -0.001061 -0.006268 0.000000 0.038707 0.000000
# 6 0.000000 0.000000 0.000000 -0.009082 0.000000 0.039959
#
#
# Mechanical properties :
#
#
# Convention : Reuss Voigt Hill
#
# Bulk Modulus (GPa) = 16.53154 37.29865 26.91510
# Shear Modulus (GPa) = 24.52538 32.27844 28.40191
#
# Velocity S-wave (km/s) = 3.35994 3.85460 3.61574
# Velocity P-wave (km/s) = 4.76044 6.08107 5.46082
#
# Compressibility (1/GPa) = 0.06049041
#
# Stress axis : x y z
#
# Youngs Moduli (GPa) = 23.66352 73.56280 71.91549
#
# Poissons Ratio (x) = 0.23794 -0.34924
# Poissons Ratio (y) = 0.07654 0.44987
# Poissons Ratio (z) = -0.11491 0.46018
#
# Static dielectric constant tensor:
#      x y z
#    x 2.025760 0.000000 0.041100 
#    y 0.000000 1.876540 0.000000 
#    z 0.041100 0.000000 1.775950 
# 
# From -- ./inp_files/63376.got.cif
#   From: 2010.05.17/outbox.cif.g08.bks.cpg/sg12_32_cif.got.tgz:63376.got - 2010.06.03 13:09:07.
