data_PCOD9217745
_publ_section_title
;
Structure prediction by ZEFSAII (Michael W. Deem and Ramdas Pophale) SiO2 
 PCOD9217745
Probable space group: C 2/M
;
_chemical_formula_sum "Si O2"
_cell_formula_units_Z 44
_cell_length_a 26.646814
_cell_length_b 8.048710
_cell_length_c 22.839504
_cell_angle_alpha 90.000000
_cell_angle_beta 159.260587
_cell_angle_gamma 90.000000
_cell_volume 1734.628729
_symmetry_space_group_name_H-M "C 2/M"
_symmetry_group_IT_number 12
_symmetry_cell_setting 'monoclinic'
loop_
_space_group_symop_operation_xyz
x,y,z
-x,y,-z
-x,-y,-z
x,-y,z
1/2+x,1/2+y,z
1/2-x,1/2+y,-z
1/2-x,1/2-y,-z
1/2+x,1/2-y,z
loop_
_atom_site_type_symbol
_atom_site_label
_atom_site_fract_x
_atom_site_fract_y
_atom_site_fract_z
Si Si1 0.902281 0.185438 0.520821
Si Si2 0.890389 0.500000 0.794148
Si Si3 0.651270 0.310734 0.717047
Si Si4 0.905301 0.689375 0.651946
Si Si5 0.570048 0.681725 0.012966
Si Si6 0.697010 0.689344 0.004560
O O1 0.736415 0.143324 0.334344
O O2 0.921747 0.295804 0.599791
O O3 0.991412 0.240746 0.561196
O O4 0.963187 0.000000 0.601712
O O5 0.008566 0.350924 0.918665
O O6 0.649030 0.500000 0.692477
O O7 0.730944 0.296618 0.866742
O O8 0.759901 0.203595 0.797514
O O9 0.918800 0.500000 0.687384
O O10 0.750000 0.750000 0.500000
O O11 0.028069 0.793363 0.816321
O O12 0.541051 0.500000 0.953573
O O13 0.500000 0.679309 0.000000
O O14 0.740264 0.500000 0.061175
O O15 0.750000 0.750000 0.000000
#
# Coordination Sequence:
#
# PCOD9217745 Si02
#       6
#     8   4   8   8   8   8
#     4   9  22  41  61  94 129 170 216 272 330 401
#     4  10  23  44  73  96 138 172 216 282 343 407
#     4  11  22  41  68  97 131 176 226 277 341 402
#     4  12  25  39  59  86 129 177 220 275 327 390
#     4  11  25  46  73 105 136 173 226 284 345 417
#     4  12  24  39  61  91 128 173 224 272 324 391
#
# _framework density 25.365658
#
# number of rings (size 3 to 8) (size 9 to 14) (size 15 to 20)
#    0.545    0.545    2.727    4.091    2.545    1.455 
#    0.000    1.818    0.000    2.182    0.000    0.000 
#    0.000    0.000    0.000    0.000    0.000    0.000 
#
# Total GULP energy -122561.544498 kJ/mol
# GULP energy per Si atom -5570.979295 kJ/mol
# Density = 2.530792 g / cm^3
# Si number density = 25.365658 Si / 1000 Ang^3
#
#
#
# Elastic Constant Matrix: (Units=GPa)
#
#
# Indices 1 2 3 4 5 6 
#
# 1 81.3883 17.3371 19.2519 0.0000 22.1520 0.0000
# 2 17.3371 155.8361 45.2841 0.0000 1.3083 0.0000
# 3 19.2519 45.2841 169.9583 0.0000 24.9410 0.0000
# 4 0.0000 0.0000 0.0000 25.2064 0.0000 5.1034
# 5 22.1520 1.3083 24.9410 0.0000 35.6147 0.0000
# 6 0.0000 0.0000 0.0000 5.1034 0.0000 21.3460
#
#
#
# Elastic Compliance Matrix: (Units=1/GPa)
#
#
# Indices 1 2 3 4 5 6 
#
# 1 0.015186 -0.001641 0.000105 0.000000 -0.009459 0.000000
# 2 -0.001641 0.007176 -0.002048 0.000000 0.002191 0.000000
# 3 0.000105 -0.002048 0.007151 0.000000 -0.004998 0.000000
# 4 0.000000 0.000000 0.000000 0.041690 0.000000 -0.009967
# 5 -0.009459 0.002191 -0.004998 0.000000 0.037381 0.000000
# 6 0.000000 0.000000 0.000000 -0.009967 0.000000 0.049230
#
#
# Mechanical properties :
#
#
# Convention : Reuss Voigt Hill
#
# Bulk Modulus (GPa) = 44.74991 63.43654 54.09322
# Shear Modulus (GPa) = 28.99725 38.12073 33.55899
#
# Velocity S-wave (km/s) = 3.38475 3.88086 3.64126
# Velocity P-wave (km/s) = 5.74070 6.71897 6.24901
#
# Compressibility (1/GPa) = 0.02234641
#
# Stress axis : x y z
#
# Youngs Moduli (GPa) = 65.85082 139.35034 139.84194
#
# Poissons Ratio (x) = 0.22861 -0.01468
# Poissons Ratio (y) = 0.10803 0.28635
# Poissons Ratio (z) = -0.00691 0.28535
#
# Static dielectric constant tensor:
#      x y z
#    x 2.108720 0.000000 0.044240 
#    y 0.000000 1.904520 0.000000 
#    z 0.044240 0.000000 2.081340 
# 
# From -- ./inp_files/369070.got.cif
#   From: 2010.05.17/outbox.cif.g08.bks.cpg/sg12_185_cif.got.tgz:369070.got - 2010.06.03 13:09:07.
