data_PCOD9217246
_publ_section_title
;
Structure prediction by ZEFSAII (Michael W. Deem and Ramdas Pophale) SiO2 
 PCOD9217246
Probable space group: C 2/M
;
_chemical_formula_sum "Si O2"
_cell_formula_units_Z 44
_cell_length_a 14.772835
_cell_length_b 17.496961
_cell_length_c 7.618474
_cell_angle_alpha 90.000000
_cell_angle_beta 103.530455
_cell_angle_gamma 90.000000
_cell_volume 1914.566654
_symmetry_space_group_name_H-M "C 2/M"
_symmetry_group_IT_number 12
_symmetry_cell_setting 'monoclinic'
loop_
_space_group_symop_operation_xyz
x,y,z
-x,y,-z
-x,-y,-z
x,-y,z
1/2+x,1/2+y,z
1/2-x,1/2+y,-z
1/2-x,1/2-y,-z
1/2+x,1/2-y,z
loop_
_atom_site_type_symbol
_atom_site_label
_atom_site_fract_x
_atom_site_fract_y
_atom_site_fract_z
Si Si1 0.500000 0.686444 0.000000
Si Si2 0.601867 0.413584 0.523243
Si Si3 0.532275 0.809856 0.310064
Si Si4 0.330249 0.586913 0.048317
Si Si5 0.865272 0.414096 0.144154
Si Si6 0.798198 0.588723 0.514981
O O1 0.524358 0.736197 0.183286
O O2 0.409910 0.634687 0.992351
O O3 0.500000 0.377718 0.500000
O O4 0.585709 0.500000 0.444245
O O5 0.640883 0.417571 0.737164
O O6 0.691424 0.381972 0.462080
O O7 0.500000 0.798580 0.500000
O O8 0.458132 0.866233 0.185352
O O9 0.631667 0.853187 0.357878
O O10 0.326157 0.500000 0.974344
O O11 0.226155 0.619712 0.989182
O O12 0.881090 0.500000 0.085360
O O13 0.836117 0.416989 0.335306
O O14 0.798628 0.500000 0.584845
#
# Coordination Sequence:
#
# PCOD9217246 Si02
#       6
#     4   8   8   8   8   8
#     4  12  27  42  63  90 130 176 212 256 321 388
#     4   9  19  35  60  94 126 158 207 267 318 366
#     4  10  23  44  63  95 133 172 210 254 316 384
#     4  10  23  42  65  91 121 160 217 274 316 366
#     4   9  19  39  68  96 124 163 213 266 313 366
#     4   9  18  37  66  96 127 165 210 261 315 370
#
# _framework density 22.9817
#
# number of rings (size 3 to 8) (size 9 to 14) (size 15 to 20)
#    0.000    2.364    0.000    0.818    5.091    3.636 
#    0.000    2.727    0.000    0.545    0.000    0.000 
#    0.000    0.000    0.000    0.000    0.000    0.000 
#
# Total GULP energy -122892.701830 kJ/mol
# GULP energy per Si atom -5586.031901 kJ/mol
# Density = 2.292939 g / cm^3
# Si number density = 22.981700 Si / 1000 Ang^3
#
#
#
# Elastic Constant Matrix: (Units=GPa)
#
#
# Indices 1 2 3 4 5 6 
#
# 1 112.3965 21.9625 11.0141 0.0000 14.6574 0.0000
# 2 21.9625 45.1191 18.4155 0.0000 -1.3378 0.0000
# 3 11.0141 18.4155 68.1887 0.0000 13.8869 0.0000
# 4 0.0000 0.0000 0.0000 3.0011 0.0000 -28.8412
# 5 14.6574 -1.3378 13.8869 0.0000 42.7619 0.0000
# 6 0.0000 0.0000 0.0000 -28.8412 0.0000 -69.9808
#
#
#
# Elastic Compliance Matrix: (Units=1/GPa)
#
#
# Indices 1 2 3 4 5 6 
#
# 1 0.010412 -0.005422 0.000583 0.000000 -0.003928 0.000000
# 2 -0.005422 0.028142 -0.007798 0.000000 0.005271 0.000000
# 3 0.000583 -0.007798 0.017955 0.000000 -0.006274 0.000000
# 4 0.000000 0.000000 0.000000 0.067171 0.000000 -0.027683
# 5 -0.003928 0.005271 -0.006274 0.000000 0.026934 0.000000
# 6 0.000000 0.000000 0.000000 -0.027683 0.000000 -0.002881
#
#
# Mechanical properties :
#
#
# Convention : Reuss Voigt Hill
#
# Bulk Modulus (GPa) = 32.01721 36.49872 34.25797
# Shear Modulus (GPa) = 27.25992 6.77726 17.01859
#
# Velocity S-wave (km/s) = 3.44780 1.71912 2.72422
# Velocity P-wave (km/s) = 5.46000 4.45608 4.98339
#
# Compressibility (1/GPa) = 0.03123320
#
# Stress axis : x y z
#
# Youngs Moduli (GPa) = 96.04566 35.53403 55.69519
#
# Poissons Ratio (x) = 0.19268 -0.03244
# Poissons Ratio (y) = 0.52079 0.43431
# Poissons Ratio (z) = -0.05595 0.27709
#
# Static dielectric constant tensor:
#      x y z
#    x 1.864230 0.000000 -0.016720 
#    y 0.000000 1.878710 0.000000 
#    z -0.016720 0.000000 1.874760 
# 
# From -- ./inp_files/61299.got.cif
#   From: 2010.05.17/outbox.cif.g08.bks.cpg/sg12_31_cif.got.tgz:61299.got - 2010.06.03 13:09:07.
