data_PCOD9217766
_publ_section_title
;
Structure prediction by ZEFSAII (Michael W. Deem and Ramdas Pophale) SiO2 
 PCOD9217766
Probable space group: C 2/M
;
_chemical_formula_sum "Si O2"
_cell_formula_units_Z 26
_cell_length_a 12.063137
_cell_length_b 12.326709
_cell_length_c 10.799062
_cell_angle_alpha 90.000000
_cell_angle_beta 34.212326
_cell_angle_gamma 90.000000
_cell_volume 902.883312
_symmetry_space_group_name_H-M "C 2/M"
_symmetry_group_IT_number 12
_symmetry_cell_setting 'monoclinic'
loop_
_space_group_symop_operation_xyz
x,y,z
-x,y,-z
-x,-y,-z
x,-y,z
1/2+x,1/2+y,z
1/2-x,1/2+y,-z
1/2-x,1/2-y,-z
1/2+x,1/2-y,z
loop_
_atom_site_type_symbol
_atom_site_label
_atom_site_fract_x
_atom_site_fract_y
_atom_site_fract_z
Si Si1 0.356859 0.654263 0.252911
Si Si2 0.500000 0.000000 0.500000
Si Si3 0.768456 0.115363 0.680627
Si Si4 0.771222 0.119066 0.956998
O O1 0.309163 0.780048 0.315120
O O2 0.494243 0.612294 0.235886
O O3 0.156236 0.593752 0.406898
O O4 0.500000 0.642195 0.000000
O O5 0.690165 0.112444 0.894099
O O6 0.000000 0.124828 0.500000
O O7 0.724574 0.000000 0.662175
O O8 0.700103 0.000000 0.085439
O O9 0.750000 0.250000 0.000000
#
# Coordination Sequence:
#
# PCOD9217766 Si02
#       4
#     8   2   8   8
#     4  12  24  44  73 103 143 189 239 299 357 430
#     4  12  26  44  66 106 146 188 232 304 360 412
#     4  10  23  45  68 101 146 186 236 295 363 430
#     4  11  24  43  72 105 142 187 245 295 361 432
#
# _framework density 28.796634000000001
#
# number of rings (size 3 to 8) (size 9 to 14) (size 15 to 20)
#    0.000    0.923    6.154    0.462    0.000    3.077 
#    0.000    0.000    0.000    0.000    0.000    0.000 
#    0.000    0.000    0.000    0.000    0.000    0.000 
#
# Total GULP energy -72451.023379 kJ/mol
# GULP energy per Si atom -5573.155645 kJ/mol
# Density = 2.873109 g / cm^3
# Si number density = 28.796634 Si / 1000 Ang^3
#
#
#
# Elastic Constant Matrix: (Units=GPa)
#
#
# Indices 1 2 3 4 5 6 
#
# 1 173.8864 53.6444 45.6855 -0.0009 -41.3239 -0.0001
# 2 53.6444 365.9976 63.9441 -0.0009 -21.4837 0.0002
# 3 45.6855 63.9441 88.4558 -0.0028 -43.4707 0.0004
# 4 -0.0009 -0.0009 -0.0028 44.5964 0.0014 10.5317
# 5 -41.3239 -21.4837 -43.4707 0.0014 67.8552 0.0001
# 6 -0.0001 0.0002 0.0004 10.5317 0.0001 -30.5668
#
#
#
# Elastic Compliance Matrix: (Units=1/GPa)
#
#
# Indices 1 2 3 4 5 6 
#
# 1 0.007106 -0.000552 -0.001796 0.000000 0.003003 0.000000
# 2 -0.000552 0.003191 -0.002467 0.000000 -0.000906 0.000000
# 3 -0.001796 -0.002467 0.019112 0.000001 0.010369 0.000001
# 4 0.000000 0.000000 0.000001 0.020736 0.000000 0.007145
# 5 0.003003 -0.000906 0.010369 0.000000 0.022922 0.000000
# 6 0.000000 0.000000 0.000001 0.007145 0.000000 -0.030254
#
#
# Mechanical properties :
#
#
# Convention : Reuss Voigt Hill
#
# Bulk Modulus (GPa) = 50.55655 106.09866 78.32760
# Shear Modulus (GPa) = 84.69349 47.38133 66.03741
#
# Velocity S-wave (km/s) = 5.42907 4.06073 4.79397
# Velocity P-wave (km/s) = 7.54282 7.67529 7.60935
#
# Compressibility (1/GPa) = 0.01977983
#
# Stress axis : x y z
#
# Youngs Moduli (GPa) = 140.71666 313.38566 52.32338
#
# Poissons Ratio (x) = 0.17285 0.09397
# Poissons Ratio (y) = 0.07761 0.12909
# Poissons Ratio (z) = 0.25273 0.77318
#
# Static dielectric constant tensor:
#      x y z
#    x 1.977860 0.000000 0.049450 
#    y 0.000000 2.278850 0.000000 
#    z 0.049450 0.000000 2.347020 
# 
# From -- ./inp_files/56030.got.cif
#   From: 2010.05.17/outbox.cif.g08.bks.cpg/sg12_29_cif.got.tgz:56030.got - 2010.06.03 13:09:07.
