data_PCOD9217671
_publ_section_title
;
Structure prediction by ZEFSAII (Michael W. Deem and Ramdas Pophale) SiO2 
 PCOD9217671
Probable space group: C 2/M
;
_chemical_formula_sum "Si O2"
_cell_formula_units_Z 56
_cell_length_a 24.259776
_cell_length_b 8.266936
_cell_length_c 15.383668
_cell_angle_alpha 90.000000
_cell_angle_beta 61.177860
_cell_angle_gamma 90.000000
_cell_volume 2703.056241
_symmetry_space_group_name_H-M "C 2/M"
_symmetry_group_IT_number 12
_symmetry_cell_setting 'monoclinic'
loop_
_space_group_symop_operation_xyz
x,y,z
-x,y,-z
-x,-y,-z
x,-y,z
1/2+x,1/2+y,z
1/2-x,1/2+y,-z
1/2-x,1/2-y,-z
1/2+x,1/2-y,z
loop_
_atom_site_type_symbol
_atom_site_label
_atom_site_fract_x
_atom_site_fract_y
_atom_site_fract_z
Si Si1 0.686983 0.693802 0.806155
Si Si2 0.063978 0.305779 0.001929
Si Si3 0.963002 0.191494 0.613454
Si Si4 0.374759 0.813816 0.317722
Si Si5 0.805651 0.813794 0.518958
Si Si6 0.175488 0.687151 0.307756
Si Si7 0.992305 0.805476 0.785671
O O1 0.688069 0.500000 0.794798
O O2 0.673092 0.771185 0.722672
O O3 0.757319 0.743286 0.782482
O O4 0.628177 0.742025 0.910212
O O5 0.064764 0.500000 0.997445
O O6 0.059238 0.247059 0.105014
O O7 0.000000 0.249811 0.000000
O O8 0.888243 0.218200 0.663129
O O9 0.982225 0.253243 0.694363
O O10 0.000000 0.258180 0.500000
O O11 0.975996 0.000000 0.604720
O O12 0.364876 0.703816 0.409715
O O13 0.443683 0.776922 0.230222
O O14 0.367599 0.000000 0.347994
O O15 0.750000 0.750000 0.500000
O O16 0.814452 0.705784 0.596463
O O17 0.796575 0.000000 0.550752
O O18 0.165584 0.500000 0.292059
O O19 0.997799 0.000000 0.782590
#
# Coordination Sequence:
#
# PCOD9217671 Si02
#       7
#     8   8   8   8   8   8   8
#     4  11  23  39  61  90 126 164 207 257 318 384
#     4  11  23  39  62  94 129 166 214 266 319 380
#     4  10  23  44  68  94 126 168 215 261 314 382
#     4  12  23  36  58  90 126 164 206 256 316 379
#     4  12  23  36  56  85 123 163 205 254 311 378
#     4  11  24  41  63  92 126 166 211 263 321 381
#     4  11  23  40  65  94 126 167 213 263 320 381
#
# _framework density 20.717289999999998
#
# number of rings (size 3 to 8) (size 9 to 14) (size 15 to 20)
#    0.000    0.857    2.857    5.143    0.000    4.857 
#    0.000    0.714    0.000    0.000    0.000    0.000 
#    0.000    0.000    0.000    0.000    0.000    0.000 
#
# Total GULP energy -156463.931711 kJ/mol
# GULP energy per Si atom -5587.997561 kJ/mol
# Density = 2.067014 g / cm^3
# Si number density = 20.717290 Si / 1000 Ang^3
#
#
#
# Elastic Constant Matrix: (Units=GPa)
#
#
# Indices 1 2 3 4 5 6 
#
# 1 71.1087 -3.2146 28.2170 0.0000 -10.0098 0.0001
# 2 -3.2146 51.9554 7.0817 0.0001 -1.8636 0.0002
# 3 28.2170 7.0817 119.6538 0.0000 -15.5626 0.0000
# 4 0.0000 0.0001 0.0000 29.6697 0.0000 -5.2719
# 5 -10.0098 -1.8636 -15.5626 0.0000 32.0943 0.0000
# 6 0.0001 0.0002 0.0000 -5.2719 0.0000 27.8144
#
#
#
# Elastic Compliance Matrix: (Units=1/GPa)
#
#
# Indices 1 2 3 4 5 6 
#
# 1 0.015970 0.001576 -0.003415 0.000000 0.003416 0.000000
# 2 0.001576 0.019570 -0.001407 0.000000 0.000946 0.000000
# 3 -0.003415 -0.001407 0.009709 0.000000 0.003561 0.000000
# 4 0.000000 0.000000 0.000000 0.034879 0.000000 0.006611
# 5 0.003416 0.000946 0.003561 0.000000 0.034005 0.000000
# 6 0.000000 0.000000 0.000000 0.006611 0.000000 0.037206
#
#
# Mechanical properties :
#
#
# Convention : Reuss Voigt Hill
#
# Bulk Modulus (GPa) = 25.80094 34.09845 29.94969
# Shear Modulus (GPa) = 29.28233 31.95794 30.62013
#
# Velocity S-wave (km/s) = 3.76363 3.93182 3.84865
# Velocity P-wave (km/s) = 5.60066 6.09155 5.85126
#
# Compressibility (1/GPa) = 0.03875828
#
# Stress axis : x y z
#
# Youngs Moduli (GPa) = 62.61623 51.09736 102.99459
#
# Poissons Ratio (x) = -0.08054 0.35173
# Poissons Ratio (y) = -0.09869 0.14491
# Poissons Ratio (z) = 0.21384 0.07189
#
# Static dielectric constant tensor:
#      x y z
#    x 1.772840 0.000000 -0.049940 
#    y 0.000000 1.703430 0.000000 
#    z -0.049940 0.000000 1.785000 
# 
# From -- ./inp_files/238344.got.cif
#   From: 2010.05.17/outbox.cif.g08.bks.cpg/sg12_120_cif.got.tgz:238344.got - 2010.06.03 13:09:07.
