data_PCOD9217141
_publ_section_title
;
Structure prediction by ZEFSAII (Michael W. Deem and Ramdas Pophale) SiO2 
 PCOD9217141
Probable space group: C 2/M
;
_chemical_formula_sum "Si O2"
_cell_formula_units_Z 56
_cell_length_a 31.624069
_cell_length_b 9.262171
_cell_length_c 11.870438
_cell_angle_alpha 90.000000
_cell_angle_beta 122.906132
_cell_angle_gamma 90.000000
_cell_volume 2919.106366
_symmetry_space_group_name_H-M "C 2/M"
_symmetry_group_IT_number 12
_symmetry_cell_setting 'monoclinic'
loop_
_space_group_symop_operation_xyz
x,y,z
-x,y,-z
-x,-y,-z
x,-y,z
1/2+x,1/2+y,z
1/2-x,1/2+y,-z
1/2-x,1/2-y,-z
1/2+x,1/2-y,z
loop_
_atom_site_type_symbol
_atom_site_label
_atom_site_fract_x
_atom_site_fract_y
_atom_site_fract_z
Si Si1 0.141151 0.672889 0.608654
Si Si2 0.170950 0.829722 0.114296
Si Si3 0.414663 0.165650 0.887912
Si Si4 0.695850 0.172852 0.926254
Si Si5 0.233260 0.671768 0.589724
Si Si6 0.508302 0.165479 0.194748
Si Si7 0.465697 0.328777 0.555777
O O1 0.134471 0.500000 0.589435
O O2 0.166545 0.700893 0.767231
O O3 0.180071 0.718331 0.566627
O O4 0.088061 0.751033 0.524137
O O5 0.128560 0.774145 0.138734
O O6 0.224595 0.805939 0.252731
O O7 0.165873 0.000000 0.083563
O O8 0.168247 0.738802 0.995356
O O9 0.442135 0.192939 0.809218
O O10 0.395576 0.000000 0.859831
O O11 0.459846 0.173804 0.044207
O O12 0.701701 0.000000 0.945963
O O13 0.750000 0.250000 0.000000
O O14 0.230664 0.500000 0.564480
O O15 0.250000 0.750000 0.500000
O O16 0.506114 0.277318 0.291508
O O17 0.511409 0.000000 0.241214
O O18 0.500000 0.285955 0.500000
O O19 0.458688 0.500000 0.543827
#
# Coordination Sequence:
#
# PCOD9217141 Si02
#       7
#     8   8   8   8   8   8   8
#     4  10  23  44  65  87 119 162 207 251 298 359
#     4  11  23  39  60  91 127 159 196 247 304 360
#     4   9  20  39  63  92 119 153 202 251 300 360
#     4  11  22  40  64  90 120 156 200 247 297 355
#     4  10  23  42  61  89 126 162 204 247 296 361
#     4   9  20  41  65  87 118 157 202 252 303 361
#     4  11  26  43  60  89 125 159 203 255 308 364
#
# _framework density 19.183952999999999
#
# number of rings (size 3 to 8) (size 9 to 14) (size 15 to 20)
#    0.000    1.857    1.429    2.143    4.000    5.143 
#    0.000    1.429    0.000    0.000    0.000    0.000 
#    0.000    0.000    0.000    0.000    0.000    0.000 
#
# Total GULP energy -156459.598757 kJ/mol
# GULP energy per Si atom -5587.842813 kJ/mol
# Density = 1.914029 g / cm^3
# Si number density = 19.183953 Si / 1000 Ang^3
#
#
#
# Elastic Constant Matrix: (Units=GPa)
#
#
# Indices 1 2 3 4 5 6 
#
# 1 105.0607 42.0250 19.7277 0.0000 -6.4812 0.0000
# 2 42.0250 45.7851 27.8307 0.0000 -10.6175 0.0000
# 3 19.7277 27.8307 44.7251 0.0000 -20.8621 0.0000
# 4 0.0000 0.0000 0.0000 23.9881 0.0000 -3.1178
# 5 -6.4812 -10.6175 -20.8621 0.0000 28.9243 0.0000
# 6 0.0000 0.0000 0.0000 -3.1178 0.0000 32.8643
#
#
#
# Elastic Compliance Matrix: (Units=1/GPa)
#
#
# Indices 1 2 3 4 5 6 
#
# 1 0.015322 -0.015995 0.003101 0.000000 -0.000202 0.000000
# 2 -0.015995 0.052189 -0.027361 0.000000 -0.004161 0.000000
# 3 0.003101 -0.027361 0.050720 0.000000 0.027234 0.000000
# 4 0.000000 0.000000 0.000000 0.042208 0.000000 0.004004
# 5 -0.000202 -0.004161 0.027234 0.000000 0.052643 0.000000
# 6 0.000000 0.000000 0.000000 0.004004 0.000000 0.030808
#
#
# Mechanical properties :
#
#
# Convention : Reuss Voigt Hill
#
# Bulk Modulus (GPa) = 26.51094 41.63754 34.07424
# Shear Modulus (GPa) = 14.83798 24.22117 19.52957
#
# Velocity S-wave (km/s) = 2.78413 3.55713 3.19410
# Velocity P-wave (km/s) = 4.91777 6.21469 5.60388
#
# Compressibility (1/GPa) = 0.03772027
#
# Stress axis : x y z
#
# Youngs Moduli (GPa) = 65.26681 19.16112 19.71615
#
# Poissons Ratio (x) = 0.30648 -0.06113
# Poissons Ratio (y) = 1.04394 0.53945
# Poissons Ratio (z) = -0.20237 0.52426
#
# Static dielectric constant tensor:
#      x y z
#    x 1.663570 0.000000 -0.004230 
#    y 0.000000 1.638370 0.000000 
#    z -0.004230 0.000000 1.665350 
# 
# From -- ./inp_files/181097.got.cif
#   From: 2010.05.17/outbox.cif.g08.bks.cpg/sg12_91_cif.got.tgz:181097.got - 2010.06.03 13:09:07.
