data_PCOD9217908
_publ_section_title
;
Structure prediction by ZEFSAII (Michael W. Deem and Ramdas Pophale) SiO2 
 PCOD9217908
Probable space group: C 2/M
;
_chemical_formula_sum "Si O2"
_cell_formula_units_Z 56
_cell_length_a 16.582255
_cell_length_b 27.443921
_cell_length_c 8.805463
_cell_angle_alpha 90.000000
_cell_angle_beta 139.327609
_cell_angle_gamma 90.000000
_cell_volume 2611.630087
_symmetry_space_group_name_H-M "C 2/M"
_symmetry_group_IT_number 12
_symmetry_cell_setting 'monoclinic'
loop_
_space_group_symop_operation_xyz
x,y,z
-x,y,-z
-x,-y,-z
x,-y,z
1/2+x,1/2+y,z
1/2-x,1/2+y,-z
1/2-x,1/2-y,-z
1/2+x,1/2-y,z
loop_
_atom_site_type_symbol
_atom_site_label
_atom_site_fract_x
_atom_site_fract_y
_atom_site_fract_z
Si Si1 0.859858 0.329578 0.095689
Si Si2 0.869966 0.208561 0.403006
Si Si3 0.860834 0.385164 0.819734
Si Si4 0.511070 0.609434 0.344026
Si Si5 0.641882 0.799966 0.416834
Si Si6 0.823147 0.942838 0.647486
Si Si7 0.223785 0.863669 0.172976
O O1 0.839931 0.347607 0.237372
O O2 0.999562 0.312302 0.265489
O O3 0.750357 0.292948 0.880221
O O4 0.837751 0.377598 0.962732
O O5 0.894306 0.154004 0.497502
O O6 0.850176 0.244019 0.518508
O O7 0.000000 0.221459 0.500000
O O8 0.855033 0.330486 0.736179
O O9 0.778031 0.423851 0.616494
O O10 0.000000 0.401897 0.000000
O O11 0.500000 0.587913 0.500000
O O12 0.554311 0.574874 0.268337
O O13 0.387629 0.635369 0.105535
O O14 0.759984 0.823829 0.672404
O O15 0.789085 0.913615 0.751982
O O16 0.825554 0.000000 0.675235
#
# Coordination Sequence:
#
# PCOD9217908 Si02
#       7
#     8   8   8   8   8   8   8
#     4  11  20  40  63  85 132 167 210 252 299 371
#     4  11  21  36  61  90 126 165 213 246 297 361
#     4   9  20  42  63  91 126 167 205 258 309 369
#     4  11  22  42  62  90 125 165 203 255 312 373
#     4  10  24  36  61  95 125 170 209 250 304 359
#     4  11  24  43  65  93 122 156 210 267 323 377
#     4  11  22  40  60  87 126 164 202 257 317 363
#
# _framework density 21.442547000000001
#
# number of rings (size 3 to 8) (size 9 to 14) (size 15 to 20)
#    0.000    1.429    4.286    1.714    2.000    3.429 
#    0.000    3.571    0.000   11.143    0.000    0.000 
#    0.000    0.000    0.000    0.000    0.000    0.000 
#
# Total GULP energy -155928.392657 kJ/mol
# GULP energy per Si atom -5568.871166 kJ/mol
# Density = 2.139374 g / cm^3
# Si number density = 21.442547 Si / 1000 Ang^3
#
#
#
# Elastic Constant Matrix: (Units=GPa)
#
#
# Indices 1 2 3 4 5 6 
#
# 1 65.3321 14.3760 -5.3185 0.0000 -7.3596 0.0000
# 2 14.3760 92.4340 -8.4608 0.0000 -5.4879 0.0000
# 3 -5.3185 -8.4608 80.2961 0.0000 10.6403 0.0000
# 4 0.0000 0.0000 0.0000 9.1682 0.0000 -2.2181
# 5 -7.3596 -5.4879 10.6403 0.0000 42.7770 0.0000
# 6 0.0000 0.0000 0.0000 -2.2181 0.0000 15.3261
#
#
#
# Elastic Compliance Matrix: (Units=1/GPa)
#
#
# Indices 1 2 3 4 5 6 
#
# 1 0.016123 -0.002321 0.000512 0.000000 0.002349 0.000000
# 2 -0.002321 0.011313 0.000930 0.000000 0.000821 0.000000
# 3 0.000512 0.000930 0.012986 0.000000 -0.003023 0.000000
# 4 0.000000 0.000000 0.000000 0.113031 0.000000 0.016359
# 5 0.002349 0.000821 -0.003023 0.000000 0.024638 0.000000
# 6 0.000000 0.000000 0.000000 0.016359 0.000000 0.067616
#
#
# Mechanical properties :
#
#
# Convention : Reuss Voigt Hill
#
# Bulk Modulus (GPa) = 25.86391 26.58397 26.22394
# Shear Modulus (GPa) = 19.20451 29.28528 24.24489
#
# Velocity S-wave (km/s) = 2.99595 3.69962 3.36622
# Velocity P-wave (km/s) = 4.90467 5.53844 5.23116
#
# Compressibility (1/GPa) = 0.03866391
#
# Stress axis : x y z
#
# Youngs Moduli (GPa) = 62.02134 88.39096 77.00403
#
# Poissons Ratio (x) = 0.20518 -0.03943
# Poissons Ratio (y) = 0.14397 -0.07158
# Poissons Ratio (z) = -0.03176 -0.08216
#
# Static dielectric constant tensor:
#      x y z
#    x 1.906510 0.000000 0.009270 
#    y 0.000000 1.743820 0.000000 
#    z 0.009270 0.000000 1.832270 
# 
# From -- ./inp_files/80122.got.cif
#   From: 2010.05.17/outbox.cif.g08.bks.cpg/sg12_41_cif.got.tgz:80122.got - 2010.06.03 13:09:07.
