data_PCOD9217202
_publ_section_title
;
Structure prediction by ZEFSAII (Michael W. Deem and Ramdas Pophale) SiO2 
 PCOD9217202
Probable space group: C 2/M
;
_chemical_formula_sum "Si O2"
_cell_formula_units_Z 48
_cell_length_a 24.211378
_cell_length_b 11.174769
_cell_length_c 11.993445
_cell_angle_alpha 90.000000
_cell_angle_beta 130.793253
_cell_angle_gamma 90.000000
_cell_volume 2456.626838
_symmetry_space_group_name_H-M "C 2/M"
_symmetry_group_IT_number 12
_symmetry_cell_setting 'monoclinic'
loop_
_space_group_symop_operation_xyz
x,y,z
-x,y,-z
-x,-y,-z
x,-y,z
1/2+x,1/2+y,z
1/2-x,1/2+y,-z
1/2-x,1/2-y,-z
1/2+x,1/2-y,z
loop_
_atom_site_type_symbol
_atom_site_label
_atom_site_fract_x
_atom_site_fract_y
_atom_site_fract_z
Si Si1 0.127179 0.645281 0.158615
Si Si2 0.417486 0.000000 0.253072
Si Si3 0.072122 0.742416 0.861622
Si Si4 0.596791 0.773828 0.368855
Si Si5 0.093173 0.500000 0.511563
Si Si6 0.206545 0.859320 0.655320
Si Si7 0.304526 0.359101 0.104588
O O1 0.119573 0.500000 0.136837
O O2 0.105202 0.682894 0.253631
O O3 0.210772 0.685895 0.248242
O O4 0.080907 0.712875 0.003417
O O5 0.401960 0.119320 0.164235
O O6 0.504972 0.000000 0.387798
O O7 0.382552 0.000000 0.328845
O O8 0.125256 0.842447 0.882017
O O9 0.987244 0.762589 0.722902
O O10 0.654022 0.677087 0.485919
O O11 0.616533 0.884012 0.475659
O O12 0.176886 0.833490 0.740641
O O13 0.214736 0.000000 0.661272
O O14 0.278659 0.500000 0.063761
O O15 0.250000 0.250000 0.000000
#
# Coordination Sequence:
#
# PCOD9217202 Si02
#       7
#     8   4   8   8   4   8   8
#     4  11  21  39  63  92 130 174 224 271 324 390
#     4   9  18  31  57  87 125 158 202 264 329 368
#     4  11  22  37  64  93 127 167 216 275 327 386
#     4  11  22  38  59  93 128 168 219 268 322 386
#     4   9  18  33  51  89 123 158 204 265 318 366
#     4  10  23  42  64  89 126 175 215 264 331 393
#     4  11  24  44  68  98 130 169 218 269 333 396
#
# _framework density 19.538986999999999
#
# number of rings (size 3 to 8) (size 9 to 14) (size 15 to 20)
#    0.000    1.500    3.333    2.000    1.167    3.333 
#    1.500    2.500    0.000    2.000    0.000    0.000 
#    0.000    0.000    0.000    0.000    0.000    0.000 
#
# Total GULP energy -133900.767508 kJ/mol
# GULP energy per Si atom -5579.198646 kJ/mol
# Density = 1.949452 g / cm^3
# Si number density = 19.538987 Si / 1000 Ang^3
#
#
#
# Elastic Constant Matrix: (Units=GPa)
#
#
# Indices 1 2 3 4 5 6 
#
# 1 44.9700 7.2804 -0.1038 0.0000 -13.7230 0.0000
# 2 7.2804 47.2582 13.5971 0.0000 -0.5045 0.0000
# 3 -0.1038 13.5971 59.5787 0.0000 -4.2225 0.0000
# 4 0.0000 0.0000 0.0000 31.6376 0.0000 -4.5071
# 5 -13.7230 -0.5045 -4.2225 0.0000 40.7047 0.0000
# 6 0.0000 0.0000 0.0000 -4.5071 0.0000 26.1505
#
#
#
# Elastic Compliance Matrix: (Units=1/GPa)
#
#
# Indices 1 2 3 4 5 6 
#
# 1 0.025612 -0.004328 0.001653 0.000000 0.008753 0.000000
# 2 -0.004328 0.023381 -0.005467 0.000000 -0.001736 0.000000
# 3 0.001653 -0.005467 0.018204 0.000000 0.002378 0.000000
# 4 0.000000 0.000000 0.000000 0.032404 0.000000 0.005585
# 5 0.008753 -0.001736 0.002378 0.000000 0.027743 0.000000
# 6 0.000000 0.000000 0.000000 0.005585 0.000000 0.039203
#
#
# Mechanical properties :
#
#
# Convention : Reuss Voigt Hill
#
# Bulk Modulus (GPa) = 19.64111 21.48380 20.56246
# Shear Modulus (GPa) = 25.02480 28.43411 26.72946
#
# Velocity S-wave (km/s) = 3.58266 3.81891 3.70267
# Velocity P-wave (km/s) = 5.21421 5.51948 5.36902
#
# Compressibility (1/GPa) = 0.05091363
#
# Stress axis : x y z
#
# Youngs Moduli (GPa) = 39.04351 42.76906 54.93446
#
# Poissons Ratio (x) = 0.18509 -0.09079
# Poissons Ratio (y) = 0.16897 0.30031
# Poissons Ratio (z) = -0.06452 0.23381
#
# Static dielectric constant tensor:
#      x y z
#    x 1.711510 0.000000 0.007440 
#    y 0.000000 1.710240 0.000000 
#    z 0.007440 0.000000 1.659950 
# 
# From -- ./inp_files/174890.got.cif
#   From: 2010.05.17/outbox.cif.g08.bks.cpg/sg12_88_cif.got.tgz:174890.got - 2010.06.03 13:09:07.
