data_PCOD9217690
_publ_section_title
;
Structure prediction by ZEFSAII (Michael W. Deem and Ramdas Pophale) SiO2 
 PCOD9217690
Probable space group: C 2/M
;
_chemical_formula_sum "Si O2"
_cell_formula_units_Z 36
_cell_length_a 10.678825
_cell_length_b 28.618785
_cell_length_c 4.999248
_cell_angle_alpha 90.000000
_cell_angle_beta 106.103573
_cell_angle_gamma 90.000000
_cell_volume 1467.895357
_symmetry_space_group_name_H-M "C 2/M"
_symmetry_group_IT_number 12
_symmetry_cell_setting 'monoclinic'
loop_
_space_group_symop_operation_xyz
x,y,z
-x,y,-z
-x,-y,-z
x,-y,z
1/2+x,1/2+y,z
1/2-x,1/2+y,-z
1/2-x,1/2-y,-z
1/2+x,1/2-y,z
loop_
_atom_site_type_symbol
_atom_site_label
_atom_site_fract_x
_atom_site_fract_y
_atom_site_fract_z
Si Si1 0.319313 0.820286 0.211572
Si Si2 0.415483 0.280074 0.223991
Si Si3 0.500000 0.112422 0.000000
Si Si4 0.864679 0.896208 0.770049
Si Si5 0.252253 0.444603 0.222246
O O1 0.371792 0.769817 0.322783
O O2 0.226205 0.851257 0.339576
O O3 0.216449 0.807187 0.917296
O O4 0.433695 0.852908 0.173218
O O5 0.500000 0.304821 0.500000
O O6 0.500000 0.272942 0.000000
O O7 0.612792 0.080037 0.190045
O O8 0.858003 0.925644 0.496016
O O9 0.793341 0.927741 0.952246
O O10 0.000000 0.883511 0.000000
O O11 0.242061 0.500000 0.231386
#
# Coordination Sequence:
#
# PCOD9217690 Si02
#       5
#     8   8   4   8   8
#     4  10  24  42  67  97 133 175 222 265 333 381
#     4  11  25  43  68  95 132 174 222 276 317 389
#     4  10  23  44  68  98 138 176 218 274 325 408
#     4  11  25  43  69  98 134 176 219 275 326 399
#     4  11  25  44  70 100 131 175 220 276 333 391
#
# _framework density 24.524909000000001
#
# number of rings (size 3 to 8) (size 9 to 14) (size 15 to 20)
#    0.000    1.333    1.111    2.333    3.111   16.000 
#    0.000    5.556    0.000    0.000    0.000    0.000 
#    0.000    0.000    0.000    0.000    0.000    0.000 
#
# Total GULP energy -100772.737181 kJ/mol
# GULP energy per Si atom -5598.485399 kJ/mol
# Density = 2.446909 g / cm^3
# Si number density = 24.524909 Si / 1000 Ang^3
#
#
#
# Elastic Constant Matrix: (Units=GPa)
#
#
# Indices 1 2 3 4 5 6 
#
# 1 116.7568 40.1367 22.5096 0.0000 19.1377 0.0000
# 2 40.1367 117.5681 6.7036 0.0000 -11.0100 0.0000
# 3 22.5096 6.7036 114.9056 0.0000 9.7387 0.0000
# 4 0.0000 0.0000 0.0000 22.8220 0.0000 13.4833
# 5 19.1377 -11.0100 9.7387 0.0000 33.6873 0.0000
# 6 0.0000 0.0000 0.0000 13.4833 0.0000 14.8571
#
#
#
# Elastic Compliance Matrix: (Units=1/GPa)
#
#
# Indices 1 2 3 4 5 6 
#
# 1 0.011697 -0.004643 -0.001362 0.000000 -0.007769 0.000000
# 2 -0.004643 0.010685 -0.000239 0.000000 0.006199 0.000000
# 3 -0.001362 -0.000239 0.009149 0.000000 -0.001949 0.000000
# 4 0.000000 0.000000 0.000000 0.094469 0.000000 -0.085734
# 5 -0.007769 0.006199 -0.001949 0.000000 0.036688 0.000000
# 6 0.000000 0.000000 0.000000 -0.085734 0.000000 0.145113
#
#
# Mechanical properties :
#
#
# Convention : Reuss Voigt Hill
#
# Bulk Modulus (GPa) = 52.51559 54.21449 53.36504
# Shear Modulus (GPa) = 15.30751 32.93198 24.11974
#
# Velocity S-wave (km/s) = 2.50103 3.66840 3.13945
# Velocity P-wave (km/s) = 5.45893 6.33220 5.91171
#
# Compressibility (1/GPa) = 0.01904197
#
# Stress axis : x y z
#
# Youngs Moduli (GPa) = 85.49269 93.58927 109.30415
#
# Poissons Ratio (x) = 0.43454 0.14888
# Poissons Ratio (y) = 0.39695 0.02614
# Poissons Ratio (z) = 0.11645 0.02239
#
# Static dielectric constant tensor:
#      x y z
#    x 1.979440 0.000000 0.009070 
#    y 0.000000 1.927460 0.000000 
#    z 0.009070 0.000000 1.944150 
# 
# From -- ./inp_files/8250.got.cif
#   From: 2010.05.17/outbox.cif.g08.bks.cpg/sg12_5_cif.got.tgz:8250.got - 2010.06.03 13:09:07.
