data_PCOD9217487
_publ_section_title
;
Structure prediction by ZEFSAII (Michael W. Deem and Ramdas Pophale) SiO2 
 PCOD9217487
Probable space group: C 2/M
;
_chemical_formula_sum "Si O2"
_cell_formula_units_Z 22
_cell_length_a 4.730599
_cell_length_b 26.149432
_cell_length_c 7.124429
_cell_angle_alpha 90.000000
_cell_angle_beta 112.163631
_cell_angle_gamma 90.000000
_cell_volume 816.189762
_symmetry_space_group_name_H-M "C 2/M"
_symmetry_group_IT_number 12
_symmetry_cell_setting 'monoclinic'
loop_
_space_group_symop_operation_xyz
x,y,z
-x,y,-z
-x,-y,-z
x,-y,z
1/2+x,1/2+y,z
1/2-x,1/2+y,-z
1/2-x,1/2-y,-z
1/2+x,1/2-y,z
loop_
_atom_site_type_symbol
_atom_site_label
_atom_site_fract_x
_atom_site_fract_y
_atom_site_fract_z
Si Si1 0.530060 0.286330 0.218567
Si Si2 0.727843 0.054712 0.783958
Si Si3 0.000000 0.361357 0.500000
Si Si4 0.500000 0.500000 0.500000
O O1 0.219943 0.266147 0.230595
O O2 0.713676 0.325053 0.391766
O O3 0.500000 0.308170 0.000000
O O4 0.516318 0.102732 0.690863
O O5 0.886282 0.043162 0.625723
O O6 0.550629 0.000000 0.780599
O O7 0.000000 0.060632 0.000000
#
# Coordination Sequence:
#
# PCOD9217487 Si02
#       4
#     8   8   4   2
#     4  10  23  43  66  95 134 173 220 279 338 403
#     4   9  20  39  59  88 131 173 220 275 328 397
#     4  12  21  36  65  94 128 177 221 276 334 398
#     4   8  18  38  60  80 124 178 216 258 334 380
#
# _framework density 26.954519000000001
#
# number of rings (size 3 to 8) (size 9 to 14) (size 15 to 20)
#    1.091    1.091    0.000    2.727    0.000    2.909 
#    0.000    7.273    0.000    0.000    0.000    0.000 
#    0.000    0.000    0.000    0.000    0.000    0.000 
#
# Total GULP energy -61325.156128 kJ/mol
# GULP energy per Si atom -5575.014193 kJ/mol
# Density = 2.689317 g / cm^3
# Si number density = 26.954519 Si / 1000 Ang^3
#
#
#
# Elastic Constant Matrix: (Units=GPa)
#
#
# Indices 1 2 3 4 5 6 
#
# 1 65.3186 3.6930 14.5387 0.0000 -12.2107 0.0000
# 2 3.6930 101.3790 79.2145 0.0000 23.7088 0.0000
# 3 14.5387 79.2145 196.2564 0.0000 16.5598 0.0000
# 4 0.0000 0.0000 0.0000 24.4183 0.0000 -17.4768
# 5 -12.2107 23.7088 16.5598 0.0000 37.7540 0.0000
# 6 0.0000 0.0000 0.0000 -17.4768 0.0000 -27.0041
#
#
#
# Elastic Compliance Matrix: (Units=1/GPa)
#
#
# Indices 1 2 3 4 5 6 
#
# 1 0.016949 -0.001136 -0.001371 0.000000 0.006796 0.000000
# 2 -0.001136 0.016354 -0.005835 0.000000 -0.008078 0.000000
# 3 -0.001371 -0.005835 0.007560 0.000000 -0.000095 0.000000
# 4 0.000000 0.000000 0.000000 0.027988 0.000000 -0.018114
# 5 0.006796 -0.008078 -0.000095 0.000000 0.033800 0.000000
# 6 0.000000 0.000000 0.000000 -0.018114 0.000000 -0.025308
#
#
# Mechanical properties :
#
#
# Convention : Reuss Voigt Hill
#
# Bulk Modulus (GPa) = 41.35626 61.98291 51.66958
# Shear Modulus (GPa) = 48.97803 24.73415 36.85609
#
# Velocity S-wave (km/s) = 4.26733 3.03252 3.70177
# Velocity P-wave (km/s) = 6.29733 5.94196 6.12222
#
# Compressibility (1/GPa) = 0.02418014
#
# Stress axis : x y z
#
# Youngs Moduli (GPa) = 58.99919 61.14769 132.27266
#
# Poissons Ratio (x) = 0.06946 0.18129
# Poissons Ratio (y) = 0.06702 0.77183
# Poissons Ratio (z) = 0.08086 0.35680
#
# Static dielectric constant tensor:
#      x y z
#    x 2.055410 0.000000 -0.006000 
#    y 0.000000 2.289510 0.000000 
#    z -0.006000 0.000000 2.055880 
# 
# From -- ./inp_files/34095.got.cif
#   From: 2010.05.17/outbox.cif.g08.bks.cpg/sg12_18_cif.got.tgz:34095.got - 2010.06.03 13:09:07.
