data_PCOD9217819
_publ_section_title
;
Structure prediction by ZEFSAII (Michael W. Deem and Ramdas Pophale) SiO2 
 PCOD9217819
Probable space group: C 2/M
;
_chemical_formula_sum "Si O2"
_cell_formula_units_Z 42
_cell_length_a 15.538921
_cell_length_b 23.291832
_cell_length_c 4.925094
_cell_angle_alpha 90.000000
_cell_angle_beta 82.949698
_cell_angle_gamma 90.000000
_cell_volume 1769.060786
_symmetry_space_group_name_H-M "C 2/M"
_symmetry_group_IT_number 12
_symmetry_cell_setting 'monoclinic'
loop_
_space_group_symop_operation_xyz
x,y,z
-x,y,-z
-x,-y,-z
x,-y,z
1/2+x,1/2+y,z
1/2-x,1/2+y,-z
1/2-x,1/2-y,-z
1/2+x,1/2-y,z
loop_
_atom_site_type_symbol
_atom_site_label
_atom_site_fract_x
_atom_site_fract_y
_atom_site_fract_z
Si Si1 0.265924 0.434088 0.301453
Si Si2 0.406125 0.865909 0.646037
Si Si3 0.852840 0.704380 0.182318
Si Si4 0.411978 0.418369 0.681511
Si Si5 0.335185 0.677376 0.938225
Si Si6 0.500000 0.500000 0.000000
O O1 0.262423 0.500000 0.198173
O O2 0.166503 0.413948 0.386070
O O3 0.327056 0.435032 0.546093
O O4 0.300663 0.378173 0.119886
O O5 0.500000 0.884278 0.500000
O O6 0.381156 0.811221 0.470773
O O7 0.396502 0.841244 0.955751
O O8 0.869992 0.769603 0.093471
O O9 0.748928 0.697079 0.196247
O O10 0.500000 0.438455 0.500000
O O11 0.427565 0.450817 0.956520
O O12 0.408071 0.350869 0.723626
#
# Coordination Sequence:
#
# PCOD9217819 Si02
#       6
#     8   8   8   8   8   2
#     4  11  25  45  71  99 139 186 230 289 356 415
#     4  11  24  47  74 106 142 182 235 296 356 417
#     4  10  23  45  74 102 140 186 232 291 354 415
#     4  12  25  42  64  96 138 182 231 282 349 413
#     4  10  24  42  71  99 138 181 238 280 352 421
#     4  12  26  44  60  94 142 182 226 290 334 430
#
# _framework density 23.741413000000001
#
# number of rings (size 3 to 8) (size 9 to 14) (size 15 to 20)
#    0.000    1.143    2.857    2.000    6.667    3.429 
#    6.857    0.000    0.000    3.429    0.000    0.000 
#    0.000    0.000    0.000    0.000    0.000    0.000 
#
# Total GULP energy -117075.156684 kJ/mol
# GULP energy per Si atom -5575.007461 kJ/mol
# Density = 2.368738 g / cm^3
# Si number density = 23.741413 Si / 1000 Ang^3
#
#
#
# Elastic Constant Matrix: (Units=GPa)
#
#
# Indices 1 2 3 4 5 6 
#
# 1 116.1428 43.0834 3.8654 0.0000 -11.7910 0.0000
# 2 43.0834 138.4817 3.3504 0.0000 -11.4239 0.0000
# 3 3.8654 3.3504 35.9478 0.0000 4.4876 0.0000
# 4 0.0000 0.0000 0.0000 64.7897 0.0000 -15.3213
# 5 -11.7910 -11.4239 4.4876 0.0000 36.5023 0.0000
# 6 0.0000 0.0000 0.0000 -15.3213 0.0000 25.9467
#
#
#
# Elastic Compliance Matrix: (Units=1/GPa)
#
#
# Indices 1 2 3 4 5 6 
#
# 1 0.009961 -0.002869 -0.001110 0.000000 0.002456 0.000000
# 2 -0.002869 0.008274 -0.000681 0.000000 0.001746 0.000000
# 3 -0.001110 -0.000681 0.028510 0.000000 -0.004077 0.000000
# 4 0.000000 0.000000 0.000000 0.017940 0.000000 0.010593
# 5 0.002456 0.001746 -0.004077 0.000000 0.029237 0.000000
# 6 0.000000 0.000000 0.000000 0.010593 0.000000 0.044796
#
#
# Mechanical properties :
#
#
# Convention : Reuss Voigt Hill
#
# Bulk Modulus (GPa) = 26.72053 43.46341 35.09197
# Shear Modulus (GPa) = 31.15020 41.46593 36.30807
#
# Velocity S-wave (km/s) = 3.62617 4.18373 3.91489
# Velocity P-wave (km/s) = 5.36762 6.45638 5.93701
#
# Compressibility (1/GPa) = 0.03742441
#
# Stress axis : x y z
#
# Youngs Moduli (GPa) = 100.39341 120.85418 35.07555
#
# Poissons Ratio (x) = 0.34679 0.03894
# Poissons Ratio (y) = 0.28808 0.02387
# Poissons Ratio (z) = 0.11146 0.08226
#
# Static dielectric constant tensor:
#      x y z
#    x 1.950170 0.000000 -0.133450 
#    y 0.000000 1.885590 0.000000 
#    z -0.133450 0.000000 2.252830 
# 
# From -- ./inp_files/11595.got.cif
#   From: 2010.05.17/outbox.cif.g08.bks.cpg/sg12_6_cif.got.tgz:11595.got - 2010.06.03 13:09:07.
