data_PCOD9217236
_publ_section_title
;
Structure prediction by ZEFSAII (Michael W. Deem and Ramdas Pophale) SiO2 
 PCOD9217236
Probable space group: C 2/M
;
_chemical_formula_sum "Si O2"
_cell_formula_units_Z 58
_cell_length_a 20.136024
_cell_length_b 26.704108
_cell_length_c 5.159146
_cell_angle_alpha 90.000000
_cell_angle_beta 112.704098
_cell_angle_gamma 90.000000
_cell_volume 2559.180544
_symmetry_space_group_name_H-M "C 2/M"
_symmetry_group_IT_number 12
_symmetry_cell_setting 'monoclinic'
loop_
_space_group_symop_operation_xyz
x,y,z
-x,y,-z
-x,-y,-z
x,-y,z
1/2+x,1/2+y,z
1/2-x,1/2+y,-z
1/2-x,1/2-y,-z
1/2+x,1/2-y,z
loop_
_atom_site_type_symbol
_atom_site_label
_atom_site_fract_x
_atom_site_fract_y
_atom_site_fract_z
Si Si1 0.272258 0.554255 0.144375
Si Si2 0.870103 0.154718 0.834429
Si Si3 0.000000 0.500000 0.500000
Si Si4 0.370026 0.080861 0.338199
Si Si5 0.423269 0.181845 0.253877
Si Si6 0.081000 0.100327 0.613371
Si Si7 0.278765 0.860089 0.558552
Si Si8 0.368112 0.769976 0.684915
O O1 0.267417 0.500000 0.274744
O O2 0.355915 0.562340 0.199529
O O3 0.254840 0.603285 0.283529
O O4 0.205407 0.554406 0.844725
O O5 0.902080 0.120570 0.650464
O O6 0.785327 0.142497 0.749543
O O7 0.869258 0.211310 0.732056
O O8 0.912209 0.144954 0.163790
O O9 0.936864 0.543521 0.447670
O O10 0.388183 0.127011 0.175437
O O11 0.349989 0.111989 0.564299
O O12 0.500000 0.174145 0.500000
O O13 0.381472 0.215316 0.405892
O O14 0.424114 0.208233 0.979350
O O15 0.000000 0.080221 0.500000
O O16 0.298138 0.803217 0.659764
#
# Coordination Sequence:
#
# PCOD9217236 Si02
#       8
#     8   8   2   8   8   8   8   8
#     4  11  23  43  70  95 131 179 226 275 344 405
#     4  11  23  42  70 102 134 181 227 275 341 408
#     4  12  24  40  74 100 130 184 240 278 344 402
#     4  11  22  42  62  95 134 175 228 281 334 401
#     4  11  23  40  59  92 139 179 219 277 339 392
#     4  11  25  45  69 102 140 173 225 287 338 403
#     4  10  23  42  64  96 139 179 224 283 336 404
#     4  11  23  38  67  96 135 179 230 273 336 405
#
# _framework density 22.663502999999999
#
# number of rings (size 3 to 8) (size 9 to 14) (size 15 to 20)
#    0.000    1.103    4.138    2.069    0.966    3.586 
#    0.000    5.517    0.000    2.483    0.000    0.000 
#    0.000    0.000    0.000    0.000    0.000    0.000 
#
# Total GULP energy -161437.776809 kJ/mol
# GULP energy per Si atom -5566.819890 kJ/mol
# Density = 2.261192 g / cm^3
# Si number density = 22.663503 Si / 1000 Ang^3
#
#
#
# Elastic Constant Matrix: (Units=GPa)
#
#
# Indices 1 2 3 4 5 6 
#
# 1 115.5678 27.2231 28.3368 0.0000 30.4827 0.0000
# 2 27.2231 62.1303 -9.5290 0.0000 7.3734 0.0000
# 3 28.3368 -9.5290 77.8044 0.0000 12.2292 0.0000
# 4 0.0000 0.0000 0.0000 -107.0253 0.0000 -70.1439
# 5 30.4827 7.3734 12.2292 0.0000 44.0121 0.0000
# 6 0.0000 0.0000 0.0000 -70.1439 0.0000 -25.7180
#
#
#
# Elastic Compliance Matrix: (Units=1/GPa)
#
#
# Indices 1 2 3 4 5 6 
#
# 1 0.012755 -0.005441 -0.004252 0.000000 -0.006741 0.000000
# 2 -0.005441 0.019243 0.004447 0.000000 -0.000691 0.000000
# 3 -0.004252 0.004447 0.015267 0.000000 -0.002042 0.000000
# 4 0.000000 0.000000 0.000000 0.011864 0.000000 -0.032359
# 5 -0.006741 -0.000691 -0.002042 0.000000 0.028073 0.000000
# 6 0.000000 0.000000 0.000000 -0.032359 0.000000 0.049373
#
#
# Mechanical properties :
#
#
# Convention : Reuss Voigt Hill
#
# Bulk Modulus (GPa) = 27.19379 38.61825 32.90602
# Shear Modulus (GPa) = 31.38210 -3.78145 13.80032
#
# Velocity S-wave (km/s) = 3.72519 -1.29311 2.47031
# Velocity P-wave (km/s) = 5.52519 3.85322 4.76314
#
# Compressibility (1/GPa) = 0.03677310
#
# Stress axis : x y z
#
# Youngs Moduli (GPa) = 78.39820 51.96597 65.50031
#
# Poissons Ratio (x) = 0.28275 0.27853
# Poissons Ratio (y) = 0.42657 -0.29129
# Poissons Ratio (z) = 0.33338 -0.23110
#
# Static dielectric constant tensor:
#      x y z
#    x 1.900170 0.000000 0.028700 
#    y 0.000000 1.865230 0.000000 
#    z 0.028700 0.000000 1.889620 
# 
# From -- ./inp_files/22471.got.cif
#   From: 2010.05.17/outbox.cif.g08.bks.cpg/sg12_12_cif.got.tgz:22471.got - 2010.06.03 13:09:07.
