data_PCOD9217882
_publ_section_title
;
Structure prediction by ZEFSAII (Michael W. Deem and Ramdas Pophale) SiO2 
 PCOD9217882
Probable space group: C 2/M
;
_chemical_formula_sum "Si O2"
_cell_formula_units_Z 28
_cell_length_a 17.940107
_cell_length_b 8.449116
_cell_length_c 13.727938
_cell_angle_alpha 90.000000
_cell_angle_beta 140.060751
_cell_angle_gamma 90.000000
_cell_volume 1335.856266
_symmetry_space_group_name_H-M "C 2/M"
_symmetry_group_IT_number 12
_symmetry_cell_setting 'monoclinic'
loop_
_space_group_symop_operation_xyz
x,y,z
-x,y,-z
-x,-y,-z
x,-y,z
1/2+x,1/2+y,z
1/2-x,1/2+y,-z
1/2-x,1/2-y,-z
1/2+x,1/2-y,z
loop_
_atom_site_type_symbol
_atom_site_label
_atom_site_fract_x
_atom_site_fract_y
_atom_site_fract_z
Si Si1 0.787806 0.313507 0.144239
Si Si2 0.425648 0.500000 0.739288
Si Si3 0.201507 0.000000 0.579983
Si Si4 0.878332 0.260753 0.848651
Si Si5 0.437827 0.500000 0.313197
O O1 0.828942 0.500000 0.180033
O O2 0.682560 0.310035 0.116339
O O3 0.873739 0.169049 0.265371
O O4 0.750000 0.250000 0.000000
O O5 0.317681 0.500000 0.555234
O O6 0.418805 0.643496 0.805349
O O7 0.534943 0.500000 0.776908
O O8 0.276670 0.857275 0.695096
O O9 0.069483 0.000000 0.486307
O O10 0.000000 0.339786 0.000000
#
# Coordination Sequence:
#
# PCOD9217882 Si02
#       5
#     8   4   4   8   4
#     4  12  25  45  73 110 147 191 244 300 368 427
#     4  10  23  49  70 102 146 190 239 303 361 429
#     4  10  26  46  72 107 147 188 243 302 368 425
#     4  12  24  45  75 106 141 192 250 296 360 437
#     4  10  25  49  72  98 156 186 233 301 364 427
#
# _framework density 20.960339000000001
#
# number of rings (size 3 to 8) (size 9 to 14) (size 15 to 20)
#    0.857    0.000    2.857    4.286    0.000    2.286 
#   10.286    1.429    0.000    0.000    0.000    0.000 
#    0.000    0.000    0.000    0.000    0.000    0.000 
#
# Total GULP energy -77935.535967 kJ/mol
# GULP energy per Si atom -5566.823998 kJ/mol
# Density = 2.091263 g / cm^3
# Si number density = 20.960339 Si / 1000 Ang^3
#
#
#
# Elastic Constant Matrix: (Units=GPa)
#
#
# Indices 1 2 3 4 5 6 
#
# 1 138.8654 53.5024 33.8229 0.0000 2.3913 0.0000
# 2 53.5024 177.2018 74.0770 0.0000 17.2384 0.0000
# 3 33.8229 74.0770 161.8914 0.0000 12.6403 0.0000
# 4 0.0000 0.0000 0.0000 49.8993 0.0000 42.3758
# 5 2.3913 17.2384 12.6403 0.0000 44.9637 0.0000
# 6 0.0000 0.0000 0.0000 42.3758 0.0000 123.6877
#
#
#
# Elastic Compliance Matrix: (Units=1/GPa)
#
#
# Indices 1 2 3 4 5 6 
#
# 1 0.008233 -0.002235 -0.000747 0.000000 0.000629 0.000000
# 2 -0.002235 0.007733 -0.002913 0.000000 -0.002027 0.000000
# 3 -0.000747 -0.002913 0.007746 0.000000 -0.001021 0.000000
# 4 0.000000 0.000000 0.000000 0.028264 0.000000 -0.009683
# 5 0.000629 -0.002027 -0.001021 0.000000 0.023271 0.000000
# 6 0.000000 0.000000 0.000000 -0.009683 0.000000 0.011402
#
#
# Mechanical properties :
#
#
# Convention : Reuss Voigt Hill
#
# Bulk Modulus (GPa) = 83.87481 88.97369 86.42425
# Shear Modulus (GPa) = 48.82209 64.81389 56.81799
#
# Velocity S-wave (km/s) = 4.83148 5.56680 5.21212
# Velocity P-wave (km/s) = 8.43961 9.15750 8.80587
#
# Compressibility (1/GPa) = 0.01192253
#
# Stress axis : x y z
#
# Youngs Moduli (GPa) = 121.45772 129.31390 129.10396
#
# Poissons Ratio (x) = 0.28901 0.09639
# Poissons Ratio (y) = 0.27145 0.37611
# Poissons Ratio (z) = 0.09068 0.37673
#
# Static dielectric constant tensor:
#      x y z
#    x 1.754120 0.000000 -0.020730 
#    y 0.000000 1.719020 0.000000 
#    z -0.020730 0.000000 1.765850 
# 
# From -- ./inp_files/221368.got.cif
#   From: 2010.05.17/outbox.cif.g08.bks.cpg/sg12_111_cif.got.tgz:221368.got - 2010.06.03 13:09:07.
