data_PCOD9217312
_publ_section_title
;
Structure prediction by ZEFSAII (Michael W. Deem and Ramdas Pophale) SiO2 
 PCOD9217312
Probable space group: C 2/M
;
_chemical_formula_sum "Si O2"
_cell_formula_units_Z 24
_cell_length_a 26.948226
_cell_length_b 7.703011
_cell_length_c 13.517465
_cell_angle_alpha 90.000000
_cell_angle_beta 156.944153
_cell_angle_gamma 90.000000
_cell_volume 1098.904313
_symmetry_space_group_name_H-M "C 2/M"
_symmetry_group_IT_number 12
_symmetry_cell_setting 'monoclinic'
loop_
_space_group_symop_operation_xyz
x,y,z
-x,y,-z
-x,-y,-z
x,-y,z
1/2+x,1/2+y,z
1/2-x,1/2+y,-z
1/2-x,1/2-y,-z
1/2+x,1/2-y,z
loop_
_atom_site_type_symbol
_atom_site_label
_atom_site_fract_x
_atom_site_fract_y
_atom_site_fract_z
Si Si1 0.607944 0.708439 0.273135
Si Si2 0.863683 0.000000 0.302415
Si Si3 0.096990 0.500000 0.768566
Si Si4 0.976681 0.198233 0.666430
O O1 0.599415 0.500000 0.258501
O O2 0.750000 0.750000 0.500000
O O3 0.576503 0.764802 0.327288
O O4 0.500000 0.774861 0.000000
O O5 0.866690 0.837176 0.383196
O O6 0.000000 0.000000 0.500000
O O7 0.744835 0.000000 0.013623
O O8 0.000000 0.500000 0.500000
O O9 0.069689 0.332329 0.785983
O O10 0.028166 0.000000 0.775569
#
# Coordination Sequence:
#
# PCOD9217312 Si02
#       4
#     8   4   4   8
#     4  10  23  42  66  99 133 173 218 269 330 392
#     4  10  24  48  66  96 138 168 222 288 329 392
#     4  12  26  44  72 101 124 186 230 263 349 400
#     4   9  24  45  64 100 138 172 217 281 327 396
#
# _framework density 21.839936000000002
#
# number of rings (size 3 to 8) (size 9 to 14) (size 15 to 20)
#    1.000    1.000    0.000    1.000    7.000    6.000 
#    3.000    0.000    0.000    0.000    0.000    0.000 
#    0.000    0.000    0.000    0.000    0.000    0.000 
#
# Total GULP energy -66921.312215 kJ/mol
# GULP energy per Si atom -5576.776018 kJ/mol
# Density = 2.179023 g / cm^3
# Si number density = 21.839936 Si / 1000 Ang^3
#
#
#
# Elastic Constant Matrix: (Units=GPa)
#
#
# Indices 1 2 3 4 5 6 
#
# 1 175.0002 24.3882 94.8959 0.0000 -2.3144 0.0000
# 2 24.3882 77.9800 17.1557 0.0000 10.7718 0.0000
# 3 94.8959 17.1557 189.8891 0.0000 6.2674 0.0000
# 4 0.0000 0.0000 0.0000 10.8525 0.0000 9.7970
# 5 -2.3144 10.7718 6.2674 0.0000 26.5191 0.0000
# 6 0.0000 0.0000 0.0000 9.7970 0.0000 28.4015
#
#
#
# Elastic Compliance Matrix: (Units=1/GPa)
#
#
# Indices 1 2 3 4 5 6 
#
# 1 0.008196 -0.002027 -0.003995 0.000000 0.002483 0.000000
# 2 -0.002027 0.014300 -0.000082 0.000000 -0.005966 0.000000
# 3 -0.003995 -0.000082 0.007338 0.000000 -0.002049 0.000000
# 4 0.000000 0.000000 0.000000 0.133815 0.000000 -0.046159
# 5 0.002483 -0.005966 -0.002049 0.000000 0.040833 0.000000
# 6 0.000000 0.000000 0.000000 -0.046159 0.000000 0.051132
#
#
# Mechanical properties :
#
#
# Convention : Reuss Voigt Hill
#
# Bulk Modulus (GPa) = 56.73535 79.52767 68.13151
# Shear Modulus (GPa) = 18.26839 33.58323 25.92581
#
# Velocity S-wave (km/s) = 2.89531 3.92560 3.44914
# Velocity P-wave (km/s) = 6.10011 7.55249 6.86482
#
# Compressibility (1/GPa) = 0.01762569
#
# Stress axis : x y z
#
# Youngs Moduli (GPa) = 122.01442 69.93002 136.28567
#
# Poissons Ratio (x) = 0.14177 0.54440
# Poissons Ratio (y) = 0.24737 0.01116
# Poissons Ratio (z) = 0.48739 0.00572
#
# Static dielectric constant tensor:
#      x y z
#    x 1.813940 0.000000 -0.038100 
#    y 0.000000 1.850330 0.000000 
#    z -0.038100 0.000000 1.796810 
# 
# From -- ./inp_files/248709.got.cif
#   From: 2010.05.17/outbox.cif.g08.bks.cpg/sg12_125_cif.got.tgz:248709.got - 2010.06.03 13:09:07.
