data_PCOD9217251
_publ_section_title
;
Structure prediction by ZEFSAII (Michael W. Deem and Ramdas Pophale) SiO2 
 PCOD9217251
Probable space group: C 2/M
;
_chemical_formula_sum "Si O2"
_cell_formula_units_Z 44
_cell_length_a 14.004831
_cell_length_b 20.537174
_cell_length_c 7.582560
_cell_angle_alpha 90.000000
_cell_angle_beta 102.945330
_cell_angle_gamma 90.000000
_cell_volume 2125.464252
_symmetry_space_group_name_H-M "C 2/M"
_symmetry_group_IT_number 12
_symmetry_cell_setting 'monoclinic'
loop_
_space_group_symop_operation_xyz
x,y,z
-x,y,-z
-x,-y,-z
x,-y,z
1/2+x,1/2+y,z
1/2-x,1/2+y,-z
1/2-x,1/2-y,-z
1/2+x,1/2-y,z
loop_
_atom_site_type_symbol
_atom_site_label
_atom_site_fract_x
_atom_site_fract_y
_atom_site_fract_z
Si Si1 0.372331 0.201642 0.741631
Si Si2 0.078376 0.574030 0.377452
Si Si3 0.889966 0.161528 0.913095
Si Si4 0.662427 0.347988 0.730987
Si Si5 0.804049 0.927143 0.574294
Si Si6 0.500000 0.264718 0.500000
O O1 0.418915 0.129259 0.773116
O O2 0.391178 0.260336 0.884721
O O3 0.255767 0.191387 0.695374
O O4 0.420757 0.225232 0.579039
O O5 0.064280 0.500000 0.306347
O O6 0.186308 0.577230 0.511088
O O7 0.000000 0.586107 0.500000
O O8 0.847365 0.126701 0.722974
O O9 0.825511 0.143161 0.056490
O O10 0.000000 0.139102 0.000000
O O11 0.658061 0.411409 0.607053
O O12 0.562874 0.308336 0.659273
O O13 0.831028 0.000000 0.641242
#
# Coordination Sequence:
#
# PCOD9217251 Si02
#       6
#     8   8   8   8   8   4
#     4  11  22  37  64  93 124 166 207 263 315 366
#     4   9  19  37  64  94 123 164 209 253 313 378
#     4  12  24  41  62  95 131 162 214 263 314 375
#     4  11  23  41  62  93 129 164 210 265 313 376
#     4  10  23  42  65  92 126 170 212 257 317 376
#     4  12  20  38  64  92 124 164 212 258 320 374
#
# _framework density 20.701360000000001
#
# number of rings (size 3 to 8) (size 9 to 14) (size 15 to 20)
#    0.000    1.273    4.545    1.091    2.545    1.091 
#    3.273    3.182    0.000    0.545    0.000    0.000 
#    0.000    0.000    0.000    0.000    0.000    0.000 
#
# Total GULP energy -122738.911759 kJ/mol
# GULP energy per Si atom -5579.041444 kJ/mol
# Density = 2.065424 g / cm^3
# Si number density = 20.701360 Si / 1000 Ang^3
#
#
#
# Elastic Constant Matrix: (Units=GPa)
#
#
# Indices 1 2 3 4 5 6 
#
# 1 80.5231 35.1696 17.3302 0.0000 -19.1466 0.0000
# 2 35.1696 115.0225 35.4597 0.0000 -3.8678 0.0000
# 3 17.3302 35.4597 77.5296 0.0000 -19.0523 0.0000
# 4 0.0000 0.0000 0.0000 11.2546 0.0000 -9.4182
# 5 -19.1466 -3.8678 -19.0523 0.0000 24.4804 0.0000
# 6 0.0000 0.0000 0.0000 -9.4182 0.0000 9.1023
#
#
#
# Elastic Compliance Matrix: (Units=1/GPa)
#
#
# Indices 1 2 3 4 5 6 
#
# 1 0.017959 -0.005683 0.002245 0.000000 0.014896 0.000000
# 2 -0.005683 0.012042 -0.006012 0.000000 -0.007221 0.000000
# 3 0.002245 -0.006012 0.018973 0.000000 0.015572 0.000000
# 4 0.000000 0.000000 0.000000 0.662428 0.000000 0.685417
# 5 0.014896 -0.007221 0.015572 0.000000 0.063478 0.000000
# 6 0.000000 0.000000 0.000000 0.685417 0.000000 0.819066
#
#
# Mechanical properties :
#
#
# Convention : Reuss Voigt Hill
#
# Bulk Modulus (GPa) = 33.24948 49.88825 41.56886
# Shear Modulus (GPa) = 3.08096 21.30850 12.19473
#
# Velocity S-wave (km/s) = 1.22128 3.21180 2.42973
# Velocity P-wave (km/s) = 4.25265 6.15675 5.29106
#
# Compressibility (1/GPa) = 0.03007566
#
# Stress axis : x y z
#
# Youngs Moduli (GPa) = 55.68088 83.04234 52.70694
#
# Poissons Ratio (x) = 0.47190 -0.11833
# Poissons Ratio (y) = 0.31641 0.31687
# Poissons Ratio (z) = -0.12501 0.49924
#
# Static dielectric constant tensor:
#      x y z
#    x 1.732880 0.000000 -0.024280 
#    y 0.000000 1.780890 0.000000 
#    z -0.024280 0.000000 1.741050 
# 
# From -- ./inp_files/62822.got.cif
#   From: 2010.05.17/outbox.cif.g08.bks.cpg/sg12_32_cif.got.tgz:62822.got - 2010.06.03 13:09:07.
