data_PCOD9217015
_publ_section_title
;
Structure prediction by ZEFSAII (Michael W. Deem and Ramdas Pophale) SiO2 
 PCOD9217015
Probable space group: C 2/M
;
_chemical_formula_sum "Si O2"
_cell_formula_units_Z 32
_cell_length_a 11.925906
_cell_length_b 18.802226
_cell_length_c 14.216315
_cell_angle_alpha 90.000000
_cell_angle_beta 151.712390
_cell_angle_gamma 90.000000
_cell_volume 1510.679650
_symmetry_space_group_name_H-M "C 2/M"
_symmetry_group_IT_number 12
_symmetry_cell_setting 'monoclinic'
loop_
_space_group_symop_operation_xyz
x,y,z
-x,y,-z
-x,-y,-z
x,-y,z
1/2+x,1/2+y,z
1/2-x,1/2+y,-z
1/2-x,1/2-y,-z
1/2+x,1/2-y,z
loop_
_atom_site_type_symbol
_atom_site_label
_atom_site_fract_x
_atom_site_fract_y
_atom_site_fract_z
Si Si1 0.215482 0.343824 0.303193
Si Si2 0.585752 0.500000 0.954495
Si Si3 0.402790 0.873901 0.239598
Si Si4 0.000000 0.234985 0.000000
Si Si5 0.226113 0.500000 0.319791
Si Si6 0.156356 0.500000 0.495294
O O1 0.500000 0.335995 0.500000
O O2 0.142555 0.424328 0.219160
O O3 0.118321 0.341612 0.338449
O O4 0.076392 0.285352 0.141900
O O5 0.500000 0.500000 0.000000
O O6 0.743072 0.429135 0.060353
O O7 0.212193 0.500000 0.423950
O O8 0.224452 0.814532 0.143307
O O9 0.507269 0.927473 0.395085
O O10 0.500000 0.500000 0.500000
O O11 0.377770 0.500000 0.726292
#
# Coordination Sequence:
#
# PCOD9217015 Si02
#       6
#     8   4   8   4   4   4
#     4  10  23  41  64  90 129 172 218 264 321 382
#     4  11  22  43  69 100 126 163 220 275 327 379
#     4  10  23  42  61  99 130 163 223 263 317 395
#     4  12  24  40  62  94 136 174 212 268 314 384
#     4   8  17  39  62  93 121 156 217 255 311 386
#     4   9  21  39  70  91 130 171 204 276 329 367
#
# _framework density 21.18252
#
# number of rings (size 3 to 8) (size 9 to 14) (size 15 to 20)
#    0.000    2.000    1.250    1.500    0.000   11.500 
#    0.000    0.000    0.000    0.000    0.000    0.000 
#    0.000    0.000    0.000    0.000    0.000    0.000 
#
# Total GULP energy -89232.302273 kJ/mol
# GULP energy per Si atom -5577.018892 kJ/mol
# Density = 2.113431 g / cm^3
# Si number density = 21.182520 Si / 1000 Ang^3
#
#
#
# Elastic Constant Matrix: (Units=GPa)
#
#
# Indices 1 2 3 4 5 6 
#
# 1 90.5061 48.4375 60.2506 -0.0015 19.8508 -0.0004
# 2 48.4375 127.1796 45.6267 -0.0003 -2.9336 0.0000
# 3 60.2506 45.6267 130.4108 -0.0020 -3.3169 -0.0004
# 4 -0.0015 -0.0003 -0.0020 259.2485 -0.0026 95.5084
# 5 19.8508 -2.9336 -3.3169 -0.0026 50.7818 -0.0007
# 6 -0.0004 0.0000 -0.0004 95.5084 -0.0007 35.9152
#
#
#
# Elastic Compliance Matrix: (Units=1/GPa)
#
#
# Indices 1 2 3 4 5 6 
#
# 1 0.021485 -0.005432 -0.008261 -0.000001 -0.009252 0.000003
# 2 -0.005432 0.010370 -0.001051 0.000000 0.002654 0.000000
# 3 -0.008261 -0.001051 0.011953 0.000002 0.003949 -0.000005
# 4 -0.000001 0.000000 0.000002 0.189914 0.000004 -0.505033
# 5 -0.009252 0.002654 0.003949 0.000004 0.023720 -0.000009
# 6 0.000003 0.000000 -0.000005 -0.505033 -0.000009 1.370865
#
#
# Mechanical properties :
#
#
# Convention : Reuss Voigt Hill
#
# Bulk Modulus (GPa) = 69.83504 72.96956 71.40230
# Shear Modulus (GPa) = 3.00740 82.10790 42.55765
#
# Velocity S-wave (km/s) = 1.19283 6.23268 4.48715
# Velocity P-wave (km/s) = 5.91075 9.29074 7.78636
#
# Compressibility (1/GPa) = 0.01431946
#
# Stress axis : x y z
#
# Youngs Moduli (GPa) = 46.54439 96.43084 83.66304
#
# Poissons Ratio (x) = 0.52386 0.69112
# Poissons Ratio (y) = 0.25285 0.08792
# Poissons Ratio (z) = 0.38449 0.10133
#
# Static dielectric constant tensor:
#      x y z
#    x 1.809050 0.000000 0.056260 
#    y 0.000000 1.804890 0.000000 
#    z 0.056260 0.000000 1.767860 
# 
# From -- ./inp_files/271298.got.cif
#   From: 2010.05.17/outbox.cif.g08.bks.cpg/sg12_136_cif.got.tgz:271298.got - 2010.06.03 13:09:07.
