data_PCOD9217540
_publ_section_title
;
Structure prediction by ZEFSAII (Michael W. Deem and Ramdas Pophale) SiO2 
 PCOD9217540
Probable space group: C 2/M
;
_chemical_formula_sum "Si O2"
_cell_formula_units_Z 48
_cell_length_a 11.091859
_cell_length_b 14.141240
_cell_length_c 18.983756
_cell_angle_alpha 90.000000
_cell_angle_beta 133.694329
_cell_angle_gamma 90.000000
_cell_volume 2152.948355
_symmetry_space_group_name_H-M "C 2/M"
_symmetry_group_IT_number 12
_symmetry_cell_setting 'monoclinic'
loop_
_space_group_symop_operation_xyz
x,y,z
-x,y,-z
-x,-y,-z
x,-y,z
1/2+x,1/2+y,z
1/2-x,1/2+y,-z
1/2-x,1/2-y,-z
1/2+x,1/2-y,z
loop_
_atom_site_type_symbol
_atom_site_label
_atom_site_fract_x
_atom_site_fract_y
_atom_site_fract_z
Si Si1 0.041019 0.611834 0.437613
Si Si2 0.070661 0.261187 0.716495
Si Si3 0.487706 0.895391 0.192482
Si Si4 0.384360 0.396706 0.022232
Si Si5 0.577431 0.386866 0.452544
Si Si6 0.929265 0.712807 0.896042
O O1 0.028540 0.500000 0.432412
O O2 0.224847 0.635434 0.480322
O O3 0.000000 0.645074 0.500000
O O4 0.906091 0.657567 0.332322
O O5 0.962083 0.313803 0.732417
O O6 0.242201 0.247200 0.825691
O O7 0.007558 0.173226 0.644922
O O8 0.588456 0.874758 0.163130
O O9 0.512738 0.000000 0.233095
O O10 0.301252 0.890278 0.084039
O O11 0.399733 0.500000 0.065503
O O12 0.452520 0.299636 0.084752
O O13 0.500000 0.400854 0.000000
O O14 0.500000 0.366246 0.500000
O O15 0.557157 0.500000 0.434461
O O16 0.000000 0.685296 0.000000
#
# Coordination Sequence:
#
# PCOD9217540 Si02
#       6
#     8   8   8   8   8   8
#     4  10  23  43  67  99 136 174 228 287 343 411
#     4  12  24  39  70  97 129 176 227 271 338 411
#     4  11  24  41  64  92 130 178 226 277 337 401
#     4   9  17  36  60  84 120 167 216 266 320 377
#     4  10  24  46  69  99 139 180 225 285 352 415
#     4  11  24  41  62  95 137 175 225 280 330 404
#
# _framework density 22.295006999999998
#
# number of rings (size 3 to 8) (size 9 to 14) (size 15 to 20)
#    0.000    1.500    3.333    2.000    4.667    1.667 
#    0.000    0.833    0.000    0.000    0.000    0.000 
#    0.000    0.000    0.000    0.000    0.000    0.000 
#
# Total GULP energy -133691.014257 kJ/mol
# GULP energy per Si atom -5570.458927 kJ/mol
# Density = 2.224426 g / cm^3
# Si number density = 22.295007 Si / 1000 Ang^3
#
#
#
# Elastic Constant Matrix: (Units=GPa)
#
#
# Indices 1 2 3 4 5 6 
#
# 1 74.4858 18.7463 17.9160 0.0000 -15.7884 0.0000
# 2 18.7463 110.6057 18.2230 0.0000 -12.0445 0.0000
# 3 17.9160 18.2230 75.6180 0.0000 -23.9734 0.0000
# 4 0.0000 0.0000 0.0000 104.4920 0.0000 41.8795
# 5 -15.7884 -12.0445 -23.9734 0.0000 32.5866 0.0000
# 6 0.0000 0.0000 0.0000 41.8795 0.0000 53.8952
#
#
#
# Elastic Compliance Matrix: (Units=1/GPa)
#
#
# Indices 1 2 3 4 5 6 
#
# 1 0.015432 -0.001754 -0.001394 0.000000 0.005803 0.000000
# 2 -0.001754 0.009756 -0.001385 0.000000 0.001737 0.000000
# 3 -0.001394 -0.001385 0.017622 0.000000 0.011777 0.000000
# 4 0.000000 0.000000 0.000000 0.013899 0.000000 -0.010800
# 5 0.005803 0.001737 0.011777 0.000000 0.042806 0.000000
# 6 0.000000 0.000000 0.000000 -0.010800 0.000000 0.026947
#
#
# Mechanical properties :
#
#
# Convention : Reuss Voigt Hill
#
# Bulk Modulus (GPa) = 29.63395 41.16447 35.39921
# Shear Modulus (GPa) = 34.06597 51.91636 42.99116
#
# Velocity S-wave (km/s) = 3.91316 4.83080 4.39599
# Velocity P-wave (km/s) = 5.80841 7.04409 6.45588
#
# Compressibility (1/GPa) = 0.03374508
#
# Stress axis : x y z
#
# Youngs Moduli (GPa) = 64.79972 102.50393 56.74725
#
# Poissons Ratio (x) = 0.17979 0.07909
# Poissons Ratio (y) = 0.11366 0.07857
# Poissons Ratio (z) = 0.09032 0.14193
#
# Static dielectric constant tensor:
#      x y z
#    x 1.810540 0.000000 0.096340 
#    y 0.000000 1.920920 0.000000 
#    z 0.096340 0.000000 1.874460 
# 
# From -- ./inp_files/305691.got.cif
#   From: 2010.05.17/outbox.cif.g08.bks.cpg/sg12_153_cif.got.tgz:305691.got - 2010.06.03 13:09:07.
