data_PCOD9217567
_publ_section_title
;
Structure prediction by ZEFSAII (Michael W. Deem and Ramdas Pophale) SiO2 
 PCOD9217567
Probable space group: C 2/M
;
_chemical_formula_sum "Si O2"
_cell_formula_units_Z 54
_cell_length_a 15.079141
_cell_length_b 24.993414
_cell_length_c 16.678780
_cell_angle_alpha 90.000000
_cell_angle_beta 154.726758
_cell_angle_gamma 90.000000
_cell_volume 2683.668273
_symmetry_space_group_name_H-M "C 2/M"
_symmetry_group_IT_number 12
_symmetry_cell_setting 'monoclinic'
loop_
_space_group_symop_operation_xyz
x,y,z
-x,y,-z
-x,-y,-z
x,-y,z
1/2+x,1/2+y,z
1/2-x,1/2+y,-z
1/2-x,1/2-y,-z
1/2+x,1/2-y,z
loop_
_atom_site_type_symbol
_atom_site_label
_atom_site_fract_x
_atom_site_fract_y
_atom_site_fract_z
Si Si1 0.781723 0.129721 0.026333
Si Si2 0.237557 0.182734 0.163291
Si Si3 0.276863 0.196205 0.863181
Si Si4 0.000000 0.610632 0.500000
Si Si5 0.895200 0.561176 0.713009
Si Si6 0.688537 0.561528 0.370785
Si Si7 0.500000 0.500000 0.500000
Si Si8 0.267250 0.094775 0.770560
O O1 0.719381 0.172990 0.043424
O O2 0.010459 0.106151 0.224772
O O3 0.757478 0.156431 0.920090
O O4 0.634486 0.077499 0.908667
O O5 0.310648 0.244365 0.215247
O O6 0.373436 0.148407 0.335664
O O7 0.000000 0.182372 0.000000
O O8 0.170938 0.147672 0.729424
O O9 0.500000 0.198565 0.000000
O O10 0.155004 0.574952 0.573621
O O11 0.849345 0.500000 0.705233
O O12 0.806295 0.565594 0.551995
O O13 0.805450 0.599812 0.707093
O O14 0.613359 0.500000 0.301639
O O15 0.608700 0.546313 0.646744
O O16 0.500000 0.084500 0.000000
#
# Coordination Sequence:
#
# PCOD9217567 Si02
#       8
#     8   8   8   4   8   8   2   8
#     4  12  22  44  69  97 130 173 222 268 334 393
#     4  11  24  45  70  97 128 172 224 280 335 380
#     4  10  23  43  69  95 135 178 220 270 322 391
#     4  12  23  47  68  96 129 171 220 280 340 396
#     4  11  23  40  61  92 134 172 214 266 322 391
#     4  11  26  43  66 100 131 171 219 276 335 401
#     4  12  26  34  64  94 134 174 218 260 310 392
#     4  11  23  41  61  93 133 179 216 261 322 384
#
# _framework density 20.121711999999999
#
# number of rings (size 3 to 8) (size 9 to 14) (size 15 to 20)
#    0.000    0.889    6.667    1.333    2.074    0.593 
#    0.000    1.481    0.000    0.000    0.000    0.000 
#    0.000    0.000    0.000    0.000    0.000    0.000 
#
# Total GULP energy -150474.135413 kJ/mol
# GULP energy per Si atom -5573.116126 kJ/mol
# Density = 2.007591 g / cm^3
# Si number density = 20.121712 Si / 1000 Ang^3
#
#
#
# Elastic Constant Matrix: (Units=GPa)
#
#
# Indices 1 2 3 4 5 6 
#
# 1 111.4170 19.6432 31.4036 0.0008 -34.9897 0.0000
# 2 19.6432 93.5666 19.1977 0.0001 -17.2765 0.0002
# 3 31.4036 19.1977 51.5703 0.0014 -4.9465 0.0013
# 4 0.0008 0.0001 0.0014 10.0738 0.0010 5.6022
# 5 -34.9897 -17.2765 -4.9465 0.0010 32.2777 0.0001
# 6 0.0000 0.0002 0.0013 5.6022 0.0001 21.8298
#
#
#
# Elastic Compliance Matrix: (Units=1/GPa)
#
#
# Indices 1 2 3 4 5 6 
#
# 1 0.016831 0.001614 -0.009151 -0.000002 0.017706 0.000001
# 2 0.001614 0.012824 -0.005004 0.000000 0.007846 0.000000
# 3 -0.009151 -0.005004 0.026000 -0.000001 -0.008614 -0.000001
# 4 -0.000002 0.000000 -0.000001 0.115792 -0.000006 -0.029716
# 5 0.017706 0.007846 -0.008614 -0.000006 0.053055 0.000002
# 6 0.000001 0.000000 -0.000001 -0.029716 0.000002 0.053435
#
#
# Mechanical properties :
#
#
# Convention : Reuss Voigt Hill
#
# Bulk Modulus (GPa) = 32.71000 44.11588 38.41294
# Shear Modulus (GPa) = 15.96368 25.25689 20.61029
#
# Velocity S-wave (km/s) = 2.81971 3.54673 3.20391
# Velocity P-wave (km/s) = 5.18579 6.22451 5.72874
#
# Compressibility (1/GPa) = 0.03057169
#
# Stress axis : x y z
#
# Youngs Moduli (GPa) = 59.41548 77.97687 38.46123
#
# Poissons Ratio (x) = -0.12582 0.35197
# Poissons Ratio (y) = -0.09587 0.19246
# Poissons Ratio (z) = 0.54373 0.39019
#
# Static dielectric constant tensor:
#      x y z
#    x 1.658540 0.000000 -0.007810 
#    y 0.000000 1.708640 0.000000 
#    z -0.007810 0.000000 1.688080 
# 
# From -- ./inp_files/219174.got.cif
#   From: 2010.05.17/outbox.cif.g08.bks.cpg/sg12_110_cif.got.tgz:219174.got - 2010.06.03 13:09:07.
