data_PCOD9217300
_publ_section_title
;
Structure prediction by ZEFSAII (Michael W. Deem and Ramdas Pophale) SiO2 
 PCOD9217300
Probable space group: C 2/M
;
_chemical_formula_sum "Si O2"
_cell_formula_units_Z 64
_cell_length_a 29.269277
_cell_length_b 8.478761
_cell_length_c 18.496103
_cell_angle_alpha 90.000000
_cell_angle_beta 43.297135
_cell_angle_gamma 90.000000
_cell_volume 3147.825727
_symmetry_space_group_name_H-M "C 2/M"
_symmetry_group_IT_number 12
_symmetry_cell_setting 'monoclinic'
loop_
_space_group_symop_operation_xyz
x,y,z
-x,y,-z
-x,-y,-z
x,-y,z
1/2+x,1/2+y,z
1/2-x,1/2+y,-z
1/2-x,1/2-y,-z
1/2+x,1/2-y,z
loop_
_atom_site_type_symbol
_atom_site_label
_atom_site_fract_x
_atom_site_fract_y
_atom_site_fract_z
Si Si1 0.317441 0.312623 0.957905
Si Si2 0.963062 0.811652 0.756287
Si Si3 0.074568 0.311621 0.723471
Si Si4 0.200200 0.813662 0.497029
Si Si5 0.315162 0.812477 0.122260
Si Si6 0.573734 0.807826 0.890536
Si Si7 0.039070 0.310488 0.528533
Si Si8 0.692695 0.812879 0.348704
O O1 0.315266 0.500000 0.954771
O O2 0.386258 0.258068 0.841171
O O3 0.250000 0.250000 0.000000
O O4 0.322579 0.264606 0.035674
O O5 0.001314 0.730761 0.779158
O O6 0.002726 0.767035 0.638301
O O7 0.964852 0.000000 0.764501
O O8 0.084814 0.500000 0.706614
O O9 0.126679 0.226888 0.610716
O O10 0.085618 0.260964 0.793658
O O11 0.250000 0.750000 0.500000
O O12 0.213431 0.726800 0.406622
O O13 0.208374 0.000000 0.477476
O O14 0.370052 0.755483 0.117560
O O15 0.242660 0.773369 0.237499
O O16 0.323015 0.000000 0.105515
O O17 0.574498 0.000000 0.889812
O O18 0.500000 0.757762 0.000000
O O19 0.039024 0.500000 0.540555
O O20 0.115827 0.260786 0.431775
O O21 0.000000 0.276450 0.500000
O O22 0.696102 0.000000 0.331746
#
# Coordination Sequence:
#
# PCOD9217300 Si02
#       8
#     8   8   8   8   8   8   8   8
#     4  11  26  46  67  95 128 168 218 272 330 387
#     4  11  24  42  65  96 130 165 212 269 325 385
#     4  11  21  37  63  93 126 166 210 259 318 383
#     4  12  24  39  60  89 127 170 216 264 317 379
#     4  11  23  41  66  96 130 171 214 264 325 385
#     4   9  19  36  60  90 122 161 212 259 306 371
#     4  10  23  42  66  95 125 166 215 262 321 390
#     4  11  23  41  64  94 132 171 213 265 323 386
#
# _framework density 20.331492999999998
#
# number of rings (size 3 to 8) (size 9 to 14) (size 15 to 20)
#    0.000    1.250    1.250    4.500    1.750    4.750 
#    0.000    1.875    0.000    4.500    0.000    0.000 
#    0.000    0.000    0.000    0.000    0.000    0.000 
#
# Total GULP energy -178999.291820 kJ/mol
# GULP energy per Si atom -5593.727869 kJ/mol
# Density = 2.028522 g / cm^3
# Si number density = 20.331493 Si / 1000 Ang^3
#
#
#
# Elastic Constant Matrix: (Units=GPa)
#
#
# Indices 1 2 3 4 5 6 
#
# 1 111.5072 15.9454 28.4289 -0.0027 -17.6603 0.0029
# 2 15.9454 18.8296 -0.6631 0.0167 -7.3603 -0.0086
# 3 28.4289 -0.6631 87.2829 0.0075 -15.6203 -0.0034
# 4 -0.0027 0.0167 0.0075 27.0039 -0.0090 2.3189
# 5 -17.6603 -7.3603 -15.6203 -0.0090 35.2887 0.0054
# 6 0.0029 -0.0086 -0.0034 2.3189 0.0054 29.3640
#
#
#
# Elastic Compliance Matrix: (Units=1/GPa)
#
#
# Indices 1 2 3 4 5 6 
#
# 1 0.011482 -0.008907 -0.003379 0.000009 0.002393 -0.000005
# 2 -0.008907 0.065379 0.005474 -0.000041 0.011602 0.000022
# 3 -0.003379 0.005474 0.013576 -0.000006 0.005460 0.000003
# 4 0.000009 -0.000041 -0.000006 0.037285 0.000003 -0.002944
# 5 0.002393 0.011602 0.005460 0.000003 0.034372 -0.000003
# 6 -0.000005 0.000022 0.000003 -0.002944 -0.000003 0.034288
#
#
# Mechanical properties :
#
#
# Convention : Reuss Voigt Hill
#
# Bulk Modulus (GPa) = 13.01873 33.89357 23.45615
# Shear Modulus (GPa) = 21.22146 29.92523 25.57335
#
# Velocity S-wave (km/s) = 3.23425 3.84065 3.55042
# Velocity P-wave (km/s) = 4.51268 6.03110 5.32628
#
# Compressibility (1/GPa) = 0.07681243
#
# Stress axis : x y z
#
# Youngs Moduli (GPa) = 87.09078 15.29551 73.65713
#
# Poissons Ratio (x) = 0.13624 0.24891
# Poissons Ratio (y) = 0.77574 -0.40321
# Poissons Ratio (z) = 0.29431 -0.08373
#
# Static dielectric constant tensor:
#      x y z
#    x 1.716900 0.000000 -0.022370 
#    y 0.000000 1.699970 0.000010 
#    z -0.022370 0.000010 1.713570 
# 
# From -- ./inp_files/295572.got.cif
#   From: 2010.05.17/outbox.cif.g08.bks.cpg/sg12_148_cif.got.tgz:295572.got - 2010.06.03 13:09:07.
