data_PCOD9217380
_publ_section_title
;
Structure prediction by ZEFSAII (Michael W. Deem and Ramdas Pophale) SiO2 
 PCOD9217380
Probable space group: C 2/M
;
_chemical_formula_sum "Si O2"
_cell_formula_units_Z 52
_cell_length_a 23.004450
_cell_length_b 21.237870
_cell_length_c 7.478624
_cell_angle_alpha 90.000000
_cell_angle_beta 44.238880
_cell_angle_gamma 90.000000
_cell_volume 2549.077256
_symmetry_space_group_name_H-M "C 2/M"
_symmetry_group_IT_number 12
_symmetry_cell_setting 'monoclinic'
loop_
_space_group_symop_operation_xyz
x,y,z
-x,y,-z
-x,-y,-z
x,-y,z
1/2+x,1/2+y,z
1/2-x,1/2+y,-z
1/2-x,1/2-y,-z
1/2+x,1/2-y,z
loop_
_atom_site_type_symbol
_atom_site_label
_atom_site_fract_x
_atom_site_fract_y
_atom_site_fract_z
Si Si1 0.818291 0.709494 0.746780
Si Si2 0.758070 0.369448 0.548596
Si Si3 0.595325 0.000000 0.233381
Si Si4 0.068894 0.871147 0.000716
Si Si5 0.079736 0.000000 0.196095
Si Si6 0.376208 0.136149 0.952924
Si Si7 0.729558 0.000000 0.260578
Si Si8 0.497519 0.756784 0.221678
O O1 0.779915 0.680523 0.653164
O O2 0.903930 0.743934 0.502641
O O3 0.750000 0.750000 0.000000
O O4 0.841084 0.655044 0.837257
O O5 0.660819 0.363897 0.717784
O O6 0.812392 0.354573 0.255643
O O7 0.774858 0.438065 0.602289
O O8 0.500000 0.000000 0.500000
O O9 0.658478 0.000000 0.264479
O O10 0.606663 0.937447 0.093155
O O11 0.045612 0.807957 0.161441
O O12 0.000000 0.876810 0.000000
O O13 0.070550 0.935414 0.106739
O O14 0.000000 0.000000 0.500000
O O15 0.177917 0.000000 0.036728
O O16 0.454760 0.181774 0.812178
O O17 0.500000 0.761069 0.000000
#
# Coordination Sequence:
#
# PCOD9217380 Si02
#       8
#     8   8   4   8   4   8   4   8
#     4  12  26  42  70 101 140 184 234 292 346 419
#     4  11  24  46  68 102 141 181 234 292 355 412
#     4  12  25  44  72 103 139 190 242 289 350 420
#     4  10  24  43  71  98 137 179 229 282 348 427
#     4  10  23  42  72  99 135 179 228 289 351 416
#     4  12  26  43  73 101 140 189 235 287 352 418
#     4  10  23  46  67 102 145 178 233 297 350 422
#     4  11  24  45  68 102 144 182 231 289 349 420
#
# _framework density 20.399539000000001
#
# number of rings (size 3 to 8) (size 9 to 14) (size 15 to 20)
#    0.000    0.923    3.077    3.000    4.308    6.154 
#    0.000    1.154    0.000    0.000    0.000    0.000 
#    0.000    0.000    0.000    0.000    0.000    0.000 
#
# Total GULP energy -145346.027964 kJ/mol
# GULP energy per Si atom -5590.231845 kJ/mol
# Density = 2.035311 g / cm^3
# Si number density = 20.399539 Si / 1000 Ang^3
#
#
#
# Elastic Constant Matrix: (Units=GPa)
#
#
# Indices 1 2 3 4 5 6 
#
# 1 101.6121 23.8297 50.2015 0.0000 -17.5263 0.0000
# 2 23.8297 122.7057 32.6345 0.0000 -12.7960 0.0000
# 3 50.2015 32.6345 172.4867 0.0000 -11.9462 0.0000
# 4 0.0000 0.0000 0.0000 32.3070 0.0000 -0.7231
# 5 -17.5263 -12.7960 -11.9462 0.0000 37.1967 0.0000
# 6 0.0000 0.0000 0.0000 -0.7231 0.0000 27.4106
#
#
#
# Elastic Compliance Matrix: (Units=1/GPa)
#
#
# Indices 1 2 3 4 5 6 
#
# 1 0.012400 -0.001121 -0.003088 0.000000 0.004465 0.000000
# 2 -0.001121 0.008914 -0.001211 0.000000 0.002149 0.000000
# 3 -0.003088 -0.001211 0.006950 0.000000 0.000361 0.000000
# 4 0.000000 0.000000 0.000000 0.030971 0.000000 0.000817
# 5 0.004465 0.002149 0.000361 0.000000 0.029843 0.000000
# 6 0.000000 0.000000 0.000000 0.000817 0.000000 0.036504
#
#
# Mechanical properties :
#
#
# Convention : Reuss Voigt Hill
#
# Bulk Modulus (GPa) = 57.39340 67.79290 62.59315
# Shear Modulus (GPa) = 35.15430 38.72543 36.93986
#
# Velocity S-wave (km/s) = 4.15575 4.36173 4.25999
# Velocity P-wave (km/s) = 7.15701 7.65970 7.41262
#
# Compressibility (1/GPa) = 0.01742361
#
# Stress axis : x y z
#
# Youngs Moduli (GPa) = 80.64597 112.18825 143.87834
#
# Poissons Ratio (x) = 0.12580 0.44423
# Poissons Ratio (y) = 0.09043 0.17428
# Poissons Ratio (z) = 0.24900 0.13589
#
# Static dielectric constant tensor:
#      x y z
#    x 1.726920 0.000000 -0.015680 
#    y 0.000000 1.690790 0.000000 
#    z -0.015680 0.000000 1.752790 
# 
# From -- ./inp_files/99040.got.cif
#   From: 2010.05.17/outbox.cif.g08.bks.cpg/sg12_50_cif.got.tgz:99040.got - 2010.06.03 13:09:07.
