data_PCOD9217089
_publ_section_title
;
Structure prediction by ZEFSAII (Michael W. Deem and Ramdas Pophale) SiO2 
 PCOD9217089
Probable space group: C 2/M
;
_chemical_formula_sum "Si O2"
_cell_formula_units_Z 56
_cell_length_a 12.329869
_cell_length_b 14.466580
_cell_length_c 16.868143
_cell_angle_alpha 90.000000
_cell_angle_beta 56.527157
_cell_angle_gamma 90.000000
_cell_volume 2509.772614
_symmetry_space_group_name_H-M "C 2/M"
_symmetry_group_IT_number 12
_symmetry_cell_setting 'monoclinic'
loop_
_space_group_symop_operation_xyz
x,y,z
-x,y,-z
-x,-y,-z
x,-y,z
1/2+x,1/2+y,z
1/2-x,1/2+y,-z
1/2-x,1/2-y,-z
1/2+x,1/2-y,z
loop_
_atom_site_type_symbol
_atom_site_label
_atom_site_fract_x
_atom_site_fract_y
_atom_site_fract_z
Si Si1 0.040339 0.237508 0.793491
Si Si2 0.191866 0.151264 0.050911
Si Si3 0.874038 0.320109 0.724976
Si Si4 0.615114 0.895832 0.889387
Si Si5 0.130219 0.102734 0.911864
Si Si6 0.360559 0.106714 0.440624
Si Si7 0.214127 0.750575 0.395685
O O1 0.961459 0.157001 0.867562
O O2 0.928526 0.280419 0.783941
O O3 0.092399 0.316986 0.832517
O O4 0.148850 0.207907 0.687627
O O5 0.261823 0.119462 0.102871
O O6 0.250000 0.250000 0.000000
O O7 0.211189 0.095609 0.962209
O O8 0.730616 0.356236 0.807082
O O9 0.862571 0.247727 0.656541
O O10 0.990263 0.388350 0.650805
O O11 0.617179 0.000000 0.854226
O O12 0.500000 0.890123 0.000000
O O13 0.094163 0.000000 0.900826
O O14 0.000000 0.152513 0.000000
O O15 0.259102 0.153649 0.418555
O O16 0.349958 0.178399 0.518170
O O17 0.329297 0.000000 0.471038
#
# Coordination Sequence:
#
# PCOD9217089 Si02
#       7
#     8   8   8   8   8   8   8
#     4  11  23  38  61  91 127 168 213 259 320 378
#     4  12  22  37  60  85 123 171 213 253 303 380
#     4  11  21  40  66  93 127 165 218 263 321 387
#     4  11  23  39  60  88 126 168 217 269 311 364
#     4  11  24  38  57  89 131 169 211 262 311 374
#     4  10  23  44  70  99 127 164 217 271 329 393
#     4  10  23  41  67  96 132 165 209 275 331 387
#
# _framework density 22.312778999999999
#
# number of rings (size 3 to 8) (size 9 to 14) (size 15 to 20)
#    0.000    1.143    2.857    3.000    2.000    5.714 
#    0.000    1.429    0.000   15.429    0.000    0.000 
#    0.000    0.000    0.000    0.000    0.000    0.000 
#
# Total GULP energy -156040.006724 kJ/mol
# GULP energy per Si atom -5572.857383 kJ/mol
# Density = 2.226199 g / cm^3
# Si number density = 22.312779 Si / 1000 Ang^3
#
#
#
# Elastic Constant Matrix: (Units=GPa)
#
#
# Indices 1 2 3 4 5 6 
#
# 1 76.8573 25.1387 28.1791 0.0000 9.6349 0.0000
# 2 25.1387 97.9710 33.6549 0.0000 -5.2203 0.0000
# 3 28.1791 33.6549 118.4819 0.0000 -15.1516 0.0000
# 4 0.0000 0.0000 0.0000 12.2600 0.0000 -0.4455
# 5 9.6349 -5.2203 -15.1516 0.0000 48.0656 0.0000
# 6 0.0000 0.0000 0.0000 -0.4455 0.0000 20.8252
#
#
#
# Elastic Compliance Matrix: (Units=1/GPa)
#
#
# Indices 1 2 3 4 5 6 
#
# 1 0.015890 -0.003127 -0.003482 0.000000 -0.004623 0.000000
# 2 -0.003127 0.011929 -0.002499 0.000000 0.001135 0.000000
# 3 -0.003482 -0.002499 0.010454 0.000000 0.003722 0.000000
# 4 0.000000 0.000000 0.000000 0.081630 0.000000 0.001746
# 5 -0.004623 0.001135 0.003722 0.000000 0.023028 0.000000
# 6 0.000000 0.000000 0.000000 0.001746 0.000000 0.048056
#
#
# Mechanical properties :
#
#
# Convention : Reuss Voigt Hill
#
# Bulk Modulus (GPa) = 49.86241 51.91729 50.88985
# Shear Modulus (GPa) = 23.15997 29.98598 26.57298
#
# Velocity S-wave (km/s) = 3.22525 3.66989 3.45473
# Velocity P-wave (km/s) = 6.02206 6.42464 6.22660
#
# Compressibility (1/GPa) = 0.02005519
#
# Stress axis : x y z
#
# Youngs Moduli (GPa) = 62.93178 83.83169 95.65546
#
# Poissons Ratio (x) = 0.26218 0.33307
# Poissons Ratio (y) = 0.19682 0.23908
# Poissons Ratio (z) = 0.21913 0.20953
#
# Static dielectric constant tensor:
#      x y z
#    x 2.046550 0.000000 0.025540 
#    y 0.000000 1.910330 0.000000 
#    z 0.025540 0.000000 1.857080 
# 
# From -- ./inp_files/270185.got.cif
#   From: 2010.05.17/outbox.cif.g08.bks.cpg/sg12_136_cif.got.tgz:270185.got - 2010.06.03 13:09:07.
