data_PCOD9217478
_publ_section_title
;
Structure prediction by ZEFSAII (Michael W. Deem and Ramdas Pophale) SiO2 
 PCOD9217478
Probable space group: C 2/M
;
_chemical_formula_sum "Si O2"
_cell_formula_units_Z 40
_cell_length_a 20.532395
_cell_length_b 22.158559
_cell_length_c 8.479957
_cell_angle_alpha 90.000000
_cell_angle_beta 29.180309
_cell_angle_gamma 90.000000
_cell_volume 1881.059419
_symmetry_space_group_name_H-M "C 2/M"
_symmetry_group_IT_number 12
_symmetry_cell_setting 'monoclinic'
loop_
_space_group_symop_operation_xyz
x,y,z
-x,y,-z
-x,-y,-z
x,-y,z
1/2+x,1/2+y,z
1/2-x,1/2+y,-z
1/2-x,1/2-y,-z
1/2+x,1/2-y,z
loop_
_atom_site_type_symbol
_atom_site_label
_atom_site_fract_x
_atom_site_fract_y
_atom_site_fract_z
Si Si1 0.991928 0.116891 0.349110
Si Si2 0.783740 0.353813 0.219723
Si Si3 0.702636 0.569935 0.690742
Si Si4 0.628524 0.255243 0.133423
Si Si5 0.972633 0.431757 0.248315
O O1 0.079355 0.178500 0.183896
O O2 0.000000 0.084670 0.500000
O O3 0.839738 0.133466 0.634275
O O4 0.058221 0.079128 0.070178
O O5 0.732071 0.381135 0.493898
O O6 0.825698 0.284364 0.112933
O O7 0.920678 0.389405 0.895338
O O8 0.720762 0.500000 0.598553
O O9 0.815144 0.580958 0.588159
O O10 0.500000 0.229923 0.500000
O O11 0.750000 0.250000 0.000000
O O12 0.996910 0.500000 0.247570
O O13 0.000000 0.428286 0.000000
#
# Coordination Sequence:
#
# PCOD9217478 Si02
#       5
#     8   8   8   8   8
#     4  11  24  41  62  94 129 168 213 260 320 382
#     4  11  21  38  68  93 124 168 210 261 319 372
#     4  10  23  43  66  94 129 166 214 267 313 374
#     4  11  23  43  64  92 131 168 208 263 317 379
#     4   8  17  35  59  89 122 159 205 257 309 364
#
# _framework density 21.264614000000002
#
# number of rings (size 3 to 8) (size 9 to 14) (size 15 to 20)
#    0.000    1.800    4.000    2.400    2.800    3.600 
#    0.000    4.000    0.000    4.800    0.000    0.000 
#    0.000    0.000    0.000    0.000    0.000    0.000 
#
# Total GULP energy -111503.936807 kJ/mol
# GULP energy per Si atom -5575.196840 kJ/mol
# Density = 2.121621 g / cm^3
# Si number density = 21.264614 Si / 1000 Ang^3
#
#
#
# Elastic Constant Matrix: (Units=GPa)
#
#
# Indices 1 2 3 4 5 6 
#
# 1 67.5507 34.6941 17.0650 0.0002 -21.4961 -0.0003
# 2 34.6941 69.1926 16.4704 0.0002 3.6993 0.0000
# 3 17.0650 16.4704 67.7856 0.0009 -3.2148 -0.0002
# 4 0.0002 0.0002 0.0009 29.5617 -0.0003 -13.0303
# 5 -21.4961 3.6993 -3.2148 -0.0003 46.0465 0.0002
# 6 -0.0003 0.0000 -0.0002 -13.0303 0.0002 -0.4481
#
#
#
# Elastic Compliance Matrix: (Units=1/GPa)
#
#
# Indices 1 2 3 4 5 6 
#
# 1 0.026631 -0.013394 -0.002819 0.000000 0.013312 -0.000001
# 2 -0.013394 0.022180 -0.002406 0.000000 -0.008203 0.000001
# 3 -0.002819 -0.002406 0.016047 0.000000 -0.000002 0.000001
# 4 0.000000 0.000000 0.000000 0.002448 0.000000 -0.071191
# 5 0.013312 -0.008203 -0.000002 0.000000 0.028590 0.000000
# 6 -0.000001 0.000001 0.000001 -0.071191 0.000000 -0.161509
#
#
# Mechanical properties :
#
#
# Convention : Reuss Voigt Hill
#
# Bulk Modulus (GPa) = 36.20618 37.88754 37.04686
# Shear Modulus (GPa) = -260.82658 24.11864 -118.35397
#
# Velocity S-wave (km/s) = -11.08710 3.37146 -7.46850
# Velocity P-wave (km/s) = 12.11755 5.74557 7.54399
#
# Compressibility (1/GPa) = 0.02761960
#
# Stress axis : x y z
#
# Youngs Moduli (GPa) = 37.55038 45.08647 62.31868
#
# Poissons Ratio (x) = 0.60388 0.17565
# Poissons Ratio (y) = 0.50294 0.14995
# Poissons Ratio (z) = 0.10584 0.10849
#
# Static dielectric constant tensor:
#      x y z
#    x 1.776540 0.000000 0.018020 
#    y 0.000000 1.776650 0.000000 
#    z 0.018020 0.000000 1.800180 
# 
# From -- ./inp_files/90541.got.cif
#   From: 2010.05.17/outbox.cif.g08.bks.cpg/sg12_46_cif.got.tgz:90541.got - 2010.06.03 13:09:07.
