data_PCOD9217692
_publ_section_title
;
Structure prediction by ZEFSAII (Michael W. Deem and Ramdas Pophale) SiO2 
 PCOD9217692
Probable space group: C 2/M
;
_chemical_formula_sum "Si O2"
_cell_formula_units_Z 50
_cell_length_a 27.342238
_cell_length_b 8.649245
_cell_length_c 12.445327
_cell_angle_alpha 90.000000
_cell_angle_beta 57.272480
_cell_angle_gamma 90.000000
_cell_volume 2475.963665
_symmetry_space_group_name_H-M "C 2/M"
_symmetry_group_IT_number 12
_symmetry_cell_setting 'monoclinic'
loop_
_space_group_symop_operation_xyz
x,y,z
-x,y,-z
-x,-y,-z
x,-y,z
1/2+x,1/2+y,z
1/2-x,1/2+y,-z
1/2-x,1/2-y,-z
1/2+x,1/2-y,z
loop_
_atom_site_type_symbol
_atom_site_label
_atom_site_fract_x
_atom_site_fract_y
_atom_site_fract_z
Si Si1 0.000000 0.500000 0.500000
Si Si2 0.810705 0.815156 0.882701
Si Si3 0.337429 0.182534 0.194039
Si Si4 0.585477 0.314895 0.074437
Si Si5 0.972420 0.670649 0.315473
Si Si6 0.286131 0.183013 0.689906
Si Si7 0.148116 0.181237 0.589199
O O1 0.010557 0.632332 0.581959
O O2 0.863487 0.778503 0.900018
O O3 0.820096 0.741646 0.754457
O O4 0.806043 0.000000 0.878771
O O5 0.750000 0.750000 0.000000
O O6 0.280981 0.270816 0.215283
O O7 0.341080 0.225961 0.314358
O O8 0.330256 0.000000 0.187235
O O9 0.393109 0.243440 0.063086
O O10 0.580615 0.500000 0.071201
O O11 0.526335 0.241791 0.187867
O O12 0.956936 0.500000 0.287422
O O13 0.916698 0.779039 0.372924
O O14 0.309008 0.264540 0.555752
O O15 0.292621 0.000000 0.671757
O O16 0.155594 0.000000 0.601467
#
# Coordination Sequence:
#
# PCOD9217692 Si02
#       7
#     2   8   8   8   8   8   8
#     4   8  24  44  70  94 140 164 222 268 322 384
#     4  11  23  39  63  97 133 173 219 271 332 396
#     4  12  25  44  68  97 131 175 225 277 336 400
#     4  11  24  42  66  99 137 176 221 276 335 395
#     4  10  23  44  68  99 129 175 218 268 329 388
#     4  12  25  42  66  96 135 176 224 279 337 398
#     4  12  26  45  68  96 133 175 224 276 333 402
#
# _framework density 20.194158000000002
#
# number of rings (size 3 to 8) (size 9 to 14) (size 15 to 20)
#    0.480    0.320    1.600    6.240    2.240    2.560 
#    0.000    4.000    0.000    0.000    0.000    0.000 
#    0.000    0.000    0.000    0.000    0.000    0.000 
#
# Total GULP energy -139591.821680 kJ/mol
# GULP energy per Si atom -5583.672867 kJ/mol
# Density = 2.014820 g / cm^3
# Si number density = 20.194158 Si / 1000 Ang^3
#
#
#
# Elastic Constant Matrix: (Units=GPa)
#
#
# Indices 1 2 3 4 5 6 
#
# 1 18.7589 -4.1242 10.5840 0.0000 -4.5878 0.0000
# 2 -4.1242 52.9272 -15.8231 0.0000 -4.6127 0.0000
# 3 10.5840 -15.8231 69.6675 0.0000 5.2139 0.0000
# 4 0.0000 0.0000 0.0000 32.7134 0.0000 1.3470
# 5 -4.5878 -4.6127 5.2139 0.0000 34.8970 0.0000
# 6 0.0000 0.0000 0.0000 1.3470 0.0000 32.6354
#
#
#
# Elastic Compliance Matrix: (Units=1/GPa)
#
#
# Indices 1 2 3 4 5 6 
#
# 1 0.061696 0.002840 -0.009469 0.000000 0.009901 0.000000
# 2 0.002840 0.020542 0.004048 0.000000 0.002484 0.000000
# 3 -0.009469 0.004048 0.016955 0.000000 -0.003243 0.000000
# 4 0.000000 0.000000 0.000000 0.030621 0.000000 -0.001264
# 5 0.009901 0.002484 -0.003243 0.000000 0.030770 0.000000
# 6 0.000000 0.000000 0.000000 -0.001264 0.000000 0.030694
#
#
# Mechanical properties :
#
#
# Convention : Reuss Voigt Hill
#
# Bulk Modulus (GPa) = 10.63488 13.62521 12.13005
# Shear Modulus (GPa) = 21.95073 30.09698 26.02385
#
# Velocity S-wave (km/s) = 3.30052 3.86473 3.59372
# Velocity P-wave (km/s) = 4.44998 5.16494 4.82073
#
# Compressibility (1/GPa) = 0.09403019
#
# Stress axis : x y z
#
# Youngs Moduli (GPa) = 16.20846 48.68108 58.98107
#
# Poissons Ratio (x) = -0.13823 0.55849
# Poissons Ratio (y) = -0.04602 -0.23877
# Poissons Ratio (z) = 0.15348 -0.19707
#
# Static dielectric constant tensor:
#      x y z
#    x 1.720200 0.000000 0.001760 
#    y 0.000000 1.677160 0.000000 
#    z 0.001760 0.000000 1.698050 
# 
# From -- ./inp_files/180536.got.cif
#   From: 2010.05.17/outbox.cif.g08.bks.cpg/sg12_91_cif.got.tgz:180536.got - 2010.06.03 13:09:07.
