data_PCOD9217967
_publ_section_title
;
Structure prediction by ZEFSAII (Michael W. Deem and Ramdas Pophale) SiO2 
 PCOD9217967
Probable space group: C 2/M
;
_chemical_formula_sum "Si O2"
_cell_formula_units_Z 48
_cell_length_a 13.227827
_cell_length_b 27.377580
_cell_length_c 8.158346
_cell_angle_alpha 90.000000
_cell_angle_beta 50.215319
_cell_angle_gamma 90.000000
_cell_volume 2270.408063
_symmetry_space_group_name_H-M "C 2/M"
_symmetry_group_IT_number 12
_symmetry_cell_setting 'monoclinic'
loop_
_space_group_symop_operation_xyz
x,y,z
-x,y,-z
-x,-y,-z
x,-y,z
1/2+x,1/2+y,z
1/2-x,1/2+y,-z
1/2-x,1/2-y,-z
1/2+x,1/2-y,z
loop_
_atom_site_type_symbol
_atom_site_label
_atom_site_fract_x
_atom_site_fract_y
_atom_site_fract_z
Si Si1 0.601043 0.556134 0.637130
Si Si2 0.381597 0.857626 0.999611
Si Si3 0.635855 0.694045 0.433341
Si Si4 0.671131 0.787072 0.201391
Si Si5 0.806227 0.943512 0.838167
Si Si6 0.356594 0.649887 0.224060
O O1 0.614472 0.500000 0.677430
O O2 0.658500 0.559671 0.393045
O O3 0.444482 0.567669 0.785814
O O4 0.669858 0.595630 0.680669
O O5 0.261876 0.831235 0.220869
O O6 0.312204 0.906568 0.004381
O O7 0.500000 0.868195 0.000000
O O8 0.424797 0.818667 0.815082
O O9 0.500000 0.672355 0.500000
O O10 0.632415 0.750664 0.386914
O O11 0.640857 0.684597 0.619628
O O12 0.761332 0.828223 0.188266
O O13 0.750000 0.750000 0.000000
O O14 0.773566 0.000000 0.906724
O O15 0.500000 0.650132 0.000000
#
# Coordination Sequence:
#
# PCOD9217967 Si02
#       6
#     8   8   8   8   8   8
#     4   9  18  34  63  97 128 162 205 258 318 375
#     4  11  23  41  64  93 126 164 214 262 314 381
#     4  11  23  42  65  89 123 166 213 264 319 376
#     4  10  24  40  56  85 124 165 210 259 315 375
#     4   9  17  35  63  94 128 166 207 253 309 384
#     4  12  22  36  63  94 129 164 208 265 323 373
#
# _framework density 21.141575
#
# number of rings (size 3 to 8) (size 9 to 14) (size 15 to 20)
#    0.000    1.667    1.667    5.500    0.000    7.333 
#    0.000    0.833    0.000    0.000    0.000    2.333 
#    0.000    0.000    0.000    0.000    0.000    0.000 
#
# Total GULP energy -134065.084280 kJ/mol
# GULP energy per Si atom -5586.045178 kJ/mol
# Density = 2.109346 g / cm^3
# Si number density = 21.141575 Si / 1000 Ang^3
#
#
#
# Elastic Constant Matrix: (Units=GPa)
#
#
# Indices 1 2 3 4 5 6 
#
# 1 81.5413 51.9749 3.6156 0.0000 7.1461 0.0000
# 2 51.9749 159.6401 25.9433 0.0000 8.5718 0.0000
# 3 3.6156 25.9433 43.4911 0.0000 10.0658 0.0000
# 4 0.0000 0.0000 0.0000 487.2149 0.0000 115.9145
# 5 7.1461 8.5718 10.0658 0.0000 29.8350 0.0000
# 6 0.0000 0.0000 0.0000 115.9145 0.0000 62.4926
#
#
#
# Elastic Compliance Matrix: (Units=1/GPa)
#
#
# Indices 1 2 3 4 5 6 
#
# 1 0.015884 -0.005433 0.002646 0.000000 -0.003137 0.000000
# 2 -0.005433 0.008807 -0.004900 0.000000 0.000424 0.000000
# 3 0.002646 -0.004900 0.027678 0.000000 -0.008564 0.000000
# 4 0.000000 0.000000 0.000000 0.003674 0.000000 -0.006814
# 5 -0.003137 0.000424 -0.008564 0.000000 0.037036 0.000000
# 6 0.000000 0.000000 0.000000 -0.006814 0.000000 0.028641
#
#
# Mechanical properties :
#
#
# Convention : Reuss Voigt Hill
#
# Bulk Modulus (GPa) = 27.02997 49.74890 38.38944
# Shear Modulus (GPa) = 33.46155 129.45110 81.45632
#
# Velocity S-wave (km/s) = 3.98268 7.83349 6.21391
# Velocity P-wave (km/s) = 5.82769 10.26647 8.34753
#
# Compressibility (1/GPa) = 0.03699597
#
# Stress axis : x y z
#
# Youngs Moduli (GPa) = 62.95474 113.55242 36.12954
#
# Poissons Ratio (x) = 0.61696 -0.09562
# Poissons Ratio (y) = 0.34205 0.17703
# Poissons Ratio (z) = -0.16661 0.55638
#
# Static dielectric constant tensor:
#      x y z
#    x 2.013950 0.000000 0.233070 
#    y 0.000000 1.790730 0.000000 
#    z 0.233070 0.000000 1.994770 
# 
# From -- ./inp_files/52460.got.cif
#   From: 2010.05.17/outbox.cif.g08.bks.cpg/sg12_27_cif.got.tgz:52460.got - 2010.06.03 13:09:07.
