data_PCOD9217803
_publ_section_title
;
Structure prediction by ZEFSAII (Michael W. Deem and Ramdas Pophale) SiO2 
 PCOD9217803
Probable space group: C 2/M
;
_chemical_formula_sum "Si O2"
_cell_formula_units_Z 56
_cell_length_a 12.429522
_cell_length_b 14.768862
_cell_length_c 15.486843
_cell_angle_alpha 90.000000
_cell_angle_beta 82.462394
_cell_angle_gamma 90.000000
_cell_volume 2818.352425
_symmetry_space_group_name_H-M "C 2/M"
_symmetry_group_IT_number 12
_symmetry_cell_setting 'monoclinic'
loop_
_space_group_symop_operation_xyz
x,y,z
-x,y,-z
-x,-y,-z
x,-y,z
1/2+x,1/2+y,z
1/2-x,1/2+y,-z
1/2-x,1/2-y,-z
1/2+x,1/2-y,z
loop_
_atom_site_type_symbol
_atom_site_label
_atom_site_fract_x
_atom_site_fract_y
_atom_site_fract_z
Si Si1 0.171152 0.751439 0.285438
Si Si2 0.952059 0.104055 0.600543
Si Si3 0.711033 0.899656 0.836827
Si Si4 0.779978 0.601319 0.960309
Si Si5 0.857095 0.899324 0.278817
Si Si6 0.980198 0.665154 0.832559
Si Si7 0.567895 0.342751 0.913116
O O1 0.132296 0.816682 0.366656
O O2 0.214503 0.821810 0.209145
O O3 0.266639 0.679289 0.293675
O O4 0.071054 0.699303 0.251449
O O5 0.000000 0.115145 0.500000
O O6 0.050282 0.111849 0.659056
O O7 0.909260 0.000000 0.611707
O O8 0.591485 0.888489 0.809536
O O9 0.755430 0.000000 0.814538
O O10 0.699112 0.890460 0.940849
O O11 0.735035 0.500000 0.949725
O O12 0.888047 0.611905 0.893757
O O13 0.688806 0.669990 0.937458
O O14 0.914506 0.893959 0.178917
O O15 0.808305 0.000000 0.293157
O O16 0.010787 0.750562 0.889677
O O17 0.500000 0.383383 0.000000
#
# Coordination Sequence:
#
# PCOD9217803 Si02
#       7
#     8   8   8   8   8   8   8
#     4  12  22  41  64  92 122 159 200 253 310 367
#     4  10  23  45  71  97 124 155 194 248 313 376
#     4  11  23  37  56  86 121 164 214 259 298 352
#     4  11  24  38  54  81 120 170 216 254 302 354
#     4  11  24  42  63  92 125 163 207 252 304 363
#     4  12  22  37  57  83 121 166 209 252 299 357
#     4  12  23  37  58  85 122 166 212 254 294 352
#
# _framework density 19.869765000000001
#
# number of rings (size 3 to 8) (size 9 to 14) (size 15 to 20)
#    0.000    0.714    4.286    3.429    0.000    5.143 
#    0.000    0.000    0.000    0.429    0.000    0.000 
#    0.000    0.000    0.000    0.000    0.000    0.000 
#
# Total GULP energy -156536.741543 kJ/mol
# GULP energy per Si atom -5590.597912 kJ/mol
# Density = 1.982454 g / cm^3
# Si number density = 19.869765 Si / 1000 Ang^3
#
#
#
# Elastic Constant Matrix: (Units=GPa)
#
#
# Indices 1 2 3 4 5 6 
#
# 1 42.2355 19.0458 19.3590 0.0000 7.0818 0.0000
# 2 19.0458 117.7605 33.6210 0.0000 -7.9964 0.0000
# 3 19.3590 33.6210 91.7216 0.0000 -11.0699 0.0000
# 4 0.0000 0.0000 0.0000 35.1453 0.0000 -1.0735
# 5 7.0818 -7.9964 -11.0699 0.0000 21.9532 0.0000
# 6 0.0000 0.0000 0.0000 -1.0735 0.0000 19.7635
#
#
#
# Elastic Compliance Matrix: (Units=1/GPa)
#
#
# Indices 1 2 3 4 5 6 
#
# 1 0.031210 -0.004099 -0.006900 0.000000 -0.015040 0.000000
# 2 -0.004099 0.010091 -0.002375 0.000000 0.003800 0.000000
# 3 -0.006900 -0.002375 0.014262 0.000000 0.008552 0.000000
# 4 0.000000 0.000000 0.000000 0.028501 0.000000 0.001548
# 5 -0.015040 0.003800 0.008552 0.000000 0.056100 0.000000
# 6 0.000000 0.000000 0.000000 0.001548 0.000000 0.050682
#
#
# Mechanical properties :
#
#
# Convention : Reuss Voigt Hill
#
# Bulk Modulus (GPa) = 34.70503 43.97435 39.33969
# Shear Modulus (GPa) = 22.00724 27.35184 24.67954
#
# Velocity S-wave (km/s) = 3.33163 3.71422 3.52812
# Velocity P-wave (km/s) = 5.68365 6.36971 6.03644
#
# Compressibility (1/GPa) = 0.02881427
#
# Stress axis : x y z
#
# Youngs Moduli (GPa) = 32.04133 99.09918 70.11828
#
# Poissons Ratio (x) = 0.40621 0.48381
# Poissons Ratio (y) = 0.13134 0.16654
# Poissons Ratio (z) = 0.22108 0.23537
#
# Static dielectric constant tensor:
#      x y z
#    x 1.702370 0.000000 -0.006810 
#    y 0.000000 1.764190 0.000000 
#    z -0.006810 0.000000 1.674240 
# 
# From -- ./inp_files/205006.got.cif
#   From: 2010.05.17/outbox.cif.g08.bks.cpg/sg12_103_cif.got.tgz:205006.got - 2010.06.03 13:09:07.
