data_PCOD9217461
_publ_section_title
;
Structure prediction by ZEFSAII (Michael W. Deem and Ramdas Pophale) SiO2 
 PCOD9217461
Probable space group: C 2/M
;
_chemical_formula_sum "Si O2"
_cell_formula_units_Z 40
_cell_length_a 10.726521
_cell_length_b 24.999630
_cell_length_c 9.631116
_cell_angle_alpha 90.000000
_cell_angle_beta 125.018319
_cell_angle_gamma 90.000000
_cell_volume 2115.126472
_symmetry_space_group_name_H-M "C 2/M"
_symmetry_group_IT_number 12
_symmetry_cell_setting 'monoclinic'
loop_
_space_group_symop_operation_xyz
x,y,z
-x,y,-z
-x,-y,-z
x,-y,z
1/2+x,1/2+y,z
1/2-x,1/2+y,-z
1/2-x,1/2-y,-z
1/2+x,1/2-y,z
loop_
_atom_site_type_symbol
_atom_site_label
_atom_site_fract_x
_atom_site_fract_y
_atom_site_fract_z
Si Si1 0.886166 0.345077 0.300015
Si Si2 0.181302 0.749405 0.110959
Si Si3 0.895103 0.640488 0.809061
Si Si4 0.845623 0.936909 0.485876
Si Si5 0.153404 0.937032 0.185039
O O1 0.773673 0.295214 0.250288
O O2 0.632667 0.425968 0.336259
O O3 0.000000 0.352140 0.500000
O O4 0.988668 0.336395 0.230258
O O5 0.197585 0.690452 0.186855
O O6 0.250000 0.750000 0.000000
O O7 0.000000 0.760940 0.000000
O O8 0.785592 0.601814 0.217381
O O9 0.000000 0.617637 0.000000
O O10 0.712476 0.901793 0.334401
O O11 0.000000 0.926302 0.500000
O O12 0.810556 0.000000 0.449930
O O13 0.191327 0.000000 0.193918
O O14 0.000000 0.927029 0.000000
#
# Coordination Sequence:
#
# PCOD9217461 Si02
#       5
#     8   8   8   8   8
#     4  12  24  42  66  99 129 170 221 271 330 393
#     4  11  23  45  67  92 131 173 218 272 327 394
#     4  11  24  43  66  96 132 169 219 270 331 393
#     4  10  23  43  65  96 134 172 220 272 326 393
#     4  10  23  43  67  95 131 177 218 264 330 395
#
# _framework density 18.911397999999998
#
# number of rings (size 3 to 8) (size 9 to 14) (size 15 to 20)
#    0.000    1.200    6.000    0.600    2.800    4.800 
#    0.000    0.000    0.000    0.000    0.000    0.000 
#    0.000    0.000    0.000    0.000    0.000    0.000 
#
# Total GULP energy -111707.031638 kJ/mol
# GULP energy per Si atom -5585.351582 kJ/mol
# Density = 1.886835 g / cm^3
# Si number density = 18.911398 Si / 1000 Ang^3
#
#
#
# Elastic Constant Matrix: (Units=GPa)
#
#
# Indices 1 2 3 4 5 6 
#
# 1 93.8036 54.1279 43.0586 0.0000 2.5053 0.0000
# 2 54.1279 82.3926 56.8910 0.0000 20.2122 0.0000
# 3 43.0586 56.8910 120.4980 0.0000 17.3997 0.0000
# 4 0.0000 0.0000 0.0000 16.0796 0.0000 -13.6543
# 5 2.5053 20.2122 17.3997 0.0000 46.3057 0.0000
# 6 0.0000 0.0000 0.0000 -13.6543 0.0000 8.5135
#
#
#
# Elastic Compliance Matrix: (Units=1/GPa)
#
#
# Indices 1 2 3 4 5 6 
#
# 1 0.018214 -0.012138 -0.001481 0.000000 0.004869 0.000000
# 2 -0.012138 0.027228 -0.007293 0.000000 -0.008488 0.000000
# 3 -0.001481 -0.007293 0.012477 0.000000 -0.001425 0.000000
# 4 0.000000 0.000000 0.000000 -0.171827 0.000000 -0.275584
# 5 0.004869 -0.008488 -0.001425 0.000000 0.025573 0.000000
# 6 0.000000 0.000000 0.000000 -0.275584 0.000000 -0.324534
#
#
# Mechanical properties :
#
#
# Convention : Reuss Voigt Hill
#
# Bulk Modulus (GPa) = 62.12306 67.20547 64.66426
# Shear Modulus (GPa) = -13.67313 23.68754 5.00721
#
# Velocity S-wave (km/s) = -2.69180 3.54298 1.62895
# Velocity P-wave (km/s) = 4.82284 7.23541 6.14861
#
# Compressibility (1/GPa) = 0.01609708
#
# Stress axis : x y z
#
# Youngs Moduli (GPa) = 54.90216 36.72629 80.14747
#
# Poissons Ratio (x) = 0.44577 0.11871
# Poissons Ratio (y) = 0.66638 0.58448
# Poissons Ratio (z) = 0.08132 0.26783
#
# Static dielectric constant tensor:
#      x y z
#    x 1.640240 0.000000 -0.013730 
#    y 0.000000 1.654930 0.000000 
#    z -0.013730 0.000000 1.670830 
# 
# From -- ./inp_files/39352.got.cif
#   From: 2010.05.17/outbox.cif.g08.bks.cpg/sg12_20_cif.got.tgz:39352.got - 2010.06.03 13:09:07.
