data_PCOD9217121
_publ_section_title
;
Structure prediction by ZEFSAII (Michael W. Deem and Ramdas Pophale) SiO2 
 PCOD9217121
Probable space group: C 2/M
;
_chemical_formula_sum "Si O2"
_cell_formula_units_Z 64
_cell_length_a 14.643251
_cell_length_b 17.181109
_cell_length_c 16.231359
_cell_angle_alpha 90.000000
_cell_angle_beta 134.011200
_cell_angle_gamma 90.000000
_cell_volume 2936.944066
_symmetry_space_group_name_H-M "C 2/M"
_symmetry_group_IT_number 12
_symmetry_cell_setting 'monoclinic'
loop_
_space_group_symop_operation_xyz
x,y,z
-x,y,-z
-x,-y,-z
x,-y,z
1/2+x,1/2+y,z
1/2-x,1/2+y,-z
1/2-x,1/2-y,-z
1/2+x,1/2-y,z
loop_
_atom_site_type_symbol
_atom_site_label
_atom_site_fract_x
_atom_site_fract_y
_atom_site_fract_z
Si Si1 0.454127 0.817514 0.601027
Si Si2 0.297909 0.185720 0.350191
Si Si3 0.470008 0.136989 0.798481
Si Si4 0.962713 0.871027 0.609556
Si Si5 0.623720 0.911991 0.030741
Si Si6 0.196056 0.125490 0.637960
Si Si7 0.113813 0.909654 0.853626
Si Si8 0.476766 0.305837 0.888106
O O1 0.583508 0.836505 0.633115
O O2 0.336049 0.839324 0.467160
O O3 0.457802 0.854638 0.693182
O O4 0.453729 0.723099 0.610429
O O5 0.299048 0.280145 0.356518
O O6 0.164203 0.164046 0.225658
O O7 0.583931 0.089824 0.909790
O O8 0.337388 0.100461 0.746745
O O9 0.486985 0.223413 0.847164
O O10 0.085096 0.895370 0.631126
O O11 0.992554 0.902769 0.717644
O O12 0.845981 0.897659 0.480254
O O13 0.636517 0.000000 0.068977
O O14 0.500000 0.878377 0.000000
O O15 0.763305 0.874775 0.118103
O O16 0.081593 0.861892 0.914241
O O17 0.138947 0.000000 0.885983
O O18 0.500000 0.299154 0.000000
#
# Coordination Sequence:
#
# PCOD9217121 Si02
#       8
#     8   8   8   8   8   8   8   8
#     4   9  17  31  58  86 113 149 180 231 286 337
#     4   8  18  34  52  83 123 149 178 222 294 341
#     4  11  20  33  60  90 111 144 189 238 283 337
#     4   9  16  34  52  80 115 146 177 225 275 349
#     4  10  23  42  59  79 115 154 185 229 290 349
#     4   8  17  29  54  84 116 142 173 220 291 343
#     4  11  24  40  58  78 109 158 199 230 285 341
#     4  11  24  37  57  87 118 148 192 245 279 327
#
# _framework density 21.791357999999999
#
# number of rings (size 3 to 8) (size 9 to 14) (size 15 to 20)
#    0.000    2.375    1.250    2.625    3.500    4.250 
#    0.000    1.875    0.000    0.000    0.000    1.750 
#    0.000    0.000    0.000    0.000    0.000    0.000 
#
# Total GULP energy -178540.706344 kJ/mol
# GULP energy per Si atom -5579.397073 kJ/mol
# Density = 2.174176 g / cm^3
# Si number density = 21.791358 Si / 1000 Ang^3
#
#
#
# Elastic Constant Matrix: (Units=GPa)
#
#
# Indices 1 2 3 4 5 6 
#
# 1 80.6296 24.0188 47.4728 0.0000 -6.1485 0.0000
# 2 24.0188 31.2522 9.4036 0.0000 -4.8508 0.0000
# 3 47.4728 9.4036 148.4930 0.0000 -8.5160 0.0000
# 4 0.0000 0.0000 0.0000 11.4032 0.0000 -1.3705
# 5 -6.1485 -4.8508 -8.5160 0.0000 44.0620 0.0000
# 6 0.0000 0.0000 0.0000 -1.3705 0.0000 9.8508
#
#
#
# Elastic Compliance Matrix: (Units=1/GPa)
#
#
# Indices 1 2 3 4 5 6 
#
# 1 0.019590 -0.013397 -0.005402 0.000000 0.000215 0.000000
# 2 -0.013397 0.042242 0.001787 0.000000 0.003126 0.000000
# 3 -0.005402 0.001787 0.008409 0.000000 0.001068 0.000000
# 4 0.000000 0.000000 0.000000 0.089186 0.000000 0.012408
# 5 0.000215 0.003126 0.001068 0.000000 0.023276 0.000000
# 6 0.000000 0.000000 0.000000 0.012408 0.000000 0.103240
#
#
# Mechanical properties :
#
#
# Convention : Reuss Voigt Hill
#
# Bulk Modulus (GPa) = 27.61127 46.90724 37.25926
# Shear Modulus (GPa) = 15.05838 25.02851 20.04345
#
# Velocity S-wave (km/s) = 2.63159 3.39271 3.03609
# Velocity P-wave (km/s) = 4.68315 6.07615 5.42455
#
# Compressibility (1/GPa) = 0.03621709
#
# Stress axis : x y z
#
# Youngs Moduli (GPa) = 51.04526 23.67327 118.91325
#
# Poissons Ratio (x) = 0.31716 0.64240
# Poissons Ratio (y) = 0.68387 -0.21254
# Poissons Ratio (z) = 0.27576 -0.04231
#
# Static dielectric constant tensor:
#      x y z
#    x 1.847410 0.000000 -0.003160 
#    y 0.000000 1.786630 0.000000 
#    z -0.003160 0.000000 1.817310 
# 
# From -- ./inp_files/216851.got.cif
#   From: 2010.05.17/outbox.cif.g08.bks.cpg/sg12_109_cif.got.tgz:216851.got - 2010.06.03 13:09:07.
