data_PCOD9217647
_publ_section_title
;
Structure prediction by ZEFSAII (Michael W. Deem and Ramdas Pophale) SiO2 
 PCOD9217647
Probable space group: C 2/M
;
_chemical_formula_sum "Si O2"
_cell_formula_units_Z 28
_cell_length_a 15.612172
_cell_length_b 10.191842
_cell_length_c 9.812750
_cell_angle_alpha 90.000000
_cell_angle_beta 59.886553
_cell_angle_gamma 90.000000
_cell_volume 1350.640501
_symmetry_space_group_name_H-M "C 2/M"
_symmetry_group_IT_number 12
_symmetry_cell_setting 'monoclinic'
loop_
_space_group_symop_operation_xyz
x,y,z
-x,y,-z
-x,-y,-z
x,-y,z
1/2+x,1/2+y,z
1/2-x,1/2+y,-z
1/2-x,1/2-y,-z
1/2+x,1/2-y,z
loop_
_atom_site_type_symbol
_atom_site_label
_atom_site_fract_x
_atom_site_fract_y
_atom_site_fract_z
Si Si1 0.919022 0.246085 0.331525
Si Si2 0.465463 0.500000 0.874225
Si Si3 0.258691 0.500000 0.929943
Si Si4 0.528099 0.000000 0.141590
Si Si5 0.226181 0.152265 0.343142
O O1 0.870981 0.218916 0.517364
O O2 0.821366 0.265357 0.313910
O O3 0.981187 0.375146 0.252383
O O4 0.987253 0.125265 0.236571
O O5 0.346993 0.500000 0.964664
O O6 0.500000 0.500000 0.000000
O O7 0.274395 0.625046 0.816706
O O8 0.145814 0.500000 0.063197
O O9 0.500000 0.000000 0.000000
O O10 0.234106 0.000000 0.393122
#
# Coordination Sequence:
#
# PCOD9217647 Si02
#       5
#     8   4   4   4   8
#     4  11  21  39  65 100 133 168 221 266 331 385
#     4  12  27  40  65  97 135 169 221 287 328 379
#     4  10  23  44  67  95 131 184 224 253 340 410
#     4  12  20  40  68  97 135 184 212 261 336 408
#     4   9  19  39  69  95 122 178 221 261 316 409
#
# _framework density 20.730905
#
# number of rings (size 3 to 8) (size 9 to 14) (size 15 to 20)
#    0.857    0.571    5.714    0.857    0.000    3.429 
#    0.000    0.000    0.000    3.429    0.000    0.000 
#    0.000    0.000    0.000    0.000    0.000    0.000 
#
# Total GULP energy -78142.941190 kJ/mol
# GULP energy per Si atom -5581.638656 kJ/mol
# Density = 2.068372 g / cm^3
# Si number density = 20.730905 Si / 1000 Ang^3
#
#
#
# Elastic Constant Matrix: (Units=GPa)
#
#
# Indices 1 2 3 4 5 6 
#
# 1 118.7039 20.1152 55.1303 0.0000 -40.5764 0.0000
# 2 20.1152 132.4477 39.0298 0.0000 -31.0331 0.0000
# 3 55.1303 39.0298 94.5750 0.0000 -45.7523 0.0000
# 4 0.0000 0.0000 0.0000 51.9215 0.0000 -22.0759
# 5 -40.5764 -31.0331 -45.7523 0.0000 34.5121 0.0000
# 6 0.0000 0.0000 0.0000 -22.0759 0.0000 20.0840
#
#
#
# Elastic Compliance Matrix: (Units=1/GPa)
#
#
# Indices 1 2 3 4 5 6 
#
# 1 0.014619 0.002280 -0.000435 0.000000 0.018662 0.000000
# 2 0.002280 0.009933 0.000528 0.000000 0.012313 0.000000
# 3 -0.000435 0.000528 0.029530 0.000000 0.039110 0.000000
# 4 0.000000 0.000000 0.000000 0.036158 0.000000 0.039745
# 5 0.018662 0.012313 0.039110 0.000000 0.113836 0.000000
# 6 0.000000 0.000000 0.000000 0.039745 0.000000 0.093477
#
#
# Mechanical properties :
#
#
# Convention : Reuss Voigt Hill
#
# Bulk Modulus (GPa) = 16.99851 63.80858 40.40354
# Shear Modulus (GPa) = 16.00430 36.73361 26.36895
#
# Velocity S-wave (km/s) = 2.78151 4.21399 3.57033
# Velocity P-wave (km/s) = 4.30501 7.38398 6.04385
#
# Compressibility (1/GPa) = 0.05882869
#
# Stress axis : x y z
#
# Youngs Moduli (GPa) = 68.40403 100.67216 33.86436
#
# Poissons Ratio (x) = -0.22958 0.01473
# Poissons Ratio (y) = -0.15599 -0.01788
# Poissons Ratio (z) = 0.02976 -0.05315
#
# Static dielectric constant tensor:
#      x y z
#    x 1.751280 0.000000 0.025700 
#    y 0.000000 1.745240 0.000000 
#    z 0.025700 0.000000 1.748240 
# 
# From -- ./inp_files/138581.got.cif
#   From: 2010.05.17/outbox.cif.g08.bks.cpg/sg12_70_cif.got.tgz:138581.got - 2010.06.03 13:09:07.
