data_PCOD9217335
_publ_section_title
;
Structure prediction by ZEFSAII (Michael W. Deem and Ramdas Pophale) SiO2 
 PCOD9217335
Probable space group: C 2/M
;
_chemical_formula_sum "Si O2"
_cell_formula_units_Z 40
_cell_length_a 9.922469
_cell_length_b 30.302131
_cell_length_c 14.683942
_cell_angle_alpha 90.000000
_cell_angle_beta 25.693063
_cell_angle_gamma 90.000000
_cell_volume 1914.144668
_symmetry_space_group_name_H-M "C 2/M"
_symmetry_group_IT_number 12
_symmetry_cell_setting 'monoclinic'
loop_
_space_group_symop_operation_xyz
x,y,z
-x,y,-z
-x,-y,-z
x,-y,z
1/2+x,1/2+y,z
1/2-x,1/2+y,-z
1/2-x,1/2-y,-z
1/2+x,1/2-y,z
loop_
_atom_site_type_symbol
_atom_site_label
_atom_site_fract_x
_atom_site_fract_y
_atom_site_fract_z
Si Si1 0.774274 0.547120 0.408267
Si Si2 0.324123 0.707780 0.015430
Si Si3 0.671949 0.548883 0.148064
Si Si4 0.858011 0.865192 0.302490
Si Si5 0.773625 0.644020 0.407678
O O1 0.500000 0.546655 0.500000
O O2 0.943804 0.500000 0.297782
O O3 0.594522 0.547167 0.613147
O O4 0.928208 0.594946 0.308004
O O5 0.018869 0.681320 0.233554
O O6 0.500000 0.721233 0.000000
O O7 0.250000 0.750000 0.000000
O O8 0.530684 0.674276 0.829478
O O9 0.682036 0.500000 0.098866
O O10 0.576428 0.592298 0.151967
O O11 0.000000 0.555256 0.000000
O O12 0.500000 0.876393 0.500000
O O13 0.865542 0.852226 0.405341
O O14 0.500000 0.645127 0.500000
#
# Coordination Sequence:
#
# PCOD9217335 Si02
#       5
#     8   8   8   8   8
#     4   8  15  30  55  89 130 166 206 256 307 365
#     4  12  29  48  70  97 127 167 222 281 342 409
#     4   9  19  34  60  97 133 176 226 264 309 381
#     4  11  24  44  67  95 141 177 213 275 336 395
#     4  10  23  42  68 101 132 173 218 268 329 395
#
# _framework density 20.897064
#
# number of rings (size 3 to 8) (size 9 to 14) (size 15 to 20)
#    0.000    2.000    2.000    0.000   11.200    2.000 
#    0.000    0.000    0.000    1.200    0.000    0.000 
#    0.000    0.000    0.000    0.000    0.000    0.000 
#
# Total GULP energy -111609.092697 kJ/mol
# GULP energy per Si atom -5580.454635 kJ/mol
# Density = 2.084950 g / cm^3
# Si number density = 20.897064 Si / 1000 Ang^3
#
#
#
# Elastic Constant Matrix: (Units=GPa)
#
#
# Indices 1 2 3 4 5 6 
#
# 1 127.6355 56.8646 35.1771 0.0000 10.0510 0.0000
# 2 56.8646 189.0049 50.8302 0.0000 -10.0548 0.0000
# 3 35.1771 50.8302 85.5867 0.0000 8.7018 0.0000
# 4 0.0000 0.0000 0.0000 30.4220 0.0000 3.4740
# 5 10.0510 -10.0548 8.7018 0.0000 34.9538 0.0000
# 6 0.0000 0.0000 0.0000 3.4740 0.0000 36.5495
#
#
#
# Elastic Compliance Matrix: (Units=1/GPa)
#
#
# Indices 1 2 3 4 5 6 
#
# 1 0.009803 -0.002506 -0.002237 0.000000 -0.002983 0.000000
# 2 -0.002506 0.007219 -0.003634 0.000000 0.003702 0.000000
# 3 -0.002237 -0.003634 0.015187 0.000000 -0.004183 0.000000
# 4 0.000000 0.000000 0.000000 0.033232 0.000000 -0.003159
# 5 -0.002983 0.003702 -0.004183 0.000000 0.031573 0.000000
# 6 0.000000 0.000000 0.000000 -0.003159 0.000000 0.027660
#
#
# Mechanical properties :
#
#
# Convention : Reuss Voigt Hill
#
# Bulk Modulus (GPa) = 64.70701 76.44121 70.57411
# Shear Modulus (GPa) = 34.11103 37.67544 35.89323
#
# Velocity S-wave (km/s) = 4.04460 4.25067 4.14892
# Velocity P-wave (km/s) = 7.26936 7.79424 7.53637
#
# Compressibility (1/GPa) = 0.01545428
#
# Stress axis : x y z
#
# Youngs Moduli (GPa) = 102.01006 138.52152 65.84600
#
# Poissons Ratio (x) = 0.34718 0.14732
# Poissons Ratio (y) = 0.25567 0.23926
# Poissons Ratio (z) = 0.22823 0.50334
#
# Static dielectric constant tensor:
#      x y z
#    x 1.784300 0.000000 0.016320 
#    y 0.000000 1.787520 0.000000 
#    z 0.016320 0.000000 1.718550 
# 
# From -- ./inp_files/201114.got.cif
#   From: 2010.05.17/outbox.cif.g08.bks.cpg/sg12_101_cif.got.tgz:201114.got - 2010.06.03 13:09:07.
