data_PCOD9217497
_publ_section_title
;
Structure prediction by ZEFSAII (Michael W. Deem and Ramdas Pophale) SiO2 
 PCOD9217497
Probable space group: C 2/M
;
_chemical_formula_sum "Si O2"
_cell_formula_units_Z 42
_cell_length_a 12.861564
_cell_length_b 21.382788
_cell_length_c 7.789807
_cell_angle_alpha 90.000000
_cell_angle_beta 132.726614
_cell_angle_gamma 90.000000
_cell_volume 1573.748920
_symmetry_space_group_name_H-M "C 2/M"
_symmetry_group_IT_number 12
_symmetry_cell_setting 'monoclinic'
loop_
_space_group_symop_operation_xyz
x,y,z
-x,y,-z
-x,-y,-z
x,-y,z
1/2+x,1/2+y,z
1/2-x,1/2+y,-z
1/2-x,1/2-y,-z
1/2+x,1/2-y,z
loop_
_atom_site_type_symbol
_atom_site_label
_atom_site_fract_x
_atom_site_fract_y
_atom_site_fract_z
Si Si1 0.035960 0.736199 0.351333
Si Si2 0.000000 0.500000 0.500000
Si Si3 0.674860 0.568667 0.023686
Si Si4 0.439718 0.099976 0.125563
Si Si5 0.612643 0.568828 0.479022
Si Si6 0.179174 0.832491 0.325088
O O1 0.040195 0.793195 0.222496
O O2 0.196100 0.715188 0.560949
O O3 0.000000 0.759412 0.500000
O O4 0.959287 0.673488 0.198232
O O5 0.005184 0.555936 0.350257
O O6 0.731565 0.500000 0.147776
O O7 0.771515 0.584145 0.965403
O O8 0.692147 0.621520 0.181218
O O9 0.507790 0.563922 0.805975
O O10 0.500000 0.088598 0.000000
O O11 0.500000 0.582118 0.500000
O O12 0.676223 0.500000 0.570332
O O13 0.710163 0.624277 0.526614
#
# Coordination Sequence:
#
# PCOD9217497 Si02
#       6
#     8   2   8   8   8   8
#     4  11  24  47  69 106 146 188 246 292 364 432
#     4  12  22  48  72 102 156 186 226 298 360 430
#     4  11  23  44  71 107 143 183 244 300 358 433
#     4  12  26  45  73 112 145 189 239 296 365 430
#     4  10  23  43  67 102 138 185 242 296 359 430
#     4  11  23  43  74  97 142 198 232 300 358 427
#
# _framework density 26.687868000000002
#
# number of rings (size 3 to 8) (size 9 to 14) (size 15 to 20)
#    0.000    0.952    3.810    2.000    2.667    3.048 
#    1.714    1.905    0.000    0.000    0.000    0.000 
#    0.000    0.000    0.000    0.000    0.000    0.000 
#
# Total GULP energy -117196.689775 kJ/mol
# GULP energy per Si atom -5580.794751 kJ/mol
# Density = 2.662713 g / cm^3
# Si number density = 26.687868 Si / 1000 Ang^3
#
#
#
# Elastic Constant Matrix: (Units=GPa)
#
#
# Indices 1 2 3 4 5 6 
#
# 1 129.0589 50.5412 28.7592 0.0000 -38.4697 0.0000
# 2 50.5412 171.3270 30.1128 0.0000 -31.1823 0.0000
# 3 28.7592 30.1128 71.0562 0.0000 -38.5467 0.0000
# 4 0.0000 0.0000 0.0000 21.4747 0.0000 -17.5427
# 5 -38.4697 -31.1823 -38.5467 0.0000 53.6110 0.0000
# 6 0.0000 0.0000 0.0000 -17.5427 0.0000 24.1728
#
#
#
# Elastic Compliance Matrix: (Units=1/GPa)
#
#
# Indices 1 2 3 4 5 6 
#
# 1 0.010387 -0.001914 0.000076 0.000000 0.006395 0.000000
# 2 -0.001914 0.006939 -0.001183 0.000000 0.001812 0.000000
# 3 0.000076 -0.001183 0.023281 0.000000 0.016106 0.000000
# 4 0.000000 0.000000 0.000000 0.114368 0.000000 0.082999
# 5 0.006395 0.001812 0.016106 0.000000 0.035876 0.000000
# 6 0.000000 0.000000 0.000000 0.082999 0.000000 0.101603
#
#
# Mechanical properties :
#
#
# Convention : Reuss Voigt Hill
#
# Bulk Modulus (GPa) = 28.92994 65.58538 47.25766
# Shear Modulus (GPa) = 16.12812 37.32030 26.72421
#
# Velocity S-wave (km/s) = 2.46097 3.74357 3.16786
# Velocity P-wave (km/s) = 4.35187 6.58135 5.57911
#
# Compressibility (1/GPa) = 0.03456627
#
# Stress axis : x y z
#
# Youngs Moduli (GPa) = 96.27334 144.11121 42.95341
#
# Poissons Ratio (x) = 0.27577 -0.00327
# Poissons Ratio (y) = 0.18423 0.05082
# Poissons Ratio (z) = -0.00734 0.17049
#
# Static dielectric constant tensor:
#      x y z
#    x 3.463190 0.000000 0.325060 
#    y 0.000000 2.124240 0.000000 
#    z 0.325060 0.000000 2.357600 
# 
# From -- ./inp_files/49481.got.cif
#   From: 2010.05.17/outbox.cif.g08.bks.cpg/sg12_25_cif.got.tgz:49481.got - 2010.06.03 13:09:07.
