data_PCOD9217722
_publ_section_title
;
Structure prediction by ZEFSAII (Michael W. Deem and Ramdas Pophale) SiO2 
 PCOD9217722
Probable space group: C 2/M
;
_chemical_formula_sum "Si O2"
_cell_formula_units_Z 40
_cell_length_a 8.868041
_cell_length_b 24.404021
_cell_length_c 9.028626
_cell_angle_alpha 90.000000
_cell_angle_beta 81.603654
_cell_angle_gamma 90.000000
_cell_volume 1932.994854
_symmetry_space_group_name_H-M "C 2/M"
_symmetry_group_IT_number 12
_symmetry_cell_setting 'monoclinic'
loop_
_space_group_symop_operation_xyz
x,y,z
-x,y,-z
-x,-y,-z
x,-y,z
1/2+x,1/2+y,z
1/2-x,1/2+y,-z
1/2-x,1/2-y,-z
1/2+x,1/2-y,z
loop_
_atom_site_type_symbol
_atom_site_label
_atom_site_fract_x
_atom_site_fract_y
_atom_site_fract_z
Si Si1 0.329214 0.769025 0.834055
Si Si2 0.955863 0.649077 0.339346
Si Si3 0.610999 0.065023 0.123782
Si Si4 0.107272 0.137640 0.855110
Si Si5 0.607438 0.657549 0.346770
O O1 0.483256 0.806313 0.792204
O O2 0.207363 0.811591 0.781953
O O3 0.363043 0.714677 0.740166
O O4 0.250000 0.750000 0.000000
O O5 0.776306 0.638532 0.360208
O O6 0.000000 0.666529 0.500000
O O7 0.037606 0.593109 0.278600
O O8 0.775815 0.094136 0.092691
O O9 0.624668 0.000000 0.131732
O O10 0.500000 0.078010 0.000000
O O11 0.991634 0.118336 0.745783
O O12 0.000000 0.159255 0.000000
O O13 0.500000 0.667615 0.500000
#
# Coordination Sequence:
#
# PCOD9217722 Si02
#       5
#     8   8   8   8   8
#     4  11  23  39  62  94 132 178 216 258 311 382
#     4  11  25  43  65  93 132 175 218 268 322 385
#     4  10  23  44  70  95 122 164 215 269 334 396
#     4  11  22  39  62  94 128 165 213 268 314 378
#     4  12  24  39  61  92 133 174 216 261 313 378
#
# _framework density 20.693279
#
# number of rings (size 3 to 8) (size 9 to 14) (size 15 to 20)
#    0.000    1.000    2.000    5.400    2.800    3.200 
#    0.000    1.000    0.000    2.400    0.000    0.000 
#    0.000    0.000    0.000    0.000    0.000    0.000 
#
# Total GULP energy -111579.552791 kJ/mol
# GULP energy per Si atom -5578.977640 kJ/mol
# Density = 2.064618 g / cm^3
# Si number density = 20.693279 Si / 1000 Ang^3
#
#
#
# Elastic Constant Matrix: (Units=GPa)
#
#
# Indices 1 2 3 4 5 6 
#
# 1 159.3154 24.0771 36.4989 0.0000 -3.7983 0.0000
# 2 24.0771 62.9275 4.5631 0.0000 4.9988 0.0000
# 3 36.4989 4.5631 99.6684 0.0000 -14.8052 0.0000
# 4 0.0000 0.0000 0.0000 18.1171 0.0000 4.2113
# 5 -3.7983 4.9988 -14.8052 0.0000 42.4500 0.0000
# 6 0.0000 0.0000 0.0000 4.2113 0.0000 18.7910
#
#
#
# Elastic Compliance Matrix: (Units=1/GPa)
#
#
# Indices 1 2 3 4 5 6 
#
# 1 0.007249 -0.002597 -0.002525 0.000000 0.000074 0.000000
# 2 -0.002597 0.017080 -0.000173 0.000000 -0.002304 0.000000
# 3 -0.002525 -0.000173 0.011533 0.000000 0.003817 0.000000
# 4 0.000000 0.000000 0.000000 0.058230 0.000000 -0.013050
# 5 0.000074 -0.002304 0.003817 0.000000 0.025166 0.000000
# 6 0.000000 0.000000 0.000000 -0.013050 0.000000 0.056142
#
#
# Mechanical properties :
#
#
# Convention : Reuss Voigt Hill
#
# Bulk Modulus (GPa) = 39.56804 50.24329 44.90567
# Shear Modulus (GPa) = 25.71825 32.98979 29.35402
#
# Velocity S-wave (km/s) = 3.52921 3.99711 3.77042
# Velocity P-wave (km/s) = 5.98078 6.75538 6.37985
#
# Compressibility (1/GPa) = 0.02527292
#
# Stress axis : x y z
#
# Youngs Moduli (GPa) = 137.94077 58.54669 86.70910
#
# Poissons Ratio (x) = 0.15202 0.21894
# Poissons Ratio (y) = 0.35817 0.01503
# Poissons Ratio (z) = 0.34829 0.01015
#
# Static dielectric constant tensor:
#      x y z
#    x 1.827700 0.000000 0.047310 
#    y 0.000000 1.699940 0.000000 
#    z 0.047310 0.000000 1.790350 
# 
# From -- ./inp_files/39245.got.cif
#   From: 2010.05.17/outbox.cif.g08.bks.cpg/sg12_20_cif.got.tgz:39245.got - 2010.06.03 13:09:07.
