data_PCOD9217423
_publ_section_title
;
Structure prediction by ZEFSAII (Michael W. Deem and Ramdas Pophale) SiO2 
 PCOD9217423
Probable space group: C 2/M
;
_chemical_formula_sum "Si O2"
_cell_formula_units_Z 48
_cell_length_a 28.058455
_cell_length_b 10.856199
_cell_length_c 15.183486
_cell_angle_alpha 90.000000
_cell_angle_beta 153.029364
_cell_angle_gamma 90.000000
_cell_volume 2097.600133
_symmetry_space_group_name_H-M "C 2/M"
_symmetry_group_IT_number 12
_symmetry_cell_setting 'monoclinic'
loop_
_space_group_symop_operation_xyz
x,y,z
-x,y,-z
-x,-y,-z
x,-y,z
1/2+x,1/2+y,z
1/2-x,1/2+y,-z
1/2-x,1/2-y,-z
1/2+x,1/2-y,z
loop_
_atom_site_type_symbol
_atom_site_label
_atom_site_fract_x
_atom_site_fract_y
_atom_site_fract_z
Si Si1 0.380038 0.133037 0.768420
Si Si2 0.112898 0.213348 0.700358
Si Si3 0.359901 0.138402 0.418332
Si Si4 0.359996 0.638215 0.856442
Si Si5 0.517763 0.224311 0.228283
Si Si6 0.658154 0.134486 0.943772
O O1 0.339512 0.254188 0.751381
O O2 0.398913 0.154529 0.696388
O O3 0.328011 0.000000 0.699881
O O4 0.500000 0.124469 0.000000
O O5 0.113456 0.332365 0.637701
O O6 0.129387 0.258219 0.827303
O O7 0.000000 0.152197 0.500000
O O8 0.216548 0.142506 0.839069
O O9 0.236221 0.143187 0.233494
O O10 0.419079 0.237680 0.577043
O O11 0.394491 0.000000 0.499840
O O12 0.363725 0.500000 0.824897
O O13 0.467968 0.667505 0.087102
O O14 0.412454 0.151650 0.085414
O O15 0.634104 0.000000 0.866673
#
# Coordination Sequence:
#
# PCOD9217423 Si02
#       6
#     8   8   8   8   8   8
#     4   9  19  36  62  93 125 162 210 260 306 366
#     4  11  23  40  61  91 123 157 207 255 312 370
#     4  11  22  39  63  92 126 164 208 259 307 370
#     4  10  23  43  64  91 131 168 205 258 320 372
#     4  11  21  38  64  94 123 161 213 256 308 366
#     4  11  23  39  63  90 122 163 206 256 310 371
#
# _framework density 22.883292999999998
#
# number of rings (size 3 to 8) (size 9 to 14) (size 15 to 20)
#    0.000    1.500    3.333    2.000    0.000    6.000 
#    0.000    1.667    0.000    0.000    0.000    0.000 
#    0.000    0.000    0.000    0.000    0.000    0.000 
#
# Total GULP energy -133858.615354 kJ/mol
# GULP energy per Si atom -5577.442306 kJ/mol
# Density = 2.283121 g / cm^3
# Si number density = 22.883293 Si / 1000 Ang^3
#
#
#
# Elastic Constant Matrix: (Units=GPa)
#
#
# Indices 1 2 3 4 5 6 
#
# 1 76.7138 36.0861 -1.1826 0.0000 -6.0350 0.0000
# 2 36.0861 122.5525 14.1601 0.0000 6.1674 0.0000
# 3 -1.1826 14.1601 84.4132 0.0000 13.7759 0.0000
# 4 0.0000 0.0000 0.0000 -21.4539 0.0000 -23.4852
# 5 -6.0350 6.1674 13.7759 0.0000 28.0564 0.0000
# 6 0.0000 0.0000 0.0000 -23.4852 0.0000 4.9844
#
#
#
# Elastic Compliance Matrix: (Units=1/GPa)
#
#
# Indices 1 2 3 4 5 6 
#
# 1 0.015666 -0.004867 0.000339 0.000000 0.004274 0.000000
# 2 -0.004867 0.009873 -0.001304 0.000000 -0.002577 0.000000
# 3 0.000339 -0.001304 0.013058 0.000000 -0.006052 0.000000
# 4 0.000000 0.000000 0.000000 -0.007569 0.000000 -0.035665
# 5 0.004274 -0.002577 -0.006052 0.000000 0.040100 0.000000
# 6 0.000000 0.000000 0.000000 -0.035665 0.000000 0.032580
#
#
# Mechanical properties :
#
#
# Convention : Reuss Voigt Hill
#
# Bulk Modulus (GPa) = 37.13026 42.42296 39.77661
# Shear Modulus (GPa) = 40.20890 17.95845 29.08368
#
# Velocity S-wave (km/s) = 4.19636 2.80444 3.56892
# Velocity P-wave (km/s) = 6.30400 5.39125 5.86541
#
# Compressibility (1/GPa) = 0.02693221
#
# Stress axis : x y z
#
# Youngs Moduli (GPa) = 63.83078 101.28343 76.58378
#
# Poissons Ratio (x) = 0.49297 -0.02592
# Poissons Ratio (y) = 0.31068 0.09985
# Poissons Ratio (z) = -0.02161 0.13206
#
# Static dielectric constant tensor:
#      x y z
#    x 1.873050 0.000000 -0.000790 
#    y 0.000000 1.878480 0.000000 
#    z -0.000790 0.000000 1.884020 
# 
# From -- ./inp_files/246006.got.cif
#   From: 2010.05.17/outbox.cif.g08.bks.cpg/sg12_124_cif.got.tgz:246006.got - 2010.06.03 13:09:07.
