data_PCOD9217360
_publ_section_title
;
Structure prediction by ZEFSAII (Michael W. Deem and Ramdas Pophale) SiO2 
 PCOD9217360
Probable space group: C 2/M
;
_chemical_formula_sum "Si O2"
_cell_formula_units_Z 50
_cell_length_a 10.423901
_cell_length_b 21.205754
_cell_length_c 14.024884
_cell_angle_alpha 90.000000
_cell_angle_beta 138.925427
_cell_angle_gamma 90.000000
_cell_volume 2036.927576
_symmetry_space_group_name_H-M "C 2/M"
_symmetry_group_IT_number 12
_symmetry_cell_setting 'monoclinic'
loop_
_space_group_symop_operation_xyz
x,y,z
-x,y,-z
-x,-y,-z
x,-y,z
1/2+x,1/2+y,z
1/2-x,1/2+y,-z
1/2-x,1/2-y,-z
1/2+x,1/2-y,z
loop_
_atom_site_type_symbol
_atom_site_label
_atom_site_fract_x
_atom_site_fract_y
_atom_site_fract_z
Si Si1 0.778419 0.433412 0.068071
Si Si2 0.605762 0.843561 0.288827
Si Si3 0.275801 0.070673 0.476212
Si Si4 0.858399 0.100834 0.799742
Si Si5 0.000000 0.500000 0.000000
Si Si6 0.432508 0.715337 0.151962
Si Si7 0.166958 0.105353 0.754672
O O1 0.878911 0.500000 0.097740
O O2 0.724051 0.426892 0.149175
O O3 0.918360 0.375354 0.131912
O O4 0.568735 0.431821 0.902058
O O5 0.626285 0.877466 0.401831
O O6 0.565971 0.769893 0.271997
O O7 0.778105 0.865278 0.316884
O O8 0.278852 0.087147 0.365977
O O9 0.045166 0.073579 0.370565
O O10 0.350401 0.000000 0.536375
O O11 0.928265 0.173858 0.840743
O O12 0.832564 0.556378 0.881268
O O13 0.358258 0.665756 0.189162
O O14 0.250000 0.750000 0.000000
#
# Coordination Sequence:
#
# PCOD9217360 Si02
#       7
#     8   8   8   8   2   8   8
#     4  11  23  41  69 106 135 181 241 300 351 425
#     4  12  27  42  71 102 142 190 236 283 370 438
#     4  11  24  46  69 104 148 190 235 306 366 431
#     4  10  23  42  69  97 137 189 234 304 353 410
#     4  12  24  44  74 112 138 184 244 296 372 410
#     4  11  24  47  70 101 141 184 242 291 357 430
#     4  11  27  42  74 105 144 187 235 307 353 437
#
# _framework density 24.546772000000001
#
# number of rings (size 3 to 8) (size 9 to 14) (size 15 to 20)
#    0.000    0.960    2.400    3.840    6.720    3.840 
#    0.000    1.600    0.000    0.000    0.000    0.000 
#    0.000    0.000    0.000    0.000    0.000    0.000 
#
# Total GULP energy -139744.821794 kJ/mol
# GULP energy per Si atom -5589.792872 kJ/mol
# Density = 2.449090 g / cm^3
# Si number density = 24.546772 Si / 1000 Ang^3
#
#
#
# Elastic Constant Matrix: (Units=GPa)
#
#
# Indices 1 2 3 4 5 6 
#
# 1 45.1297 9.2549 5.8021 0.0000 -5.9066 0.0000
# 2 9.2549 205.3383 45.8197 0.0000 -8.7803 0.0000
# 3 5.8021 45.8197 115.1728 0.0000 -5.3305 0.0000
# 4 0.0000 0.0000 0.0000 37.5465 0.0000 1.5071
# 5 -5.9066 -8.7803 -5.3305 0.0000 47.8378 0.0000
# 6 0.0000 0.0000 0.0000 1.5071 0.0000 37.3118
#
#
#
# Elastic Compliance Matrix: (Units=1/GPa)
#
#
# Indices 1 2 3 4 5 6 
#
# 1 0.022745 -0.000752 -0.000727 0.000000 0.002589 0.000000
# 2 -0.000752 0.005396 -0.002078 0.000000 0.000666 0.000000
# 3 -0.000727 -0.002078 0.009573 0.000000 0.000596 0.000000
# 4 0.000000 0.000000 0.000000 0.026677 0.000000 -0.001078
# 5 0.002589 0.000666 0.000596 0.000000 0.021412 0.000000
# 6 0.000000 0.000000 0.000000 -0.001078 0.000000 0.026845
#
#
# Mechanical properties :
#
#
# Convention : Reuss Voigt Hill
#
# Bulk Modulus (GPa) = 32.67921 54.15491 43.41706
# Shear Modulus (GPa) = 38.47263 44.85684 41.66474
#
# Velocity S-wave (km/s) = 3.96323 4.27945 4.12437
# Velocity P-wave (km/s) = 5.85533 6.82115 6.35661
#
# Compressibility (1/GPa) = 0.03060049
#
# Stress axis : x y z
#
# Youngs Moduli (GPa) = 43.96584 185.31929 104.45508
#
# Poissons Ratio (x) = 0.13941 0.07591
# Poissons Ratio (y) = 0.03307 0.21706
# Poissons Ratio (z) = 0.03195 0.38510
#
# Static dielectric constant tensor:
#      x y z
#    x 1.817940 0.000000 0.035890 
#    y 0.000000 1.915220 0.000000 
#    z 0.035890 0.000000 1.945150 
# 
# From -- ./inp_files/208671.got.cif
#   From: 2010.05.17/outbox.cif.g08.bks.cpg/sg12_105_cif.got.tgz:208671.got - 2010.06.03 13:09:07.
