data_PCOD9217254
_publ_section_title
;
Structure prediction by ZEFSAII (Michael W. Deem and Ramdas Pophale) SiO2 
 PCOD9217254
Probable space group: C 2/M
;
_chemical_formula_sum "Si O2"
_cell_formula_units_Z 40
_cell_length_a 9.859275
_cell_length_b 9.748136
_cell_length_c 20.407773
_cell_angle_alpha 90.000000
_cell_angle_beta 95.283119
_cell_angle_gamma 90.000000
_cell_volume 1953.049747
_symmetry_space_group_name_H-M "C 2/M"
_symmetry_group_IT_number 12
_symmetry_cell_setting 'monoclinic'
loop_
_space_group_symop_operation_xyz
x,y,z
-x,y,-z
-x,-y,-z
x,-y,z
1/2+x,1/2+y,z
1/2-x,1/2+y,-z
1/2-x,1/2-y,-z
1/2+x,1/2-y,z
loop_
_atom_site_type_symbol
_atom_site_label
_atom_site_fract_x
_atom_site_fract_y
_atom_site_fract_z
Si Si1 0.001615 0.840061 0.367989
Si Si2 0.350102 0.721766 0.863956
Si Si3 0.598431 0.655530 0.782978
Si Si4 0.293843 0.162096 0.438794
Si Si5 0.343249 0.500000 0.972733
Si Si6 0.391873 0.000000 0.936837
O O1 0.955048 0.811299 0.291866
O O2 0.923090 0.736083 0.412074
O O3 0.163644 0.828299 0.384476
O O4 0.966257 0.000000 0.382121
O O5 0.471104 0.659147 0.826565
O O6 0.216918 0.746579 0.814242
O O7 0.315035 0.629949 0.925300
O O8 0.403036 0.866005 0.893634
O O9 0.653659 0.500000 0.784163
O O10 0.250000 0.250000 0.500000
O O11 0.316762 0.000000 0.453861
O O12 0.500000 0.500000 0.000000
O O13 0.254095 0.500000 0.033810
O O14 0.500000 0.000000 0.000000
#
# Coordination Sequence:
#
# PCOD9217254 Si02
#       6
#     8   8   8   8   4   4
#     4  10  23  42  65  92 129 171 212 262 315 371
#     4  12  23  43  67  91 127 168 209 262 324 376
#     4  11  23  44  65  94 128 165 213 263 316 379
#     4  11  23  41  65  98 132 171 215 259 313 370
#     4  12  24  42  66  92 126 166 207 262 323 384
#     4  12  24  40  60  98 124 156 215 262 311 388
#
# _framework density 20.480789000000001
#
# number of rings (size 3 to 8) (size 9 to 14) (size 15 to 20)
#    0.000    0.800    2.000    6.000    0.000    4.000 
#    3.600    0.000    0.000    0.000    0.000    0.000 
#    0.000    0.000    0.000    0.000    0.000    0.000 
#
# Total GULP energy -111912.666776 kJ/mol
# GULP energy per Si atom -5595.633339 kJ/mol
# Density = 2.043417 g / cm^3
# Si number density = 20.480789 Si / 1000 Ang^3
#
#
#
# Elastic Constant Matrix: (Units=GPa)
#
#
# Indices 1 2 3 4 5 6 
#
# 1 67.6547 -2.8049 -11.5644 0.0000 12.1246 0.0000
# 2 -2.8049 100.0285 16.0077 0.0000 4.1446 0.0000
# 3 -11.5644 16.0077 56.8647 0.0000 12.4173 0.0000
# 4 0.0000 0.0000 0.0000 37.1777 0.0000 -0.9152
# 5 12.1246 4.1446 12.4173 0.0000 45.4018 0.0000
# 6 0.0000 0.0000 0.0000 -0.9152 0.0000 31.3568
#
#
#
# Elastic Compliance Matrix: (Units=1/GPa)
#
#
# Indices 1 2 3 4 5 6 
#
# 1 0.016591 -0.000040 0.004628 0.000000 -0.005693 0.000000
# 2 -0.000040 0.010470 -0.002924 0.000000 -0.000146 0.000000
# 3 0.004628 -0.002924 0.020804 0.000000 -0.006659 0.000000
# 4 0.000000 0.000000 0.000000 0.026917 0.000000 0.000786
# 5 -0.005693 -0.000146 -0.006659 0.000000 0.025380 0.000000
# 6 0.000000 0.000000 0.000000 0.000786 0.000000 0.031914
#
#
# Mechanical properties :
#
#
# Convention : Reuss Voigt Hill
#
# Bulk Modulus (GPa) = 19.53331 25.31386 22.42358
# Shear Modulus (GPa) = 34.29105 37.64789 35.96947
#
# Velocity S-wave (km/s) = 4.09626 4.29208 4.19532
# Velocity P-wave (km/s) = 5.65072 6.07859 5.86855
#
# Compressibility (1/GPa) = 0.05119461
#
# Stress axis : x y z
#
# Youngs Moduli (GPa) = 60.27497 95.51151 48.06791
#
# Poissons Ratio (x) = 0.00378 -0.22247
# Poissons Ratio (y) = 0.00238 0.14053
# Poissons Ratio (z) = -0.27897 0.27924
#
# Static dielectric constant tensor:
#      x y z
#    x 4.236270 0.000000 -1.005810 
#    y 0.000000 1.613230 0.000000 
#    z -1.005810 0.000000 2.117060 
# 
# From -- ./inp_files/261091.got.cif
#   From: 2010.05.17/outbox.cif.g08.bks.cpg/sg12_131_cif.got.tgz:261091.got - 2010.06.03 13:09:07.
