data_PCOD9217642
_publ_section_title
;
Structure prediction by ZEFSAII (Michael W. Deem and Ramdas Pophale) SiO2 
 PCOD9217642
Probable space group: C 2/M
;
_chemical_formula_sum "Si O2"
_cell_formula_units_Z 48
_cell_length_a 26.639920
_cell_length_b 11.313926
_cell_length_c 8.632815
_cell_angle_alpha 90.000000
_cell_angle_beta 123.104861
_cell_angle_gamma 90.000000
_cell_volume 2179.580337
_symmetry_space_group_name_H-M "C 2/M"
_symmetry_group_IT_number 12
_symmetry_cell_setting 'monoclinic'
loop_
_space_group_symop_operation_xyz
x,y,z
-x,y,-z
-x,-y,-z
x,-y,z
1/2+x,1/2+y,z
1/2-x,1/2+y,-z
1/2-x,1/2-y,-z
1/2+x,1/2-y,z
loop_
_atom_site_type_symbol
_atom_site_label
_atom_site_fract_x
_atom_site_fract_y
_atom_site_fract_z
Si Si1 0.559918 0.304645 0.026691
Si Si2 0.672140 0.631965 0.022700
Si Si3 0.510672 0.632629 0.340034
Si Si4 0.773676 0.631448 0.743580
Si Si5 0.134081 0.365345 0.368472
Si Si6 0.143812 0.178131 0.615261
O O1 0.618093 0.369303 0.056938
O O2 0.526256 0.267803 0.812357
O O3 0.500000 0.364492 0.000000
O O4 0.586026 0.207235 0.184995
O O5 0.700944 0.500000 0.076505
O O6 0.649570 0.650942 0.807149
O O7 0.708214 0.751736 0.127450
O O8 0.500000 0.654511 0.500000
O O9 0.486730 0.500000 0.266674
O O10 0.581904 0.629621 0.441891
O O11 0.794244 0.500000 0.836117
O O12 0.804212 0.644702 0.626843
O O13 0.702175 0.628754 0.627921
O O14 0.116274 0.500000 0.344072
O O15 0.141691 0.312886 0.552479
#
# Coordination Sequence:
#
# PCOD9217642 Si02
#       6
#     8   8   8   8   8   8
#     4  11  22  42  63  94 127 169 211 259 326 382
#     4  11  24  41  66  99 133 167 214 270 324 382
#     4  11  22  38  61  91 129 162 202 264 322 383
#     4  10  23  44  67  93 130 172 217 266 324 384
#     4  10  24  44  64  90 127 171 218 269 316 382
#     4  12  22  40  64  94 125 169 213 264 323 379
#
# _framework density 22.022590000000001
#
# number of rings (size 3 to 8) (size 9 to 14) (size 15 to 20)
#    0.000    1.167    3.333    3.000    0.000    3.000 
#    0.000    3.333    0.000    2.000    0.000    0.000 
#    0.000    0.000    0.000    0.000    0.000    0.000 
#
# Total GULP energy -133626.929468 kJ/mol
# GULP energy per Si atom -5567.788728 kJ/mol
# Density = 2.197247 g / cm^3
# Si number density = 22.022590 Si / 1000 Ang^3
#
#
#
# Elastic Constant Matrix: (Units=GPa)
#
#
# Indices 1 2 3 4 5 6 
#
# 1 85.0204 25.7888 9.4474 0.0000 9.8822 0.0000
# 2 25.7888 153.3766 52.4318 0.0000 -8.4485 0.0000
# 3 9.4474 52.4318 32.5739 0.0000 -4.8574 0.0000
# 4 0.0000 0.0000 0.0000 30.1934 0.0000 4.3817
# 5 9.8822 -8.4485 -4.8574 0.0000 37.7902 0.0000
# 6 0.0000 0.0000 0.0000 4.3817 0.0000 23.0264
#
#
#
# Elastic Compliance Matrix: (Units=1/GPa)
#
#
# Indices 1 2 3 4 5 6 
#
# 1 0.012960 -0.002025 -0.001094 0.000000 -0.003982 0.000000
# 2 -0.002025 0.014815 -0.023130 0.000000 0.000868 0.000000
# 3 -0.001094 -0.023130 0.068839 0.000000 0.003963 0.000000
# 4 0.000000 0.000000 0.000000 0.034060 0.000000 -0.006481
# 5 -0.003982 0.000868 0.003963 0.000000 0.028207 0.000000
# 6 0.000000 0.000000 0.000000 -0.006481 0.000000 0.044662
#
#
# Mechanical properties :
#
#
# Convention : Reuss Voigt Hill
#
# Bulk Modulus (GPa) = 22.66709 49.58966 36.12838
# Shear Modulus (GPa) = 18.46743 30.42218 24.44480
#
# Velocity S-wave (km/s) = 2.89894 3.72076 3.33526
# Velocity P-wave (km/s) = 4.63898 6.40510 5.59220
#
# Compressibility (1/GPa) = 0.04411682
#
# Stress axis : x y z
#
# Youngs Moduli (GPa) = 77.15792 67.49807 14.52668
#
# Poissons Ratio (x) = 0.13665 0.01589
# Poissons Ratio (y) = 0.15621 0.33601
# Poissons Ratio (z) = 0.08441 1.56125
#
# Static dielectric constant tensor:
#      x y z
#    x 1.892130 0.000000 -0.039500 
#    y 0.000000 1.846790 0.000000 
#    z -0.039500 0.000000 1.902450 
# 
# From -- ./inp_files/102801.got.cif
#   From: 2010.05.17/outbox.cif.g08.bks.cpg/sg12_52_cif.got.tgz:102801.got - 2010.06.03 13:09:07.
