data_PCOD9217813
_publ_section_title
;
Structure prediction by ZEFSAII (Michael W. Deem and Ramdas Pophale) SiO2 
 PCOD9217813
Probable space group: C 2/M
;
_chemical_formula_sum "Si O2"
_cell_formula_units_Z 36
_cell_length_a 11.738180
_cell_length_b 23.312879
_cell_length_c 5.405890
_cell_angle_alpha 90.000000
_cell_angle_beta 82.469439
_cell_angle_gamma 90.000000
_cell_volume 1466.566921
_symmetry_space_group_name_H-M "C 2/M"
_symmetry_group_IT_number 12
_symmetry_cell_setting 'monoclinic'
loop_
_space_group_symop_operation_xyz
x,y,z
-x,y,-z
-x,-y,-z
x,-y,z
1/2+x,1/2+y,z
1/2-x,1/2+y,-z
1/2-x,1/2-y,-z
1/2+x,1/2-y,z
loop_
_atom_site_type_symbol
_atom_site_label
_atom_site_fract_x
_atom_site_fract_y
_atom_site_fract_z
Si Si1 0.804059 0.708764 0.696742
Si Si2 0.896076 0.812692 0.854622
Si Si3 0.782534 0.100721 0.526053
Si Si4 0.923324 0.000000 0.270735
Si Si5 0.948083 0.566334 0.256378
O O1 0.750000 0.750000 0.500000
O O2 0.911644 0.747496 0.748945
O O3 0.801276 0.647319 0.573610
O O4 0.718703 0.695636 0.950154
O O5 0.872192 0.861170 0.657485
O O6 0.000000 0.829244 0.000000
O O7 0.690197 0.067403 0.718292
O O8 0.844532 0.056883 0.323341
O O9 0.000000 0.000000 0.500000
O O10 0.000000 0.000000 0.000000
O O11 0.986297 0.500000 0.240819
O O12 0.000000 0.587128 0.500000
O O13 0.000000 0.596533 0.000000
#
# Coordination Sequence:
#
# PCOD9217813 Si02
#       5
#     8   8   8   4   8
#     4   9  22  44  67 102 141 193 253 310 394 441
#     4  10  23  45  74 103 148 200 254 319 395 463
#     4  11  25  47  72 107 158 199 256 326 375 480
#     4  12  32  48  74 118 156 212 262 310 393 468
#     4  10  23  45  72 103 143 196 247 305 375 438
#
# _framework density 24.547124
#
# number of rings (size 3 to 8) (size 9 to 14) (size 15 to 20)
#    0.000    1.778    1.111    0.000    9.333    2.667 
#   12.000    0.000    0.000    1.333    0.000    0.000 
#    0.000    0.000    0.000    0.000    0.000    0.000 
#
# Total GULP energy -100444.470919 kJ/mol
# GULP energy per Si atom -5580.248384 kJ/mol
# Density = 2.449125 g / cm^3
# Si number density = 24.547124 Si / 1000 Ang^3
#
#
#
# Elastic Constant Matrix: (Units=GPa)
#
#
# Indices 1 2 3 4 5 6 
#
# 1 97.9494 46.0736 50.8218 0.0000 5.0801 0.0000
# 2 46.0736 144.4941 56.2408 0.0000 6.8606 0.0000
# 3 50.8218 56.2408 143.4930 0.0000 -13.6492 0.0000
# 4 0.0000 0.0000 0.0000 4.6959 0.0000 -14.0911
# 5 5.0801 6.8606 -13.6492 0.0000 42.1137 0.0000
# 6 0.0000 0.0000 0.0000 -14.0911 0.0000 10.4590
#
#
#
# Elastic Compliance Matrix: (Units=1/GPa)
#
#
# Indices 1 2 3 4 5 6 
#
# 1 0.013696 -0.002673 -0.004043 0.000000 -0.002527 0.000000
# 2 -0.002673 0.008939 -0.002750 0.000000 -0.002025 0.000000
# 3 -0.004043 -0.002750 0.009872 0.000000 0.004135 0.000000
# 4 0.000000 0.000000 0.000000 -0.069986 0.000000 -0.094290
# 5 -0.002527 -0.002025 0.004135 0.000000 0.025720 0.000000
# 6 0.000000 0.000000 0.000000 -0.094290 0.000000 -0.031423
#
#
# Mechanical properties :
#
#
# Convention : Reuss Voigt Hill
#
# Bulk Modulus (GPa) = 73.66508 76.91209 75.28859
# Shear Modulus (GPa) = -253.49639 26.97374 -113.26132
#
# Velocity S-wave (km/s) = -10.17317 3.31850 -6.80004
# Velocity P-wave (km/s) = 10.38829 6.78849 5.56025
#
# Compressibility (1/GPa) = 0.01357495
#
# Stress axis : x y z
#
# Youngs Moduli (GPa) = 73.01507 111.86376 101.29634
#
# Poissons Ratio (x) = 0.29905 0.40957
# Poissons Ratio (y) = 0.19519 0.27852
# Poissons Ratio (z) = 0.29522 0.30757
#
# Static dielectric constant tensor:
#      x y z
#    x 1.835810 0.000000 -0.025080 
#    y 0.000000 2.281210 0.000000 
#    z -0.025080 0.000000 2.068900 
# 
# From -- ./inp_files/6953.got.cif
#   From: 2010.05.17/outbox.cif.g08.bks.cpg/sg12_4_cif.got.tgz:6953.got - 2010.06.03 13:09:07.
