data_PCOD9217714
_publ_section_title
;
Structure prediction by ZEFSAII (Michael W. Deem and Ramdas Pophale) SiO2 
 PCOD9217714
Probable space group: C 2/M
;
_chemical_formula_sum "Si O2"
_cell_formula_units_Z 48
_cell_length_a 7.595332
_cell_length_b 21.883978
_cell_length_c 12.639842
_cell_angle_alpha 90.000000
_cell_angle_beta 87.232953
_cell_angle_gamma 90.000000
_cell_volume 2098.495409
_symmetry_space_group_name_H-M "C 2/M"
_symmetry_group_IT_number 12
_symmetry_cell_setting 'monoclinic'
loop_
_space_group_symop_operation_xyz
x,y,z
-x,y,-z
-x,-y,-z
x,-y,z
1/2+x,1/2+y,z
1/2-x,1/2+y,-z
1/2-x,1/2-y,-z
1/2+x,1/2-y,z
loop_
_atom_site_type_symbol
_atom_site_label
_atom_site_fract_x
_atom_site_fract_y
_atom_site_fract_z
Si Si1 0.479870 0.926900 0.666528
Si Si2 0.387318 0.573247 0.400247
Si Si3 0.788558 0.565848 0.023287
Si Si4 0.183954 0.878394 0.242355
Si Si5 0.694966 0.848741 0.154345
Si Si6 0.987076 0.771396 0.872640
O O1 0.322983 0.912207 0.586866
O O2 0.661441 0.889215 0.674656
O O3 0.372584 0.904451 0.773494
O O4 0.515765 0.000000 0.662202
O O5 0.500000 0.589916 0.500000
O O6 0.393146 0.500000 0.387673
O O7 0.499594 0.601880 0.301172
O O8 0.723187 0.500000 0.989095
O O9 0.724513 0.619962 0.951463
O O10 0.737601 0.576308 0.145498
O O11 0.000000 0.567250 0.000000
O O12 0.156923 0.813931 0.182845
O O13 0.537658 0.801066 0.140559
O O14 0.840905 0.800613 0.185463
O O15 0.000000 0.777398 0.000000
#
# Coordination Sequence:
#
# PCOD9217714 Si02
#       6
#     8   8   8   8   8   8
#     4  11  23  41  67 100 135 169 215 274 333 396
#     4  10  23  44  69  98 131 166 216 280 339 399
#     4  11  22  36  58  90 133 177 217 262 316 385
#     4  12  23  41  65  98 130 177 222 265 329 388
#     4  12  23  40  59  92 133 177 225 266 314 380
#     4  12  25  40  60  92 133 181 227 268 309 383
#
# _framework density 22.873531
#
# number of rings (size 3 to 8) (size 9 to 14) (size 15 to 20)
#    0.000    0.667    5.000    4.000    0.000    0.667 
#    0.000    3.333    0.000    1.000    0.000    0.000 
#    0.000    0.000    0.000    0.000    0.000    0.000 
#
# Total GULP energy -133807.870630 kJ/mol
# GULP energy per Si atom -5575.327943 kJ/mol
# Density = 2.282147 g / cm^3
# Si number density = 22.873531 Si / 1000 Ang^3
#
#
#
# Elastic Constant Matrix: (Units=GPa)
#
#
# Indices 1 2 3 4 5 6 
#
# 1 109.7471 16.3859 -0.0119 0.0000 17.1915 0.0000
# 2 16.3859 91.4450 22.2076 0.0000 16.9585 0.0000
# 3 -0.0119 22.2076 43.4544 0.0000 9.2774 0.0000
# 4 0.0000 0.0000 0.0000 48.8091 0.0000 -18.7019
# 5 17.1915 16.9585 9.2774 0.0000 33.7319 0.0000
# 6 0.0000 0.0000 0.0000 -18.7019 0.0000 42.9307
#
#
#
# Elastic Compliance Matrix: (Units=1/GPa)
#
#
# Indices 1 2 3 4 5 6 
#
# 1 0.010084 -0.001308 0.001729 0.000000 -0.004958 0.000000
# 2 -0.001308 0.013433 -0.005913 0.000000 -0.004461 0.000000
# 3 0.001729 -0.005913 0.027185 0.000000 -0.005385 0.000000
# 4 0.000000 0.000000 0.000000 0.024593 0.000000 0.010713
# 5 -0.004958 -0.004461 -0.005385 0.000000 0.035896 0.000000
# 6 0.000000 0.000000 0.000000 0.010713 0.000000 0.027960
#
#
# Mechanical properties :
#
#
# Convention : Reuss Voigt Hill
#
# Bulk Modulus (GPa) = 25.17666 35.75664 30.46665
# Shear Modulus (GPa) = 30.60480 38.83200 34.71840
#
# Velocity S-wave (km/s) = 3.66184 4.12476 3.90018
# Velocity P-wave (km/s) = 5.37676 6.19283 5.79917
#
# Compressibility (1/GPa) = 0.03971933
#
# Stress axis : x y z
#
# Youngs Moduli (GPa) = 99.16854 74.44319 36.78533
#
# Poissons Ratio (x) = 0.09734 -0.06362
# Poissons Ratio (y) = 0.12966 0.21751
# Poissons Ratio (z) = -0.17150 0.44019
#
# Static dielectric constant tensor:
#      x y z
#    x 2.021400 0.000000 0.098590 
#    y 0.000000 1.810860 0.000000 
#    z 0.098590 0.000000 1.920870 
# 
# From -- ./inp_files/196514.got.cif
#   From: 2010.05.17/outbox.cif.g08.bks.cpg/sg12_99_cif.got.tgz:196514.got - 2010.06.03 13:09:07.
