data_PCOD9217781
_publ_section_title
;
Structure prediction by ZEFSAII (Michael W. Deem and Ramdas Pophale) SiO2 
 PCOD9217781
Probable space group: C 2/M
;
_chemical_formula_sum "Si O2"
_cell_formula_units_Z 40
_cell_length_a 21.931493
_cell_length_b 14.159007
_cell_length_c 8.282220
_cell_angle_alpha 90.000000
_cell_angle_beta 142.439220
_cell_angle_gamma 90.000000
_cell_volume 1567.814321
_symmetry_space_group_name_H-M "C 2/M"
_symmetry_group_IT_number 12
_symmetry_cell_setting 'monoclinic'
loop_
_space_group_symop_operation_xyz
x,y,z
-x,y,-z
-x,-y,-z
x,-y,z
1/2+x,1/2+y,z
1/2-x,1/2+y,-z
1/2-x,1/2-y,-z
1/2+x,1/2-y,z
loop_
_atom_site_type_symbol
_atom_site_label
_atom_site_fract_x
_atom_site_fract_y
_atom_site_fract_z
Si Si1 0.327233 0.111581 0.065540
Si Si2 0.700903 0.151251 0.352404
Si Si3 0.527428 0.387034 0.303573
Si Si4 0.204440 0.103630 0.119260
Si Si5 0.000000 0.246568 0.500000
Si Si6 0.000000 0.739567 0.000000
O O1 0.269157 0.144675 0.107499
O O2 0.422292 0.181153 0.256655
O O3 0.353704 0.000000 0.142038
O O4 0.273168 0.118005 0.775599
O O5 0.750000 0.250000 0.500000
O O6 0.732856 0.097167 0.582704
O O7 0.582451 0.169920 0.101885
O O8 0.543956 0.500000 0.324742
O O9 0.565131 0.330242 0.536895
O O10 0.559964 0.317063 0.231521
O O11 0.407033 0.365724 0.062310
O O12 0.181731 0.000000 0.005080
#
# Coordination Sequence:
#
# PCOD9217781 Si02
#       6
#     8   8   8   8   4   4
#     4  11  25  45  71 103 138 185 233 284 349 415
#     4  12  24  45  71 103 142 185 232 286 348 416
#     4  11  24  43  68 100 137 182 233 288 353 414
#     4  10  23  45  69  99 139 181 230 290 346 412
#     4  12  22  44  64  98 142 176 230 288 342 410
#     4  12  23  44  65 102 138 180 229 284 347 412
#
# _framework density 25.513224999999998
#
# number of rings (size 3 to 8) (size 9 to 14) (size 15 to 20)
#    0.000    0.800    4.000    2.700    0.000    4.800 
#    0.000    3.000    0.000    0.000    0.000    0.000 
#    0.000    0.000    0.000    0.000    0.000    0.000 
#
# Total GULP energy -111395.670129 kJ/mol
# GULP energy per Si atom -5569.783506 kJ/mol
# Density = 2.545516 g / cm^3
# Si number density = 25.513225 Si / 1000 Ang^3
#
#
#
# Elastic Constant Matrix: (Units=GPa)
#
#
# Indices 1 2 3 4 5 6 
#
# 1 116.1178 14.0461 38.2299 0.0000 -20.7275 0.0000
# 2 14.0461 111.0098 6.6745 0.0000 5.9970 0.0000
# 3 38.2299 6.6745 91.2434 0.0000 -10.6841 0.0000
# 4 0.0000 0.0000 0.0000 35.5787 0.0000 -5.1050
# 5 -20.7275 5.9970 -10.6841 0.0000 49.2424 0.0000
# 6 0.0000 0.0000 0.0000 -5.1050 0.0000 29.9916
#
#
#
# Elastic Compliance Matrix: (Units=1/GPa)
#
#
# Indices 1 2 3 4 5 6 
#
# 1 0.010762 -0.001330 -0.003963 0.000000 0.003832 0.000000
# 2 -0.001330 0.009292 -0.000329 0.000000 -0.001763 0.000000
# 3 -0.003963 -0.000329 0.012778 0.000000 0.001144 0.000000
# 4 0.000000 0.000000 0.000000 0.028810 0.000000 0.004904
# 5 0.003832 -0.001763 0.001144 0.000000 0.022384 0.000000
# 6 0.000000 0.000000 0.000000 0.004904 0.000000 0.034177
#
#
# Mechanical properties :
#
#
# Convention : Reuss Voigt Hill
#
# Bulk Modulus (GPa) = 46.32364 48.47467 47.39916
# Shear Modulus (GPa) = 36.59178 40.25724 38.42451
#
# Velocity S-wave (km/s) = 3.79123 3.97658 3.88501
# Velocity P-wave (km/s) = 6.11234 6.33446 6.22439
#
# Compressibility (1/GPa) = 0.02158725
#
# Stress axis : x y z
#
# Youngs Moduli (GPa) = 92.92246 107.62468 78.25845
#
# Poissons Ratio (x) = 0.14319 0.31014
# Poissons Ratio (y) = 0.12363 0.02572
# Poissons Ratio (z) = 0.36825 0.03537
#
# Static dielectric constant tensor:
#      x y z
#    x 2.436260 0.000000 -0.390620 
#    y 0.000000 2.235830 0.000000 
#    z -0.390620 0.000000 2.510380 
# 
# From -- ./inp_files/96661.got.cif
#   From: 2010.05.17/outbox.cif.g08.bks.cpg/sg12_49_cif.got.tgz:96661.got - 2010.06.03 13:09:07.
