data_PCOD9217562
_publ_section_title
;
Structure prediction by ZEFSAII (Michael W. Deem and Ramdas Pophale) SiO2 
 PCOD9217562
Probable space group: C 2/M
;
_chemical_formula_sum "Si O2"
_cell_formula_units_Z 40
_cell_length_a 10.724170
_cell_length_b 23.453122
_cell_length_c 11.849514
_cell_angle_alpha 90.000000
_cell_angle_beta 37.203830
_cell_angle_gamma 90.000000
_cell_volume 1802.065790
_symmetry_space_group_name_H-M "C 2/M"
_symmetry_group_IT_number 12
_symmetry_cell_setting 'monoclinic'
loop_
_space_group_symop_operation_xyz
x,y,z
-x,y,-z
-x,-y,-z
x,-y,z
1/2+x,1/2+y,z
1/2-x,1/2+y,-z
1/2-x,1/2-y,-z
1/2+x,1/2-y,z
loop_
_atom_site_type_symbol
_atom_site_label
_atom_site_fract_x
_atom_site_fract_y
_atom_site_fract_z
Si Si1 0.043690 0.632721 0.744281
Si Si2 0.306788 0.566273 0.725526
Si Si3 0.516064 0.252379 0.123100
Si Si4 0.422966 0.622590 0.876793
Si Si5 0.797121 0.562155 0.571465
O O1 0.115090 0.593240 0.796773
O O2 0.165507 0.609488 0.549683
O O3 0.091399 0.698325 0.740989
O O4 0.797479 0.626068 0.902467
O O5 0.500000 0.568288 0.500000
O O6 0.272885 0.500000 0.781470
O O7 0.361567 0.605010 0.793631
O O8 0.460526 0.317000 0.193551
O O9 0.500000 0.244872 0.000000
O O10 0.750000 0.250000 0.000000
O O11 0.591558 0.575942 0.789180
O O12 0.772723 0.500000 0.533247
O O13 0.000000 0.561162 0.500000
#
# Coordination Sequence:
#
# PCOD9217562 Si02
#       5
#     8   8   8   8   8
#     4  11  23  43  70  97 131 179 223 277 340 398
#     4  11  22  41  66  99 139 172 220 284 335 394
#     4  10  23  43  69 101 137 172 229 286 332 406
#     4  11  24  42  70  96 133 179 220 273 339 401
#     4  11  26  44  62  97 138 173 225 279 327 401
#
# _framework density 22.196749000000001
#
# number of rings (size 3 to 8) (size 9 to 14) (size 15 to 20)
#    0.000    1.200    2.000    4.200    5.600    4.800 
#    0.000    2.000    0.000    0.000    0.000    0.000 
#    0.000    0.000    0.000    0.000    0.000    0.000 
#
# Total GULP energy -111735.009103 kJ/mol
# GULP energy per Si atom -5586.750455 kJ/mol
# Density = 2.214623 g / cm^3
# Si number density = 22.196749 Si / 1000 Ang^3
#
#
#
# Elastic Constant Matrix: (Units=GPa)
#
#
# Indices 1 2 3 4 5 6 
#
# 1 90.2784 23.9938 10.0130 0.0000 -9.6271 0.0000
# 2 23.9938 146.5007 35.2788 0.0000 5.8771 0.0000
# 3 10.0130 35.2788 67.3239 0.0000 -13.1992 0.0000
# 4 0.0000 0.0000 0.0000 4.3078 0.0000 11.8331
# 5 -9.6271 5.8771 -13.1992 0.0000 35.2038 0.0000
# 6 0.0000 0.0000 0.0000 11.8331 0.0000 27.6023
#
#
#
# Elastic Compliance Matrix: (Units=1/GPa)
#
#
# Indices 1 2 3 4 5 6 
#
# 1 0.012028 -0.002127 0.000043 0.000000 0.003661 0.000000
# 2 -0.002127 0.008507 -0.004893 0.000000 -0.003837 0.000000
# 3 0.000043 -0.004893 0.018968 0.000000 0.007941 0.000000
# 4 0.000000 0.000000 0.000000 -1.307108 0.000000 0.560355
# 5 0.003661 -0.003837 0.007941 0.000000 0.033025 0.000000
# 6 0.000000 0.000000 0.000000 0.560355 0.000000 -0.203994
#
#
# Mechanical properties :
#
#
# Convention : Reuss Voigt Hill
#
# Bulk Modulus (GPa) = 39.14167 49.18604 44.16386
# Shear Modulus (GPa) = -3.53081 29.07728 12.77323
#
# Velocity S-wave (km/s) = -1.26259 3.62329 2.40147
# Velocity P-wave (km/s) = 3.94293 6.30171 5.25634
#
# Compressibility (1/GPa) = 0.02554822
#
# Stress axis : x y z
#
# Youngs Moduli (GPa) = 83.14115 117.55603 52.72010
#
# Poissons Ratio (x) = 0.25007 -0.00229
# Poissons Ratio (y) = 0.17686 0.25798
# Poissons Ratio (z) = -0.00362 0.57525
#
# Static dielectric constant tensor:
#      x y z
#    x 1.809030 0.000000 -0.023070 
#    y 0.000000 1.884550 0.000000 
#    z -0.023070 0.000000 1.805180 
# 
# From -- ./inp_files/133640.got.cif
#   From: 2010.05.17/outbox.cif.g08.bks.cpg/sg12_67_cif.got.tgz:133640.got - 2010.06.03 13:09:07.
