data_PCOD9217104
_publ_section_title
;
Structure prediction by ZEFSAII (Michael W. Deem and Ramdas Pophale) SiO2 
 PCOD9217104
Probable space group: C 2/M
;
_chemical_formula_sum "Si O2"
_cell_formula_units_Z 26
_cell_length_a 13.303567
_cell_length_b 19.959709
_cell_length_c 5.140729
_cell_angle_alpha 90.000000
_cell_angle_beta 45.380863
_cell_angle_gamma 90.000000
_cell_volume 971.627514
_symmetry_space_group_name_H-M "C 2/M"
_symmetry_group_IT_number 12
_symmetry_cell_setting 'monoclinic'
loop_
_space_group_symop_operation_xyz
x,y,z
-x,y,-z
-x,-y,-z
x,-y,z
1/2+x,1/2+y,z
1/2-x,1/2+y,-z
1/2-x,1/2-y,-z
1/2+x,1/2-y,z
loop_
_atom_site_type_symbol
_atom_site_label
_atom_site_fract_x
_atom_site_fract_y
_atom_site_fract_z
Si Si1 0.000000 0.500000 0.000000
Si Si2 0.406871 0.758642 0.929157
Si Si3 0.095223 0.106887 0.067614
Si Si4 0.649708 0.896792 0.083008
O O1 0.111127 0.442238 0.909859
O O2 0.500000 0.752613 0.500000
O O3 0.362260 0.683691 0.083203
O O4 0.302225 0.820860 0.074441
O O5 0.500000 0.782838 0.000000
O O6 0.000000 0.105878 0.500000
O O7 0.238804 0.074610 0.913163
O O8 0.000000 0.081462 0.000000
O O9 0.500000 0.892750 0.500000
#
# Coordination Sequence:
#
# PCOD9217104 Si02
#       4
#     2   8   8   8
#     4  12  26  44  68  92 132 176 236 266 316 374
#     4   9  18  36  63  99 131 166 208 267 332 390
#     4  10  23  41  69 102 136 166 210 274 341 393
#     4  11  24  43  67  95 132 175 227 267 322 389
#
# _framework density 26.759228
#
# number of rings (size 3 to 8) (size 9 to 14) (size 15 to 20)
#    0.000    1.846    1.538    1.385    4.308    0.000 
#    0.000   13.846    0.000    0.000    0.000    0.000 
#    0.000    0.000    0.000    0.000    0.000    0.000 
#
# Total GULP energy -72409.381606 kJ/mol
# GULP energy per Si atom -5569.952431 kJ/mol
# Density = 2.669832 g / cm^3
# Si number density = 26.759228 Si / 1000 Ang^3
#
#
#
# Elastic Constant Matrix: (Units=GPa)
#
#
# Indices 1 2 3 4 5 6 
#
# 1 306.1158 26.4908 30.8088 0.0000 3.6642 0.0000
# 2 26.4908 135.9301 0.0849 0.0000 -10.6117 0.0000
# 3 30.8088 0.0849 114.9311 0.0000 17.0579 0.0000
# 4 0.0000 0.0000 0.0000 37.2156 0.0000 82.9344
# 5 3.6642 -10.6117 17.0579 0.0000 45.4864 0.0000
# 6 0.0000 0.0000 0.0000 82.9344 0.0000 120.9370
#
#
#
# Elastic Compliance Matrix: (Units=1/GPa)
#
#
# Indices 1 2 3 4 5 6 
#
# 1 0.003417 -0.000673 -0.000901 0.000000 -0.000094 0.000000
# 2 -0.000673 0.007634 -0.000103 0.000000 0.001874 0.000000
# 3 -0.000901 -0.000103 0.009462 0.000000 -0.003500 0.000000
# 4 0.000000 0.000000 0.000000 -0.050870 0.000000 0.034885
# 5 -0.000094 0.001874 -0.003500 0.000000 0.023742 0.000000
# 6 0.000000 0.000000 0.000000 0.034885 0.000000 -0.015654
#
#
# Mechanical properties :
#
#
# Convention : Reuss Voigt Hill
#
# Bulk Modulus (GPa) = 58.28232 74.63844 66.46038
# Shear Modulus (GPa) = -378.93758 74.03396 -152.45181
#
# Velocity S-wave (km/s) = -11.91291 5.26562 -7.55615
# Velocity P-wave (km/s) = 12.93815 8.05743 7.15799
#
# Compressibility (1/GPa) = 0.01715786
#
# Stress axis : x y z
#
# Youngs Moduli (GPa) = 292.67131 130.98987 105.68549
#
# Poissons Ratio (x) = 0.08811 0.09527
# Poissons Ratio (y) = 0.19687 0.01093
# Poissons Ratio (z) = 0.26383 0.01355
#
# Static dielectric constant tensor:
#      x y z
#    x 2.080090 0.000000 -0.020810 
#    y 0.000000 2.185430 0.000000 
#    z -0.020810 0.000000 2.117620 
# 
# From -- ./inp_files/5562.got.cif
#   From: 2010.05.17/outbox.cif.g08.bks.cpg/sg12_3_cif.got.tgz:5562.got - 2010.06.03 13:09:07.
