data_PCOD9217558
_publ_section_title
;
Structure prediction by ZEFSAII (Michael W. Deem and Ramdas Pophale) SiO2 
 PCOD9217558
Probable space group: C 2/M
;
_chemical_formula_sum "Si O2"
_cell_formula_units_Z 32
_cell_length_a 7.783967
_cell_length_b 20.576051
_cell_length_c 12.968242
_cell_angle_alpha 90.000000
_cell_angle_beta 41.615508
_cell_angle_gamma 90.000000
_cell_volume 1379.419299
_symmetry_space_group_name_H-M "C 2/M"
_symmetry_group_IT_number 12
_symmetry_cell_setting 'monoclinic'
loop_
_space_group_symop_operation_xyz
x,y,z
-x,y,-z
-x,-y,-z
x,-y,z
1/2+x,1/2+y,z
1/2-x,1/2+y,-z
1/2-x,1/2-y,-z
1/2+x,1/2-y,z
loop_
_atom_site_type_symbol
_atom_site_label
_atom_site_fract_x
_atom_site_fract_y
_atom_site_fract_z
Si Si1 0.283297 0.071474 0.509328
Si Si2 0.777844 0.796337 0.850705
Si Si3 0.721162 0.809049 0.646167
Si Si4 0.689515 0.569620 0.121472
O O1 0.500000 0.081377 0.500000
O O2 0.297206 0.129561 0.421323
O O3 0.012032 0.067667 0.692264
O O4 0.326614 0.000000 0.441331
O O5 0.727788 0.828778 0.762048
O O6 0.850874 0.855225 0.895675
O O7 0.996791 0.743447 0.738322
O O8 0.500000 0.766122 0.000000
O O9 0.000000 0.776767 0.500000
O O10 0.633719 0.500000 0.090536
O O11 0.000000 0.568024 0.000000
#
# Coordination Sequence:
#
# PCOD9217558 Si02
#       4
#     8   8   8   8
#     4  10  23  43  68  98 131 168 214 272 327 380
#     4  11  25  43  64  94 134 175 213 269 323 380
#     4  12  25  41  66  96 129 172 219 266 318 385
#     4   9  19  38  65  92 124 167 215 261 320 382
#
# _framework density 23.198169
#
# number of rings (size 3 to 8) (size 9 to 14) (size 15 to 20)
#    0.000    1.500    2.500    1.500    3.500    1.500 
#    0.000    0.000    0.000    0.750    0.000    0.000 
#    0.000    0.000    0.000    0.000    0.000    0.000 
#
# Total GULP energy -89136.012042 kJ/mol
# GULP energy per Si atom -5571.000753 kJ/mol
# Density = 2.314537 g / cm^3
# Si number density = 23.198169 Si / 1000 Ang^3
#
#
#
# Elastic Constant Matrix: (Units=GPa)
#
#
# Indices 1 2 3 4 5 6 
#
# 1 70.7604 65.9709 51.4425 0.0000 -16.6796 0.0001
# 2 65.9709 180.7211 65.4552 0.0000 -42.6985 0.0000
# 3 51.4425 65.4552 140.3369 0.0000 -44.2733 0.0001
# 4 0.0000 0.0000 0.0000 136.8883 0.0000 137.3137
# 5 -16.6796 -42.6985 -44.2733 0.0000 28.6041 -0.0001
# 6 0.0001 0.0000 0.0001 137.3137 -0.0001 304.0014
#
#
#
# Elastic Compliance Matrix: (Units=1/GPa)
#
#
# Indices 1 2 3 4 5 6 
#
# 1 0.026803 -0.009463 -0.009648 0.000000 -0.013429 0.000000
# 2 -0.009463 0.011889 0.003482 0.000000 0.017619 0.000000
# 3 -0.009648 0.003482 0.017399 0.000000 0.026501 0.000000
# 4 0.000000 0.000000 0.000000 0.013357 0.000000 -0.006033
# 5 -0.013429 0.017619 0.026501 0.000000 0.094448 0.000000
# 6 0.000000 0.000000 0.000000 -0.006033 0.000000 0.006015
#
#
# Mechanical properties :
#
#
# Convention : Reuss Voigt Hill
#
# Bulk Modulus (GPa) = 40.26890 84.17286 62.22088
# Shear Modulus (GPa) = 23.87233 107.82875 65.85054
#
# Velocity S-wave (km/s) = 3.21138 6.82514 5.33364
# Velocity P-wave (km/s) = 5.58094 9.92336 8.05046
#
# Compressibility (1/GPa) = 0.02483306
#
# Stress axis : x y z
#
# Youngs Moduli (GPa) = 37.30928 84.10856 57.47417
#
# Poissons Ratio (x) = 0.79589 0.55452
# Poissons Ratio (y) = 0.35305 -0.20010
# Poissons Ratio (z) = 0.35997 -0.29283
#
# Static dielectric constant tensor:
#      x y z
#    x 1.904190 0.000000 0.025420 
#    y 0.000000 1.975790 0.000000 
#    z 0.025420 0.000000 1.900450 
# 
# From -- ./inp_files/65643.got.cif
#   From: 2010.05.17/outbox.cif.g08.bks.cpg/sg12_33_cif.got.tgz:65643.got - 2010.06.03 13:09:07.
