data_PCOD9217311
_publ_section_title
;
Structure prediction by ZEFSAII (Michael W. Deem and Ramdas Pophale) SiO2 
 PCOD9217311
Probable space group: C 2/M
;
_chemical_formula_sum "Si O2"
_cell_formula_units_Z 58
_cell_length_a 19.496075
_cell_length_b 28.631654
_cell_length_c 5.412037
_cell_angle_alpha 90.000000
_cell_angle_beta 62.785299
_cell_angle_gamma 90.000000
_cell_volume 2686.595080
_symmetry_space_group_name_H-M "C 2/M"
_symmetry_group_IT_number 12
_symmetry_cell_setting 'monoclinic'
loop_
_space_group_symop_operation_xyz
x,y,z
-x,y,-z
-x,-y,-z
x,-y,z
1/2+x,1/2+y,z
1/2-x,1/2+y,-z
1/2-x,1/2-y,-z
1/2+x,1/2-y,z
loop_
_atom_site_type_symbol
_atom_site_label
_atom_site_fract_x
_atom_site_fract_y
_atom_site_fract_z
Si Si1 0.420395 0.930282 0.275395
Si Si2 0.000000 0.500000 0.500000
Si Si3 0.295691 0.908539 0.129829
Si Si4 0.410120 0.151284 0.598750
Si Si5 0.794110 0.174574 0.448140
Si Si6 0.315468 0.761654 0.694388
Si Si7 0.134101 0.945600 0.322292
Si Si8 0.413350 0.606243 0.088380
O O1 0.346056 0.941056 0.231232
O O2 0.406926 0.875128 0.341073
O O3 0.439698 0.959498 0.489347
O O4 0.500000 0.939264 0.000000
O O5 0.249151 0.866238 0.335644
O O6 0.225985 0.937604 0.125167
O O7 0.354770 0.881854 0.852452
O O8 0.500000 0.148160 0.500000
O O9 0.382349 0.204188 0.674466
O O10 0.728454 0.205081 0.427463
O O11 0.839169 0.212173 0.541313
O O12 0.853332 0.149046 0.169706
O O13 0.250000 0.750000 0.000000
O O14 0.111918 0.923437 0.625784
O O15 0.116260 0.000000 0.358808
O O16 0.091844 0.921955 0.158755
O O17 0.500000 0.622067 0.000000
#
# Coordination Sequence:
#
# PCOD9217311 Si02
#       8
#     8   2   8   8   8   8   8   8
#     4  12  24  44  65  94 138 187 235 291 356 418
#     4  12  26  44  64  98 140 192 244 286 372 428
#     4  11  23  42  69  95 140 184 233 297 355 425
#     4  12  23  42  65 100 134 185 234 291 354 427
#     4  10  23  42  66  99 132 185 230 284 365 430
#     4  11  22  41  68  96 137 178 238 295 353 426
#     4  11  26  46  73 110 138 185 245 293 359 434
#     4  11  25  48  74 104 146 186 230 295 370 439
#
# _framework density 21.588666
#
# number of rings (size 3 to 8) (size 9 to 14) (size 15 to 20)
#    0.000    0.828    4.828    1.862    4.828    1.655 
#    3.724    0.000    0.000    0.000    0.000    0.000 
#    0.000    0.000    0.000    0.000    0.000    0.000 
#
# Total GULP energy -161557.895671 kJ/mol
# GULP energy per Si atom -5570.961920 kJ/mol
# Density = 2.153953 g / cm^3
# Si number density = 21.588666 Si / 1000 Ang^3
#
#
#
# Elastic Constant Matrix: (Units=GPa)
#
#
# Indices 1 2 3 4 5 6 
#
# 1 62.9754 -13.1513 -15.3804 0.0000 -3.9804 0.0000
# 2 -13.1513 86.7350 4.9553 0.0000 -2.3136 0.0000
# 3 -15.3804 4.9553 36.4443 0.0000 -1.9796 0.0000
# 4 0.0000 0.0000 0.0000 337.9087 0.0000 -23.7008
# 5 -3.9804 -2.3136 -1.9796 0.0000 34.5161 0.0000
# 6 0.0000 0.0000 0.0000 -23.7008 0.0000 35.8199
#
#
#
# Elastic Compliance Matrix: (Units=1/GPa)
#
#
# Indices 1 2 3 4 5 6 
#
# 1 0.018412 0.002431 0.007588 0.000000 0.002721 0.000000
# 2 0.002431 0.011957 -0.000543 0.000000 0.001051 0.000000
# 3 0.007588 -0.000543 0.030857 0.000000 0.002608 0.000000
# 4 0.000000 0.000000 0.000000 0.003103 0.000000 0.002053
# 5 0.002721 0.001051 0.002608 0.000000 0.029506 0.000000
# 6 0.000000 0.000000 0.000000 0.002053 0.000000 0.029276
#
#
# Mechanical properties :
#
#
# Convention : Reuss Voigt Hill
#
# Bulk Modulus (GPa) = 12.47240 15.44464 13.95852
# Shear Modulus (GPa) = 38.20130 95.63101 66.91616
#
# Velocity S-wave (km/s) = 4.21111 6.66281 5.57344
# Velocity P-wave (km/s) = 5.42536 8.14618 6.92079
#
# Compressibility (1/GPa) = 0.08017704
#
# Stress axis : x y z
#
# Youngs Moduli (GPa) = 54.31248 83.63304 32.40776
#
# Poissons Ratio (x) = -0.20330 -0.24590
# Poissons Ratio (y) = -0.13203 0.01759
# Poissons Ratio (z) = -0.41210 0.04540
#
# Static dielectric constant tensor:
#      x y z
#    x 1.966850 0.000000 0.020910 
#    y 0.000000 1.856440 0.000000 
#    z 0.020910 0.000000 1.977600 
# 
# From -- ./inp_files/22457.got.cif
#   From: 2010.05.17/outbox.cif.g08.bks.cpg/sg12_12_cif.got.tgz:22457.got - 2010.06.03 13:09:07.
