data_PCOD9217195
_publ_section_title
;
Structure prediction by ZEFSAII (Michael W. Deem and Ramdas Pophale) SiO2 
 PCOD9217195
Probable space group: C 2/M
;
_chemical_formula_sum "Si O2"
_cell_formula_units_Z 40
_cell_length_a 22.060877
_cell_length_b 16.604597
_cell_length_c 7.755638
_cell_angle_alpha 90.000000
_cell_angle_beta 137.345694
_cell_angle_gamma 90.000000
_cell_volume 1924.974408
_symmetry_space_group_name_H-M "C 2/M"
_symmetry_group_IT_number 12
_symmetry_cell_setting 'monoclinic'
loop_
_space_group_symop_operation_xyz
x,y,z
-x,y,-z
-x,-y,-z
x,-y,z
1/2+x,1/2+y,z
1/2-x,1/2+y,-z
1/2-x,1/2-y,-z
1/2+x,1/2-y,z
loop_
_atom_site_type_symbol
_atom_site_label
_atom_site_fract_x
_atom_site_fract_y
_atom_site_fract_z
Si Si1 0.465966 0.169396 0.620329
Si Si2 0.704430 0.000000 0.455627
Si Si3 0.257381 0.167348 0.113787
Si Si4 0.805657 0.833025 0.655769
Si Si5 0.943987 0.500000 0.138201
Si Si6 0.704478 0.000000 0.877017
Si Si7 0.500000 0.713987 0.000000
O O1 0.500000 0.189721 0.500000
O O2 0.358674 0.168002 0.399192
O O3 0.499667 0.080707 0.735240
O O4 0.504527 0.229567 0.841740
O O5 0.754412 0.916608 0.507581
O O6 0.695720 0.000000 0.647547
O O7 0.614075 0.000000 0.156959
O O8 0.188321 0.165812 0.124671
O O9 0.248403 0.085238 0.986860
O O10 0.250000 0.250000 0.000000
O O11 0.750000 0.750000 0.500000
O O12 0.905324 0.831433 0.788557
O O13 0.118035 0.500000 0.818908
#
# Coordination Sequence:
#
# PCOD9217195 Si02
#       7
#     8   4   8   8   4   4   4
#     4  12  24  39  63 102 137 173 222 275 348 412
#     4  10  26  44  67  98 138 181 227 283 338 400
#     4  11  23  42  66  92 141 179 219 279 336 403
#     4  11  23  45  65  97 134 178 232 276 338 404
#     4  12  24  37  71 102 135 176 215 276 368 412
#     4  10  23  42  63  99 137 168 221 281 331 414
#     4  12  26  42  70  94 136 182 232 283 328 405
#
# _framework density 20.779496999999999
#
# number of rings (size 3 to 8) (size 9 to 14) (size 15 to 20)
#    0.000    0.800    4.000    3.300    5.600    0.800 
#    0.000    0.000    0.000    0.000    0.000    9.100 
#    0.000    0.000    0.000    0.000    0.000    0.000 
#
# Total GULP energy -111789.907965 kJ/mol
# GULP energy per Si atom -5589.495398 kJ/mol
# Density = 2.073220 g / cm^3
# Si number density = 20.779497 Si / 1000 Ang^3
#
#
#
# Elastic Constant Matrix: (Units=GPa)
#
#
# Indices 1 2 3 4 5 6 
#
# 1 90.4925 33.4905 29.8007 0.0000 8.5267 0.0000
# 2 33.4905 169.2345 42.7632 0.0000 4.0091 0.0000
# 3 29.8007 42.7632 63.1086 0.0000 -0.2799 0.0000
# 4 0.0000 0.0000 0.0000 22.9963 0.0000 4.7098
# 5 8.5267 4.0091 -0.2799 0.0000 31.3677 0.0000
# 6 0.0000 0.0000 0.0000 4.7098 0.0000 29.7988
#
#
#
# Elastic Compliance Matrix: (Units=1/GPa)
#
#
# Indices 1 2 3 4 5 6 
#
# 1 0.013703 -0.001191 -0.005680 0.000000 -0.003623 0.000000
# 2 -0.001191 0.007262 -0.004361 0.000000 -0.000643 0.000000
# 3 -0.005680 -0.004361 0.021493 0.000000 0.002293 0.000000
# 4 0.000000 0.000000 0.000000 0.044940 0.000000 -0.007103
# 5 -0.003623 -0.000643 0.002293 0.000000 0.032968 0.000000
# 6 0.000000 0.000000 0.000000 -0.007103 0.000000 0.034681
#
#
# Mechanical properties :
#
#
# Convention : Reuss Voigt Hill
#
# Bulk Modulus (GPa) = 50.01430 59.43826 54.72628
# Shear Modulus (GPa) = 27.14790 31.28464 29.21627
#
# Velocity S-wave (km/s) = 3.61844 3.88436 3.75375
# Velocity P-wave (km/s) = 6.44816 6.98455 6.72171
#
# Compressibility (1/GPa) = 0.01999428
#
# Stress axis : x y z
#
# Youngs Moduli (GPa) = 72.97525 137.70543 46.52594
#
# Poissons Ratio (x) = 0.16396 0.26427
# Poissons Ratio (y) = 0.08689 0.20292
# Poissons Ratio (z) = 0.41451 0.60058
#
# Static dielectric constant tensor:
#      x y z
#    x 1.783450 0.000000 -0.006620 
#    y 0.000000 1.779390 0.000000 
#    z -0.006620 0.000000 1.760030 
# 
# From -- ./inp_files/97943.got.cif
#   From: 2010.05.17/outbox.cif.g08.bks.cpg/sg12_49_cif.got.tgz:97943.got - 2010.06.03 13:09:07.
