data_PCOD9217470
_publ_section_title
;
Structure prediction by ZEFSAII (Michael W. Deem and Ramdas Pophale) SiO2 
 PCOD9217470
Probable space group: C 2/M
;
_chemical_formula_sum "Si O2"
_cell_formula_units_Z 48
_cell_length_a 14.127804
_cell_length_b 29.375472
_cell_length_c 8.141712
_cell_angle_alpha 90.000000
_cell_angle_beta 43.749242
_cell_angle_gamma 90.000000
_cell_volume 2336.520698
_symmetry_space_group_name_H-M "C 2/M"
_symmetry_group_IT_number 12
_symmetry_cell_setting 'monoclinic'
loop_
_space_group_symop_operation_xyz
x,y,z
-x,y,-z
-x,-y,-z
x,-y,z
1/2+x,1/2+y,z
1/2-x,1/2+y,-z
1/2-x,1/2-y,-z
1/2+x,1/2-y,z
loop_
_atom_site_type_symbol
_atom_site_label
_atom_site_fract_x
_atom_site_fract_y
_atom_site_fract_z
Si Si1 0.378965 0.051678 0.279409
Si Si2 0.572310 0.450742 0.584072
Si Si3 0.445614 0.268139 0.807725
Si Si4 0.927390 0.133339 0.922968
Si Si5 0.200760 0.732451 0.335823
Si Si6 0.142798 0.628049 0.416043
O O1 0.234912 0.052384 0.365520
O O2 0.372788 0.091444 0.420734
O O3 0.394356 0.000000 0.330169
O O4 0.500000 0.059235 0.000000
O O5 0.500000 0.449861 0.500000
O O6 0.541174 0.500000 0.702691
O O7 0.519351 0.407768 0.748027
O O8 0.421941 0.322250 0.815582
O O9 0.608640 0.259999 0.582513
O O10 0.376793 0.240507 0.743163
O O11 0.356660 0.256546 0.083102
O O12 0.774564 0.114913 0.142181
O O13 0.000000 0.149523 0.000000
O O14 0.183284 0.679950 0.411387
O O15 0.000000 0.629790 0.500000
#
# Coordination Sequence:
#
# PCOD9217470 Si02
#       6
#     8   8   8   8   8   8
#     4  10  23  44  64  93 133 165 206 262 317 379
#     4  10  23  43  66  92 123 164 209 256 319 384
#     4   9  18  35  59  84 121 164 207 260 311 371
#     4  11  23  40  62  95 127 159 214 268 315 372
#     4   9  18  37  59  87 120 165 210 255 315 366
#     4  11  22  40  66  92 128 166 212 256 313 383
#
# _framework density 20.543365000000001
#
# number of rings (size 3 to 8) (size 9 to 14) (size 15 to 20)
#    0.000    2.000    3.333    0.000    4.667    1.333 
#    3.000    4.167    0.000    0.000    0.000    0.000 
#    0.000    0.000    0.000    0.000    0.000    0.000 
#
# Total GULP energy -133799.221397 kJ/mol
# GULP energy per Si atom -5574.967558 kJ/mol
# Density = 2.049661 g / cm^3
# Si number density = 20.543365 Si / 1000 Ang^3
#
#
#
# Elastic Constant Matrix: (Units=GPa)
#
#
# Indices 1 2 3 4 5 6 
#
# 1 57.4565 21.1202 30.3723 0.0000 -14.3974 0.0000
# 2 21.1202 128.6376 71.4792 0.0000 6.1179 0.0000
# 3 30.3723 71.4792 184.0182 0.0000 -29.0864 0.0000
# 4 0.0000 0.0000 0.0000 44.7879 0.0000 -2.5346
# 5 -14.3974 6.1179 -29.0864 0.0000 34.7486 0.0000
# 6 0.0000 0.0000 0.0000 -2.5346 0.0000 25.1912
#
#
#
# Elastic Compliance Matrix: (Units=1/GPa)
#
#
# Indices 1 2 3 4 5 6 
#
# 1 0.021297 -0.003486 -0.000771 0.000000 0.008792 0.000000
# 2 -0.003486 0.011582 -0.005156 0.000000 -0.007800 0.000000
# 3 -0.000771 -0.005156 0.008825 0.000000 0.007975 0.000000
# 4 0.000000 0.000000 0.000000 0.022455 0.000000 0.002259
# 5 0.008792 -0.007800 0.007975 0.000000 0.040470 0.000000
# 6 0.000000 0.000000 0.000000 0.002259 0.000000 0.039924
#
#
# Mechanical properties :
#
#
# Convention : Reuss Voigt Hill
#
# Bulk Modulus (GPa) = 43.71299 68.45063 56.08181
# Shear Modulus (GPa) = 29.23867 37.42159 33.33013
#
# Velocity S-wave (km/s) = 3.77671 4.27264 4.03231
# Velocity P-wave (km/s) = 6.35159 7.59822 7.00270
#
# Compressibility (1/GPa) = 0.02287649
#
# Stress axis : x y z
#
# Youngs Moduli (GPa) = 46.95560 86.33807 113.31327
#
# Poissons Ratio (x) = 0.30099 0.08738
# Poissons Ratio (y) = 0.16370 0.58430
# Poissons Ratio (z) = 0.03621 0.44520
#
# Static dielectric constant tensor:
#      x y z
#    x 1.667490 0.000000 -0.027620 
#    y 0.000000 1.737320 0.000000 
#    z -0.027620 0.000000 1.761620 
# 
# From -- ./inp_files/67306.got.cif
#   From: 2010.05.17/outbox.cif.g08.bks.cpg/sg12_34_cif.got.tgz:67306.got - 2010.06.03 13:09:07.
