data_PCOD9217894
_publ_section_title
;
Structure prediction by ZEFSAII (Michael W. Deem and Ramdas Pophale) SiO2 
 PCOD9217894
Probable space group: C 2/M
;
_chemical_formula_sum "Si O2"
_cell_formula_units_Z 52
_cell_length_a 20.559894
_cell_length_b 23.130276
_cell_length_c 8.448680
_cell_angle_alpha 90.000000
_cell_angle_beta 40.474437
_cell_angle_gamma 90.000000
_cell_volume 2608.002433
_symmetry_space_group_name_H-M "C 2/M"
_symmetry_group_IT_number 12
_symmetry_cell_setting 'monoclinic'
loop_
_space_group_symop_operation_xyz
x,y,z
-x,y,-z
-x,-y,-z
x,-y,z
1/2+x,1/2+y,z
1/2-x,1/2+y,-z
1/2-x,1/2-y,-z
1/2+x,1/2-y,z
loop_
_atom_site_type_symbol
_atom_site_label
_atom_site_fract_x
_atom_site_fract_y
_atom_site_fract_z
Si Si1 0.573700 0.371943 0.220986
Si Si2 0.902498 0.733073 0.779683
Si Si3 0.281712 0.684548 0.422763
Si Si4 0.000000 0.142492 0.000000
Si Si5 0.592229 0.149306 0.949624
Si Si6 0.469200 0.063870 0.376197
Si Si7 0.218291 0.356254 0.201142
O O1 0.500000 0.390864 0.500000
O O2 0.589929 0.302224 0.219568
O O3 0.534431 0.384076 0.111751
O O4 0.687974 0.393630 0.035975
O O5 0.816319 0.695751 0.850480
O O6 0.000000 0.715205 0.500000
O O7 0.908251 0.706114 0.941793
O O8 0.250000 0.750000 0.500000
O O9 0.398668 0.675310 0.240052
O O10 0.202234 0.646360 0.669524
O O11 0.262069 0.671213 0.277830
O O12 0.500000 0.154897 0.000000
O O13 0.559357 0.095116 0.117153
O O14 0.500000 0.058025 0.500000
O O15 0.373366 0.105274 0.566883
O O16 0.447614 0.000000 0.349469
#
# Coordination Sequence:
#
# PCOD9217894 Si02
#       7
#     8   8   8   4   8   8   8
#     4  10  24  34  57  81 118 164 206 241 288 372
#     4  11  20  33  54  81 119 157 197 239 287 371
#     4  11  25  35  59  82 125 165 196 249 299 365
#     4  10  24  40  46  84 119 158 205 242 288 346
#     4  12  21  36  59  88 119 156 200 248 306 368
#     4  11  23  41  63  88 120 155 202 265 320 361
#     4  11  20  41  53  83 116 158 198 250 309 357
#
# _framework density 19.938631000000001
#
# number of rings (size 3 to 8) (size 9 to 14) (size 15 to 20)
#    0.000    1.077    4.615    2.308   10.769    0.308 
#    0.000    0.000    0.000    0.462    0.000   13.462 
#    0.000    0.000    0.000    0.000    0.000    0.000 
#
# Total GULP energy -144806.872296 kJ/mol
# GULP energy per Si atom -5569.495088 kJ/mol
# Density = 1.989325 g / cm^3
# Si number density = 19.938631 Si / 1000 Ang^3
#
#
#
# Elastic Constant Matrix: (Units=GPa)
#
#
# Indices 1 2 3 4 5 6 
#
# 1 71.5299 -4.0735 24.4070 0.0000 -7.1008 0.0000
# 2 -4.0735 45.2276 13.5907 0.0000 -6.2478 0.0000
# 3 24.4070 13.5907 161.5689 0.0000 -9.8332 0.0000
# 4 0.0000 0.0000 0.0000 544.1751 0.0000 70.6550
# 5 -7.1008 -6.2478 -9.8332 0.0000 35.0050 0.0000
# 6 0.0000 0.0000 0.0000 70.6550 0.0000 17.9676
#
#
#
# Elastic Compliance Matrix: (Units=1/GPa)
#
#
# Indices 1 2 3 4 5 6 
#
# 1 0.015200 0.002465 -0.002329 0.000000 0.002869 0.000000
# 2 0.002465 0.023532 -0.002102 0.000000 0.004110 0.000000
# 3 -0.002329 -0.002102 0.006782 0.000000 0.001058 0.000000
# 4 0.000000 0.000000 0.000000 0.003755 0.000000 -0.014765
# 5 0.002869 0.004110 0.001058 0.000000 0.030180 0.000000
# 6 0.000000 0.000000 0.000000 -0.014765 0.000000 0.113715
#
#
# Mechanical properties :
#
#
# Convention : Reuss Voigt Hill
#
# Bulk Modulus (GPa) = 24.04818 38.46384 31.25601
# Shear Modulus (GPa) = 23.70165 135.72302 79.71233
#
# Velocity S-wave (km/s) = 3.45154 8.25943 6.32974
# Velocity P-wave (km/s) = 5.28880 10.50193 8.31450
#
# Compressibility (1/GPa) = 0.04158319
#
# Stress axis : x y z
#
# Youngs Moduli (GPa) = 65.78938 42.49591 147.44312
#
# Poissons Ratio (x) = -0.10476 0.34338
# Poissons Ratio (y) = -0.16218 0.30988
# Poissons Ratio (z) = 0.15322 0.08931
#
# Static dielectric constant tensor:
#      x y z
#    x 1.746180 0.000000 -0.029230 
#    y 0.000000 1.743300 0.000000 
#    z -0.029230 0.000000 1.861830 
# 
# From -- ./inp_files/90608.got.cif
#   From: 2010.05.17/outbox.cif.g08.bks.cpg/sg12_46_cif.got.tgz:90608.got - 2010.06.03 13:09:07.
