data_PCOD9217476
_publ_section_title
;
Structure prediction by ZEFSAII (Michael W. Deem and Ramdas Pophale) SiO2 
 PCOD9217476
Probable space group: C 2/M
;
_chemical_formula_sum "Si O2"
_cell_formula_units_Z 36
_cell_length_a 13.872805
_cell_length_b 12.074928
_cell_length_c 19.046142
_cell_angle_alpha 90.000000
_cell_angle_beta 150.301931
_cell_angle_gamma 90.000000
_cell_volume 1580.656926
_symmetry_space_group_name_H-M "C 2/M"
_symmetry_group_IT_number 12
_symmetry_cell_setting 'monoclinic'
loop_
_space_group_symop_operation_xyz
x,y,z
-x,y,-z
-x,-y,-z
x,-y,z
1/2+x,1/2+y,z
1/2-x,1/2+y,-z
1/2-x,1/2-y,-z
1/2+x,1/2-y,z
loop_
_atom_site_type_symbol
_atom_site_label
_atom_site_fract_x
_atom_site_fract_y
_atom_site_fract_z
Si Si1 0.439942 0.000000 0.681327
Si Si2 0.313590 0.802364 0.219442
Si Si3 0.180811 0.625940 0.022823
Si Si4 0.930066 0.802708 0.801531
Si Si5 0.363889 0.305415 0.478726
O O1 0.606055 0.902861 0.774699
O O2 0.271329 0.903322 0.581105
O O3 0.214841 0.709273 0.108693
O O4 0.171685 0.843170 0.191944
O O5 0.494383 0.743561 0.373062
O O6 0.143197 0.500000 0.018739
O O7 0.378837 0.633923 0.102630
O O8 0.004896 0.677835 0.866765
O O9 0.772559 0.791467 0.640363
O O10 0.500000 0.342697 0.500000
#
# Coordination Sequence:
#
# PCOD9217476 Si02
#       5
#     4   8   8   8   8
#     4  12  23  40  68  98 132 168 211 274 320 384
#     4  11  25  43  67  98 130 171 214 268 321 388
#     4  11  25  44  69  92 134 170 216 268 317 390
#     4  10  24  45  62  99 130 168 216 260 331 378
#     4  10  23  43  66  93 131 170 219 262 318 384
#
# _framework density 22.775338999999999
#
# number of rings (size 3 to 8) (size 9 to 14) (size 15 to 20)
#    0.000    1.333    2.222    1.667    4.667    1.778 
#    0.000    2.778    0.000    0.000    0.000    0.000 
#    0.000    0.000    0.000    0.000    0.000    0.000 
#
# Total GULP energy -100239.184402 kJ/mol
# GULP energy per Si atom -5568.843578 kJ/mol
# Density = 2.272350 g / cm^3
# Si number density = 22.775339 Si / 1000 Ang^3
#
#
#
# Elastic Constant Matrix: (Units=GPa)
#
#
# Indices 1 2 3 4 5 6 
#
# 1 87.0483 9.9448 15.0727 -0.0015 11.7798 -0.0007
# 2 9.9448 111.3470 10.3484 -0.0077 -8.8753 -0.0030
# 3 15.0727 10.3484 107.4636 -0.0091 -10.7174 -0.0025
# 4 -0.0015 -0.0077 -0.0091 8.4666 -0.0002 -0.6979
# 5 11.7798 -8.8753 -10.7174 -0.0002 44.5053 0.0001
# 6 -0.0007 -0.0030 -0.0025 -0.6979 0.0001 -11.2118
#
#
#
# Elastic Compliance Matrix: (Units=1/GPa)
#
#
# Indices 1 2 3 4 5 6 
#
# 1 0.012534 -0.001253 -0.002042 -0.000001 -0.004059 0.000000
# 2 -0.001253 0.009305 -0.000514 0.000008 0.002063 -0.000003
# 3 -0.002042 -0.000514 0.009923 0.000010 0.002828 -0.000002
# 4 -0.000001 0.000008 0.000010 0.117508 0.000005 -0.007315
# 5 -0.004059 0.002063 0.002828 0.000005 0.024636 -0.000001
# 6 0.000000 -0.000003 -0.000002 -0.007315 -0.000001 -0.088737
#
#
# Mechanical properties :
#
#
# Convention : Reuss Voigt Hill
#
# Bulk Modulus (GPa) = 41.42012 41.84342 41.63177
# Shear Modulus (GPa) = 49.58473 26.38489 37.98481
#
# Velocity S-wave (km/s) = 4.67103 3.40734 4.08831
# Velocity P-wave (km/s) = 6.87875 5.82170 6.37218
#
# Compressibility (1/GPa) = 0.02414286
#
# Stress axis : x y z
#
# Youngs Moduli (GPa) = 79.78321 107.46734 100.77146
#
# Poissons Ratio (x) = 0.13468 0.20579
# Poissons Ratio (y) = 0.09999 0.05185
# Poissons Ratio (z) = 0.16293 0.05529
#
# Static dielectric constant tensor:
#      x y z
#    x 1.913450 0.000000 -0.017240 
#    y 0.000000 1.769300 0.000000 
#    z -0.017240 0.000000 1.825170 
# 
# From -- ./inp_files/309652.got.cif
#   From: 2010.05.17/outbox.cif.g08.bks.cpg/sg12_155_cif.got.tgz:309652.got - 2010.06.03 13:09:07.
