data_PCOD9217393
_publ_section_title
;
Structure prediction by ZEFSAII (Michael W. Deem and Ramdas Pophale) SiO2 
 PCOD9217393
Probable space group: C 2/M
;
_chemical_formula_sum "Si O2"
_cell_formula_units_Z 40
_cell_length_a 12.278442
_cell_length_b 13.491503
_cell_length_c 25.150440
_cell_angle_alpha 90.000000
_cell_angle_beta 157.009624
_cell_angle_gamma 90.000000
_cell_volume 1627.253821
_symmetry_space_group_name_H-M "C 2/M"
_symmetry_group_IT_number 12
_symmetry_cell_setting 'monoclinic'
loop_
_space_group_symop_operation_xyz
x,y,z
-x,y,-z
-x,-y,-z
x,-y,z
1/2+x,1/2+y,z
1/2-x,1/2+y,-z
1/2-x,1/2-y,-z
1/2+x,1/2-y,z
loop_
_atom_site_type_symbol
_atom_site_label
_atom_site_fract_x
_atom_site_fract_y
_atom_site_fract_z
Si Si1 0.845679 0.881636 0.709038
Si Si2 0.309887 0.619918 0.575625
Si Si3 0.119122 0.881470 0.609225
Si Si4 0.877752 0.321237 0.999882
Si Si5 0.809485 0.387570 0.081385
O O1 0.521654 0.862280 0.573812
O O2 0.918940 0.844929 0.682268
O O3 0.046560 0.837056 0.843218
O O4 0.882693 0.000000 0.726864
O O5 0.341356 0.500000 0.591008
O O6 0.459251 0.656471 0.589695
O O7 0.449565 0.870298 0.766749
O O8 0.000000 0.842788 0.500000
O O9 0.070461 0.000000 0.586965
O O10 0.910322 0.202255 0.016656
O O11 0.956392 0.375332 0.089368
O O12 0.000000 0.361884 0.000000
O O13 0.702473 0.500000 0.037707
#
# Coordination Sequence:
#
# PCOD9217393 Si02
#       5
#     8   8   8   8   8
#     4   9  17  32  57  90 122 155 195 252 316 358
#     4   8  15  30  55  88 122 151 195 253 304 360
#     4   9  17  34  58  84 115 158 203 239 292 366
#     4  11  23  40  63  91 123 156 211 259 300 360
#     4  10  23  43  62  87 124 162 204 251 305 366
#
# _framework density 24.581292000000001
#
# number of rings (size 3 to 8) (size 9 to 14) (size 15 to 20)
#    0.000    2.600    0.000    3.000    0.000    3.600 
#   10.800    1.000    0.000    0.000    0.000    0.000 
#    0.000    0.000    0.000    0.000    0.000    0.000 
#
# Total GULP energy -111823.888497 kJ/mol
# GULP energy per Si atom -5591.194425 kJ/mol
# Density = 2.452534 g / cm^3
# Si number density = 24.581292 Si / 1000 Ang^3
#
#
#
# Elastic Constant Matrix: (Units=GPa)
#
#
# Indices 1 2 3 4 5 6 
#
# 1 92.6802 9.1436 12.0521 -0.0123 -25.0056 -0.0047
# 2 9.1436 125.1503 10.3320 -0.0155 -11.4870 -0.0039
# 3 12.0521 10.3320 80.0302 -0.0526 -37.8236 -0.0227
# 4 -0.0123 -0.0155 -0.0526 21.5269 -0.0269 -7.2708
# 5 -25.0056 -11.4870 -37.8236 -0.0269 34.9681 -0.0049
# 6 -0.0047 -0.0039 -0.0227 -7.2708 -0.0049 12.6511
#
#
#
# Elastic Compliance Matrix: (Units=1/GPa)
#
#
# Indices 1 2 3 4 5 6 
#
# 1 0.014482 -0.000015 0.005551 0.000062 0.016356 0.000057
# 2 -0.000015 0.008246 0.000435 0.000015 0.003169 0.000013
# 3 0.005551 0.000435 0.027716 0.000168 0.034092 0.000162
# 4 0.000062 0.000015 0.000168 0.057644 0.000280 0.033129
# 5 0.016356 0.003169 0.034092 0.000280 0.078210 0.000260
# 6 0.000057 0.000013 0.000162 0.033129 0.000260 0.098084
#
#
# Mechanical properties :
#
#
# Convention : Reuss Voigt Hill
#
# Bulk Modulus (GPa) = 16.02901 40.10179 28.06540
# Shear Modulus (GPa) = 17.05114 31.58476 24.31795
#
# Velocity S-wave (km/s) = 2.63661 3.58845 3.14871
# Velocity P-wave (km/s) = 3.97541 5.78953 4.96601
#
# Compressibility (1/GPa) = 0.06238690
#
# Stress axis : x y z
#
# Youngs Moduli (GPa) = 69.04992 121.26461 36.08087
#
# Poissons Ratio (x) = 0.00184 -0.20029
# Poissons Ratio (y) = 0.00105 -0.01571
# Poissons Ratio (z) = -0.38330 -0.05281
#
# Static dielectric constant tensor:
#      x y z
#    x 1.977990 0.000000 0.023340 
#    y 0.000000 1.968030 0.000000 
#    z 0.023340 0.000000 1.927770 
# 
# From -- ./inp_files/263104.got.cif
#   From: 2010.05.17/outbox.cif.g08.bks.cpg/sg12_132_cif.got.tgz:263104.got - 2010.06.03 13:09:07.
