data_PCOD9217756
_publ_section_title
;
Structure prediction by ZEFSAII (Michael W. Deem and Ramdas Pophale) SiO2 
 PCOD9217756
Probable space group: C 2/M
;
_chemical_formula_sum "Si O2"
_cell_formula_units_Z 58
_cell_length_a 14.360329
_cell_length_b 18.418039
_cell_length_c 11.581223
_cell_angle_alpha 90.000000
_cell_angle_beta 99.731945
_cell_angle_gamma 90.000000
_cell_volume 3019.027217
_symmetry_space_group_name_H-M "C 2/M"
_symmetry_group_IT_number 12
_symmetry_cell_setting 'monoclinic'
loop_
_space_group_symop_operation_xyz
x,y,z
-x,y,-z
-x,-y,-z
x,-y,z
1/2+x,1/2+y,z
1/2-x,1/2+y,-z
1/2-x,1/2-y,-z
1/2+x,1/2-y,z
loop_
_atom_site_type_symbol
_atom_site_label
_atom_site_fract_x
_atom_site_fract_y
_atom_site_fract_z
Si Si1 0.597175 0.917268 0.949537
Si Si2 0.888858 0.919286 0.452818
Si Si3 0.677285 0.584429 0.303530
Si Si4 0.804700 0.709636 0.909098
Si Si5 0.625682 0.715930 0.719287
Si Si6 0.965118 0.817287 0.872274
Si Si7 0.500000 0.000000 0.500000
Si Si8 0.603868 0.120828 0.686848
O O1 0.579087 0.887009 0.817323
O O2 0.630216 0.000000 0.944349
O O3 0.500000 0.916542 0.000000
O O4 0.671430 0.869332 0.036284
O O5 0.838573 0.903077 0.563554
O O6 0.877680 0.853205 0.364054
O O7 0.000000 0.924249 0.500000
O O8 0.857146 0.000000 0.405290
O O9 0.657013 0.500000 0.277721
O O10 0.605576 0.632203 0.214435
O O11 0.785547 0.600741 0.298131
O O12 0.732578 0.717002 0.788615
O O13 0.903026 0.747934 0.897595
O O14 0.750000 0.750000 0.000000
O O15 0.553587 0.702865 0.810472
O O16 0.597484 0.793156 0.656869
O O17 0.000000 0.851562 0.000000
O O18 0.454457 0.935310 0.404492
#
# Coordination Sequence:
#
# PCOD9217756 Si02
#       8
#     8   8   8   8   8   8   2   8
#     4  11  23  44  69  97 139 186 222 280 355 408
#     4  10  23  45  65  92 134 177 223 275 346 406
#     4  11  23  45  70  93 136 183 219 283 346 401
#     4  12  22  41  65  99 137 175 221 283 343 413
#     4  12  25  41  70 100 136 181 229 288 341 415
#     4  12  23  40  67 102 135 174 227 279 345 414
#     4  12  28  44  70  96 138 180 236 292 330 412
#     4  12  24  47  67 101 138 178 237 283 343 408
#
# _framework density 19.211486000000001
#
# number of rings (size 3 to 8) (size 9 to 14) (size 15 to 20)
#    0.000    0.552    6.897    1.241    0.966    1.379 
#    4.966    0.000    0.000    0.000    0.000    0.000 
#    0.000    0.000    0.000    0.000    0.000    0.000 
#
# Total GULP energy -161722.291427 kJ/mol
# GULP energy per Si atom -5576.630739 kJ/mol
# Density = 1.916776 g / cm^3
# Si number density = 19.211486 Si / 1000 Ang^3
#
#
#
# Elastic Constant Matrix: (Units=GPa)
#
#
# Indices 1 2 3 4 5 6 
#
# 1 68.6498 10.2280 34.0322 0.0000 -7.6451 0.0000
# 2 10.2280 153.9403 72.4032 0.0000 6.3957 0.0000
# 3 34.0322 72.4032 86.9711 0.0000 0.8745 0.0000
# 4 0.0000 0.0000 0.0000 37.0053 0.0000 8.5597
# 5 -7.6451 6.3957 0.8745 0.0000 26.7099 0.0000
# 6 0.0000 0.0000 0.0000 8.5597 0.0000 27.6661
#
#
#
# Elastic Compliance Matrix: (Units=1/GPa)
#
#
# Indices 1 2 3 4 5 6 
#
# 1 0.019987 0.003547 -0.010826 0.000000 0.005226 0.000000
# 2 0.003547 0.011445 -0.010902 0.000000 -0.001368 0.000000
# 3 -0.010826 -0.010902 0.024823 0.000000 -0.001301 0.000000
# 4 0.000000 0.000000 0.000000 0.029106 0.000000 -0.009005
# 5 0.005226 -0.001368 -0.001301 0.000000 0.039305 0.000000
# 6 0.000000 0.000000 0.000000 -0.009005 0.000000 0.038932
#
#
# Mechanical properties :
#
#
# Convention : Reuss Voigt Hill
#
# Bulk Modulus (GPa) = 50.27002 60.32089 55.29545
# Shear Modulus (GPa) = 24.20227 31.13611 27.66919
#
# Velocity S-wave (km/s) = 3.55319 4.03016 3.79917
# Velocity P-wave (km/s) = 6.56178 7.28854 6.93469
#
# Compressibility (1/GPa) = 0.01989257
#
# Stress axis : x y z
#
# Youngs Moduli (GPa) = 50.03178 87.37655 40.28461
#
# Poissons Ratio (x) = -0.30992 0.43614
# Poissons Ratio (y) = -0.17746 0.43918
# Poissons Ratio (z) = 0.54167 0.95257
#
# Static dielectric constant tensor:
#      x y z
#    x 1.599570 0.000000 -0.119970 
#    y 0.000000 1.698540 0.000000 
#    z -0.119970 0.000000 1.445610 
# 
# From -- ./inp_files/145603.got.cif
#   From: 2010.05.17/outbox.cif.g08.bks.cpg/sg12_73_cif.got.tgz:145603.got - 2010.06.03 13:09:07.
