data_PCOD9217228
_publ_section_title
;
Structure prediction by ZEFSAII (Michael W. Deem and Ramdas Pophale) SiO2 
 PCOD9217228
Probable space group: C 2/M
;
_chemical_formula_sum "Si O2"
_cell_formula_units_Z 40
_cell_length_a 24.070303
_cell_length_b 8.823922
_cell_length_c 17.188074
_cell_angle_alpha 90.000000
_cell_angle_beta 147.142836
_cell_angle_gamma 90.000000
_cell_volume 1980.648721
_symmetry_space_group_name_H-M "C 2/M"
_symmetry_group_IT_number 12
_symmetry_cell_setting 'monoclinic'
loop_
_space_group_symop_operation_xyz
x,y,z
-x,y,-z
-x,-y,-z
x,-y,z
1/2+x,1/2+y,z
1/2-x,1/2+y,-z
1/2-x,1/2-y,-z
1/2+x,1/2-y,z
loop_
_atom_site_type_symbol
_atom_site_label
_atom_site_fract_x
_atom_site_fract_y
_atom_site_fract_z
Si Si1 0.137192 0.679459 0.376529
Si Si2 0.717612 0.818891 0.721773
Si Si3 0.539526 0.681114 0.415904
Si Si4 0.201675 0.818941 0.865309
Si Si5 0.594376 0.321969 0.169410
O O1 0.143923 0.500000 0.396116
O O2 0.250000 0.750000 0.500000
O O3 0.081709 0.754947 0.384268
O O4 0.081755 0.721838 0.230946
O O5 0.609801 0.752959 0.565572
O O6 0.747372 0.750010 0.839952
O O7 0.802411 0.781679 0.756073
O O8 0.712312 0.000000 0.721644
O O9 0.551381 0.500000 0.432791
O O10 0.419585 0.716892 0.280469
O O11 0.213925 0.000000 0.880350
O O12 0.250000 0.750000 0.000000
O O13 0.601624 0.500000 0.200733
O O14 0.500000 0.306105 0.000000
#
# Coordination Sequence:
#
# PCOD9217228 Si02
#       5
#     8   8   8   8   8
#     4  12  24  40  65  97 130 166 211 261 313 375
#     4  11  23  41  67  96 127 168 213 260 318 378
#     4  11  24  43  67  93 127 170 212 261 318 376
#     4  11  26  45  66  93 128 168 212 264 323 377
#     4  10  23  42  64  93 132 171 208 255 316 380
#
# _framework density 20.195402999999999
#
# number of rings (size 3 to 8) (size 9 to 14) (size 15 to 20)
#    0.000    1.000    2.000    4.200    2.800    6.800 
#    0.000    0.000    0.000    0.000    0.000    0.000 
#    0.000    0.000    0.000    0.000    0.000    0.000 
#
# Total GULP energy -111943.675375 kJ/mol
# GULP energy per Si atom -5597.183769 kJ/mol
# Density = 2.014944 g / cm^3
# Si number density = 20.195403 Si / 1000 Ang^3
#
#
#
# Elastic Constant Matrix: (Units=GPa)
#
#
# Indices 1 2 3 4 5 6 
#
# 1 85.0778 22.3531 16.0158 0.0000 -23.1937 0.0000
# 2 22.3531 33.5875 27.2637 0.0000 -1.3960 0.0000
# 3 16.0158 27.2637 83.3548 0.0000 -18.3592 0.0000
# 4 0.0000 0.0000 0.0000 35.9013 0.0000 -8.1322
# 5 -23.1937 -1.3960 -18.3592 0.0000 36.2338 0.0000
# 6 0.0000 0.0000 0.0000 -8.1322 0.0000 36.4031
#
#
#
# Elastic Compliance Matrix: (Units=1/GPa)
#
#
# Indices 1 2 3 4 5 6 
#
# 1 0.018712 -0.015532 0.004493 0.000000 0.013656 0.000000
# 2 -0.015532 0.054542 -0.018665 0.000000 -0.017299 0.000000
# 3 0.004493 -0.018665 0.019939 0.000000 0.012260 0.000000
# 4 0.000000 0.000000 0.000000 0.029339 0.000000 0.006554
# 5 0.013656 -0.017299 0.012260 0.000000 0.041885 0.000000
# 6 0.000000 0.000000 0.000000 0.006554 0.000000 0.028934
#
#
# Mechanical properties :
#
#
# Convention : Reuss Voigt Hill
#
# Bulk Modulus (GPa) = 29.60069 37.03172 33.31620
# Shear Modulus (GPa) = 18.93782 30.80015 24.86899
#
# Velocity S-wave (km/s) = 3.06556 3.90950 3.51296
# Velocity P-wave (km/s) = 5.21720 6.22539 5.74346
#
# Compressibility (1/GPa) = 0.03378300
#
# Stress axis : x y z
#
# Youngs Moduli (GPa) = 53.44187 18.33446 50.15315
#
# Poissons Ratio (x) = 0.28478 -0.22533
# Poissons Ratio (y) = 0.83008 0.93612
# Poissons Ratio (z) = -0.24010 0.34222
#
# Static dielectric constant tensor:
#      x y z
#    x 1.702910 0.000000 0.003000 
#    y 0.000000 1.679040 0.000000 
#    z 0.003000 0.000000 1.719710 
# 
# From -- ./inp_files/238090.got.cif
#   From: 2010.05.17/outbox.cif.g08.bks.cpg/sg12_120_cif.got.tgz:238090.got - 2010.06.03 13:09:07.
