data_PCOD9217387
_publ_section_title
;
Structure prediction by ZEFSAII (Michael W. Deem and Ramdas Pophale) SiO2 
 PCOD9217387
Probable space group: C 2/M
;
_chemical_formula_sum "Si O2"
_cell_formula_units_Z 48
_cell_length_a 10.712808
_cell_length_b 19.170864
_cell_length_c 9.469154
_cell_angle_alpha 90.000000
_cell_angle_beta 107.188133
_cell_angle_gamma 90.000000
_cell_volume 1857.864182
_symmetry_space_group_name_H-M "C 2/M"
_symmetry_group_IT_number 12
_symmetry_cell_setting 'monoclinic'
loop_
_space_group_symop_operation_xyz
x,y,z
-x,y,-z
-x,-y,-z
x,-y,z
1/2+x,1/2+y,z
1/2-x,1/2+y,-z
1/2-x,1/2-y,-z
1/2+x,1/2-y,z
loop_
_atom_site_type_symbol
_atom_site_label
_atom_site_fract_x
_atom_site_fract_y
_atom_site_fract_z
Si Si1 0.502573 0.780442 0.668334
Si Si2 0.862247 0.577703 0.334757
Si Si3 0.845536 0.579999 0.935491
Si Si4 0.904316 0.157802 0.102163
Si Si5 0.287543 0.873619 0.609496
Si Si6 0.410117 0.578011 0.652495
O O1 0.500000 0.765313 0.500000
O O2 0.574208 0.854958 0.711941
O O3 0.571531 0.725114 0.791001
O O4 0.351343 0.797806 0.655728
O O5 0.905600 0.500000 0.310539
O O6 0.866643 0.589224 0.507061
O O7 0.745279 0.635377 0.971609
O O8 0.826171 0.500000 0.978694
O O9 0.808548 0.584624 0.757995
O O10 0.000000 0.596566 0.000000
O O11 0.961431 0.097462 0.223065
O O12 0.795002 0.081255 0.731466
O O13 0.000000 0.164401 0.000000
O O14 0.143866 0.874114 0.492797
O O15 0.411329 0.500000 0.596902
#
# Coordination Sequence:
#
# PCOD9217387 Si02
#       6
#     8   8   8   8   8   8
#     4  10  23  42  74 112 154 205 255 313 382 462
#     4   8  17  37  70 111 146 185 248 321 383 443
#     4  11  26  49  78 111 153 206 264 326 388 458
#     4  12  29  49  71 110 165 213 255 311 393 470
#     4   9  20  41  70 111 149 185 251 323 387 452
#     4   9  20  40  72 107 144 193 253 322 386 449
#
# _framework density 25.836120000000001
#
# number of rings (size 3 to 8) (size 9 to 14) (size 15 to 20)
#    1.000    1.167    0.000    1.500    2.333    9.667 
#    0.000    7.500    0.000    0.500    0.000    0.000 
#    0.000    0.000    0.000    0.000    0.000    0.000 
#
# Total GULP energy -134126.848867 kJ/mol
# GULP energy per Si atom -5588.618703 kJ/mol
# Density = 2.577732 g / cm^3
# Si number density = 25.836120 Si / 1000 Ang^3
#
#
#
# Elastic Constant Matrix: (Units=GPa)
#
#
# Indices 1 2 3 4 5 6 
#
# 1 143.7395 76.1136 62.0224 0.0000 15.6322 0.0000
# 2 76.1136 136.6157 34.3979 0.0000 5.7467 0.0000
# 3 62.0224 34.3979 141.3041 0.0000 -3.5263 0.0000
# 4 0.0000 0.0000 0.0000 -15.3679 0.0000 -29.7085
# 5 15.6322 5.7467 -3.5263 0.0000 50.7755 0.0000
# 6 0.0000 0.0000 0.0000 -29.7085 0.0000 -9.9962
#
#
#
# Elastic Compliance Matrix: (Units=1/GPa)
#
#
# Indices 1 2 3 4 5 6 
#
# 1 0.011966 -0.005521 -0.003991 0.000000 -0.003336 0.000000
# 2 -0.005521 0.010398 -0.000095 0.000000 0.000516 0.000000
# 3 -0.003991 -0.000095 0.008898 0.000000 0.001858 0.000000
# 4 0.000000 0.000000 0.000000 0.013713 0.000000 -0.040754
# 5 -0.003336 0.000516 0.001858 0.000000 0.020792 0.000000
# 6 0.000000 0.000000 0.000000 -0.040754 0.000000 0.021081
#
#
# Mechanical properties :
#
#
# Convention : Reuss Voigt Hill
#
# Bulk Modulus (GPa) = 83.00707 85.19190 84.09949
# Shear Modulus (GPa) = 45.42191 21.69063 33.55627
#
# Velocity S-wave (km/s) = 4.19749 2.90064 3.60781
# Velocity P-wave (km/s) = 7.46257 6.65310 7.06943
#
# Compressibility (1/GPa) = 0.01204717
#
# Stress axis : x y z
#
# Youngs Moduli (GPa) = 83.57222 96.17180 112.38120
#
# Poissons Ratio (x) = 0.53099 0.44855
# Poissons Ratio (y) = 0.46142 0.01067
# Poissons Ratio (z) = 0.33356 0.00913
#
# Static dielectric constant tensor:
#      x y z
#    x 2.166370 0.000000 0.013950 
#    y 0.000000 1.992590 0.000000 
#    z 0.013950 0.000000 2.042240 
# 
# From -- ./inp_files/89285.got.cif
#   From: 2010.05.17/outbox.cif.g08.bks.cpg/sg12_45_cif.got.tgz:89285.got - 2010.06.03 13:09:07.
