data_PCOD9217556
_publ_section_title
;
Structure prediction by ZEFSAII (Michael W. Deem and Ramdas Pophale) SiO2 
 PCOD9217556
Probable space group: C 2/M
;
_chemical_formula_sum "Si O2"
_cell_formula_units_Z 56
_cell_length_a 18.075293
_cell_length_b 19.303171
_cell_length_c 8.693998
_cell_angle_alpha 90.000000
_cell_angle_beta 117.774122
_cell_angle_gamma 90.000000
_cell_volume 2683.950470
_symmetry_space_group_name_H-M "C 2/M"
_symmetry_group_IT_number 12
_symmetry_cell_setting 'monoclinic'
loop_
_space_group_symop_operation_xyz
x,y,z
-x,y,-z
-x,-y,-z
x,-y,z
1/2+x,1/2+y,z
1/2-x,1/2+y,-z
1/2-x,1/2-y,-z
1/2+x,1/2-y,z
loop_
_atom_site_type_symbol
_atom_site_label
_atom_site_fract_x
_atom_site_fract_y
_atom_site_fract_z
Si Si1 0.914196 0.916751 0.333113
Si Si2 0.253765 0.811711 0.126587
Si Si3 0.929465 0.176456 0.059383
Si Si4 0.494047 0.191974 0.307702
Si Si5 0.637442 0.917819 0.936840
Si Si6 0.256617 0.918241 0.663356
Si Si7 0.815684 0.306145 0.506628
O O1 0.919587 0.886705 0.167969
O O2 0.830480 0.893134 0.342538
O O3 0.000000 0.895113 0.500000
O O4 0.911085 0.000000 0.326305
O O5 0.286223 0.882408 0.082200
O O6 0.316689 0.797549 0.324895
O O7 0.250000 0.750000 0.000000
O O8 0.161110 0.815734 0.104861
O O9 0.948187 0.242456 0.186463
O O10 0.000000 0.168302 0.000000
O O11 0.500000 0.191271 0.500000
O O12 0.444397 0.124798 0.194867
O O13 0.589761 0.197521 0.343650
O O14 0.629669 0.000000 0.902366
O O15 0.667615 0.907062 0.141929
O O16 0.278085 0.878479 0.529139
O O17 0.248449 0.000000 0.630262
O O18 0.750000 0.250000 0.500000
#
# Coordination Sequence:
#
# PCOD9217556 Si02
#       7
#     8   8   8   8   8   8   8
#     4  10  23  43  68  96 135 183 228 281 350 418
#     4  12  23  45  69  96 139 182 225 289 348 415
#     4  12  26  40  70 102 137 177 233 291 347 414
#     4  12  26  46  67 102 140 181 231 290 353 418
#     4  11  24  45  74 100 133 189 232 278 354 426
#     4  10  24  46  70  99 139 185 229 282 351 418
#     4  12  27  42  70 103 134 177 235 285 344 414
#
# _framework density 20.864767000000001
#
# number of rings (size 3 to 8) (size 9 to 14) (size 15 to 20)
#    0.000    0.714    4.286    2.143    8.000    1.714 
#    0.000    1.429    0.000    0.000    0.000    0.000 
#    0.000    0.000    0.000    0.000    0.000    0.000 
#
# Total GULP energy -156468.010118 kJ/mol
# GULP energy per Si atom -5588.143218 kJ/mol
# Density = 2.081728 g / cm^3
# Si number density = 20.864767 Si / 1000 Ang^3
#
#
#
# Elastic Constant Matrix: (Units=GPa)
#
#
# Indices 1 2 3 4 5 6 
#
# 1 130.3672 31.1514 31.7163 0.0000 27.9144 0.0000
# 2 31.1514 54.2228 34.9313 0.0000 6.4854 0.0000
# 3 31.7163 34.9313 83.5983 0.0000 16.6705 0.0000
# 4 0.0000 0.0000 0.0000 36.0397 0.0000 -0.3113
# 5 27.9144 6.4854 16.6705 0.0000 41.1435 0.0000
# 6 0.0000 0.0000 0.0000 -0.3113 0.0000 35.5236
#
#
#
# Elastic Compliance Matrix: (Units=1/GPa)
#
#
# Indices 1 2 3 4 5 6 
#
# 1 0.010238 -0.004696 -0.000745 0.000000 -0.005904 0.000000
# 2 -0.004696 0.027393 -0.010269 0.000000 0.003029 0.000000
# 3 -0.000745 -0.010269 0.017528 0.000000 -0.004978 0.000000
# 4 0.000000 0.000000 0.000000 0.027749 0.000000 0.000243
# 5 -0.005904 0.003029 -0.004978 0.000000 0.029851 0.000000
# 6 0.000000 0.000000 0.000000 0.000243 0.000000 0.028152
#
#
# Mechanical properties :
#
#
# Convention : Reuss Voigt Hill
#
# Bulk Modulus (GPa) = 42.12144 51.53182 46.82663
# Shear Modulus (GPa) = 27.74028 33.90065 30.82046
#
# Velocity S-wave (km/s) = 3.65022 4.03523 3.84755
# Velocity P-wave (km/s) = 6.16418 6.81633 6.49844
#
# Compressibility (1/GPa) = 0.02374088
#
# Stress axis : x y z
#
# Youngs Moduli (GPa) = 97.67405 36.50545 57.05210
#
# Poissons Ratio (x) = 0.17143 0.04249
# Poissons Ratio (y) = 0.45867 0.58584
# Poissons Ratio (z) = 0.07274 0.37486
#
# Static dielectric constant tensor:
#      x y z
#    x 1.808420 0.000000 -0.015730 
#    y 0.000000 1.727060 0.000000 
#    z -0.015730 0.000000 1.795190 
# 
# From -- ./inp_files/76005.got.cif
#   From: 2010.05.17/outbox.cif.g08.bks.cpg/sg12_39_cif.got.tgz:76005.got - 2010.06.03 13:09:07.
