data_PCOD9217989
_publ_section_title
;
Structure prediction by ZEFSAII (Michael W. Deem and Ramdas Pophale) SiO2 
 PCOD9217989
Probable space group: C 2/M
;
_chemical_formula_sum "Si O2"
_cell_formula_units_Z 44
_cell_length_a 9.793676
_cell_length_b 9.200355
_cell_length_c 22.933057
_cell_angle_alpha 90.000000
_cell_angle_beta 76.791993
_cell_angle_gamma 90.000000
_cell_volume 2011.727639
_symmetry_space_group_name_H-M "C 2/M"
_symmetry_group_IT_number 12
_symmetry_cell_setting 'monoclinic'
loop_
_space_group_symop_operation_xyz
x,y,z
-x,y,-z
-x,-y,-z
x,-y,z
1/2+x,1/2+y,z
1/2-x,1/2+y,-z
1/2-x,1/2-y,-z
1/2+x,1/2-y,z
loop_
_atom_site_type_symbol
_atom_site_label
_atom_site_fract_x
_atom_site_fract_y
_atom_site_fract_z
Si Si1 0.777550 0.169383 0.558133
Si Si2 0.362294 0.173294 0.172028
Si Si3 0.563347 0.277022 0.053153
Si Si4 0.788488 0.500000 0.017794
Si Si5 0.053768 0.173227 0.243855
Si Si6 0.036255 0.669213 0.366904
O O1 0.750000 0.250000 0.500000
O O2 0.891171 0.256380 0.584602
O O3 0.630809 0.171969 0.607384
O O4 0.816941 0.000000 0.545557
O O5 0.442273 0.253853 0.111786
O O6 0.197061 0.197514 0.193927
O O7 0.432516 0.237765 0.223425
O O8 0.387520 0.000000 0.164218
O O9 0.625356 0.124816 0.026454
O O10 0.500000 0.345183 0.000000
O O11 0.692502 0.375109 0.059475
O O12 0.073024 0.238193 0.306274
O O13 0.025978 0.000000 0.248554
O O14 0.079945 0.500000 0.357072
#
# Coordination Sequence:
#
# PCOD9217989 Si02
#       6
#     8   8   8   4   8   8
#     4  11  24  41  67 102 137 175 219 266 318 377
#     4  11  26  43  65  93 129 163 214 268 321 384
#     4  11  24  41  64  90 124 161 203 262 323 387
#     4  10  24  40  64  90 122 160 206 246 334 384
#     4  11  26  45  67  95 125 173 219 264 319 381
#     4  11  24  44  67  95 137 173 216 269 321 375
#
# _framework density 21.871749000000001
#
# number of rings (size 3 to 8) (size 9 to 14) (size 15 to 20)
#    0.000    1.091    0.909    3.818    6.364   10.909 
#    0.000    0.000    0.000    0.000    0.000    0.000 
#    0.000    0.000    0.000    0.000    0.000    0.000 
#
# Total GULP energy -122654.452424 kJ/mol
# GULP energy per Si atom -5575.202383 kJ/mol
# Density = 2.182197 g / cm^3
# Si number density = 21.871749 Si / 1000 Ang^3
#
#
#
# Elastic Constant Matrix: (Units=GPa)
#
#
# Indices 1 2 3 4 5 6 
#
# 1 41.5465 4.2911 -16.3270 0.0000 5.3066 0.0000
# 2 4.2911 108.8588 3.4343 0.0000 -7.6843 0.0000
# 3 -16.3270 3.4343 80.5388 0.0000 -1.8571 0.0000
# 4 0.0000 0.0000 0.0000 63.4761 0.0000 -25.0743
# 5 5.3066 -7.6843 -1.8571 0.0000 36.1292 0.0000
# 6 0.0000 0.0000 0.0000 -25.0743 0.0000 18.5672
#
#
#
# Elastic Compliance Matrix: (Units=1/GPa)
#
#
# Indices 1 2 3 4 5 6 
#
# 1 0.026864 -0.001511 0.005418 0.000000 -0.003989 0.000000
# 2 -0.001511 0.009421 -0.000658 0.000000 0.002192 0.000000
# 3 0.005418 -0.000658 0.013537 0.000000 -0.000240 0.000000
# 4 0.000000 0.000000 0.000000 0.033768 0.000000 0.045602
# 5 -0.003989 0.002192 -0.000240 0.000000 0.028718 0.000000
# 6 0.000000 0.000000 0.000000 0.045602 0.000000 0.115442
#
#
# Mechanical properties :
#
#
# Convention : Reuss Voigt Hill
#
# Bulk Modulus (GPa) = 17.75509 23.74895 20.75202
# Shear Modulus (GPa) = 20.83109 39.60421 30.21765
#
# Velocity S-wave (km/s) = 3.08948 4.25990 3.72100
# Velocity P-wave (km/s) = 4.56749 5.92263 5.28864
#
# Compressibility (1/GPa) = 0.05632189
#
# Stress axis : x y z
#
# Youngs Moduli (GPa) = 37.22398 106.14275 73.86975
#
# Poissons Ratio (x) = 0.16043 -0.40026
# Poissons Ratio (y) = 0.05626 0.04858
# Poissons Ratio (z) = -0.20170 0.06980
#
# Static dielectric constant tensor:
#      x y z
#    x 1.887280 0.000000 0.051370 
#    y 0.000000 1.750880 0.000000 
#    z 0.051370 0.000000 1.801020 
# 
# From -- ./inp_files/334747.got.cif
#   From: 2010.05.17/outbox.cif.g08.bks.cpg/sg12_168_cif.got.tgz:334747.got - 2010.06.03 13:09:07.
