data_PCOD9217390
_publ_section_title
;
Structure prediction by ZEFSAII (Michael W. Deem and Ramdas Pophale) SiO2 
 PCOD9217390
Probable space group: C 2/M
;
_chemical_formula_sum "Si O2"
_cell_formula_units_Z 56
_cell_length_a 8.759293
_cell_length_b 24.520890
_cell_length_c 16.064866
_cell_angle_alpha 90.000000
_cell_angle_beta 63.166268
_cell_angle_gamma 90.000000
_cell_volume 3078.953449
_symmetry_space_group_name_H-M "C 2/M"
_symmetry_group_IT_number 12
_symmetry_cell_setting 'monoclinic'
loop_
_space_group_symop_operation_xyz
x,y,z
-x,y,-z
-x,-y,-z
x,-y,z
1/2+x,1/2+y,z
1/2-x,1/2+y,-z
1/2-x,1/2-y,-z
1/2+x,1/2-y,z
loop_
_atom_site_type_symbol
_atom_site_label
_atom_site_fract_x
_atom_site_fract_y
_atom_site_fract_z
Si Si1 0.343884 0.654462 0.782753
Si Si2 0.688618 0.356551 0.792688
Si Si3 0.716338 0.232710 0.105502
Si Si4 0.199136 0.064116 0.930905
Si Si5 0.979170 0.686288 0.598604
Si Si6 0.009720 0.642003 0.088976
Si Si7 0.348656 0.691252 0.595930
O O1 0.517944 0.635600 0.781669
O O2 0.312716 0.713924 0.832858
O O3 0.351812 0.660716 0.682511
O O4 0.175692 0.619268 0.844410
O O5 0.661045 0.308206 0.870194
O O6 0.728323 0.411613 0.832311
O O7 0.844228 0.341745 0.693531
O O8 0.554365 0.191670 0.139392
O O9 0.750000 0.250000 0.000000
O O10 0.335702 0.099203 0.949499
O O11 0.227173 0.000000 0.932155
O O12 0.000000 0.075846 0.000000
O O13 0.900044 0.746372 0.603511
O O14 0.000000 0.662281 0.500000
O O15 0.165110 0.689823 0.595980
O O16 0.000000 0.666680 0.000000
O O17 0.500000 0.669723 0.500000
#
# Coordination Sequence:
#
# PCOD9217390 Si02
#       7
#     8   8   8   8   8   8   8
#     4  12  22  34  53  84 119 152 189 229 275 333
#     4  11  23  36  58  82 113 151 192 234 284 341
#     4  11  22  34  50  77 119 158 187 227 269 329
#     4  10  23  43  62  80 106 144 191 243 291 340
#     4  11  21  36  54  80 113 154 197 234 278 332
#     4  11  22  36  54  81 111 146 193 233 280 336
#     4  11  21  34  52  77 115 160 197 229 271 328
#
# _framework density 18.187999999999999
#
# number of rings (size 3 to 8) (size 9 to 14) (size 15 to 20)
#    0.000    1.000    2.857    6.857    2.000    0.286 
#    0.000    0.714    0.000    0.429    0.000    0.000 
#    0.000    5.143    0.000    0.000    0.000    0.000 
#
# Total GULP energy -156192.103775 kJ/mol
# GULP energy per Si atom -5578.289421 kJ/mol
# Density = 1.814660 g / cm^3
# Si number density = 18.188000 Si / 1000 Ang^3
#
#
#
# Elastic Constant Matrix: (Units=GPa)
#
#
# Indices 1 2 3 4 5 6 
#
# 1 147.2656 11.1642 29.4557 0.0000 1.6607 0.0000
# 2 11.1642 29.2209 -4.9286 0.0000 -1.2566 0.0000
# 3 29.4557 -4.9286 103.9998 0.0000 7.4370 0.0000
# 4 0.0000 0.0000 0.0000 14.2727 0.0000 -5.8426
# 5 1.6607 -1.2566 7.4370 0.0000 35.7730 0.0000
# 6 0.0000 0.0000 0.0000 -5.8426 0.0000 15.6101
#
#
#
# Elastic Compliance Matrix: (Units=1/GPa)
#
#
# Indices 1 2 3 4 5 6 
#
# 1 0.007492 -0.003246 -0.002277 0.000000 0.000011 0.000000
# 2 -0.003246 0.035932 0.002559 0.000000 0.000881 0.000000
# 3 -0.002277 0.002559 0.010524 0.000000 -0.001992 0.000000
# 4 0.000000 0.000000 0.000000 0.082741 0.000000 0.030969
# 5 0.000011 0.000881 -0.001992 0.000000 0.028399 0.000000
# 6 0.000000 0.000000 0.000000 0.030969 0.000000 0.075652
#
#
# Mechanical properties :
#
#
# Convention : Reuss Voigt Hill
#
# Bulk Modulus (GPa) = 20.82419 39.09652 29.96036
# Shear Modulus (GPa) = 19.03510 29.45083 24.24296
#
# Velocity S-wave (km/s) = 3.23859 4.02835 3.65486
# Velocity P-wave (km/s) = 5.04568 6.57109 5.85825
#
# Compressibility (1/GPa) = 0.04802108
#
# Stress axis : x y z
#
# Youngs Moduli (GPa) = 133.48057 27.83056 95.02161
#
# Poissons Ratio (x) = 0.09033 0.21632
# Poissons Ratio (y) = 0.43325 -0.24317
# Poissons Ratio (z) = 0.30387 -0.07122
#
# Static dielectric constant tensor:
#      x y z
#    x 1.692380 0.000000 -0.016930 
#    y 0.000000 1.599400 0.000000 
#    z -0.016930 0.000000 1.677910 
# 
# From -- ./inp_files/199676.got.cif
#   From: 2010.05.17/outbox.cif.g08.bks.cpg/sg12_100_cif.got.tgz:199676.got - 2010.06.03 13:09:07.
