data_PCOD9217834
_publ_section_title
;
Structure prediction by ZEFSAII (Michael W. Deem and Ramdas Pophale) SiO2 
 PCOD9217834
Probable space group: C 2/M
;
_chemical_formula_sum "Si O2"
_cell_formula_units_Z 64
_cell_length_a 16.856088
_cell_length_b 16.217518
_cell_length_c 14.844308
_cell_angle_alpha 90.000000
_cell_angle_beta 135.482644
_cell_angle_gamma 90.000000
_cell_volume 2845.094969
_symmetry_space_group_name_H-M "C 2/M"
_symmetry_group_IT_number 12
_symmetry_cell_setting 'monoclinic'
loop_
_space_group_symop_operation_xyz
x,y,z
-x,y,-z
-x,-y,-z
x,-y,z
1/2+x,1/2+y,z
1/2-x,1/2+y,-z
1/2-x,1/2-y,-z
1/2+x,1/2-y,z
loop_
_atom_site_type_symbol
_atom_site_label
_atom_site_fract_x
_atom_site_fract_y
_atom_site_fract_z
Si Si1 0.322796 0.404219 0.106781
Si Si2 0.141411 0.405196 0.209701
Si Si3 0.098714 0.343586 0.974464
Si Si4 0.416850 0.903534 0.549095
Si Si5 0.337322 0.100784 0.286603
Si Si6 0.401803 0.651811 0.987505
Si Si7 0.001160 0.099846 0.605190
Si Si8 0.262818 0.337223 0.463324
O O1 0.293872 0.500000 0.095482
O O2 0.206137 0.356043 0.998337
O O3 0.389711 0.374282 0.249091
O O4 0.399401 0.394255 0.080896
O O5 0.177571 0.500000 0.251049
O O6 0.132999 0.384150 0.097920
O O7 0.223864 0.344014 0.328496
O O8 0.015359 0.389763 0.146007
O O9 0.076232 0.247835 0.973014
O O10 0.545074 0.871523 0.666622
O O11 0.361471 0.874343 0.410209
O O12 0.327820 0.891718 0.556033
O O13 0.434161 0.000000 0.548558
O O14 0.221709 0.139362 0.156786
O O15 0.324405 0.000000 0.269318
O O16 0.500000 0.622566 0.000000
O O17 0.890525 0.131732 0.567065
O O18 0.000000 0.126747 0.500000
O O19 0.999057 0.000000 0.603891
O O20 0.250000 0.250000 0.500000
#
# Coordination Sequence:
#
# PCOD9217834 Si02
#       8
#     8   8   8   8   8   8   8   8
#     4  11  25  43  69  98 135 185 235 279 341 427
#     4  11  23  44  73 100 132 178 233 290 345 407
#     4  11  24  44  71  99 137 177 233 295 344 403
#     4   9  20  42  67  94 128 174 231 284 329 397
#     4   9  21  41  67  95 132 182 232 272 333 420
#     4  12  26  42  66 100 151 182 222 282 363 418
#     4  10  23  46  70  96 134 181 232 282 338 411
#     4  12  27  39  68 103 138 169 223 285 354 411
#
# _framework density 22.494855000000001
#
# number of rings (size 3 to 8) (size 9 to 14) (size 15 to 20)
#    0.000    1.375    1.250    4.875    7.000    3.000 
#    2.250    0.000    0.000    0.000    0.000    0.000 
#    0.000    0.000    0.000    0.000    0.000    0.000 
#
# Total GULP energy -178951.740541 kJ/mol
# GULP energy per Si atom -5592.241892 kJ/mol
# Density = 2.244366 g / cm^3
# Si number density = 22.494855 Si / 1000 Ang^3
#
#
#
# Elastic Constant Matrix: (Units=GPa)
#
#
# Indices 1 2 3 4 5 6 
#
# 1 101.3955 -13.6970 3.6490 0.0000 16.3549 0.0000
# 2 -13.6970 38.7415 5.5877 0.0000 -1.3952 0.0000
# 3 3.6490 5.5877 85.9162 0.0000 10.3304 0.0000
# 4 0.0000 0.0000 0.0000 107.2460 0.0000 14.4501
# 5 16.3549 -1.3952 10.3304 0.0000 31.0191 0.0000
# 6 0.0000 0.0000 0.0000 14.4501 0.0000 32.5900
#
#
#
# Elastic Compliance Matrix: (Units=1/GPa)
#
#
# Indices 1 2 3 4 5 6 
#
# 1 0.011309 0.003795 -0.000032 0.000000 -0.005781 0.000000
# 2 0.003795 0.027428 -0.001930 0.000000 -0.000124 0.000000
# 3 -0.000032 -0.001930 0.012266 0.000000 -0.004155 0.000000
# 4 0.000000 0.000000 0.000000 0.009917 0.000000 -0.004397
# 5 -0.005781 -0.000124 -0.004155 0.000000 0.036664 0.000000
# 6 0.000000 0.000000 0.000000 -0.004397 0.000000 0.032634
#
#
# Mechanical properties :
#
#
# Convention : Reuss Voigt Hill
#
# Bulk Modulus (GPa) = 18.29259 24.12585 21.20922
# Shear Modulus (GPa) = 34.53656 49.53858 42.03757
#
# Velocity S-wave (km/s) = 3.92255 4.69787 4.32761
# Velocity P-wave (km/s) = 5.35395 6.33837 5.86685
#
# Compressibility (1/GPa) = 0.05466695
#
# Stress axis : x y z
#
# Youngs Moduli (GPa) = 88.42830 36.45972 81.52820
#
# Poissons Ratio (x) = -0.13835 0.00261
# Poissons Ratio (y) = -0.33554 0.15735
# Poissons Ratio (z) = 0.00283 0.07037
#
# Static dielectric constant tensor:
#      x y z
#    x 1.961290 0.000000 0.016570 
#    y 0.000000 1.797290 0.000000 
#    z 0.016570 0.000000 1.843790 
# 
# From -- ./inp_files/226891.got.cif
#   From: 2010.05.17/outbox.cif.g08.bks.cpg/sg12_114_cif.got.tgz:226891.got - 2010.06.03 13:09:07.
