data_PCOD9217708
_publ_section_title
;
Structure prediction by ZEFSAII (Michael W. Deem and Ramdas Pophale) SiO2 
 PCOD9217708
Probable space group: C 2/M
;
_chemical_formula_sum "Si O2"
_cell_formula_units_Z 34
_cell_length_a 22.256026
_cell_length_b 18.442562
_cell_length_c 5.003465
_cell_angle_alpha 90.000000
_cell_angle_beta 47.006297
_cell_angle_gamma 90.000000
_cell_volume 1502.144481
_symmetry_space_group_name_H-M "C 2/M"
_symmetry_group_IT_number 12
_symmetry_cell_setting 'monoclinic'
loop_
_space_group_symop_operation_xyz
x,y,z
-x,y,-z
-x,-y,-z
x,-y,z
1/2+x,1/2+y,z
1/2-x,1/2+y,-z
1/2-x,1/2-y,-z
1/2+x,1/2-y,z
loop_
_atom_site_type_symbol
_atom_site_label
_atom_site_fract_x
_atom_site_fract_y
_atom_site_fract_z
Si Si1 0.557530 0.914991 0.562664
Si Si2 0.116752 0.134284 0.285589
Si Si3 0.916055 0.771852 0.109572
Si Si4 0.500000 0.500000 0.500000
Si Si5 0.709592 0.821325 0.262244
O O1 0.500000 0.887392 0.500000
O O2 0.639935 0.867719 0.325102
O O3 0.578227 0.000000 0.451336
O O4 0.500000 0.913416 0.000000
O O5 0.108655 0.162377 0.613757
O O6 0.064347 0.063177 0.404254
O O7 0.082569 0.195754 0.188297
O O8 0.212455 0.128485 0.917537
O O9 0.843997 0.712807 0.336970
O O10 0.000000 0.745763 0.000000
O O11 0.750000 0.750000 0.000000
#
# Coordination Sequence:
#
# PCOD9217708 Si02
#       5
#     8   8   8   2   8
#     4  10  23  44  69  96 132 173 217 267 331 390
#     4  11  25  40  64  95 129 173 215 259 320 384
#     4  11  21  42  62  95 127 167 219 263 321 379
#     4  12  24  46  68  90 140 174 214 258 332 398
#     4  10  24  41  68  99 132 169 218 274 321 384
#
# _framework density 22.634308000000001
#
# number of rings (size 3 to 8) (size 9 to 14) (size 15 to 20)
#    0.000    1.412    2.353    1.412    1.647   13.176 
#    0.000    0.000    0.000    0.000    0.000    0.000 
#    0.000    0.000    0.000    0.000    0.000    0.000 
#
# Total GULP energy -94720.918874 kJ/mol
# GULP energy per Si atom -5571.818757 kJ/mol
# Density = 2.258279 g / cm^3
# Si number density = 22.634308 Si / 1000 Ang^3
#
#
#
# Elastic Constant Matrix: (Units=GPa)
#
#
# Indices 1 2 3 4 5 6 
#
# 1 139.4558 33.4953 46.2218 0.0000 -33.3715 0.0000
# 2 33.4953 101.2214 6.9224 0.0000 -30.8669 0.0000
# 3 46.2218 6.9224 63.2409 0.0000 -31.2811 0.0000
# 4 0.0000 0.0000 0.0000 -9.2411 0.0000 -2.7875
# 5 -33.3715 -30.8669 -31.2811 0.0000 54.9415 0.0000
# 6 0.0000 0.0000 0.0000 -2.7875 0.0000 4.8714
#
#
#
# Elastic Compliance Matrix: (Units=1/GPa)
#
#
# Indices 1 2 3 4 5 6 
#
# 1 0.010268 -0.002666 -0.006778 0.000000 0.000880 0.000000
# 2 -0.002666 0.012980 0.004641 0.000000 0.008315 0.000000
# 3 -0.006778 0.004641 0.027160 0.000000 0.013954 0.000000
# 4 0.000000 0.000000 0.000000 -0.092283 0.000000 -0.052807
# 5 0.000880 0.008315 0.013954 0.000000 0.031352 0.000000
# 6 0.000000 0.000000 0.000000 -0.052807 0.000000 0.175062
#
#
# Mechanical properties :
#
#
# Convention : Reuss Voigt Hill
#
# Bulk Modulus (GPa) = 24.50821 53.02190 38.76506
# Shear Modulus (GPa) = 26.63180 24.59960 25.61570
#
# Velocity S-wave (km/s) = 3.43390 3.30028 3.36775
# Velocity P-wave (km/s) = 5.15496 6.16432 5.68210
#
# Compressibility (1/GPa) = 0.04080265
#
# Stress axis : x y z
#
# Youngs Moduli (GPa) = 97.38938 77.04291 36.81829
#
# Poissons Ratio (x) = 0.20539 0.24954
# Poissons Ratio (y) = 0.25963 -0.17086
# Poissons Ratio (z) = 0.66006 -0.35752
#
# Static dielectric constant tensor:
#      x y z
#    x 1.851590 0.000000 -0.022320 
#    y 0.000000 1.830240 0.000000 
#    z -0.022320 0.000000 1.928860 
# 
# From -- ./inp_files/28422.got.cif
#   From: 2010.05.17/outbox.cif.g08.bks.cpg/sg12_15_cif.got.tgz:28422.got - 2010.06.03 13:09:07.
