data_PCOD9217468
_publ_section_title
;
Structure prediction by ZEFSAII (Michael W. Deem and Ramdas Pophale) SiO2 
 PCOD9217468
Probable space group: C 2/M
;
_chemical_formula_sum "Si O2"
_cell_formula_units_Z 32
_cell_length_a 10.324779
_cell_length_b 12.316879
_cell_length_c 21.243818
_cell_angle_alpha 90.000000
_cell_angle_beta 32.671209
_cell_angle_gamma 90.000000
_cell_volume 1458.347047
_symmetry_space_group_name_H-M "C 2/M"
_symmetry_group_IT_number 12
_symmetry_cell_setting 'monoclinic'
loop_
_space_group_symop_operation_xyz
x,y,z
-x,y,-z
-x,-y,-z
x,-y,z
1/2+x,1/2+y,z
1/2-x,1/2+y,-z
1/2-x,1/2-y,-z
1/2+x,1/2-y,z
loop_
_atom_site_type_symbol
_atom_site_label
_atom_site_fract_x
_atom_site_fract_y
_atom_site_fract_z
Si Si1 0.680149 0.500000 0.336233
Si Si2 0.429223 0.617170 0.958031
Si Si3 0.867940 0.500000 0.397032
Si Si4 0.599569 0.790168 0.802759
Si Si5 0.666892 0.877743 0.372608
O O1 0.861265 0.500000 0.323499
O O2 0.409597 0.500000 0.470549
O O3 0.727352 0.391594 0.277136
O O4 0.441964 0.500000 0.919396
O O5 0.610632 0.702026 0.853409
O O6 0.500000 0.604509 0.000000
O O7 0.157628 0.658025 0.075333
O O8 0.997032 0.399821 0.380632
O O9 0.641319 0.713586 0.724344
O O10 0.500000 0.846148 0.500000
O O11 0.764369 0.000000 0.346968
#
# Coordination Sequence:
#
# PCOD9217468 Si02
#       5
#     4   8   4   8   8
#     4  11  24  40  59 101 128 163 211 262 304 380
#     4  10  23  43  66  91 120 166 213 259 316 371
#     4   9  23  42  61  92 131 167 210 247 315 377
#     4  11  23  38  65  93 126 159 210 260 309 373
#     4   9  21  42  64  93 123 173 207 253 314 376
#
# _framework density 21.94265
#
# number of rings (size 3 to 8) (size 9 to 14) (size 15 to 20)
#    0.750    1.250    1.250    0.750    7.000    3.000 
#    0.000    0.625    0.000    0.000    0.000    0.000 
#    0.000    0.000    0.000    0.000    0.000    0.000 
#
# Total GULP energy -89090.961414 kJ/mol
# GULP energy per Si atom -5568.185088 kJ/mol
# Density = 2.189271 g / cm^3
# Si number density = 21.942650 Si / 1000 Ang^3
#
#
#
# Elastic Constant Matrix: (Units=GPa)
#
#
# Indices 1 2 3 4 5 6 
#
# 1 42.2885 11.7443 11.3969 0.0004 3.5159 0.0002
# 2 11.7443 148.5750 59.1712 0.0014 19.5447 -0.0001
# 3 11.3969 59.1712 89.0991 0.0027 23.1896 -0.0008
# 4 0.0004 0.0014 0.0027 41.3217 -0.0004 16.0783
# 5 3.5159 19.5447 23.1896 -0.0004 25.8543 0.0000
# 6 0.0002 -0.0001 -0.0008 16.0783 0.0000 3.3986
#
#
#
# Elastic Compliance Matrix: (Units=1/GPa)
#
#
# Indices 1 2 3 4 5 6 
#
# 1 0.024592 -0.000921 -0.002407 -0.000001 -0.000489 0.000002
# 2 -0.000921 0.009259 -0.005534 0.000000 -0.001911 0.000001
# 3 -0.002407 -0.005534 0.018306 0.000003 -0.011908 -0.000012
# 4 -0.000001 0.000000 0.000003 -0.028783 -0.000003 0.136168
# 5 -0.000489 -0.001911 -0.011908 -0.000003 0.050870 0.000011
# 6 0.000002 0.000001 -0.000012 0.136168 0.000011 -0.349954
#
#
# Mechanical properties :
#
#
# Convention : Reuss Voigt Hill
#
# Bulk Modulus (GPa) = 29.04123 49.39858 39.21991
# Shear Modulus (GPa) = -20.28316 27.29160 3.50422
#
# Velocity S-wave (km/s) = -3.04365 3.53054 1.26509
# Velocity P-wave (km/s) = 0.95503 6.25948 4.47734
#
# Compressibility (1/GPa) = 0.03443380
#
# Stress axis : x y z
#
# Youngs Moduli (GPa) = 40.66339 108.00854 54.62824
#
# Poissons Ratio (x) = 0.09949 0.13146
# Poissons Ratio (y) = 0.03746 0.30229
# Poissons Ratio (z) = 0.09786 0.59767
#
# Static dielectric constant tensor:
#      x y z
#    x 1.833400 0.000000 -0.002190 
#    y 0.000000 1.888190 0.000000 
#    z -0.002190 0.000000 1.807250 
# 
# From -- ./inp_files/127264.got.cif
#   From: 2010.05.17/outbox.cif.g08.bks.cpg/sg12_64_cif.got.tgz:127264.got - 2010.06.03 13:09:07.
