data_PCOD9217995
_publ_section_title
;
Structure prediction by ZEFSAII (Michael W. Deem and Ramdas Pophale) SiO2 
 PCOD9217995
Probable space group: C 2/M
;
_chemical_formula_sum "Si O2"
_cell_formula_units_Z 44
_cell_length_a 26.772462
_cell_length_b 15.880505
_cell_length_c 4.817330
_cell_angle_alpha 90.000000
_cell_angle_beta 108.866736
_cell_angle_gamma 90.000000
_cell_volume 1938.097328
_symmetry_space_group_name_H-M "C 2/M"
_symmetry_group_IT_number 12
_symmetry_cell_setting 'monoclinic'
loop_
_space_group_symop_operation_xyz
x,y,z
-x,y,-z
-x,-y,-z
x,-y,z
1/2+x,1/2+y,z
1/2-x,1/2+y,-z
1/2-x,1/2-y,-z
1/2+x,1/2-y,z
loop_
_atom_site_type_symbol
_atom_site_label
_atom_site_fract_x
_atom_site_fract_y
_atom_site_fract_z
Si Si1 0.908772 0.594385 0.279908
Si Si2 0.272245 0.000000 0.911449
Si Si3 0.535691 0.749402 0.330760
Si Si4 0.184403 0.909081 0.057368
Si Si5 0.836423 0.373185 0.643506
Si Si6 0.651837 0.310532 0.498433
O O1 0.931009 0.500000 0.296323
O O2 0.944717 0.664521 0.485194
O O3 0.857927 0.588809 0.393162
O O4 0.887259 0.623967 0.944092
O O5 0.243109 0.927653 0.057186
O O6 0.295128 0.927627 0.737980
O O7 0.500000 0.704447 0.500000
O O8 0.589079 0.700635 0.347114
O O9 0.500000 0.765827 0.000000
O O10 0.161170 0.833658 0.834086
O O11 0.157290 0.000000 0.952465
O O12 0.176289 0.885175 0.360353
O O13 0.822523 0.277243 0.549979
#
# Coordination Sequence:
#
# PCOD9217995 Si02
#       6
#     8   4   8   8   8   8
#     4  11  21  37  60  90 132 173 200 251 307 359
#     4  10  24  40  64  98 128 168 214 256 290 374
#     4  11  23  39  64  93 120 162 216 259 310 379
#     4  10  24  41  64  94 123 168 204 268 317 360
#     4  11  22  38  63  93 130 174 210 243 303 369
#     4  11  22  43  65  89 129 167 203 259 325 370
#
# _framework density 22.702677999999999
#
# number of rings (size 3 to 8) (size 9 to 14) (size 15 to 20)
#    0.545    0.727    1.818    6.000    0.000    5.091 
#    0.000    0.000    0.000   10.909    0.000    0.000 
#    0.000    0.000    0.000    0.000    0.000    0.000 
#
# Total GULP energy -122472.628481 kJ/mol
# GULP energy per Si atom -5566.937658 kJ/mol
# Density = 2.265101 g / cm^3
# Si number density = 22.702678 Si / 1000 Ang^3
#
#
#
# Elastic Constant Matrix: (Units=GPa)
#
#
# Indices 1 2 3 4 5 6 
#
# 1 104.2438 19.0188 -5.2578 0.0000 -6.3138 0.0000
# 2 19.0188 85.0767 2.0826 0.0000 -2.9635 0.0000
# 3 -5.2578 2.0826 98.2839 0.0000 -5.0539 0.0000
# 4 0.0000 0.0000 0.0000 15.0014 0.0000 -10.9188
# 5 -6.3138 -2.9635 -5.0539 0.0000 39.4850 0.0000
# 6 0.0000 0.0000 0.0000 -10.9188 0.0000 45.3816
#
#
#
# Elastic Compliance Matrix: (Units=1/GPa)
#
#
# Indices 1 2 3 4 5 6 
#
# 1 0.010126 -0.002226 0.000668 0.000000 0.001538 0.000000
# 2 -0.002226 0.012279 -0.000353 0.000000 0.000520 0.000000
# 3 0.000668 -0.000353 0.010290 0.000000 0.001397 0.000000
# 4 0.000000 0.000000 0.000000 0.080812 0.000000 0.019443
# 5 0.001538 0.000520 0.001397 0.000000 0.025790 0.000000
# 6 0.000000 0.000000 0.000000 0.019443 0.000000 0.026713
#
#
# Mechanical properties :
#
#
# Convention : Reuss Voigt Hill
#
# Bulk Modulus (GPa) = 34.63548 35.47683 35.05616
# Shear Modulus (GPa) = 27.86200 38.09100 32.97650
#
# Velocity S-wave (km/s) = 3.50702 4.10056 3.81535
# Velocity P-wave (km/s) = 5.62923 6.17091 5.90628
#
# Compressibility (1/GPa) = 0.02887213
#
# Stress axis : x y z
#
# Youngs Moduli (GPa) = 98.75648 81.44272 97.18491
#
# Poissons Ratio (x) = 0.18133 -0.06491
# Poissons Ratio (y) = 0.21987 0.03426
# Poissons Ratio (z) = -0.06596 0.02871
#
# Static dielectric constant tensor:
#      x y z
#    x 1.890620 0.000000 0.083810 
#    y 0.000000 1.810860 0.000000 
#    z 0.083810 0.000000 1.868000 
# 
# From -- ./inp_files/28629.got.cif
#   From: 2010.05.17/outbox.cif.g08.bks.cpg/sg12_15_cif.got.tgz:28629.got - 2010.06.03 13:09:07.
