data_PCOD9217425
_publ_section_title
;
Structure prediction by ZEFSAII (Michael W. Deem and Ramdas Pophale) SiO2 
 PCOD9217425
Probable space group: C 2/M
;
_chemical_formula_sum "Si O2"
_cell_formula_units_Z 54
_cell_length_a 24.582413
_cell_length_b 18.763130
_cell_length_c 5.550402
_cell_angle_alpha 90.000000
_cell_angle_beta 107.159484
_cell_angle_gamma 90.000000
_cell_volume 2446.127693
_symmetry_space_group_name_H-M "C 2/M"
_symmetry_group_IT_number 12
_symmetry_cell_setting 'monoclinic'
loop_
_space_group_symop_operation_xyz
x,y,z
-x,y,-z
-x,-y,-z
x,-y,z
1/2+x,1/2+y,z
1/2-x,1/2+y,-z
1/2-x,1/2-y,-z
1/2+x,1/2-y,z
loop_
_atom_site_type_symbol
_atom_site_label
_atom_site_fract_x
_atom_site_fract_y
_atom_site_fract_z
Si Si1 0.092540 0.126585 0.576726
Si Si2 0.959171 0.633307 0.758122
Si Si3 0.659185 0.646048 0.155646
Si Si4 0.500000 0.500000 0.500000
Si Si5 0.154131 0.684964 0.124681
Si Si6 0.000000 0.246730 0.500000
Si Si7 0.770535 0.421093 0.512947
Si Si8 0.877537 0.575292 0.299886
O O1 0.122810 0.132361 0.354685
O O2 0.055381 0.197690 0.572195
O O3 0.131822 0.119433 0.867445
O O4 0.048265 0.061985 0.513446
O O5 0.900180 0.666768 0.779186
O O6 0.996339 0.700097 0.718339
O O7 0.936624 0.583997 0.515573
O O8 0.000000 0.594846 0.000000
O O9 0.665810 0.731441 0.137737
O O10 0.718254 0.606815 0.287278
O O11 0.209874 0.639823 0.275500
O O12 0.134025 0.647944 0.854238
O O13 0.757757 0.500000 0.600706
O O14 0.825693 0.429113 0.417905
O O15 0.877171 0.500000 0.155470
#
# Coordination Sequence:
#
# PCOD9217425 Si02
#       8
#     8   8   8   2   8   4   8   8
#     4  11  27  45  74 108 147 192 240 291 362 425
#     4  11  21  37  65  96 131 178 231 293 352 427
#     4  12  26  45  74 112 142 186 251 300 349 431
#     4  10  28  50  76 106 166 202 234 298 368 430
#     4  11  23  43  69 100 138 184 238 297 366 421
#     4  11  22  43  65  98 137 182 232 292 359 420
#     4  10  25  44  69  99 143 187 233 299 367 430
#     4  10  23  43  64  95 136 186 232 291 368 431
#
# _framework density 22.075709
#
# number of rings (size 3 to 8) (size 9 to 14) (size 15 to 20)
#    0.000    1.185    1.481    3.556    6.222    3.852 
#    0.000    2.593    0.000    0.000    0.000    0.000 
#    0.000    0.000    0.000    0.000    0.000    0.000 
#
# Total GULP energy -150514.562096 kJ/mol
# GULP energy per Si atom -5574.613411 kJ/mol
# Density = 2.202546 g / cm^3
# Si number density = 22.075709 Si / 1000 Ang^3
#
#
#
# Elastic Constant Matrix: (Units=GPa)
#
#
# Indices 1 2 3 4 5 6 
#
# 1 51.5415 33.8503 27.8169 0.0000 14.7855 0.0000
# 2 33.8503 153.8810 39.6036 0.0000 9.6645 0.0000
# 3 27.8169 39.6036 120.2685 0.0000 12.5900 0.0000
# 4 0.0000 0.0000 0.0000 -27.8789 0.0000 8.5946
# 5 14.7855 9.6645 12.5900 0.0000 29.6648 0.0000
# 6 0.0000 0.0000 0.0000 8.5946 0.0000 3.0986
#
#
#
# Elastic Compliance Matrix: (Units=1/GPa)
#
#
# Indices 1 2 3 4 5 6 
#
# 1 0.027359 -0.004381 -0.003775 0.000000 -0.010607 0.000000
# 2 -0.004381 0.007856 -0.001606 0.000000 0.000305 0.000000
# 3 -0.003775 -0.001606 0.009905 0.000000 -0.001799 0.000000
# 4 0.000000 0.000000 0.000000 -0.019336 0.000000 0.053631
# 5 -0.010607 0.000305 -0.001799 0.000000 0.039661 0.000000
# 6 0.000000 0.000000 0.000000 0.053631 0.000000 0.173968
#
#
# Mechanical properties :
#
#
# Convention : Reuss Voigt Hill
#
# Bulk Modulus (GPa) = 39.06648 58.69252 48.87950
# Shear Modulus (GPa) = 18.69381 15.93824 17.31603
#
# Velocity S-wave (km/s) = 2.91315 2.68989 2.80374
# Velocity P-wave (km/s) = 5.38983 6.02428 5.71586
#
# Compressibility (1/GPa) = 0.02559739
#
# Stress axis : x y z
#
# Youngs Moduli (GPa) = 36.55103 127.28700 100.95964
#
# Poissons Ratio (x) = 0.55760 0.38112
# Poissons Ratio (y) = 0.16012 0.16212
# Poissons Ratio (z) = 0.13798 0.20440
#
# Static dielectric constant tensor:
#      x y z
#    x 1.818990 0.000000 -0.053980 
#    y 0.000000 1.777160 0.000000 
#    z -0.053980 0.000000 1.882750 
# 
# From -- ./inp_files/29253.got.cif
#   From: 2010.05.17/outbox.cif.g08.bks.cpg/sg12_15_cif.got.tgz:29253.got - 2010.06.03 13:09:07.
