data_PCOD9217718
_publ_section_title
;
Structure prediction by ZEFSAII (Michael W. Deem and Ramdas Pophale) SiO2 
 PCOD9217718
Probable space group: C 2/M
;
_chemical_formula_sum "Si O2"
_cell_formula_units_Z 32
_cell_length_a 5.039060
_cell_length_b 17.743538
_cell_length_c 15.467598
_cell_angle_alpha 90.000000
_cell_angle_beta 87.441755
_cell_angle_gamma 90.000000
_cell_volume 1381.591260
_symmetry_space_group_name_H-M "C 2/M"
_symmetry_group_IT_number 12
_symmetry_cell_setting 'monoclinic'
loop_
_space_group_symop_operation_xyz
x,y,z
-x,y,-z
-x,-y,-z
x,-y,z
1/2+x,1/2+y,z
1/2-x,1/2+y,-z
1/2-x,1/2-y,-z
1/2+x,1/2-y,z
loop_
_atom_site_type_symbol
_atom_site_label
_atom_site_fract_x
_atom_site_fract_y
_atom_site_fract_z
Si Si1 0.024409 0.805489 0.321657
Si Si2 0.828248 0.587126 0.761102
Si Si3 0.957800 0.302598 0.099276
Si Si4 0.179862 0.413279 0.579944
O O1 0.277735 0.751012 0.315688
O O2 0.082656 0.855359 0.405798
O O3 0.948509 0.870437 0.254305
O O4 0.788442 0.500000 0.783112
O O5 0.977137 0.632647 0.833715
O O6 0.995821 0.590984 0.668980
O O7 0.170633 0.235448 0.111050
O O8 0.000000 0.328883 0.000000
O O9 0.271642 0.500000 0.571315
O O10 0.000000 0.394978 0.500000
#
# Coordination Sequence:
#
# PCOD9217718 Si02
#       4
#     8   8   8   8
#     4  12  24  43  66  94 131 172 225 278 330 390
#     4  11  24  43  69 100 137 178 226 277 335 397
#     4  10  23  44  70 100 135 175 219 270 337 405
#     4  10  24  46  68  96 137 183 227 275 336 399
#
# _framework density 23.161697
#
# number of rings (size 3 to 8) (size 9 to 14) (size 15 to 20)
#    0.000    1.250    2.500    2.250    3.500    2.500 
#    0.000    3.750    0.000    4.500    0.000    0.000 
#    0.000    0.000    0.000    0.000    0.000    0.000 
#
# Total GULP energy -89549.961477 kJ/mol
# GULP energy per Si atom -5596.872592 kJ/mol
# Density = 2.310898 g / cm^3
# Si number density = 23.161697 Si / 1000 Ang^3
#
#
#
# Elastic Constant Matrix: (Units=GPa)
#
#
# Indices 1 2 3 4 5 6 
#
# 1 121.5463 47.6830 40.9123 0.0000 15.1417 0.0000
# 2 47.6830 146.1095 87.6248 0.0000 24.8932 0.0000
# 3 40.9123 87.6248 194.4704 0.0000 17.1722 0.0000
# 4 0.0000 0.0000 0.0000 38.1149 0.0000 10.6814
# 5 15.1417 24.8932 17.1722 0.0000 34.2007 0.0000
# 6 0.0000 0.0000 0.0000 10.6814 0.0000 -17.4830
#
#
#
# Elastic Compliance Matrix: (Units=1/GPa)
#
#
# Indices 1 2 3 4 5 6 
#
# 1 0.009675 -0.002299 -0.000805 0.000000 -0.002206 0.000000
# 2 -0.002299 0.010790 -0.003950 0.000000 -0.004853 0.000000
# 3 -0.000805 -0.003950 0.007122 0.000000 -0.000345 0.000000
# 4 0.000000 0.000000 0.000000 0.022401 0.000000 0.013686
# 5 -0.002206 -0.004853 -0.000345 0.000000 0.033921 0.000000
# 6 0.000000 0.000000 0.000000 0.013686 0.000000 -0.048837
#
#
# Mechanical properties :
#
#
# Convention : Reuss Voigt Hill
#
# Bulk Modulus (GPa) = 74.18534 90.50739 82.34636
# Shear Modulus (GPa) = 93.15999 30.02693 61.59346
#
# Velocity S-wave (km/s) = 6.34893 3.60447 5.16242
# Velocity P-wave (km/s) = 9.26521 7.51559 8.43588
#
# Compressibility (1/GPa) = 0.01347975
#
# Stress axis : x y z
#
# Youngs Moduli (GPa) = 103.36040 92.67992 140.41984
#
# Poissons Ratio (x) = 0.21307 0.11300
# Poissons Ratio (y) = 0.23762 0.55460
# Poissons Ratio (z) = 0.08318 0.36604
#
# Static dielectric constant tensor:
#      x y z
#    x 1.957240 0.000000 -0.067600 
#    y 0.000000 1.838850 0.000000 
#    z -0.067600 0.000000 1.887800 
# 
# From -- ./inp_files/190893.got.cif
#   From: 2010.05.17/outbox.cif.g08.bks.cpg/sg12_96_cif.got.tgz:190893.got - 2010.06.03 13:09:07.
