data_PCOD9217345
_publ_section_title
;
Structure prediction by ZEFSAII (Michael W. Deem and Ramdas Pophale) SiO2 
 PCOD9217345
Probable space group: C 2/M
;
_chemical_formula_sum "Si O2"
_cell_formula_units_Z 56
_cell_length_a 27.945299
_cell_length_b 12.219073
_cell_length_c 8.728137
_cell_angle_alpha 90.000000
_cell_angle_beta 54.780074
_cell_angle_gamma 90.000000
_cell_volume 2434.787505
_symmetry_space_group_name_H-M "C 2/M"
_symmetry_group_IT_number 12
_symmetry_cell_setting 'monoclinic'
loop_
_space_group_symop_operation_xyz
x,y,z
-x,y,-z
-x,-y,-z
x,-y,z
1/2+x,1/2+y,z
1/2-x,1/2+y,-z
1/2-x,1/2-y,-z
1/2+x,1/2-y,z
loop_
_atom_site_type_symbol
_atom_site_label
_atom_site_fract_x
_atom_site_fract_y
_atom_site_fract_z
Si Si1 0.555713 0.500000 0.678171
Si Si2 0.337033 0.123515 0.722071
Si Si3 0.628026 0.732120 0.915846
Si Si4 0.768557 0.374590 0.137498
Si Si5 0.942832 0.775038 0.498074
Si Si6 0.985777 0.622824 0.847535
Si Si7 0.193332 0.246035 0.495236
Si Si8 0.082372 0.000000 0.989593
O O1 0.570877 0.391059 0.554751
O O2 0.580561 0.500000 0.806108
O O3 0.484952 0.500000 0.831818
O O4 0.386267 0.213839 0.673198
O O5 0.318774 0.145735 0.580813
O O6 0.359907 0.000000 0.700187
O O7 0.279292 0.132658 0.935711
O O8 0.683484 0.790701 0.887073
O O9 0.640878 0.726673 0.709465
O O10 0.614097 0.608813 0.989560
O O11 0.572998 0.807438 0.054304
O O12 0.782249 0.500000 0.155757
O O13 0.708894 0.341241 0.333029
O O14 0.000000 0.788220 0.500000
O O15 0.964062 0.688918 0.330836
O O16 0.979170 0.500000 0.797654
O O17 0.000000 0.616330 0.000000
O O18 0.250000 0.250000 0.500000
#
# Coordination Sequence:
#
# PCOD9217345 Si02
#       8
#     4   8   8   8   8   8   8   4
#     4  11  23  42  62  92 136 180 220 276 318 383
#     4  11  24  44  69  97 134 177 216 270 333 393
#     4  11  22  39  63  97 125 170 215 273 327 388
#     4  10  23  44  67  94 132 169 216 273 335 395
#     4  12  25  42  66  99 139 177 222 264 328 398
#     4  11  22  37  61  94 130 168 214 263 321 390
#     4  10  23  42  68  96 127 166 220 274 330 388
#     4  11  22  38  68  90 132 174 228 268 329 383
#
# _framework density 22.999953999999999
#
# number of rings (size 3 to 8) (size 9 to 14) (size 15 to 20)
#    0.000    1.143    1.429    4.929    1.000    6.286 
#    5.143    0.000    0.000    0.000    0.000    0.000 
#    0.000    0.000    0.000    0.000    0.000    0.000 
#
# Total GULP energy -156523.354238 kJ/mol
# GULP energy per Si atom -5590.119794 kJ/mol
# Density = 2.294760 g / cm^3
# Si number density = 22.999954 Si / 1000 Ang^3
#
#
#
# Elastic Constant Matrix: (Units=GPa)
#
#
# Indices 1 2 3 4 5 6 
#
# 1 72.1481 27.1812 -2.0307 0.0000 3.8439 0.0000
# 2 27.1812 195.7265 31.9802 0.0000 -10.2521 0.0000
# 3 -2.0307 31.9802 102.2881 0.0000 -8.2925 0.0000
# 4 0.0000 0.0000 0.0000 12.3016 0.0000 0.2351
# 5 3.8439 -10.2521 -8.2925 0.0000 22.9746 0.0000
# 6 0.0000 0.0000 0.0000 0.2351 0.0000 17.8864
#
#
#
# Elastic Compliance Matrix: (Units=1/GPa)
#
#
# Indices 1 2 3 4 5 6 
#
# 1 0.014952 -0.002375 0.000773 0.000000 -0.003282 0.000000
# 2 -0.002375 0.005839 -0.001678 0.000000 0.002397 0.000000
# 3 0.000773 -0.001678 0.010554 0.000000 0.002931 0.000000
# 4 0.000000 0.000000 0.000000 0.081311 0.000000 -0.001069
# 5 -0.003282 0.002397 0.002931 0.000000 0.046203 0.000000
# 6 0.000000 0.000000 0.000000 -0.001069 0.000000 0.055922
#
#
# Mechanical properties :
#
#
# Convention : Reuss Voigt Hill
#
# Bulk Modulus (GPa) = 40.34721 53.82490 47.08606
# Shear Modulus (GPa) = 21.77682 31.50132 26.63907
#
# Velocity S-wave (km/s) = 3.08038 3.70486 3.40696
# Velocity P-wave (km/s) = 5.49837 6.46176 5.99943
#
# Compressibility (1/GPa) = 0.02478486
#
# Stress axis : x y z
#
# Youngs Moduli (GPa) = 66.88229 171.27055 94.75086
#
# Poissons Ratio (x) = 0.40670 -0.07326
# Poissons Ratio (y) = 0.15882 0.15902
# Poissons Ratio (z) = -0.05171 0.28744
#
# Static dielectric constant tensor:
#      x y z
#    x 1.884380 0.000000 -0.001220 
#    y 0.000000 1.837700 0.000000 
#    z -0.001220 0.000000 1.932160 
# 
# From -- ./inp_files/110390.got.cif
#   From: 2010.05.17/outbox.cif.g08.bks.cpg/sg12_56_cif.got.tgz:110390.got - 2010.06.03 13:09:07.
