data_PCOD9217566
_publ_section_title
;
Structure prediction by ZEFSAII (Michael W. Deem and Ramdas Pophale) SiO2 
 PCOD9217566
Probable space group: C 2/M
;
_chemical_formula_sum "Si O2"
_cell_formula_units_Z 64
_cell_length_a 16.535197
_cell_length_b 15.500101
_cell_length_c 22.740760
_cell_angle_alpha 90.000000
_cell_angle_beta 148.058403
_cell_angle_gamma 90.000000
_cell_volume 3083.538196
_symmetry_space_group_name_H-M "C 2/M"
_symmetry_group_IT_number 12
_symmetry_cell_setting 'monoclinic'
loop_
_space_group_symop_operation_xyz
x,y,z
-x,y,-z
-x,-y,-z
x,-y,z
1/2+x,1/2+y,z
1/2-x,1/2+y,-z
1/2-x,1/2-y,-z
1/2+x,1/2-y,z
loop_
_atom_site_type_symbol
_atom_site_label
_atom_site_fract_x
_atom_site_fract_y
_atom_site_fract_z
Si Si1 0.422341 0.406088 0.547306
Si Si2 0.875956 0.857984 0.649186
Si Si3 0.663985 0.264948 0.672587
Si Si4 0.039577 0.257733 0.090386
Si Si5 0.606844 0.100250 0.921147
Si Si6 0.471475 0.597067 0.132099
Si Si7 0.480109 0.095577 0.557831
Si Si8 0.139788 0.322854 0.318245
O O1 0.473852 0.500000 0.559263
O O2 0.433525 0.399016 0.624535
O O3 0.525902 0.331080 0.585415
O O4 0.249476 0.388621 0.419601
O O5 0.694672 0.877337 0.538876
O O6 0.903830 0.755081 0.665609
O O7 0.956109 0.891263 0.758199
O O8 0.786726 0.290217 0.797329
O O9 0.596823 0.171278 0.645813
O O10 0.757723 0.276272 0.669532
O O11 0.935279 0.333509 0.052873
O O12 0.027696 0.173209 0.124354
O O13 0.000000 0.236104 0.000000
O O14 0.503232 0.133348 0.802498
O O15 0.568602 0.000000 0.910080
O O16 0.787704 0.105020 0.021442
O O17 0.510885 0.500000 0.136112
O O18 0.500000 0.089868 0.500000
O O19 0.509324 0.000000 0.601116
#
# Coordination Sequence:
#
# PCOD9217566 Si02
#       8
#     8   8   8   8   8   8   8   8
#     4  12  26  40  63  98 134 169 211 262 321 378
#     4  12  23  42  64  96 130 165 212 270 316 377
#     4  11  23  42  62  93 127 170 217 255 319 385
#     4  11  25  43  66  95 132 166 214 268 320 375
#     4  10  23  43  69  95 124 171 218 260 319 382
#     4  11  23  43  69  94 127 170 217 264 321 383
#     4  11  20  36  62  90 123 163 208 257 316 376
#     4  11  22  42  67  91 132 170 213 264 315 383
#
# _framework density 20.755376999999999
#
# number of rings (size 3 to 8) (size 9 to 14) (size 15 to 20)
#    0.000    0.875    5.000    2.625    1.750    5.000 
#    0.000    0.000    0.000    0.000    0.000    0.000 
#    0.000    0.000    0.000    0.000    0.000    0.000 
#
# Total GULP energy -178857.478095 kJ/mol
# GULP energy per Si atom -5589.296190 kJ/mol
# Density = 2.070814 g / cm^3
# Si number density = 20.755377 Si / 1000 Ang^3
#
#
#
# Elastic Constant Matrix: (Units=GPa)
#
#
# Indices 1 2 3 4 5 6 
#
# 1 39.5988 15.5439 28.4109 0.0002 -11.2592 0.0000
# 2 15.5439 117.6676 12.9620 0.0001 -2.2209 -0.0001
# 3 28.4109 12.9620 90.5911 0.0007 -9.4005 0.0004
# 4 0.0002 0.0001 0.0007 54.9593 0.0004 79.0044
# 5 -11.2592 -2.2209 -9.4005 0.0004 31.6632 0.0004
# 6 0.0000 -0.0001 0.0004 79.0044 0.0004 200.8149
#
#
#
# Elastic Compliance Matrix: (Units=1/GPa)
#
#
# Indices 1 2 3 4 5 6 
#
# 1 0.036568 -0.003550 -0.009943 0.000000 0.009802 0.000000
# 2 -0.003550 0.008981 -0.000245 0.000000 -0.000705 0.000000
# 3 -0.009943 -0.000245 0.014263 0.000000 0.000682 0.000000
# 4 0.000000 0.000000 0.000000 0.041880 0.000000 -0.016477
# 5 0.009802 -0.000705 0.000682 0.000000 0.035221 0.000000
# 6 0.000000 0.000000 0.000000 -0.016477 0.000000 0.011462
#
#
# Mechanical properties :
#
#
# Convention : Reuss Voigt Hill
#
# Bulk Modulus (GPa) = 30.92599 40.18788 35.55694
# Shear Modulus (GPa) = 26.79101 70.21687 48.50394
#
# Velocity S-wave (km/s) = 3.59667 5.82273 4.83943
# Velocity P-wave (km/s) = 5.67279 8.03805 6.95668
#
# Compressibility (1/GPa) = 0.03233526
#
# Stress axis : x y z
#
# Youngs Moduli (GPa) = 27.34642 111.34416 70.11293
#
# Poissons Ratio (x) = 0.39530 0.69714
# Poissons Ratio (y) = 0.09709 0.01716
# Poissons Ratio (z) = 0.27191 0.02726
#
# Static dielectric constant tensor:
#      x y z
#    x 1.759380 0.000000 0.003880 
#    y 0.000000 1.767160 0.000000 
#    z 0.003880 0.000000 1.726830 
# 
# From -- ./inp_files/344073.got.cif
#   From: 2010.05.17/outbox.cif.g08.bks.cpg/sg12_173_cif.got.tgz:344073.got - 2010.06.03 13:09:07.
