data_PCOD9217318
_publ_section_title
;
Structure prediction by ZEFSAII (Michael W. Deem and Ramdas Pophale) SiO2 
 PCOD9217318
Probable space group: C 2/M
;
_chemical_formula_sum "Si O2"
_cell_formula_units_Z 32
_cell_length_a 20.018668
_cell_length_b 14.068742
_cell_length_c 12.254765
_cell_angle_alpha 90.000000
_cell_angle_beta 23.710723
_cell_angle_gamma 90.000000
_cell_volume 1387.874423
_symmetry_space_group_name_H-M "C 2/M"
_symmetry_group_IT_number 12
_symmetry_cell_setting 'monoclinic'
loop_
_space_group_symop_operation_xyz
x,y,z
-x,y,-z
-x,-y,-z
x,-y,z
1/2+x,1/2+y,z
1/2-x,1/2+y,-z
1/2-x,1/2-y,-z
1/2+x,1/2-y,z
loop_
_atom_site_type_symbol
_atom_site_label
_atom_site_fract_x
_atom_site_fract_y
_atom_site_fract_z
Si Si1 0.849891 0.613216 0.644165
Si Si2 0.361207 0.386566 0.844833
Si Si3 0.682461 0.270659 0.721484
Si Si4 0.749869 0.613010 0.214921
O O1 0.862800 0.500000 0.607611
O O2 0.821364 0.665996 0.574503
O O3 0.000000 0.641261 0.500000
O O4 0.691346 0.639526 0.955777
O O5 0.336109 0.500000 0.877264
O O6 0.243985 0.352780 0.920679
O O7 0.554025 0.372182 0.534346
O O8 0.750000 0.250000 0.500000
O O9 0.660809 0.176631 0.829358
O O10 0.500000 0.318552 0.000000
O O11 0.787555 0.500000 0.165762
#
# Coordination Sequence:
#
# PCOD9217318 Si02
#       4
#     8   8   8   8
#     4  10  23  42  67  93 122 165 219 269 309 366
#     4   8  16  35  64  94 115 154 212 262 314 357
#     4  12  28  43  60  96 132 173 211 251 326 386
#     4   9  19  37  63  92 125 161 204 259 316 375
#
# _framework density 23.056842
#
# number of rings (size 3 to 8) (size 9 to 14) (size 15 to 20)
#    0.000    2.250    0.000    3.000    7.000    3.000 
#    0.000    0.000    0.000    0.000    0.000    0.000 
#    0.000    0.000    0.000    0.000    0.000    0.000 
#
# Total GULP energy -89365.836950 kJ/mol
# GULP energy per Si atom -5585.364809 kJ/mol
# Density = 2.300436 g / cm^3
# Si number density = 23.056842 Si / 1000 Ang^3
#
#
#
# Elastic Constant Matrix: (Units=GPa)
#
#
# Indices 1 2 3 4 5 6 
#
# 1 175.0848 41.0884 33.3198 0.0002 14.3617 -0.0002
# 2 41.0884 81.4755 -10.6495 0.0000 -16.5124 0.0000
# 3 33.3198 -10.6495 45.8071 0.0004 6.6659 -0.0003
# 4 0.0002 0.0000 0.0004 12.3554 -0.0003 1.9086
# 5 14.3617 -16.5124 6.6659 -0.0003 35.9656 0.0003
# 6 -0.0002 0.0000 -0.0003 1.9086 0.0003 29.8224
#
#
#
# Elastic Compliance Matrix: (Units=1/GPa)
#
#
# Indices 1 2 3 4 5 6 
#
# 1 0.009115 -0.006641 -0.007400 0.000000 -0.005317 0.000000
# 2 -0.006641 0.018613 0.007737 0.000000 0.009763 0.000000
# 3 -0.007400 0.007737 0.028843 -0.000001 0.001162 0.000000
# 4 0.000000 0.000000 -0.000001 0.081745 0.000001 -0.005232
# 5 -0.005317 0.009763 0.001162 0.000001 0.034195 0.000000
# 6 0.000000 0.000000 0.000000 -0.005232 0.000000 0.033867
#
#
# Mechanical properties :
#
#
# Convention : Reuss Voigt Hill
#
# Bulk Modulus (GPa) = 22.74666 47.76498 35.25582
# Shear Modulus (GPa) = 21.40051 31.53594 26.46823
#
# Velocity S-wave (km/s) = 3.04988 3.70232 3.39182
# Velocity P-wave (km/s) = 4.72115 6.24799 5.53745
#
# Compressibility (1/GPa) = 0.04396250
#
# Stress axis : x y z
#
# Youngs Moduli (GPa) = 109.71482 53.72601 34.67013
#
# Poissons Ratio (x) = 0.35681 0.25656
# Poissons Ratio (y) = 0.72866 -0.26826
# Poissons Ratio (z) = 0.81190 -0.41570
#
# Static dielectric constant tensor:
#      x y z
#    x 1.882570 0.000000 -0.014300 
#    y 0.000000 1.892790 0.000000 
#    z -0.014300 0.000000 1.957430 
# 
# From -- ./inp_files/45222.got.cif
#   From: 2010.05.17/outbox.cif.g08.bks.cpg/sg12_23_cif.got.tgz:45222.got - 2010.06.03 13:09:07.
