data_PCOD9217283
_publ_section_title
;
Structure prediction by ZEFSAII (Michael W. Deem and Ramdas Pophale) SiO2 
 PCOD9217283
Probable space group: C 2/M
;
_chemical_formula_sum "Si O2"
_cell_formula_units_Z 40
_cell_length_a 10.192211
_cell_length_b 18.346671
_cell_length_c 9.496358
_cell_angle_alpha 90.000000
_cell_angle_beta 100.285415
_cell_angle_gamma 90.000000
_cell_volume 1747.218382
_symmetry_space_group_name_H-M "C 2/M"
_symmetry_group_IT_number 12
_symmetry_cell_setting 'monoclinic'
loop_
_space_group_symop_operation_xyz
x,y,z
-x,y,-z
-x,-y,-z
x,-y,z
1/2+x,1/2+y,z
1/2-x,1/2+y,-z
1/2-x,1/2-y,-z
1/2+x,1/2-y,z
loop_
_atom_site_type_symbol
_atom_site_label
_atom_site_fract_x
_atom_site_fract_y
_atom_site_fract_z
Si Si1 0.746878 0.083647 0.754114
Si Si2 0.185092 0.729461 0.635950
Si Si3 0.633337 0.768166 0.085604
Si Si4 0.276385 0.080790 0.911939
Si Si5 0.527338 0.374569 0.667655
O O1 0.651447 0.145087 0.663344
O O2 0.893810 0.100392 0.721069
O O3 0.709666 0.000000 0.714219
O O4 0.753749 0.089250 0.926273
O O5 0.250000 0.750000 0.500000
O O6 0.311292 0.739397 0.760897
O O7 0.074270 0.789159 0.658549
O O8 0.622700 0.854533 0.102809
O O9 0.500000 0.735022 0.000000
O O10 0.750000 0.750000 0.000000
O O11 0.149167 0.092841 0.784481
O O12 0.329168 0.000000 0.899032
O O13 0.500000 0.398471 0.500000
#
# Coordination Sequence:
#
# PCOD9217283 Si02
#       5
#     8   8   8   8   8
#     4  11  23  41  66  97 134 175 227 286 346 407
#     4  11  24  42  61  98 134 176 223 288 345 410
#     4  11  25  42  69  97 133 179 237 281 340 418
#     4  10  23  42  65  97 135 175 224 286 350 411
#     4  11  23  39  65  99 134 180 230 285 339 415
#
# _framework density 22.893533999999999
#
# number of rings (size 3 to 8) (size 9 to 14) (size 15 to 20)
#    0.000    1.200    4.000    1.200    5.600    3.600 
#    0.000    0.000    0.000    0.600    0.000    0.000 
#    0.000    0.000    0.000    0.000    0.000    0.000 
#
# Total GULP energy -111629.980084 kJ/mol
# GULP energy per Si atom -5581.499004 kJ/mol
# Density = 2.284143 g / cm^3
# Si number density = 22.893534 Si / 1000 Ang^3
#
#
#
# Elastic Constant Matrix: (Units=GPa)
#
#
# Indices 1 2 3 4 5 6 
#
# 1 32.8762 -21.8799 4.2662 0.0000 5.8796 0.0000
# 2 -21.8799 172.4797 19.4639 0.0000 -9.3094 0.0000
# 3 4.2662 19.4639 147.1369 0.0000 9.1187 0.0000
# 4 0.0000 0.0000 0.0000 21.8506 0.0000 -0.6425
# 5 5.8796 -9.3094 9.1187 0.0000 20.5127 0.0000
# 6 0.0000 0.0000 0.0000 -0.6425 0.0000 18.7381
#
#
#
# Elastic Compliance Matrix: (Units=1/GPa)
#
#
# Indices 1 2 3 4 5 6 
#
# 1 0.034648 0.004107 -0.001078 0.000000 -0.007588 0.000000
# 2 0.004107 0.006571 -0.001131 0.000000 0.002308 0.000000
# 3 -0.001078 -0.001131 0.007188 0.000000 -0.003400 0.000000
# 4 0.000000 0.000000 0.000000 0.045811 0.000000 0.001571
# 5 -0.007588 0.002308 -0.003400 0.000000 0.053484 0.000000
# 6 0.000000 0.000000 0.000000 0.001571 0.000000 0.053421
#
#
# Mechanical properties :
#
#
# Convention : Reuss Voigt Hill
#
# Bulk Modulus (GPa) = 19.15597 39.57703 29.36650
# Shear Modulus (GPa) = 23.28532 35.59647 29.44089
#
# Velocity S-wave (km/s) = 3.19268 3.94746 3.58996
# Velocity P-wave (km/s) = 4.68791 6.17265 5.48079
#
# Compressibility (1/GPa) = 0.05220305
#
# Stress axis : x y z
#
# Youngs Moduli (GPa) = 28.86208 152.18284 139.12069
#
# Poissons Ratio (x) = -0.62506 0.14993
# Poissons Ratio (y) = -0.11854 0.15740
# Poissons Ratio (z) = 0.03110 0.17217
#
# Static dielectric constant tensor:
#      x y z
#    x 1.763960 0.000000 0.022380 
#    y 0.000000 1.804710 0.000000 
#    z 0.022380 0.000000 1.844720 
# 
# From -- ./inp_files/47145.got.cif
#   From: 2010.05.17/outbox.cif.g08.bks.cpg/sg12_24_cif.got.tgz:47145.got - 2010.06.03 13:09:07.
