data_PCOD9217269
_publ_section_title
;
Structure prediction by ZEFSAII (Michael W. Deem and Ramdas Pophale) SiO2 
 PCOD9217269
Probable space group: C 2/M
;
_chemical_formula_sum "Si O2"
_cell_formula_units_Z 40
_cell_length_a 19.410939
_cell_length_b 8.659067
_cell_length_c 11.952383
_cell_angle_alpha 90.000000
_cell_angle_beta 104.457021
_cell_angle_gamma 90.000000
_cell_volume 1945.350487
_symmetry_space_group_name_H-M "C 2/M"
_symmetry_group_IT_number 12
_symmetry_cell_setting 'monoclinic'
loop_
_space_group_symop_operation_xyz
x,y,z
-x,y,-z
-x,-y,-z
x,-y,z
1/2+x,1/2+y,z
1/2-x,1/2+y,-z
1/2-x,1/2-y,-z
1/2+x,1/2-y,z
loop_
_atom_site_type_symbol
_atom_site_label
_atom_site_fract_x
_atom_site_fract_y
_atom_site_fract_z
Si Si1 0.296738 0.682802 0.848572
Si Si2 0.857246 0.817581 0.214581
Si Si3 0.918235 0.683431 0.463456
Si Si4 0.570789 0.184544 0.961788
Si Si5 0.690880 0.816584 0.392481
O O1 0.301695 0.500000 0.867578
O O2 0.217798 0.739828 0.848046
O O3 0.306506 0.727519 0.722606
O O4 0.359417 0.766024 0.941123
O O5 0.876448 0.770831 0.348868
O O6 0.918367 0.757997 0.155848
O O7 0.849673 0.000000 0.201775
O O8 0.914265 0.500000 0.435625
O O9 0.882178 0.704639 0.569221
O O10 0.000000 0.731193 0.500000
O O11 0.568141 0.000000 0.949391
O O12 0.500000 0.234561 0.000000
O O13 0.750000 0.750000 0.500000
O O14 0.702034 0.000000 0.377751
#
# Coordination Sequence:
#
# PCOD9217269 Si02
#       5
#     8   8   8   8   8
#     4  12  25  43  68  96 132 172 217 268 320 382
#     4  12  25  43  68  97 131 169 218 269 321 384
#     4  10  23  42  65  94 131 174 216 261 319 383
#     4  11  26  47  70  95 128 169 214 265 327 389
#     4  11  22  39  65  97 132 170 214 264 319 380
#
# _framework density 20.561847
#
# number of rings (size 3 to 8) (size 9 to 14) (size 15 to 20)
#    0.000    0.800    2.000    5.400    2.800    2.800 
#    0.000    0.000    0.000    0.000    0.000    0.000 
#    0.000    0.000    0.000    0.000    0.000    0.000 
#
# Total GULP energy -111958.969866 kJ/mol
# GULP energy per Si atom -5597.948493 kJ/mol
# Density = 2.051505 g / cm^3
# Si number density = 20.561847 Si / 1000 Ang^3
#
#
#
# Elastic Constant Matrix: (Units=GPa)
#
#
# Indices 1 2 3 4 5 6 
#
# 1 108.1893 10.3445 0.2953 0.0000 -13.4323 0.0000
# 2 10.3445 35.1636 -4.0550 0.0000 -10.0481 0.0000
# 3 0.2953 -4.0550 57.6532 0.0000 -15.3801 0.0000
# 4 0.0000 0.0000 0.0000 38.3683 0.0000 -3.4944
# 5 -13.4323 -10.0481 -15.3801 0.0000 32.9449 0.0000
# 6 0.0000 0.0000 0.0000 -3.4944 0.0000 22.6194
#
#
#
# Elastic Compliance Matrix: (Units=1/GPa)
#
#
# Indices 1 2 3 4 5 6 
#
# 1 0.009890 -0.001685 0.000879 0.000000 0.003928 0.000000
# 2 -0.001685 0.032985 0.005516 0.000000 0.011948 0.000000
# 3 0.000879 0.005516 0.020872 0.000000 0.011785 0.000000
# 4 0.000000 0.000000 0.000000 0.026435 0.000000 0.004084
# 5 0.003928 0.011948 0.011785 0.000000 0.041101 0.000000
# 6 0.000000 0.000000 0.000000 0.004084 0.000000 0.044841
#
#
# Mechanical properties :
#
#
# Convention : Reuss Voigt Hill
#
# Bulk Modulus (GPa) = 13.66773 23.79728 18.73251
# Shear Modulus (GPa) = 26.16524 31.74796 28.95660
#
# Velocity S-wave (km/s) = 3.57110 3.93367 3.75676
# Velocity P-wave (km/s) = 4.86469 5.67717 5.28657
#
# Compressibility (1/GPa) = 0.07316502
#
# Stress axis : x y z
#
# Youngs Moduli (GPa) = 101.11697 30.31717 47.91028
#
# Poissons Ratio (x) = 0.05110 -0.04210
# Poissons Ratio (y) = 0.17043 -0.26427
# Poissons Ratio (z) = -0.08886 -0.16723
#
# Static dielectric constant tensor:
#      x y z
#    x 1.733590 0.000000 -0.026970 
#    y 0.000000 1.693390 0.000000 
#    z -0.026970 0.000000 1.735040 
# 
# From -- ./inp_files/151638.got.cif
#   From: 2010.05.17/outbox.cif.g08.bks.cpg/sg12_76_cif.got.tgz:151638.got - 2010.06.03 13:09:07.
