data_PCOD9217086
_publ_section_title
;
Structure prediction by ZEFSAII (Michael W. Deem and Ramdas Pophale) SiO2 
 PCOD9217086
Probable space group: C 2/M
;
_chemical_formula_sum "Si O2"
_cell_formula_units_Z 64
_cell_length_a 12.587948
_cell_length_b 20.677742
_cell_length_c 20.567905
_cell_angle_alpha 90.000000
_cell_angle_beta 140.970523
_cell_angle_gamma 90.000000
_cell_volume 3371.286677
_symmetry_space_group_name_H-M "C 2/M"
_symmetry_group_IT_number 12
_symmetry_cell_setting 'monoclinic'
loop_
_space_group_symop_operation_xyz
x,y,z
-x,y,-z
-x,-y,-z
x,-y,z
1/2+x,1/2+y,z
1/2-x,1/2+y,-z
1/2-x,1/2-y,-z
1/2+x,1/2-y,z
loop_
_atom_site_type_symbol
_atom_site_label
_atom_site_fract_x
_atom_site_fract_y
_atom_site_fract_z
Si Si1 0.639589 0.425579 0.251259
Si Si2 0.376221 0.684468 0.134514
Si Si3 0.536855 0.187526 0.905162
Si Si4 0.542715 0.873082 0.672090
Si Si5 0.440059 0.073802 0.764762
Si Si6 0.061653 0.885749 0.602846
Si Si7 0.155125 0.225044 0.739841
Si Si8 0.756458 0.925930 0.549041
O O1 0.583180 0.500000 0.218881
O O2 0.492281 0.374381 0.165680
O O3 0.798890 0.412479 0.280770
O O4 0.700214 0.415461 0.354825
O O5 0.411412 0.751655 0.114785
O O6 0.421451 0.695511 0.231061
O O7 0.178711 0.673473 0.026260
O O8 0.522763 0.124121 0.853844
O O9 0.353496 0.209958 0.841870
O O10 0.477622 0.901360 0.709691
O O11 0.605617 0.799572 0.710507
O O12 0.388289 0.879697 0.548058
O O13 0.240483 0.078025 0.685372
O O14 0.497307 0.000000 0.798923
O O15 0.095023 0.815012 0.648854
O O16 0.000000 0.882184 0.500000
O O17 0.922578 0.917826 0.583402
O O18 0.694608 0.000000 0.512787
#
# Coordination Sequence:
#
# PCOD9217086 Si02
#       8
#     8   8   8   8   8   8   8   8
#     4  11  24  42  64  94 130 169 210 255 311 377
#     4  11  21  43  67  90 123 164 212 259 314 382
#     4  10  23  41  67  91 121 164 208 263 323 368
#     4  12  23  39  63  92 131 172 206 255 311 377
#     4  11  23  40  63  94 128 161 209 260 314 375
#     4  11  23  39  62  94 124 168 210 259 314 364
#     4  11  23  41  63  93 127 162 212 262 316 373
#     4  11  23  40  62  90 128 173 212 253 311 376
#
# _framework density 18.98385
#
# number of rings (size 3 to 8) (size 9 to 14) (size 15 to 20)
#    0.000    1.000    5.000    2.250    0.000    3.500 
#    0.000    0.625    0.000    3.750    0.000    0.000 
#    0.000    0.000    0.000    0.000    0.000    0.000 
#
# Total GULP energy -178692.581112 kJ/mol
# GULP energy per Si atom -5584.143160 kJ/mol
# Density = 1.894064 g / cm^3
# Si number density = 18.983850 Si / 1000 Ang^3
#
#
#
# Elastic Constant Matrix: (Units=GPa)
#
#
# Indices 1 2 3 4 5 6 
#
# 1 48.3024 21.5432 -3.9111 -0.0001 3.9743 0.0000
# 2 21.5432 139.1808 43.6975 0.0001 5.1823 0.0001
# 3 -3.9111 43.6975 55.7992 -0.0003 -1.3747 0.0000
# 4 -0.0001 0.0001 -0.0003 -5.8851 -0.0001 -5.0768
# 5 3.9743 5.1823 -1.3747 -0.0001 25.2849 0.0000
# 6 0.0000 0.0001 0.0000 -5.0768 0.0000 20.6029
#
#
#
# Elastic Compliance Matrix: (Units=1/GPa)
#
#
# Indices 1 2 3 4 5 6 
#
# 1 0.023795 -0.005441 0.005872 -0.000001 -0.002306 0.000000
# 2 -0.005441 0.010914 -0.008975 0.000001 -0.001870 0.000000
# 3 0.005872 -0.008975 0.025418 -0.000001 0.002298 0.000000
# 4 -0.000001 0.000001 -0.000001 -0.140133 -0.000001 -0.034530
# 5 -0.002306 -0.001870 0.002298 -0.000001 0.040420 0.000000
# 6 0.000000 0.000000 0.000000 -0.034530 0.000000 0.040028
#
#
# Mechanical properties :
#
#
# Convention : Reuss Voigt Hill
#
# Bulk Modulus (GPa) = 23.23444 40.66020 31.94732
# Shear Modulus (GPa) = 156.85812 20.13074 88.49443
#
# Velocity S-wave (km/s) = 9.09981 3.25993 6.83497
# Velocity P-wave (km/s) = 11.07584 5.96945 8.89687
#
# Compressibility (1/GPa) = 0.04303955
#
# Stress axis : x y z
#
# Youngs Moduli (GPa) = 42.02623 91.62234 39.34245
#
# Poissons Ratio (x) = 0.49849 -0.23101
# Poissons Ratio (y) = 0.22865 0.35309
# Poissons Ratio (z) = -0.24677 0.82228
#
# Static dielectric constant tensor:
#      x y z
#    x 1.682260 0.000000 0.011140 
#    y 0.000000 1.648310 0.000000 
#    z 0.011140 0.000000 1.648930 
# 
# From -- ./inp_files/306805.got.cif
#   From: 2010.05.17/outbox.cif.g08.bks.cpg/sg12_154_cif.got.tgz:306805.got - 2010.06.03 13:09:07.
