data_PCOD9217157
_publ_section_title
;
Structure prediction by ZEFSAII (Michael W. Deem and Ramdas Pophale) SiO2 
 PCOD9217157
Probable space group: C 2/M
;
_chemical_formula_sum "Si O2"
_cell_formula_units_Z 36
_cell_length_a 9.426498
_cell_length_b 26.318615
_cell_length_c 13.132023
_cell_angle_alpha 90.000000
_cell_angle_beta 145.321948
_cell_angle_gamma 90.000000
_cell_volume 1853.660738
_symmetry_space_group_name_H-M "C 2/M"
_symmetry_group_IT_number 12
_symmetry_cell_setting 'monoclinic'
loop_
_space_group_symop_operation_xyz
x,y,z
-x,y,-z
-x,-y,-z
x,-y,z
1/2+x,1/2+y,z
1/2-x,1/2+y,-z
1/2-x,1/2-y,-z
1/2+x,1/2-y,z
loop_
_atom_site_type_symbol
_atom_site_label
_atom_site_fract_x
_atom_site_fract_y
_atom_site_fract_z
Si Si1 0.966446 0.309691 0.274914
Si Si2 0.042006 0.125146 0.409524
Si Si3 0.000000 0.118836 0.000000
Si Si4 0.701441 0.560614 0.316690
Si Si5 0.695127 0.777314 0.205307
O O1 0.732095 0.345027 0.109590
O O2 0.886938 0.269128 0.312358
O O3 0.196026 0.345091 0.439889
O O4 0.053212 0.278550 0.227735
O O5 0.060298 0.084124 0.331215
O O6 0.000000 0.104656 0.500000
O O7 0.834030 0.168858 0.273003
O O8 0.911578 0.085694 0.851697
O O9 0.672511 0.500000 0.296661
O O10 0.000000 0.571502 0.500000
O O11 0.500000 0.769809 0.000000
#
# Coordination Sequence:
#
# PCOD9217157 Si02
#       5
#     8   8   4   8   8
#     4  11  23  37  59  92 129 173 206 256 309 375
#     4  10  23  42  62  92 131 167 210 261 318 375
#     4  12  23  42  68  94 132 164 215 260 320 374
#     4  11  24  43  69  94 123 165 216 270 318 373
#     4  11  22  36  58  90 130 171 212 251 307 380
#
# _framework density 19.421032
#
# number of rings (size 3 to 8) (size 9 to 14) (size 15 to 20)
#    0.000    1.111    3.333    3.000    3.111    0.444 
#    0.000    0.000    0.000    6.000    0.000    0.000 
#    0.000    0.000    0.000    0.000    0.000    0.000 
#
# Total GULP energy -100650.963483 kJ/mol
# GULP energy per Si atom -5591.720193 kJ/mol
# Density = 1.937683 g / cm^3
# Si number density = 19.421032 Si / 1000 Ang^3
#
#
#
# Elastic Constant Matrix: (Units=GPa)
#
#
# Indices 1 2 3 4 5 6 
#
# 1 141.3312 79.6296 56.6717 0.0000 -15.9705 0.0000
# 2 79.6296 92.8035 36.3352 0.0000 -21.3959 0.0000
# 3 56.6717 36.3352 76.7730 0.0000 -15.8447 0.0000
# 4 0.0000 0.0000 0.0000 -25.3836 0.0000 -0.1202
# 5 -15.9705 -21.3959 -15.8447 0.0000 33.1744 0.0000
# 6 0.0000 0.0000 0.0000 -0.1202 0.0000 22.7858
#
#
#
# Elastic Compliance Matrix: (Units=1/GPa)
#
#
# Indices 1 2 3 4 5 6 
#
# 1 0.016251 -0.011944 -0.007009 0.000000 -0.003228 0.000000
# 2 -0.011944 0.023240 -0.000306 0.000000 0.009093 0.000000
# 3 -0.007009 -0.000306 0.019532 0.000000 0.005757 0.000000
# 4 0.000000 0.000000 0.000000 -0.039394 0.000000 -0.000208
# 5 -0.003228 0.009093 0.005757 0.000000 0.037204 0.000000
# 6 0.000000 0.000000 0.000000 -0.000208 0.000000 0.043886
#
#
# Mechanical properties :
#
#
# Convention : Reuss Voigt Hill
#
# Bulk Modulus (GPa) = 48.76772 72.90896 60.83834
# Shear Modulus (GPa) = 34.22970 15.33339 24.78154
#
# Velocity S-wave (km/s) = 4.20278 2.81290 3.57601
# Velocity P-wave (km/s) = 6.97971 6.94065 6.96021
#
# Compressibility (1/GPa) = 0.02050537
#
# Stress axis : x y z
#
# Youngs Moduli (GPa) = 61.53477 43.02945 51.19674
#
# Poissons Ratio (x) = 0.51394 0.35886
# Poissons Ratio (y) = 0.73496 0.01566
# Poissons Ratio (z) = 0.43132 0.01316
#
# Static dielectric constant tensor:
#      x y z
#    x 1.687710 0.000000 0.007340 
#    y 0.000000 1.651990 0.000000 
#    z 0.007340 0.000000 1.680950 
# 
# From -- ./inp_files/38880.got.cif
#   From: 2010.05.17/outbox.cif.g08.bks.cpg/sg12_20_cif.got.tgz:38880.got - 2010.06.03 13:09:07.
