data_PCOD9217765
_publ_section_title
;
Structure prediction by ZEFSAII (Michael W. Deem and Ramdas Pophale) SiO2 
 PCOD9217765
Probable space group: C 2/M
;
_chemical_formula_sum "Si O2"
_cell_formula_units_Z 44
_cell_length_a 11.966514
_cell_length_b 23.000883
_cell_length_c 11.465873
_cell_angle_alpha 90.000000
_cell_angle_beta 33.924729
_cell_angle_gamma 90.000000
_cell_volume 1761.302184
_symmetry_space_group_name_H-M "C 2/M"
_symmetry_group_IT_number 12
_symmetry_cell_setting 'monoclinic'
loop_
_space_group_symop_operation_xyz
x,y,z
-x,y,-z
-x,-y,-z
x,-y,z
1/2+x,1/2+y,z
1/2-x,1/2+y,-z
1/2-x,1/2-y,-z
1/2+x,1/2-y,z
loop_
_atom_site_type_symbol
_atom_site_label
_atom_site_fract_x
_atom_site_fract_y
_atom_site_fract_z
Si Si1 0.405063 0.175931 0.265613
Si Si2 0.706256 0.585274 0.756504
Si Si3 0.110583 0.500000 0.223959
Si Si4 0.632864 0.566508 0.542956
Si Si5 0.838619 0.584530 0.039850
Si Si6 0.804581 0.713161 0.615031
O O1 0.613385 0.150820 0.038542
O O2 0.357501 0.236712 0.246609
O O3 0.374561 0.192017 0.426768
O O4 0.248548 0.121445 0.386623
O O5 0.860612 0.550562 0.701606
O O6 0.682419 0.568285 0.640329
O O7 0.742962 0.653954 0.731388
O O8 0.500000 0.570091 0.000000
O O9 0.113866 0.549377 0.118014
O O10 0.685929 0.500000 0.460765
O O11 0.394469 0.573806 0.731506
O O12 0.000000 0.568891 0.000000
O O13 0.000000 0.741224 0.500000
#
# Coordination Sequence:
#
# PCOD9217765 Si02
#       6
#     8   8   4   8   8   8
#     4  10  26  47  66 101 141 187 233 287 341 410
#     4  11  20  40  72 106 136 177 223 297 359 399
#     4  12  22  42  71 106 148 169 232 296 347 416
#     4  11  23  43  71 103 140 180 226 285 353 415
#     4  12  26  42  66  99 142 190 228 275 344 422
#     4  10  23  45  67  99 139 178 243 287 339 410
#
# _framework density 24.981518000000001
#
# number of rings (size 3 to 8) (size 9 to 14) (size 15 to 20)
#    0.000    1.091    3.636    1.636    3.818    0.727 
#    0.000    5.909    0.000    0.000    0.000    0.000 
#    0.000    0.000    0.000    0.000    0.000    0.000 
#
# Total GULP energy -122641.797049 kJ/mol
# GULP energy per Si atom -5574.627139 kJ/mol
# Density = 2.492466 g / cm^3
# Si number density = 24.981518 Si / 1000 Ang^3
#
#
#
# Elastic Constant Matrix: (Units=GPa)
#
#
# Indices 1 2 3 4 5 6 
#
# 1 123.9271 15.4370 25.6037 -0.0015 18.9060 0.0008
# 2 15.4370 165.4495 14.1519 -0.0008 16.4096 0.0002
# 3 25.6037 14.1519 81.0077 -0.0009 1.9349 0.0004
# 4 -0.0015 -0.0008 -0.0009 15.4858 0.0008 30.3214
# 5 18.9060 16.4096 1.9349 0.0008 26.7640 -0.0004
# 6 0.0008 0.0002 0.0004 30.3214 -0.0004 98.3762
#
#
#
# Elastic Compliance Matrix: (Units=1/GPa)
#
#
# Indices 1 2 3 4 5 6 
#
# 1 0.009680 0.000003 -0.002902 0.000003 -0.006630 -0.000001
# 2 0.000003 0.006523 -0.001047 0.000001 -0.003925 0.000000
# 3 -0.002902 -0.001047 0.013403 0.000001 0.001722 0.000000
# 4 0.000003 0.000001 0.000001 0.162861 -0.000009 -0.050197
# 5 -0.006630 -0.003925 0.001722 -0.000009 0.044329 0.000003
# 6 -0.000001 0.000000 0.000000 -0.050197 0.000003 0.025637
#
#
# Mechanical properties :
#
#
# Convention : Reuss Voigt Hill
#
# Bulk Modulus (GPa) = 46.05164 53.41880 49.73522
# Shear Modulus (GPa) = 18.01401 49.13799 33.57600
#
# Velocity S-wave (km/s) = 2.68823 4.43987 3.67008
# Velocity P-wave (km/s) = 5.30186 6.90746 6.15722
#
# Compressibility (1/GPa) = 0.02171475
#
# Stress axis : x y z
#
# Youngs Moduli (GPa) = 103.30790 153.30961 74.60861
#
# Poissons Ratio (x) = -0.00039 0.21648
# Poissons Ratio (y) = -0.00026 0.07808
# Poissons Ratio (z) = 0.29975 0.16045
#
# Static dielectric constant tensor:
#      x y z
#    x 2.051900 0.000000 -0.075350 
#    y 0.000000 1.915360 0.000000 
#    z -0.075350 0.000000 2.065790 
# 
# From -- ./inp_files/135732.got.cif
#   From: 2010.05.17/outbox.cif.g08.bks.cpg/sg12_68_cif.got.tgz:135732.got - 2010.06.03 13:09:07.
