data_PCOD9217985
_publ_section_title
;
Structure prediction by ZEFSAII (Michael W. Deem and Ramdas Pophale) SiO2 
 PCOD9217985
Probable space group: C 2/M
;
_chemical_formula_sum "Si O2"
_cell_formula_units_Z 48
_cell_length_a 19.832739
_cell_length_b 14.374140
_cell_length_c 19.937796
_cell_angle_alpha 90.000000
_cell_angle_beta 28.483004
_cell_angle_gamma 90.000000
_cell_volume 2710.611410
_symmetry_space_group_name_H-M "C 2/M"
_symmetry_group_IT_number 12
_symmetry_cell_setting 'monoclinic'
loop_
_space_group_symop_operation_xyz
x,y,z
-x,y,-z
-x,-y,-z
x,-y,z
1/2+x,1/2+y,z
1/2-x,1/2+y,-z
1/2-x,1/2-y,-z
1/2+x,1/2-y,z
loop_
_atom_site_type_symbol
_atom_site_label
_atom_site_fract_x
_atom_site_fract_y
_atom_site_fract_z
Si Si1 0.125652 0.296940 0.065569
Si Si2 0.714169 0.500000 0.667197
Si Si3 0.645551 0.701287 0.908064
Si Si4 0.886846 0.000000 0.998740
Si Si5 0.340538 0.191689 0.613834
Si Si6 0.822768 0.500000 0.420345
Si Si7 0.798519 0.704182 0.387513
Si Si8 0.137634 0.500000 0.109898
O O1 0.134753 0.407035 0.068753
O O2 0.963652 0.270188 0.227552
O O3 0.250000 0.250000 0.000000
O O4 0.156340 0.263181 0.964246
O O5 0.784506 0.591442 0.637671
O O6 0.745553 0.500000 0.559895
O O7 0.547474 0.500000 0.830848
O O8 0.640911 0.593109 0.934493
O O9 0.759684 0.718923 0.751949
O O10 0.500000 0.723160 0.000000
O O11 0.775171 0.000000 0.036004
O O12 0.500000 0.187124 0.500000
O O13 0.298398 0.259590 0.588989
O O14 0.789508 0.593526 0.408189
O O15 0.993874 0.500000 0.280258
O O16 0.750000 0.750000 0.500000
#
# Coordination Sequence:
#
# PCOD9217985 Si02
#       8
#     8   4   8   4   8   4   8   4
#     4  11  23  41  66  92 126 168 211 257 310 374
#     4  12  22  40  60  97 128 162 204 261 321 376
#     4  12  23  42  63  92 129 165 207 263 320 371
#     4  12  22  37  64  96 130 157 202 271 314 373
#     4  12  27  41  63  94 129 167 210 257 323 378
#     4  10  24  40  66  91 128 166 210 259 311 366
#     4  11  23  43  64  91 128 167 213 257 306 379
#     4  10  24  40  62  99 124 162 216 258 304 375
#
# _framework density 17.708181
#
# number of rings (size 3 to 8) (size 9 to 14) (size 15 to 20)
#    0.000    0.667    6.667    1.000    4.667    0.000 
#    0.000    1.667    0.000    0.000    0.000    0.000 
#    0.000    0.000    0.000    0.000    0.000    0.000 
#
# Total GULP energy -134036.693167 kJ/mol
# GULP energy per Si atom -5584.862215 kJ/mol
# Density = 1.766788 g / cm^3
# Si number density = 17.708181 Si / 1000 Ang^3
#
#
#
# Elastic Constant Matrix: (Units=GPa)
#
#
# Indices 1 2 3 4 5 6 
#
# 1 143.0827 41.8124 39.2821 0.0004 5.7947 -0.0001
# 2 41.8124 85.3387 16.1176 0.0001 5.6841 -0.0001
# 3 39.2821 16.1176 62.3993 -0.0001 14.9335 0.0000
# 4 0.0004 0.0001 -0.0001 35.0786 0.0003 11.8903
# 5 5.7947 5.6841 14.9335 0.0003 42.4463 -0.0001
# 6 -0.0001 -0.0001 0.0000 11.8903 -0.0001 31.2688
#
#
#
# Elastic Compliance Matrix: (Units=1/GPa)
#
#
# Indices 1 2 3 4 5 6 
#
# 1 0.009477 -0.003721 -0.005257 0.000000 0.001054 0.000000
# 2 -0.003721 0.013793 -0.000983 0.000000 -0.000993 0.000000
# 3 -0.005257 -0.000983 0.021168 0.000000 -0.006598 0.000000
# 4 0.000000 0.000000 0.000000 0.032726 0.000000 -0.012444
# 5 0.001054 -0.000993 -0.006598 0.000000 0.025870 0.000000
# 6 0.000000 0.000000 0.000000 -0.012444 0.000000 0.036713
#
#
# Mechanical properties :
#
#
# Convention : Reuss Voigt Hill
#
# Bulk Modulus (GPa) = 40.78811 53.91611 47.35211
# Shear Modulus (GPa) = 29.79042 34.66597 32.22819
#
# Velocity S-wave (km/s) = 4.10603 4.42930 4.27073
# Velocity P-wave (km/s) = 6.75002 7.52804 7.14962
#
# Compressibility (1/GPa) = 0.02451695
#
# Stress axis : x y z
#
# Youngs Moduli (GPa) = 105.52049 72.50212 47.24044
#
# Poissons Ratio (x) = 0.26975 0.24835
# Poissons Ratio (y) = 0.39259 0.04642
# Poissons Ratio (z) = 0.55474 0.07125
#
# Static dielectric constant tensor:
#      x y z
#    x 1.622700 0.000000 -0.038450 
#    y 0.000000 1.594130 0.000000 
#    z -0.038450 0.000000 1.609690 
# 
# From -- ./inp_files/105089.got.cif
#   From: 2010.05.17/outbox.cif.g08.bks.cpg/sg12_53_cif.got.tgz:105089.got - 2010.06.03 13:09:07.
