data_PCOD9217047
_publ_section_title
;
Structure prediction by ZEFSAII (Michael W. Deem and Ramdas Pophale) SiO2 
 PCOD9217047
Probable space group: C 2/M
;
_chemical_formula_sum "Si O2"
_cell_formula_units_Z 58
_cell_length_a 26.120990
_cell_length_b 16.872710
_cell_length_c 12.339518
_cell_angle_alpha 90.000000
_cell_angle_beta 30.876333
_cell_angle_gamma 90.000000
_cell_volume 2790.924721
_symmetry_space_group_name_H-M "C 2/M"
_symmetry_group_IT_number 12
_symmetry_cell_setting 'monoclinic'
loop_
_space_group_symop_operation_xyz
x,y,z
-x,y,-z
-x,-y,-z
x,-y,z
1/2+x,1/2+y,z
1/2-x,1/2+y,-z
1/2-x,1/2-y,-z
1/2+x,1/2-y,z
loop_
_atom_site_type_symbol
_atom_site_label
_atom_site_fract_x
_atom_site_fract_y
_atom_site_fract_z
Si Si1 0.838365 0.593746 0.712307
Si Si2 0.402681 0.624501 0.844666
Si Si3 0.119337 0.590364 0.762190
Si Si4 0.389437 0.200986 0.416521
Si Si5 0.449967 0.308542 0.975699
Si Si6 0.000000 0.000000 0.500000
Si Si7 0.284823 0.808741 0.237434
Si Si8 0.345192 0.209531 0.884867
O O1 0.859758 0.500000 0.668109
O O2 0.884881 0.644707 0.529348
O O3 0.875984 0.636959 0.753302
O O4 0.716681 0.605140 0.931958
O O5 0.442719 0.625114 0.895779
O O6 0.457086 0.567938 0.662539
O O7 0.415500 0.715022 0.778171
O O8 0.139135 0.500000 0.697362
O O9 0.150582 0.647616 0.608769
O O10 0.180482 0.617395 0.755863
O O11 0.000000 0.597893 0.000000
O O12 0.491876 0.234102 0.182935
O O13 0.328512 0.281176 0.549898
O O14 0.500000 0.328608 0.000000
O O15 0.341486 0.268761 0.183529
O O16 0.312503 0.819660 0.062292
O O17 0.250000 0.250000 0.000000
#
# Coordination Sequence:
#
# PCOD9217047 Si02
#       8
#     8   8   8   8   8   2   8   8
#     4  11  22  40  64  94 128 164 215 267 322 382
#     4  10  23  41  65  94 129 172 210 266 322 385
#     4  11  23  39  60  93 130 164 208 263 319 383
#     4  12  21  37  69  89 123 171 215 257 324 380
#     4  11  22  40  64  98 128 166 220 263 312 389
#     4  12  24  40  70  92 126 176 212 250 326 384
#     4  11  20  39  65  89 124 166 214 260 316 381
#     4   9  19  39  62  89 120 168 205 263 313 375
#
# _framework density 20.781642000000002
#
# number of rings (size 3 to 8) (size 9 to 14) (size 15 to 20)
#    0.000    1.241    7.586    0.828    1.931    0.552 
#    0.000    0.345    1.517    3.310    0.000    0.000 
#    0.000    0.000    0.000    0.000    0.000    0.000 
#
# Total GULP energy -161560.997266 kJ/mol
# GULP energy per Si atom -5571.068871 kJ/mol
# Density = 2.073434 g / cm^3
# Si number density = 20.781642 Si / 1000 Ang^3
#
#
#
# Elastic Constant Matrix: (Units=GPa)
#
#
# Indices 1 2 3 4 5 6 
#
# 1 111.5878 27.2307 22.2066 0.0000 28.8503 0.0000
# 2 27.2307 94.8411 36.0917 0.0000 12.0218 0.0000
# 3 22.2066 36.0917 63.8922 0.0000 19.1654 0.0000
# 4 0.0000 0.0000 0.0000 18.2476 0.0000 6.2361
# 5 28.8503 12.0218 19.1654 0.0000 26.5151 0.0000
# 6 0.0000 0.0000 0.0000 6.2361 0.0000 18.4379
#
#
#
# Elastic Compliance Matrix: (Units=1/GPa)
#
#
# Indices 1 2 3 4 5 6 
#
# 1 0.012863 -0.002319 0.000922 0.000000 -0.013611 0.000000
# 2 -0.002319 0.013862 -0.007528 0.000000 0.001680 0.000000
# 3 0.000922 -0.007528 0.024082 0.000000 -0.014996 0.000000
# 4 0.000000 0.000000 0.000000 0.061964 0.000000 -0.020958
# 5 -0.013611 0.001680 -0.014996 0.000000 0.062602 0.000000
# 6 0.000000 0.000000 0.000000 -0.020958 0.000000 0.061324
#
#
# Mechanical properties :
#
#
# Convention : Reuss Voigt Hill
#
# Bulk Modulus (GPa) = 30.34309 49.04215 39.69262
# Shear Modulus (GPa) = 18.83011 24.95958 21.89485
#
# Velocity S-wave (km/s) = 3.01340 3.46936 3.24939
# Velocity P-wave (km/s) = 5.17108 6.30069 5.76362
#
# Compressibility (1/GPa) = 0.03295643
#
# Stress axis : x y z
#
# Youngs Moduli (GPa) = 77.74287 72.14156 41.52500
#
# Poissons Ratio (x) = 0.16728 -0.03828
# Poissons Ratio (y) = 0.18027 0.31261
# Poissons Ratio (z) = -0.07167 0.54309
#
# Static dielectric constant tensor:
#      x y z
#    x 1.804370 0.000000 -0.070810 
#    y 0.000000 1.708140 0.000000 
#    z -0.070810 0.000000 1.833740 
# 
# From -- ./inp_files/145593.got.cif
#   From: 2010.05.17/outbox.cif.g08.bks.cpg/sg12_73_cif.got.tgz:145593.got - 2010.06.03 13:09:07.
