data_PCOD9217265
_publ_section_title
;
Structure prediction by ZEFSAII (Michael W. Deem and Ramdas Pophale) SiO2 
 PCOD9217265
Probable space group: C 2/M
;
_chemical_formula_sum "Si O2"
_cell_formula_units_Z 48
_cell_length_a 11.277494
_cell_length_b 19.736205
_cell_length_c 11.758696
_cell_angle_alpha 90.000000
_cell_angle_beta 135.158344
_cell_angle_gamma 90.000000
_cell_volume 1845.511973
_symmetry_space_group_name_H-M "C 2/M"
_symmetry_group_IT_number 12
_symmetry_cell_setting 'monoclinic'
loop_
_space_group_symop_operation_xyz
x,y,z
-x,y,-z
-x,-y,-z
x,-y,z
1/2+x,1/2+y,z
1/2-x,1/2+y,-z
1/2-x,1/2-y,-z
1/2+x,1/2-y,z
loop_
_atom_site_type_symbol
_atom_site_label
_atom_site_fract_x
_atom_site_fract_y
_atom_site_fract_z
Si Si1 0.314266 0.323548 0.517256
Si Si2 0.132142 0.760632 0.787046
Si Si3 0.701036 0.000000 0.670535
Si Si4 0.305782 0.855534 0.326380
Si Si5 0.490937 0.500000 0.301106
Si Si6 0.923007 0.653380 0.073973
Si Si7 0.611835 0.000000 0.960475
Si Si8 0.500000 0.384652 0.500000
O O1 0.250000 0.250000 0.500000
O O2 0.511217 0.305527 0.624713
O O3 0.292548 0.357793 0.622722
O O4 0.293733 0.364439 0.389276
O O5 0.236079 0.708896 0.778958
O O6 0.025450 0.707766 0.793202
O O7 0.234595 0.815005 0.928241
O O8 0.500000 0.000000 0.500000
O O9 0.721867 0.071504 0.748097
O O10 0.841801 0.000000 0.665713
O O11 0.500000 0.847293 0.500000
O O12 0.313501 0.500000 0.114096
O O13 0.486581 0.435678 0.381179
O O14 0.928384 0.575282 0.116043
O O15 0.000000 0.660673 0.000000
O O16 0.500000 0.000000 0.000000
#
# Coordination Sequence:
#
# PCOD9217265 Si02
#       8
#     8   8   4   8   4   8   4   4
#     4  12  22  37  62  94 138 167 216 273 334 417
#     4  11  23  40  66  96 128 176 219 274 343 400
#     4  10  23  42  65  93 139 180 215 281 344 419
#     4  11  22  41  60  96 136 174 216 269 338 417
#     4  11  22  44  68  96 134 175 231 283 339 411
#     4  10  23  44  66  91 127 169 228 286 328 390
#     4  10  23  44  67  94 129 174 230 290 333 390
#     4  11  24  38  66 102 128 183 218 272 354 409
#
# _framework density 26.009043999999999
#
# number of rings (size 3 to 8) (size 9 to 14) (size 15 to 20)
#    0.000    1.167    3.333    3.000    0.000    3.333 
#    0.000    0.000    0.000    1.000    0.000    0.000 
#    0.000    0.000    0.000    0.000    0.000    0.000 
#
# Total GULP energy -133678.292097 kJ/mol
# GULP energy per Si atom -5569.928837 kJ/mol
# Density = 2.594985 g / cm^3
# Si number density = 26.009044 Si / 1000 Ang^3
#
#
#
# Elastic Constant Matrix: (Units=GPa)
#
#
# Indices 1 2 3 4 5 6 
#
# 1 205.2966 44.7260 13.8045 0.0000 -9.0198 0.0000
# 2 44.7260 173.4885 -8.8592 0.0000 5.6298 0.0000
# 3 13.8045 -8.8592 39.1357 0.0000 7.6040 0.0000
# 4 0.0000 0.0000 0.0000 25.2938 0.0000 24.0842
# 5 -9.0198 5.6298 7.6040 0.0000 28.8155 0.0000
# 6 0.0000 0.0000 0.0000 24.0842 0.0000 55.7753
#
#
#
# Elastic Compliance Matrix: (Units=1/GPa)
#
#
# Indices 1 2 3 4 5 6 
#
# 1 0.005553 -0.001671 -0.002886 0.000000 0.002826 0.000000
# 2 -0.001671 0.006402 0.002512 0.000000 -0.002437 0.000000
# 3 -0.002886 0.002512 0.028891 0.000000 -0.009018 0.000000
# 4 0.000000 0.000000 0.000000 0.067141 0.000000 -0.028992
# 5 0.002826 -0.002437 -0.009018 0.000000 0.038444 0.000000
# 6 0.000000 0.000000 0.000000 -0.028992 0.000000 0.030448
#
#
# Mechanical properties :
#
#
# Convention : Reuss Voigt Hill
#
# Bulk Modulus (GPa) = 27.20595 57.47373 42.33984
# Shear Modulus (GPa) = 25.87710 46.52689 36.20199
#
# Velocity S-wave (km/s) = 3.15767 4.23410 3.73487
# Velocity P-wave (km/s) = 4.87621 6.78594 5.90874
#
# Compressibility (1/GPa) = 0.03675667
#
# Stress axis : x y z
#
# Youngs Moduli (GPa) = 180.07511 156.19773 34.61277
#
# Poissons Ratio (x) = 0.26097 0.09990
# Poissons Ratio (y) = 0.30086 -0.08695
# Poissons Ratio (z) = 0.51973 -0.39237
#
# Static dielectric constant tensor:
#      x y z
#    x 3.010670 0.000000 0.380750 
#    y 0.000000 2.143290 0.000000 
#    z 0.380750 0.000000 2.256220 
# 
# From -- ./inp_files/208076.got.cif
#   From: 2010.05.17/outbox.cif.g08.bks.cpg/sg12_105_cif.got.tgz:208076.got - 2010.06.03 13:09:07.
