data_PCOD9217694
_publ_section_title
;
Structure prediction by ZEFSAII (Michael W. Deem and Ramdas Pophale) SiO2 
 PCOD9217694
Probable space group: C 2/M
;
_chemical_formula_sum "Si O2"
_cell_formula_units_Z 30
_cell_length_a 8.802710
_cell_length_b 24.048980
_cell_length_c 6.158928
_cell_angle_alpha 90.000000
_cell_angle_beta 105.924766
_cell_angle_gamma 90.000000
_cell_volume 1253.784612
_symmetry_space_group_name_H-M "C 2/M"
_symmetry_group_IT_number 12
_symmetry_cell_setting 'monoclinic'
loop_
_space_group_symop_operation_xyz
x,y,z
-x,y,-z
-x,-y,-z
x,-y,z
1/2+x,1/2+y,z
1/2-x,1/2+y,-z
1/2-x,1/2-y,-z
1/2+x,1/2-y,z
loop_
_atom_site_type_symbol
_atom_site_label
_atom_site_fract_x
_atom_site_fract_y
_atom_site_fract_z
Si Si1 0.500000 0.785839 0.000000
Si Si2 0.500000 0.500000 0.500000
Si Si3 0.132857 0.625675 0.715345
Si Si4 0.869636 0.916631 0.117222
Si Si5 0.431537 0.310570 0.695724
O O1 0.433400 0.824940 0.160751
O O2 0.610089 0.741143 0.166457
O O3 0.389512 0.451487 0.341047
O O4 0.278374 0.650315 0.631744
O O5 0.000000 0.604459 0.500000
O O6 0.207984 0.583563 0.920225
O O7 0.926225 0.852694 0.176417
O O8 0.000000 0.939593 0.000000
O O9 0.500000 0.287346 0.500000
#
# Coordination Sequence:
#
# PCOD9217694 Si02
#       5
#     4   2   8   8   8
#     4  12  24  40  68  98 148 196 226 262 340 406
#     4  12  22  44  82  96 122 176 242 294 348 396
#     4  11  26  42  65 102 149 184 222 282 342 410
#     4  10  23  44  69 100 130 176 237 285 338 407
#     4  11  23  42  66  96 139 186 240 273 321 412
#
# _framework density 23.927554000000001
#
# number of rings (size 3 to 8) (size 9 to 14) (size 15 to 20)
#    0.000    1.067    5.333    2.000    3.733    2.133 
#    0.000    0.667    0.000   10.400    0.000    0.000 
#    0.000    0.000    0.000    0.000    0.000    0.000 
#
# Total GULP energy -83515.444664 kJ/mol
# GULP energy per Si atom -5567.696311 kJ/mol
# Density = 2.387309 g / cm^3
# Si number density = 23.927554 Si / 1000 Ang^3
#
#
#
# Elastic Constant Matrix: (Units=GPa)
#
#
# Indices 1 2 3 4 5 6 
#
# 1 48.1627 4.7414 52.7829 0.0000 24.7714 0.0000
# 2 4.7414 101.9644 57.4111 0.0000 12.3531 0.0000
# 3 52.7829 57.4111 153.5142 0.0000 51.5484 0.0000
# 4 0.0000 0.0000 0.0000 1131.8706 0.0000 -37.0607
# 5 24.7714 12.3531 51.5484 0.0000 57.5685 0.0000
# 6 0.0000 0.0000 0.0000 -37.0607 0.0000 -7.3707
#
#
#
# Elastic Compliance Matrix: (Units=1/GPa)
#
#
# Indices 1 2 3 4 5 6 
#
# 1 0.037902 0.006589 -0.013649 0.000000 -0.005501 0.000000
# 2 0.006589 0.013755 -0.007817 0.000000 0.001213 0.000000
# 3 -0.013649 -0.007817 0.016580 0.000000 -0.007296 0.000000
# 4 0.000000 0.000000 0.000000 0.000759 0.000000 -0.003814
# 5 -0.005501 0.001213 -0.007296 0.000000 0.026011 0.000000
# 6 0.000000 0.000000 0.000000 -0.003814 0.000000 -0.116493
#
#
# Mechanical properties :
#
#
# Convention : Reuss Voigt Hill
#
# Bulk Modulus (GPa) = 25.98479 59.27912 42.63196
# Shear Modulus (GPa) = 237.02791 248.99406 243.01099
#
# Velocity S-wave (km/s) = 9.96372 10.21213 10.08869
# Velocity P-wave (km/s) = 11.96875 12.80149 12.39212
#
# Compressibility (1/GPa) = 0.03848405
#
# Stress axis : x y z
#
# Youngs Moduli (GPa) = 26.38409 72.69910 60.31321
#
# Poissons Ratio (x) = -0.47900 0.82319
# Poissons Ratio (y) = -0.17384 0.47146
# Poissons Ratio (z) = 0.36010 0.56828
#
# Static dielectric constant tensor:
#      x y z
#    x 1.913070 0.000000 -0.000810 
#    y 0.000000 1.900850 0.000000 
#    z -0.000810 0.000000 2.125770 
# 
# From -- ./inp_files/3927.got.cif
#   From: 2010.05.17/outbox.cif.g08.bks.cpg/sg12_2_cif.got.tgz:3927.got - 2010.06.03 13:09:07.
