data_PCOD9217973
_publ_section_title
;
Structure prediction by ZEFSAII (Michael W. Deem and Ramdas Pophale) SiO2 
 PCOD9217973
Probable space group: C 2/M
;
_chemical_formula_sum "Si O2"
_cell_formula_units_Z 32
_cell_length_a 8.762351
_cell_length_b 19.648244
_cell_length_c 13.402532
_cell_angle_alpha 90.000000
_cell_angle_beta 41.791602
_cell_angle_gamma 90.000000
_cell_volume 1537.734461
_symmetry_space_group_name_H-M "C 2/M"
_symmetry_group_IT_number 12
_symmetry_cell_setting 'monoclinic'
loop_
_space_group_symop_operation_xyz
x,y,z
-x,y,-z
-x,-y,-z
x,-y,z
1/2+x,1/2+y,z
1/2-x,1/2+y,-z
1/2-x,1/2-y,-z
1/2+x,1/2-y,z
loop_
_atom_site_type_symbol
_atom_site_label
_atom_site_fract_x
_atom_site_fract_y
_atom_site_fract_z
Si Si1 0.114462 0.577019 0.117596
Si Si2 0.745247 0.689652 0.081859
Si Si3 0.151221 0.000000 0.593808
Si Si4 0.394000 0.362824 0.653113
Si Si5 0.182828 0.500000 0.268964
O O1 0.077832 0.500000 0.096257
O O2 0.212115 0.564213 0.180648
O O3 0.869552 0.614865 0.238857
O O4 0.279989 0.619880 0.967090
O O5 0.593193 0.685965 0.255914
O O6 0.750000 0.750000 0.000000
O O7 0.000000 0.689124 0.000000
O O8 0.413942 0.000000 0.428475
O O9 0.167659 0.000000 0.705643
O O10 0.026618 0.932724 0.614499
O O11 0.500000 0.333655 0.500000
#
# Coordination Sequence:
#
# PCOD9217973 Si02
#       5
#     8   8   4   8   4
#     4   9  18  37  58  84 114 148 192 230 284 339
#     4  10  24  40  60  79 117 154 194 237 281 336
#     4  11  18  30  55  94 124 138 178 246 285 339
#     4  11  19  35  61  87 111 150 191 231 282 344
#     4   9  19  31  52  88 125 144 174 235 298 325
#
# _framework density 20.809835
#
# number of rings (size 3 to 8) (size 9 to 14) (size 15 to 20)
#    0.750    1.250    3.750    0.375    1.750    3.500 
#    0.000    6.250    5.500    0.000    0.000    0.000 
#    0.000    0.000    0.000    0.000    0.000    0.000 
#
# Total GULP energy -89198.713890 kJ/mol
# GULP energy per Si atom -5574.919618 kJ/mol
# Density = 2.076247 g / cm^3
# Si number density = 20.809835 Si / 1000 Ang^3
#
#
#
# Elastic Constant Matrix: (Units=GPa)
#
#
# Indices 1 2 3 4 5 6 
#
# 1 95.0467 10.4205 45.9164 0.0000 38.0697 0.0000
# 2 10.4205 54.4254 42.7587 0.0000 30.6915 0.0000
# 3 45.9164 42.7587 122.8622 -0.0001 47.7696 0.0001
# 4 0.0000 0.0000 -0.0001 15.5981 0.0001 19.3120
# 5 38.0697 30.6915 47.7696 0.0001 48.0854 -0.0001
# 6 0.0000 0.0000 0.0001 19.3120 -0.0001 32.2268
#
#
#
# Elastic Compliance Matrix: (Units=1/GPa)
#
#
# Indices 1 2 3 4 5 6 
#
# 1 0.017542 0.008117 -0.003204 0.000001 -0.015886 0.000000
# 2 0.008117 0.034207 -0.006437 0.000000 -0.021865 0.000000
# 3 -0.003204 -0.006437 0.014653 0.000001 -0.007911 0.000000
# 4 0.000001 0.000000 0.000001 0.248433 -0.000002 -0.148874
# 5 -0.015886 -0.021865 -0.007911 -0.000002 0.055188 0.000001
# 6 0.000000 0.000000 0.000000 -0.148874 0.000001 0.120244
#
#
# Mechanical properties :
#
#
# Convention : Reuss Voigt Hill
#
# Bulk Modulus (GPa) = 15.78451 52.28060 34.03256
# Shear Modulus (GPa) = 9.71945 30.73129 20.22537
#
# Velocity S-wave (km/s) = 2.16350 3.84704 3.12094
# Velocity P-wave (km/s) = 3.72056 6.70153 5.42001
#
# Compressibility (1/GPa) = 0.06335324
#
# Stress axis : x y z
#
# Youngs Moduli (GPa) = 57.00591 29.23395 68.24600
#
# Poissons Ratio (x) = -0.23729 0.21868
# Poissons Ratio (y) = -0.46272 0.43930
# Poissons Ratio (z) = 0.18266 0.18818
#
# Static dielectric constant tensor:
#      x y z
#    x 1.754640 0.000000 0.057590 
#    y 0.000000 1.708050 0.000000 
#    z 0.057590 0.000000 1.849970 
# 
# From -- ./inp_files/196738.got.cif
#   From: 2010.05.17/outbox.cif.g08.bks.cpg/sg12_99_cif.got.tgz:196738.got - 2010.06.03 13:09:07.
