data_PCOD9217181
_publ_section_title
;
Structure prediction by ZEFSAII (Michael W. Deem and Ramdas Pophale) SiO2 
 PCOD9217181
Probable space group: C 2/M
;
_chemical_formula_sum "Si O2"
_cell_formula_units_Z 40
_cell_length_a 14.128897
_cell_length_b 10.696695
_cell_length_c 19.461404
_cell_angle_alpha 90.000000
_cell_angle_beta 144.899888
_cell_angle_gamma 90.000000
_cell_volume 1691.239291
_symmetry_space_group_name_H-M "C 2/M"
_symmetry_group_IT_number 12
_symmetry_cell_setting 'monoclinic'
loop_
_space_group_symop_operation_xyz
x,y,z
-x,y,-z
-x,-y,-z
x,-y,z
1/2+x,1/2+y,z
1/2-x,1/2+y,-z
1/2-x,1/2-y,-z
1/2+x,1/2-y,z
loop_
_atom_site_type_symbol
_atom_site_label
_atom_site_fract_x
_atom_site_fract_y
_atom_site_fract_z
Si Si1 0.741691 0.146624 0.393185
Si Si2 0.826327 0.641012 0.800397
Si Si3 0.123741 0.712050 0.780338
Si Si4 0.932697 0.865075 0.037642
Si Si5 0.458381 0.867661 0.555261
O O1 0.774521 0.151600 0.330738
O O2 0.560051 0.201972 0.300027
O O3 0.862432 0.237951 0.505423
O O4 0.749935 0.000000 0.415759
O O5 0.892722 0.500000 0.843000
O O6 0.715603 0.667474 0.802408
O O7 0.968055 0.745455 0.877509
O O8 0.106791 0.635119 0.698205
O O9 0.241099 0.660055 0.909641
O O10 0.958880 0.000000 0.088429
O O11 0.000000 0.876056 0.000000
O O12 0.500000 0.871673 0.500000
O O13 0.367393 0.000000 0.514031
#
# Coordination Sequence:
#
# PCOD9217181 Si02
#       5
#     8   8   8   8   8
#     4  11  24  42  65  93 125 165 206 252 309 370
#     4  10  23  42  63  92 129 163 204 256 309 362
#     4  11  22  40  64  91 126 164 207 253 308 367
#     4   9  19  36  62  91 122 164 206 248 305 368
#     4  11  23  40  64  93 124 161 206 258 306 363
#
# _framework density 23.651295999999999
#
# number of rings (size 3 to 8) (size 9 to 14) (size 15 to 20)
#    0.000    1.600    2.000    2.400    0.000    8.800 
#    0.000    0.000    0.000    0.000    0.000    0.000 
#    0.000    0.000    0.000    0.000    0.000    0.000 
#
# Total GULP energy -111476.091234 kJ/mol
# GULP energy per Si atom -5573.804562 kJ/mol
# Density = 2.359746 g / cm^3
# Si number density = 23.651296 Si / 1000 Ang^3
#
#
#
# Elastic Constant Matrix: (Units=GPa)
#
#
# Indices 1 2 3 4 5 6 
#
# 1 63.7805 23.9624 -9.3583 0.0000 -5.3640 0.0000
# 2 23.9624 211.2966 83.5880 0.0000 8.2237 0.0000
# 3 -9.3583 83.5880 77.1583 0.0002 14.4551 0.0000
# 4 0.0000 0.0000 0.0002 25.3365 0.0000 -4.1451
# 5 -5.3640 8.2237 14.4551 0.0000 37.0733 0.0000
# 6 0.0000 0.0000 0.0000 -4.1451 0.0000 9.6201
#
#
#
# Elastic Compliance Matrix: (Units=1/GPa)
#
#
# Indices 1 2 3 4 5 6 
#
# 1 0.018887 -0.005282 0.007855 0.000000 0.000841 0.000000
# 2 -0.005282 0.009871 -0.011631 0.000000 0.001581 0.000000
# 3 0.007855 -0.011631 0.027851 0.000000 -0.007143 0.000000
# 4 0.000000 0.000000 0.000000 0.042462 0.000000 0.018296
# 5 0.000841 0.001581 -0.007143 0.000000 0.029530 0.000000
# 6 0.000000 0.000000 0.000000 0.018296 0.000000 0.111832
#
#
# Mechanical properties :
#
#
# Convention : Reuss Voigt Hill
#
# Bulk Modulus (GPa) = 25.97788 60.95773 43.46780
# Shear Modulus (GPa) = 18.42441 31.34221 24.88331
#
# Velocity S-wave (km/s) = 2.79409 3.64425 3.24711
# Velocity P-wave (km/s) = 4.62783 6.59825 5.69885
#
# Compressibility (1/GPa) = 0.03849429
#
# Stress axis : x y z
#
# Youngs Moduli (GPa) = 52.94731 101.30437 35.90509
#
# Poissons Ratio (x) = 0.53511 -0.28205
# Poissons Ratio (y) = 0.27968 0.41760
# Poissons Ratio (z) = -0.41593 1.17824
#
# Static dielectric constant tensor:
#      x y z
#    x 1.940700 0.000000 0.031420 
#    y 0.000000 1.970640 0.000000 
#    z 0.031420 0.000000 1.931740 
# 
# From -- ./inp_files/342756.got.cif
#   From: 2010.05.17/outbox.cif.g08.bks.cpg/sg12_172_cif.got.tgz:342756.got - 2010.06.03 13:09:07.
