data_PCOD9217743
_publ_section_title
;
Structure prediction by ZEFSAII (Michael W. Deem and Ramdas Pophale) SiO2 
 PCOD9217743
Probable space group: C 2/M
;
_chemical_formula_sum "Si O2"
_cell_formula_units_Z 48
_cell_length_a 14.053126
_cell_length_b 27.358666
_cell_length_c 10.116878
_cell_angle_alpha 90.000000
_cell_angle_beta 32.561361
_cell_angle_gamma 90.000000
_cell_volume 2093.438016
_symmetry_space_group_name_H-M "C 2/M"
_symmetry_group_IT_number 12
_symmetry_cell_setting 'monoclinic'
loop_
_space_group_symop_operation_xyz
x,y,z
-x,y,-z
-x,-y,-z
x,-y,z
1/2+x,1/2+y,z
1/2-x,1/2+y,-z
1/2-x,1/2-y,-z
1/2+x,1/2-y,z
loop_
_atom_site_type_symbol
_atom_site_label
_atom_site_fract_x
_atom_site_fract_y
_atom_site_fract_z
Si Si1 0.209784 0.134950 0.271330
Si Si2 0.307803 0.845800 0.671151
Si Si3 0.294492 0.242114 0.287323
Si Si4 0.586476 0.574369 0.035658
Si Si5 0.777589 0.587055 0.454890
Si Si6 0.645161 0.051771 0.079461
O O1 0.233451 0.191533 0.288678
O O2 0.307857 0.107985 0.276424
O O3 0.000000 0.127779 0.500000
O O4 0.292689 0.104258 0.052237
O O5 0.500000 0.860499 0.500000
O O6 0.298182 0.788200 0.672181
O O7 0.148941 0.869508 0.941770
O O8 0.276934 0.869492 0.563308
O O9 0.250000 0.250000 0.500000
O O10 0.500000 0.245944 0.000000
O O11 0.762277 0.550789 0.886109
O O12 0.500000 0.557402 0.000000
O O13 0.420749 0.566737 0.323992
O O14 0.934345 0.553346 0.320890
O O15 0.700684 0.000000 0.947206
#
# Coordination Sequence:
#
# PCOD9217743 Si02
#       6
#     8   8   8   8   8   8
#     4  12  26  47  72 107 149 197 252 322 381 469
#     4  11  22  43  73 106 146 200 245 311 385 464
#     4  12  26  45  75 117 157 207 257 315 395 475
#     4  10  23  44  73 106 149 194 246 318 382 461
#     4  11  22  45  70 101 147 188 248 309 384 454
#     4  12  27  47  75 107 145 200 260 320 393 458
#
# _framework density 22.928791
#
# number of rings (size 3 to 8) (size 9 to 14) (size 15 to 20)
#    0.000    0.667    5.000    3.500    0.000    2.667 
#    0.000    8.333    0.000    0.000    0.000    0.000 
#    0.000    0.000    0.000    0.000    0.000    0.000 
#
# Total GULP energy -133650.489527 kJ/mol
# GULP energy per Si atom -5568.770397 kJ/mol
# Density = 2.287660 g / cm^3
# Si number density = 22.928791 Si / 1000 Ang^3
#
#
#
# Elastic Constant Matrix: (Units=GPa)
#
#
# Indices 1 2 3 4 5 6 
#
# 1 125.7979 38.8089 43.0852 0.0000 -28.2135 0.0000
# 2 38.8089 135.6691 30.5554 0.0000 -1.3131 0.0000
# 3 43.0852 30.5554 121.5462 0.0000 -28.7000 0.0000
# 4 0.0000 0.0000 0.0000 59.0255 0.0000 5.5771
# 5 -28.2135 -1.3131 -28.7000 0.0000 48.0438 0.0000
# 6 0.0000 0.0000 0.0000 5.5771 0.0000 -66.6460
#
#
#
# Elastic Compliance Matrix: (Units=1/GPa)
#
#
# Indices 1 2 3 4 5 6 
#
# 1 0.010494 -0.002522 -0.001917 0.000000 0.004948 0.000000
# 2 -0.002522 0.008471 -0.001782 0.000000 -0.002314 0.000000
# 3 -0.001917 -0.001782 0.010568 0.000000 0.005139 0.000000
# 4 0.000000 0.000000 0.000000 0.016809 0.000000 0.001407
# 5 0.004948 -0.002314 0.005139 0.000000 0.026726 0.000000
# 6 0.000000 0.000000 0.000000 0.001407 0.000000 -0.014887
#
#
# Mechanical properties :
#
#
# Convention : Reuss Voigt Hill
#
# Bulk Modulus (GPa) = 58.51226 67.54579 63.02902
# Shear Modulus (GPa) = 65.51238 26.12223 45.81730
#
# Velocity S-wave (km/s) = 5.35109 3.37898 4.47502
# Velocity P-wave (km/s) = 7.98457 6.68926 7.36545
#
# Compressibility (1/GPa) = 0.01709044
#
# Stress axis : x y z
#
# Youngs Moduli (GPa) = 95.29465 118.04612 94.62259
#
# Poissons Ratio (x) = 0.29772 0.18143
# Poissons Ratio (y) = 0.24034 0.16861
# Poissons Ratio (z) = 0.18272 0.21035
#
# Static dielectric constant tensor:
#      x y z
#    x 1.887790 0.000000 0.095800 
#    y 0.000000 1.911800 0.000000 
#    z 0.095800 0.000000 1.993470 
# 
# From -- ./inp_files/150211.got.cif
#   From: 2010.05.17/outbox.cif.g08.bks.cpg/sg12_76_cif.got.tgz:150211.got - 2010.06.03 13:09:07.
