data_PCOD9217599
_publ_section_title
;
Structure prediction by ZEFSAII (Michael W. Deem and Ramdas Pophale) SiO2 
 PCOD9217599
Probable space group: C 2/M
;
_chemical_formula_sum "Si O2"
_cell_formula_units_Z 28
_cell_length_a 18.645192
_cell_length_b 13.823748
_cell_length_c 7.689002
_cell_angle_alpha 90.000000
_cell_angle_beta 31.791184
_cell_angle_gamma 90.000000
_cell_volume 1044.068595
_symmetry_space_group_name_H-M "C 2/M"
_symmetry_group_IT_number 12
_symmetry_cell_setting 'monoclinic'
loop_
_space_group_symop_operation_xyz
x,y,z
-x,y,-z
-x,-y,-z
x,-y,z
1/2+x,1/2+y,z
1/2-x,1/2+y,-z
1/2-x,1/2-y,-z
1/2+x,1/2-y,z
loop_
_atom_site_type_symbol
_atom_site_label
_atom_site_fract_x
_atom_site_fract_y
_atom_site_fract_z
Si Si1 0.380266 0.114048 0.999908
Si Si2 0.500000 0.751144 0.000000
Si Si3 0.472420 0.613576 0.760691
Si Si4 0.689897 0.885397 0.226006
O O1 0.383558 0.178564 0.163625
O O2 0.301649 0.151606 0.990518
O O3 0.538860 0.123806 0.611071
O O4 0.352275 0.000000 0.090767
O O5 0.454846 0.679959 0.248791
O O6 0.500000 0.631606 0.500000
O O7 0.497570 0.500000 0.742674
O O8 0.312281 0.638990 0.100807
O O9 0.708934 0.000000 0.158637
#
# Coordination Sequence:
#
# PCOD9217599 Si02
#       4
#     8   4   8   8
#     4   9  19  38  62  92 121 151 193 245 304 352
#     4  12  24  36  62  94 122 154 198 244 296 358
#     4  10  23  44  62  83 119 162 204 244 289 346
#     4   8  17  39  66  83 116 162 196 242 296 349
#
# _framework density 26.818161
#
# number of rings (size 3 to 8) (size 9 to 14) (size 15 to 20)
#    0.000    2.571    0.000    2.571    4.000    2.286 
#    5.143    0.000    0.000    0.000    0.000    0.000 
#    0.000    0.000    0.000    0.000    0.000    0.000 
#
# Total GULP energy -78336.641201 kJ/mol
# GULP energy per Si atom -5595.474371 kJ/mol
# Density = 2.675712 g / cm^3
# Si number density = 26.818161 Si / 1000 Ang^3
#
#
#
# Elastic Constant Matrix: (Units=GPa)
#
#
# Indices 1 2 3 4 5 6 
#
# 1 168.2893 82.2275 30.5509 0.0000 12.3665 0.0000
# 2 82.2275 168.9706 7.0059 0.0000 31.6156 0.0000
# 3 30.5509 7.0059 74.5599 0.0000 1.9262 0.0000
# 4 0.0000 0.0000 0.0000 11.4118 0.0000 16.2109
# 5 12.3665 31.6156 1.9262 0.0000 36.4355 0.0000
# 6 0.0000 0.0000 0.0000 16.2109 0.0000 73.0779
#
#
#
# Elastic Compliance Matrix: (Units=1/GPa)
#
#
# Indices 1 2 3 4 5 6 
#
# 1 0.008474 -0.004164 -0.003104 0.000000 0.000901 0.000000
# 2 -0.004164 0.009130 0.001018 0.000000 -0.006563 0.000000
# 3 -0.003104 0.001018 0.014604 0.000000 -0.000602 0.000000
# 4 0.000000 0.000000 0.000000 0.127947 0.000000 -0.028383
# 5 0.000901 -0.006563 -0.000602 0.000000 0.032867 0.000000
# 6 0.000000 0.000000 0.000000 -0.028383 0.000000 0.019980
#
#
# Mechanical properties :
#
#
# Convention : Reuss Voigt Hill
#
# Bulk Modulus (GPa) = 50.74160 72.37649 61.55904
# Shear Modulus (GPa) = 21.54515 43.65407 32.59961
#
# Velocity S-wave (km/s) = 2.83747 4.03895 3.49030
# Velocity P-wave (km/s) = 5.44946 6.98551 6.26474
#
# Compressibility (1/GPa) = 0.01970770
#
# Stress axis : x y z
#
# Youngs Moduli (GPa) = 118.01063 109.52781 68.47490
#
# Poissons Ratio (x) = 0.45602 0.21256
# Poissons Ratio (y) = 0.49134 -0.06968
# Poissons Ratio (z) = 0.36633 -0.11146
#
# Static dielectric constant tensor:
#      x y z
#    x 2.115000 0.000000 0.006540 
#    y 0.000000 2.092160 0.000000 
#    z 0.006540 0.000000 2.168760 
# 
# From -- ./inp_files/44458.got.cif
#   From: 2010.05.17/outbox.cif.g08.bks.cpg/sg12_23_cif.got.tgz:44458.got - 2010.06.03 13:09:07.
