data_PCOD9217507
_publ_section_title
;
Structure prediction by ZEFSAII (Michael W. Deem and Ramdas Pophale) SiO2 
 PCOD9217507
Probable space group: C 2/M
;
_chemical_formula_sum "Si O2"
_cell_formula_units_Z 58
_cell_length_a 24.831065
_cell_length_b 15.104726
_cell_length_c 19.278021
_cell_angle_alpha 90.000000
_cell_angle_beta 23.252848
_cell_angle_gamma 90.000000
_cell_volume 2854.540898
_symmetry_space_group_name_H-M "C 2/M"
_symmetry_group_IT_number 12
_symmetry_cell_setting 'monoclinic'
loop_
_space_group_symop_operation_xyz
x,y,z
-x,y,-z
-x,-y,-z
x,-y,z
1/2+x,1/2+y,z
1/2-x,1/2+y,-z
1/2-x,1/2-y,-z
1/2+x,1/2-y,z
loop_
_atom_site_type_symbol
_atom_site_label
_atom_site_fract_x
_atom_site_fract_y
_atom_site_fract_z
Si Si1 0.369017 0.599156 0.875565
Si Si2 0.278269 0.286629 0.759177
Si Si3 0.923019 0.139971 0.970533
Si Si4 0.515411 0.895835 0.058464
Si Si5 0.387366 0.205625 0.312367
Si Si6 0.994675 0.227383 0.391959
Si Si7 0.454315 0.106315 0.751005
Si Si8 0.500000 0.500000 0.000000
O O1 0.400583 0.500000 0.812707
O O2 0.386643 0.600345 0.937955
O O3 0.464033 0.670839 0.724797
O O4 0.209383 0.618034 0.049065
O O5 0.387838 0.291302 0.690818
O O6 0.354923 0.298983 0.595391
O O7 0.209416 0.190254 0.843415
O O8 0.157592 0.355720 0.917031
O O9 0.029151 0.216276 0.823547
O O10 0.979181 0.076166 0.963185
O O11 0.382827 0.868424 0.258511
O O12 0.528125 0.000000 0.042221
O O13 0.500000 0.858624 0.000000
O O14 0.250000 0.250000 0.500000
O O15 0.468500 0.153448 0.276544
O O16 0.998260 0.331830 0.369095
O O17 0.481292 0.000000 0.714300
#
# Coordination Sequence:
#
# PCOD9217507 Si02
#       8
#     8   8   8   8   8   8   8   2
#     4  11  21  40  72 102 136 179 232 288 345 414
#     4  10  24  41  67  96 140 178 224 277 359 414
#     4  11  23  45  66  93 134 183 225 276 343 414
#     4  10  23  43  67  93 129 179 228 279 339 418
#     4  11  25  43  67  95 132 174 227 285 342 408
#     4  11  22  41  66 105 137 178 223 294 349 411
#     4  11  23  41  69 102 135 178 230 288 348 407
#     4  12  28  44  68  98 138 186 234 272 344 434
#
# _framework density 20.318503
#
# number of rings (size 3 to 8) (size 9 to 14) (size 15 to 20)
#    0.000    1.241    3.448    2.483    5.793    2.207 
#    6.207    3.448    0.000    0.000    0.000    0.000 
#    0.000    0.000    0.000    0.000    0.000    0.000 
#
# Total GULP energy -161535.817079 kJ/mol
# GULP energy per Si atom -5570.200589 kJ/mol
# Density = 2.027226 g / cm^3
# Si number density = 20.318503 Si / 1000 Ang^3
#
#
#
# Elastic Constant Matrix: (Units=GPa)
#
#
# Indices 1 2 3 4 5 6 
#
# 1 120.6555 36.9725 40.8803 0.0001 12.9556 0.0000
# 2 36.9725 103.0820 41.0212 0.0001 4.6880 0.0000
# 3 40.8803 41.0212 102.1856 0.0001 16.1219 -0.0001
# 4 0.0001 0.0001 0.0001 12.9382 -0.0001 0.4182
# 5 12.9556 4.6880 16.1219 -0.0001 17.2420 0.0000
# 6 0.0000 0.0000 -0.0001 0.4182 0.0000 40.8478
#
#
#
# Elastic Compliance Matrix: (Units=1/GPa)
#
#
# Indices 1 2 3 4 5 6 
#
# 1 0.010401 -0.002570 -0.002354 0.000000 -0.004916 0.000000
# 2 -0.002570 0.012210 -0.004286 0.000000 0.002620 0.000000
# 3 -0.002354 -0.004286 0.014060 0.000000 -0.010212 0.000000
# 4 0.000000 0.000000 0.000000 0.077316 0.000000 -0.000792
# 5 -0.004916 0.002620 -0.010212 0.000000 0.070528 0.000000
# 6 0.000000 0.000000 0.000000 -0.000792 0.000000 0.024489
#
#
# Mechanical properties :
#
#
# Convention : Reuss Voigt Hill
#
# Bulk Modulus (GPa) = 54.79621 62.63013 58.71317
# Shear Modulus (GPa) = 21.41263 28.00888 24.71075
#
# Velocity S-wave (km/s) = 3.24983 3.71683 3.49115
# Velocity P-wave (km/s) = 6.41163 7.02217 6.72383
#
# Compressibility (1/GPa) = 0.01824944
#
# Stress axis : x y z
#
# Youngs Moduli (GPa) = 96.14485 81.90316 71.12572
#
# Poissons Ratio (x) = 0.21052 0.16740
# Poissons Ratio (y) = 0.24713 0.30487
# Poissons Ratio (z) = 0.22629 0.35107
#
# Static dielectric constant tensor:
#      x y z
#    x 1.804210 0.000000 -0.036190 
#    y 0.000000 1.741910 0.000000 
#    z -0.036190 0.000000 1.803930 
# 
# From -- ./inp_files/328384.got.cif
#   From: 2010.05.17/outbox.cif.g08.bks.cpg/sg12_165_cif.got.tgz:328384.got - 2010.06.03 13:09:07.
