data_PCOD9217719
_publ_section_title
;
Structure prediction by ZEFSAII (Michael W. Deem and Ramdas Pophale) SiO2 
 PCOD9217719
Probable space group: C 2/M
;
_chemical_formula_sum "Si O2"
_cell_formula_units_Z 38
_cell_length_a 13.467138
_cell_length_b 11.598707
_cell_length_c 22.499820
_cell_angle_alpha 90.000000
_cell_angle_beta 149.566039
_cell_angle_gamma 90.000000
_cell_volume 1780.253675
_symmetry_space_group_name_H-M "C 2/M"
_symmetry_group_IT_number 12
_symmetry_cell_setting 'monoclinic'
loop_
_space_group_symop_operation_xyz
x,y,z
-x,y,-z
-x,-y,-z
x,-y,z
1/2+x,1/2+y,z
1/2-x,1/2+y,-z
1/2-x,1/2-y,-z
1/2+x,1/2-y,z
loop_
_atom_site_type_symbol
_atom_site_label
_atom_site_fract_x
_atom_site_fract_y
_atom_site_fract_z
Si Si1 0.219032 0.626519 0.452030
Si Si2 0.500000 0.000000 0.000000
Si Si3 0.182704 0.134747 0.269177
Si Si4 0.233665 0.630863 0.818964
Si Si5 0.252395 0.197699 0.935033
Si Si6 0.000000 0.791497 0.500000
O O1 0.236149 0.500000 0.492723
O O2 0.250000 0.750000 0.500000
O O3 0.381367 0.631820 0.484964
O O4 0.000810 0.630645 0.313005
O O5 0.407806 0.899612 0.997334
O O6 0.178276 0.174664 0.197958
O O7 0.342808 0.210109 0.385810
O O8 0.968364 0.147188 0.186634
O O9 0.240864 0.000000 0.298887
O O10 0.298724 0.500000 0.860232
O O11 0.276953 0.702384 0.899394
O O12 0.250000 0.250000 0.000000
#
# Coordination Sequence:
#
# PCOD9217719 Si02
#       6
#     8   2   8   8   8   4
#     4  11  23  42  65 103 145 189 240 295 358 442
#     4  12  28  52  74 108 144 178 260 318 376 454
#     4  11  23  42  68 102 144 186 239 297 370 450
#     4  10  23  44  70 100 142 191 243 297 372 452
#     4  12  26  48  73 104 140 190 247 315 378 439
#     4  12  22  40  68 104 147 190 235 300 365 444
#
# _framework density 21.345272000000001
#
# number of rings (size 3 to 8) (size 9 to 14) (size 15 to 20)
#    0.000    0.842    5.263    1.895    1.474    0.842 
#    1.895    2.632    0.000    0.000    0.000    0.000 
#    0.000    0.000    0.000    0.000    0.000    0.000 
#
# Total GULP energy -105900.353895 kJ/mol
# GULP energy per Si atom -5573.702837 kJ/mol
# Density = 2.129669 g / cm^3
# Si number density = 21.345272 Si / 1000 Ang^3
#
#
#
# Elastic Constant Matrix: (Units=GPa)
#
#
# Indices 1 2 3 4 5 6 
#
# 1 130.1158 58.5790 24.7740 0.0000 5.2155 0.0000
# 2 58.5790 160.9481 50.4235 0.0001 -30.0374 0.0001
# 3 24.7740 50.4235 69.8888 0.0005 -4.4219 0.0002
# 4 0.0000 0.0001 0.0005 9.5450 0.0001 -0.7780
# 5 5.2155 -30.0374 -4.4219 0.0001 42.3146 0.0000
# 6 0.0000 0.0001 0.0002 -0.7780 0.0000 43.6179
#
#
#
# Elastic Compliance Matrix: (Units=1/GPa)
#
#
# Indices 1 2 3 4 5 6 
#
# 1 0.009866 -0.004136 -0.000781 0.000000 -0.004234 0.000000
# 2 -0.004136 0.011043 -0.006013 0.000000 0.007721 0.000000
# 3 -0.000781 -0.006013 0.018784 -0.000001 -0.002209 0.000000
# 4 0.000000 0.000000 -0.000001 0.104919 0.000000 0.001871
# 5 -0.004234 0.007721 -0.002209 0.000000 0.029404 0.000000
# 6 0.000000 0.000000 0.000000 0.001871 0.000000 0.022960
#
#
# Mechanical properties :
#
#
# Convention : Reuss Voigt Hill
#
# Bulk Modulus (GPa) = 56.07618 69.83399 62.95509
# Shear Modulus (GPa) = 22.24390 34.24056 28.24223
#
# Velocity S-wave (km/s) = 3.23166 4.00950 3.64141
# Velocity P-wave (km/s) = 6.34451 7.36357 6.87296
#
# Compressibility (1/GPa) = 0.01783288
#
# Stress axis : x y z
#
# Youngs Moduli (GPa) = 101.35733 90.55241 53.23795
#
# Poissons Ratio (x) = 0.37456 0.04157
# Poissons Ratio (y) = 0.41926 0.32011
# Poissons Ratio (z) = 0.07914 0.54447
#
# Static dielectric constant tensor:
#      x y z
#    x 1.777260 0.000000 0.007630 
#    y 0.000000 1.804250 0.000000 
#    z 0.007630 0.000000 1.787670 
# 
# From -- ./inp_files/211879.got.cif
#   From: 2010.05.17/outbox.cif.g08.bks.cpg/sg12_106_cif.got.tgz:211879.got - 2010.06.03 13:09:07.
