data_PCOD9217019
_publ_section_title
;
Structure prediction by ZEFSAII (Michael W. Deem and Ramdas Pophale) SiO2 
 PCOD9217019
Probable space group: C 2/M
;
_chemical_formula_sum "Si O2"
_cell_formula_units_Z 32
_cell_length_a 11.123550
_cell_length_b 27.260679
_cell_length_c 9.240407
_cell_angle_alpha 90.000000
_cell_angle_beta 28.253115
_cell_angle_gamma 90.000000
_cell_volume 1326.385211
_symmetry_space_group_name_H-M "C 2/M"
_symmetry_group_IT_number 12
_symmetry_cell_setting 'monoclinic'
loop_
_space_group_symop_operation_xyz
x,y,z
-x,y,-z
-x,-y,-z
x,-y,z
1/2+x,1/2+y,z
1/2-x,1/2+y,-z
1/2-x,1/2-y,-z
1/2+x,1/2-y,z
loop_
_atom_site_type_symbol
_atom_site_label
_atom_site_fract_x
_atom_site_fract_y
_atom_site_fract_z
Si Si1 0.228950 0.812854 0.670445
Si Si2 0.040856 0.058552 0.629138
Si Si3 0.481121 0.094383 0.683994
Si Si4 0.229774 0.798624 0.337914
O O1 0.470638 0.847482 0.389874
O O2 0.157578 0.801925 0.581151
O O3 0.261045 0.759581 0.707699
O O4 0.000000 0.838588 0.000000
O O5 0.296390 0.078160 0.438992
O O6 0.000000 0.065905 0.500000
O O7 0.041083 0.000000 0.652043
O O8 0.793176 0.081720 0.965371
O O9 0.500000 0.072977 0.500000
O O10 0.000000 0.823263 0.500000
O O11 0.500000 0.818998 0.000000
#
# Coordination Sequence:
#
# PCOD9217019 Si02
#       4
#     8   8   8   8
#     4  10  23  42  64  93 134 173 214 268 326 378
#     4  11  26  48  71  97 132 172 215 270 333 395
#     4  12  25  42  69 102 135 172 217 270 329 394
#     4  10  23  41  64  92 127 174 223 267 315 378
#
# _framework density 24.125720999999999
#
# number of rings (size 3 to 8) (size 9 to 14) (size 15 to 20)
#    0.000    1.250    0.000    4.500    0.000   23.000 
#    0.000    0.000    0.000    0.000    0.000    0.000 
#    0.000    0.000    0.000    0.000    0.000    0.000 
#
# Total GULP energy -89434.560711 kJ/mol
# GULP energy per Si atom -5589.660044 kJ/mol
# Density = 2.407081 g / cm^3
# Si number density = 24.125721 Si / 1000 Ang^3
#
#
#
# Elastic Constant Matrix: (Units=GPa)
#
#
# Indices 1 2 3 4 5 6 
#
# 1 135.3882 -7.1805 49.6288 0.0000 -26.6644 0.0000
# 2 -7.1805 107.5990 8.3221 0.0000 -9.3334 0.0000
# 3 49.6288 8.3221 160.4985 0.0000 -8.6324 0.0000
# 4 0.0000 0.0000 0.0000 70.0077 0.0000 -18.7064
# 5 -26.6644 -9.3334 -8.6324 0.0000 43.0176 0.0000
# 6 0.0000 0.0000 0.0000 -18.7064 0.0000 6.5966
#
#
#
# Elastic Compliance Matrix: (Units=1/GPa)
#
#
# Indices 1 2 3 4 5 6 
#
# 1 0.009575 0.001342 -0.002725 0.000000 0.005679 0.000000
# 2 0.001342 0.009684 -0.000768 0.000000 0.002779 0.000000
# 3 -0.002725 -0.000768 0.007090 0.000000 -0.000433 0.000000
# 4 0.000000 0.000000 0.000000 0.058960 0.000000 0.167197
# 5 0.005679 0.002779 -0.000433 0.000000 0.027283 0.000000
# 6 0.000000 0.000000 0.000000 0.167197 0.000000 0.625726
#
#
# Mechanical properties :
#
#
# Convention : Reuss Voigt Hill
#
# Bulk Modulus (GPa) = 45.35599 56.11407 50.73503
# Shear Modulus (GPa) = 6.66696 47.43872 27.05284
#
# Velocity S-wave (km/s) = 1.66416 4.43912 3.35226
# Velocity P-wave (km/s) = 4.74692 7.04159 6.00488
#
# Compressibility (1/GPa) = 0.02204781
#
# Stress axis : x y z
#
# Youngs Moduli (GPa) = 104.44173 103.26540 141.05029
#
# Poissons Ratio (x) = -0.13862 0.38433
# Poissons Ratio (y) = -0.14020 0.10829
# Poissons Ratio (z) = 0.28458 0.07928
#
# Static dielectric constant tensor:
#      x y z
#    x 2.159270 0.000000 0.025210 
#    y 0.000000 1.946810 0.000000 
#    z 0.025210 0.000000 1.951070 
# 
# From -- ./inp_files/54526.got.cif
#   From: 2010.05.17/outbox.cif.g08.bks.cpg/sg12_28_cif.got.tgz:54526.got - 2010.06.03 13:09:07.
