data_PCOD9217896
_publ_section_title
;
Structure prediction by ZEFSAII (Michael W. Deem and Ramdas Pophale) SiO2 
 PCOD9217896
Probable space group: C 2/M
;
_chemical_formula_sum "Si O2"
_cell_formula_units_Z 44
_cell_length_a 14.594880
_cell_length_b 9.603232
_cell_length_c 16.770365
_cell_angle_alpha 90.000000
_cell_angle_beta 123.215231
_cell_angle_gamma 90.000000
_cell_volume 1966.473258
_symmetry_space_group_name_H-M "C 2/M"
_symmetry_group_IT_number 12
_symmetry_cell_setting 'monoclinic'
loop_
_space_group_symop_operation_xyz
x,y,z
-x,y,-z
-x,-y,-z
x,-y,z
1/2+x,1/2+y,z
1/2-x,1/2+y,-z
1/2-x,1/2-y,-z
1/2+x,1/2-y,z
loop_
_atom_site_type_symbol
_atom_site_label
_atom_site_fract_x
_atom_site_fract_y
_atom_site_fract_z
Si Si1 0.698822 0.659206 0.778819
Si Si2 0.849425 0.713435 0.633183
Si Si3 0.066284 0.661342 0.147338
Si Si4 0.454474 0.159919 0.395976
Si Si5 0.705274 0.500000 0.472650
Si Si6 0.141380 0.837642 0.930177
O O1 0.692809 0.500000 0.747575
O O2 0.826361 0.690164 0.854332
O O3 0.645910 0.758402 0.688787
O O4 0.632816 0.668609 0.829556
O O5 0.888463 0.680814 0.740946
O O6 0.746376 0.621634 0.556191
O O7 0.946771 0.665710 0.619853
O O8 0.827779 0.875475 0.606583
O O9 0.032420 0.500000 0.120454
O O10 0.965582 0.763508 0.086246
O O11 0.500000 0.221155 0.500000
O O12 0.423244 0.000000 0.396802
O O13 0.152122 0.000000 0.958114
O O14 0.250000 0.750000 0.000000
#
# Coordination Sequence:
#
# PCOD9217896 Si02
#       6
#     8   8   8   8   4   8
#     4  10  25  43  65  98 130 170 220 266 323 391
#     4  11  22  39  58  88 128 179 220 270 322 378
#     4  11  23  42  68  96 132 172 215 270 328 386
#     4  11  24  37  56  90 134 175 219 271 320 372
#     4  10  24  34  58  86 124 170 232 264 310 380
#     4  11  25  47  73  99 129 167 214 272 338 398
#
# _framework density 22.375083
#
# number of rings (size 3 to 8) (size 9 to 14) (size 15 to 20)
#    0.000    1.273    3.636    0.545    7.636    2.545 
#    0.000    3.636    0.000    0.000    0.000    0.000 
#    0.000    0.000    0.000    0.000    0.000    0.000 
#
# Total GULP energy -122603.383928 kJ/mol
# GULP energy per Si atom -5572.881088 kJ/mol
# Density = 2.232416 g / cm^3
# Si number density = 22.375083 Si / 1000 Ang^3
#
#
#
# Elastic Constant Matrix: (Units=GPa)
#
#
# Indices 1 2 3 4 5 6 
#
# 1 74.8301 31.0301 0.3361 0.0000 7.6935 0.0000
# 2 31.0301 180.8800 45.7180 0.0000 40.6780 0.0000
# 3 0.3361 45.7180 68.7913 0.0000 9.4020 0.0000
# 4 0.0000 0.0000 0.0000 35.8409 0.0000 13.7681
# 5 7.6935 40.6780 9.4020 0.0000 27.5783 0.0000
# 6 0.0000 0.0000 0.0000 13.7681 0.0000 15.9925
#
#
#
# Elastic Compliance Matrix: (Units=1/GPa)
#
#
# Indices 1 2 3 4 5 6 
#
# 1 0.014598 -0.002879 0.001907 0.000000 -0.000475 0.000000
# 2 -0.002879 0.010054 -0.004983 0.000000 -0.012328 0.000000
# 3 0.001907 -0.004983 0.017734 0.000000 0.000772 0.000000
# 4 0.000000 0.000000 0.000000 0.041688 0.000000 -0.035890
# 5 -0.000475 -0.012328 0.000772 0.000000 0.054314 0.000000
# 6 0.000000 0.000000 0.000000 -0.035890 0.000000 0.093427
#
#
# Mechanical properties :
#
#
# Convention : Reuss Voigt Hill
#
# Bulk Modulus (GPa) = 32.81317 53.18553 42.99935
# Shear Modulus (GPa) = 19.69406 32.37682 26.03544
#
# Velocity S-wave (km/s) = 2.97000 3.80808 3.41485
# Velocity P-wave (km/s) = 5.14374 6.56939 5.89978
#
# Compressibility (1/GPa) = 0.03047557
#
# Stress axis : x y z
#
# Youngs Moduli (GPa) = 68.50273 99.45815 56.39021
#
# Poissons Ratio (x) = 0.28638 -0.10755
# Poissons Ratio (y) = 0.19725 0.28100
# Poissons Ratio (z) = -0.13066 0.49561
#
# Static dielectric constant tensor:
#      x y z
#    x 1.871820 0.000000 0.000510 
#    y 0.000000 1.786260 0.000000 
#    z 0.000510 0.000000 1.825800 
# 
# From -- ./inp_files/267784.got.cif
#   From: 2010.05.17/outbox.cif.g08.bks.cpg/sg12_134_cif.got.tgz:267784.got - 2010.06.03 13:09:07.
