data_PCOD9217932
_publ_section_title
;
Structure prediction by ZEFSAII (Michael W. Deem and Ramdas Pophale) SiO2 
 PCOD9217932
Probable space group: C 2/M
;
_chemical_formula_sum "Si O2"
_cell_formula_units_Z 60
_cell_length_a 23.840703
_cell_length_b 9.344281
_cell_length_c 13.984917
_cell_angle_alpha 90.000000
_cell_angle_beta 68.701354
_cell_angle_gamma 90.000000
_cell_volume 2902.691281
_symmetry_space_group_name_H-M "C 2/M"
_symmetry_group_IT_number 12
_symmetry_cell_setting 'monoclinic'
loop_
_space_group_symop_operation_xyz
x,y,z
-x,y,-z
-x,-y,-z
x,-y,z
1/2+x,1/2+y,z
1/2-x,1/2+y,-z
1/2-x,1/2-y,-z
1/2+x,1/2-y,z
loop_
_atom_site_type_symbol
_atom_site_label
_atom_site_fract_x
_atom_site_fract_y
_atom_site_fract_z
Si Si1 0.659814 0.720759 0.040770
Si Si2 0.661025 0.171952 0.355792
Si Si3 0.264498 0.000000 0.954136
Si Si4 0.028098 0.672302 0.765846
Si Si5 0.721992 0.167350 0.721216
Si Si6 0.847562 0.327590 0.417835
Si Si7 0.904875 0.665796 0.086271
Si Si8 0.419204 0.661895 0.735774
O O1 0.712796 0.623536 0.967665
O O2 0.634917 0.657222 0.154319
O O3 0.686601 0.875572 0.047053
O O4 0.605052 0.738794 0.000116
O O5 0.723366 0.236167 0.276734
O O6 0.659093 0.215249 0.468571
O O7 0.605462 0.243175 0.335932
O O8 0.660356 0.000000 0.346012
O O9 0.018244 0.500000 0.768034
O O10 0.087124 0.706269 0.665550
O O11 0.046720 0.708080 0.863429
O O12 0.973331 0.757954 0.755290
O O13 0.701826 0.221929 0.628463
O O14 0.661052 0.169909 0.821095
O O15 0.741254 0.000000 0.705668
O O16 0.842896 0.500000 0.418709
O O17 0.916918 0.500000 0.053225
O O18 0.434748 0.500000 0.697563
#
# Coordination Sequence:
#
# PCOD9217932 Si02
#       8
#     8   8   4   8   8   8   8   8
#     4  11  23  40  60  90 122 161 188 237 282 346
#     4  11  23  35  58  88 118 153 197 239 290 350
#     4  10  24  38  62  86 126 158 190 230 288 348
#     4   9  20  42  67  84 110 150 200 241 283 348
#     4   9  18  34  60  89 125 153 183 231 291 351
#     4   8  17  38  61  88 117 152 191 237 288 347
#     4   9  19  37  63  89 113 155 194 233 286 343
#     4  12  27  43  55  83 118 155 195 249 299 337
#
# _framework density 20.670473000000001
#
# number of rings (size 3 to 8) (size 9 to 14) (size 15 to 20)
#    0.000    2.133    1.333    2.800    5.600    1.067 
#    1.200    8.667    0.000    0.000    0.000    0.000 
#    0.000    0.000    0.000    0.000    0.000    0.000 
#
# Total GULP energy -167041.348607 kJ/mol
# GULP energy per Si atom -5568.044954 kJ/mol
# Density = 2.062343 g / cm^3
# Si number density = 20.670473 Si / 1000 Ang^3
#
#
#
# Elastic Constant Matrix: (Units=GPa)
#
#
# Indices 1 2 3 4 5 6 
#
# 1 117.1400 39.5361 6.4617 0.0000 10.9264 0.0000
# 2 39.5361 98.8643 3.8691 0.0000 2.0184 0.0000
# 3 6.4617 3.8691 45.8504 0.0000 10.1982 0.0000
# 4 0.0000 0.0000 0.0000 -1.7503 0.0000 -6.1206
# 5 10.9264 2.0184 10.1982 0.0000 16.5058 0.0000
# 6 0.0000 0.0000 0.0000 -6.1206 0.0000 30.3100
#
#
#
# Elastic Compliance Matrix: (Units=1/GPa)
#
#
# Indices 1 2 3 4 5 6 
#
# 1 0.010519 -0.004084 0.000348 0.000000 -0.006679 0.000000
# 2 -0.004084 0.011744 -0.000808 0.000000 0.001767 0.000000
# 3 0.000348 -0.000808 0.025341 0.000000 -0.015788 0.000000
# 4 0.000000 0.000000 0.000000 -0.334871 0.000000 -0.067621
# 5 -0.006679 0.001767 -0.015788 0.000000 0.074545 0.000000
# 6 0.000000 0.000000 0.000000 -0.067621 0.000000 0.019338
#
#
# Mechanical properties :
#
#
# Convention : Reuss Voigt Hill
#
# Bulk Modulus (GPa) = 25.96431 40.17650 33.07041
# Shear Modulus (GPa) = -29.16169 23.14562 -3.00804
#
# Velocity S-wave (km/s) = -3.76012 3.34989 -1.20764
# Velocity P-wave (km/s) = 2.50261 5.86866 3.75354
#
# Compressibility (1/GPa) = 0.03851440
#
# Stress axis : x y z
#
# Youngs Moduli (GPa) = 95.06688 85.15303 39.46168
#
# Poissons Ratio (x) = 0.34775 -0.01372
# Poissons Ratio (y) = 0.38823 0.03190
# Poissons Ratio (z) = -0.03305 0.06884
#
# Static dielectric constant tensor:
#      x y z
#    x 1.731270 0.000000 0.000480 
#    y 0.000000 1.697930 0.000000 
#    z 0.000480 0.000000 1.809420 
# 
# From -- ./inp_files/238550.got.cif
#   From: 2010.05.17/outbox.cif.g08.bks.cpg/sg12_120_cif.got.tgz:238550.got - 2010.06.03 13:09:07.
