data_PCOD9217738
_publ_section_title
;
Structure prediction by ZEFSAII (Michael W. Deem and Ramdas Pophale) SiO2 
 PCOD9217738
Probable space group: C 2/M
;
_chemical_formula_sum "Si O2"
_cell_formula_units_Z 64
_cell_length_a 9.209919
_cell_length_b 28.316041
_cell_length_c 15.969209
_cell_angle_alpha 90.000000
_cell_angle_beta 45.259462
_cell_angle_gamma 90.000000
_cell_volume 2958.111629
_symmetry_space_group_name_H-M "C 2/M"
_symmetry_group_IT_number 12
_symmetry_cell_setting 'monoclinic'
loop_
_space_group_symop_operation_xyz
x,y,z
-x,y,-z
-x,-y,-z
x,-y,z
1/2+x,1/2+y,z
1/2-x,1/2+y,-z
1/2-x,1/2-y,-z
1/2+x,1/2-y,z
loop_
_atom_site_type_symbol
_atom_site_label
_atom_site_fract_x
_atom_site_fract_y
_atom_site_fract_z
Si Si1 0.243740 0.875558 0.912669
Si Si2 0.808669 0.264142 0.629026
Si Si3 0.803503 0.443745 0.027959
Si Si4 0.578299 0.698173 0.285599
Si Si5 0.620709 0.444724 0.704998
Si Si6 0.097215 0.107982 0.550688
Si Si7 0.424955 0.133204 0.655798
Si Si8 0.701787 0.202219 0.971670
O O1 0.298097 0.924483 0.935991
O O2 0.353191 0.867032 0.780883
O O3 0.311334 0.837677 0.953767
O O4 0.000000 0.872223 0.000000
O O5 0.621211 0.269135 0.642463
O O6 0.866379 0.316645 0.637876
O O7 0.000000 0.243973 0.500000
O O8 0.764455 0.229519 0.724564
O O9 0.818036 0.500000 0.020953
O O10 0.588900 0.432065 0.160585
O O11 0.000000 0.425119 0.000000
O O12 0.526119 0.650672 0.355237
O O13 0.635527 0.689003 0.166196
O O14 0.667089 0.500000 0.701786
O O15 0.587549 0.434968 0.620191
O O16 0.798069 0.408958 0.662771
O O17 0.333357 0.124119 0.447429
O O18 0.000000 0.098047 0.500000
O O19 0.500000 0.208075 0.000000
O O20 0.750000 0.250000 0.000000
#
# Coordination Sequence:
#
# PCOD9217738 Si02
#       8
#     8   8   8   8   8   8   8   8
#     4  12  24  42  70 100 137 181 229 282 350 415
#     4  12  23  42  65  97 134 178 231 279 343 408
#     4  10  23  44  72 105 140 178 227 287 354 424
#     4  12  25  43  69  96 140 179 230 286 352 410
#     4  11  24  49  76 101 140 189 232 289 358 423
#     4  12  28  44  68 103 140 179 238 292 350 419
#     4  12  25  45  67 102 141 182 233 289 341 428
#     4  12  26  45  67  99 139 183 235 288 350 420
#
# _framework density 21.635425999999999
#
# number of rings (size 3 to 8) (size 9 to 14) (size 15 to 20)
#    0.000    0.375    3.750    4.875    5.250    2.000 
#    0.000    0.000    0.000    0.000    0.000    0.000 
#    0.000    0.000    0.000    0.000    0.000    0.000 
#
# Total GULP energy -179211.320565 kJ/mol
# GULP energy per Si atom -5600.353768 kJ/mol
# Density = 2.158618 g / cm^3
# Si number density = 21.635426 Si / 1000 Ang^3
#
#
#
# Elastic Constant Matrix: (Units=GPa)
#
#
# Indices 1 2 3 4 5 6 
#
# 1 113.4511 28.4489 17.2215 0.0000 16.0481 0.0000
# 2 28.4489 81.6417 18.5772 0.0000 6.7505 0.0000
# 3 17.2215 18.5772 107.0354 0.0000 27.9341 0.0000
# 4 0.0000 0.0000 0.0000 28.2139 0.0000 8.7549
# 5 16.0481 6.7505 27.9341 0.0000 42.6618 0.0000
# 6 0.0000 0.0000 0.0000 8.7549 0.0000 34.6499
#
#
#
# Elastic Compliance Matrix: (Units=1/GPa)
#
#
# Indices 1 2 3 4 5 6 
#
# 1 0.010098 -0.003203 -0.000253 0.000000 -0.003126 0.000000
# 2 -0.003203 0.013785 -0.001957 0.000000 0.000305 0.000000
# 3 -0.000253 -0.001957 0.011600 0.000000 -0.007190 0.000000
# 4 0.000000 0.000000 0.000000 0.038459 0.000000 -0.009717
# 5 -0.003126 0.000305 -0.007190 0.000000 0.029276 0.000000
# 6 0.000000 0.000000 0.000000 -0.009717 0.000000 0.031315
#
#
# Mechanical properties :
#
#
# Convention : Reuss Voigt Hill
#
# Bulk Modulus (GPa) = 40.55572 47.84705 44.20138
# Shear Modulus (GPa) = 32.55703 36.96384 34.76043
#
# Velocity S-wave (km/s) = 3.88339 4.13787 4.01265
# Velocity P-wave (km/s) = 6.23645 6.70764 6.47633
#
# Compressibility (1/GPa) = 0.02465744
#
# Stress axis : x y z
#
# Youngs Moduli (GPa) = 99.02850 72.54407 86.21007
#
# Poissons Ratio (x) = 0.23234 0.02181
# Poissons Ratio (y) = 0.31716 0.16869
# Poissons Ratio (z) = 0.02505 0.14195
#
# Static dielectric constant tensor:
#      x y z
#    x 1.801200 0.000000 0.010320 
#    y 0.000000 1.330080 0.000000 
#    z 0.010320 0.000000 1.909790 
# 
# From -- ./inp_files/201252.got.cif
#   From: 2010.05.17/outbox.cif.g08.bks.cpg/sg12_101_cif.got.tgz:201252.got - 2010.06.03 13:09:07.
