data_PCOD9217088
_publ_section_title
;
Structure prediction by ZEFSAII (Michael W. Deem and Ramdas Pophale) SiO2 
 PCOD9217088
Probable space group: C 2/M
;
_chemical_formula_sum "Si O2"
_cell_formula_units_Z 64
_cell_length_a 19.326006
_cell_length_b 18.700539
_cell_length_c 22.881522
_cell_angle_alpha 90.000000
_cell_angle_beta 154.602542
_cell_angle_gamma 90.000000
_cell_volume 3546.763109
_symmetry_space_group_name_H-M "C 2/M"
_symmetry_group_IT_number 12
_symmetry_cell_setting 'monoclinic'
loop_
_space_group_symop_operation_xyz
x,y,z
-x,y,-z
-x,-y,-z
x,-y,z
1/2+x,1/2+y,z
1/2-x,1/2+y,-z
1/2-x,1/2-y,-z
1/2+x,1/2-y,z
loop_
_atom_site_type_symbol
_atom_site_label
_atom_site_fract_x
_atom_site_fract_y
_atom_site_fract_z
Si Si1 0.530996 0.414734 0.848605
Si Si2 0.049186 0.417847 0.605489
Si Si3 0.188409 0.915907 0.630195
Si Si4 0.557808 0.822751 0.110253
Si Si5 0.840629 0.325189 0.058592
Si Si6 0.816104 0.323229 0.622858
Si Si7 0.249046 0.158836 0.436001
Si Si8 0.107895 0.843828 0.139857
O O1 0.523788 0.500000 0.845173
O O2 0.405534 0.384254 0.705114
O O3 0.472739 0.382030 0.865963
O O4 0.708840 0.386006 0.969575
O O5 0.063412 0.500000 0.636432
O O6 0.218190 0.377602 0.738987
O O7 0.000000 0.418892 0.500000
O O8 0.908169 0.377254 0.531502
O O9 0.301068 0.876636 0.763510
O O10 0.229070 0.876351 0.600840
O O11 0.000000 0.907812 0.500000
O O12 0.226831 0.000000 0.656592
O O13 0.416794 0.829078 0.051584
O O14 0.618747 0.740845 0.160476
O O15 0.500000 0.835330 0.000000
O O16 0.992842 0.329884 0.218512
O O17 0.750000 0.250000 0.000000
O O18 0.769241 0.240757 0.599122
O O19 0.766514 0.339714 0.519001
O O20 0.000000 0.853183 0.000000
#
# Coordination Sequence:
#
# PCOD9217088 Si02
#       8
#     8   8   8   8   8   8   8   8
#     4  12  24  41  64  90 128 171 206 253 319 377
#     4  11  24  39  60  92 131 166 202 252 307 374
#     4  10  23  42  63  91 123 157 201 260 318 366
#     4  10  23  41  67  93 120 162 208 256 309 369
#     4  11  21  42  63  90 129 162 205 261 306 364
#     4  10  24  41  66  92 123 164 213 260 311 370
#     4  11  23  41  63  95 125 166 213 256 306 375
#     4  11  24  41  63  95 127 164 212 256 309 380
#
# _framework density 18.044623000000001
#
# number of rings (size 3 to 8) (size 9 to 14) (size 15 to 20)
#    0.000    1.250    3.750    1.500    3.500    5.250 
#    0.000    1.250    0.000    0.000    0.000    0.000 
#    0.000    0.000    0.000    0.000    0.000    0.000 
#
# Total GULP energy -178836.899184 kJ/mol
# GULP energy per Si atom -5588.653099 kJ/mol
# Density = 1.800355 g / cm^3
# Si number density = 18.044623 Si / 1000 Ang^3
#
#
#
# Elastic Constant Matrix: (Units=GPa)
#
#
# Indices 1 2 3 4 5 6 
#
# 1 80.8690 79.3850 71.3933 -0.0024 -3.5401 -0.0004
# 2 79.3850 182.3975 96.3531 -0.0067 4.9430 -0.0006
# 3 71.3933 96.3531 132.8465 -0.0102 5.9052 -0.0010
# 4 -0.0024 -0.0067 -0.0102 24.0122 -0.0028 6.3399
# 5 -3.5401 4.9430 5.9052 -0.0028 35.8056 0.0007
# 6 -0.0004 -0.0006 -0.0010 6.3399 0.0007 23.9784
#
#
#
# Elastic Compliance Matrix: (Units=1/GPa)
#
#
# Indices 1 2 3 4 5 6 
#
# 1 0.029071 -0.007165 -0.010676 -0.000003 0.005624 0.000000
# 2 -0.007165 0.010655 -0.003808 0.000000 -0.001551 0.000000
# 3 -0.010676 -0.003808 0.016169 0.000005 -0.003196 -0.000001
# 4 -0.000003 0.000000 0.000005 0.044771 0.000003 -0.011837
# 5 0.005624 -0.001551 -0.003196 0.000003 0.029226 -0.000002
# 6 0.000000 0.000000 -0.000001 -0.011837 -0.000002 0.044834
#
#
# Mechanical properties :
#
#
# Convention : Reuss Voigt Hill
#
# Bulk Modulus (GPa) = 79.39274 98.93062 89.16168
# Shear Modulus (GPa) = 22.49992 26.69135 24.59563
#
# Velocity S-wave (km/s) = 3.53498 3.85019 3.69595
# Velocity P-wave (km/s) = 7.79455 8.64349 8.22997
#
# Compressibility (1/GPa) = 0.01259561
#
# Stress axis : x y z
#
# Youngs Moduli (GPa) = 34.39902 93.85408 61.84603
#
# Poissons Ratio (x) = 0.67247 0.66027
# Poissons Ratio (y) = 0.24647 0.23553
# Poissons Ratio (z) = 0.36725 0.35743
#
# Static dielectric constant tensor:
#      x y z
#    x 1.604200 0.000000 -0.012080 
#    y 0.000000 1.603970 0.000000 
#    z -0.012080 0.000000 1.593540 
# 
# From -- ./inp_files/347930.got.cif
#   From: 2010.05.17/outbox.cif.g08.bks.cpg/sg12_174_cif.got.tgz:347930.got - 2010.06.03 13:09:07.
