data_PCOD9217986
_publ_section_title
;
Structure prediction by ZEFSAII (Michael W. Deem and Ramdas Pophale) SiO2 
 PCOD9217986
Probable space group: C 2/M
;
_chemical_formula_sum "Si O2"
_cell_formula_units_Z 44
_cell_length_a 18.190813
_cell_length_b 14.985033
_cell_length_c 24.229353
_cell_angle_alpha 90.000000
_cell_angle_beta 159.123325
_cell_angle_gamma 90.000000
_cell_volume 2353.627475
_symmetry_space_group_name_H-M "C 2/M"
_symmetry_group_IT_number 12
_symmetry_cell_setting 'monoclinic'
loop_
_space_group_symop_operation_xyz
x,y,z
-x,y,-z
-x,-y,-z
x,-y,z
1/2+x,1/2+y,z
1/2-x,1/2+y,-z
1/2-x,1/2-y,-z
1/2+x,1/2-y,z
loop_
_atom_site_type_symbol
_atom_site_label
_atom_site_fract_x
_atom_site_fract_y
_atom_site_fract_z
Si Si1 0.239596 0.393839 0.360487
Si Si2 0.760896 0.500000 0.317873
Si Si3 0.888548 0.000000 0.136395
Si Si4 0.754508 0.500000 0.837240
Si Si5 0.927437 0.154901 0.889146
Si Si6 0.791447 0.659990 0.060889
Si Si7 0.175736 0.838141 0.702120
O O1 0.276694 0.500000 0.395793
O O2 0.433067 0.335166 0.516559
O O3 0.222685 0.378342 0.282614
O O4 0.028848 0.360995 0.239984
O O5 0.623287 0.500000 0.277618
O O6 0.698649 0.584863 0.236643
O O7 0.000000 0.500000 0.500000
O O8 0.834437 0.000000 0.163048
O O9 0.783307 0.916447 0.032990
O O10 0.686521 0.410064 0.758377
O O11 0.000000 0.500000 0.000000
O O12 0.794489 0.246489 0.798925
O O13 0.000000 0.123002 0.000000
O O14 0.143712 0.165618 0.009411
O O15 0.750000 0.750000 0.000000
#
# Coordination Sequence:
#
# PCOD9217986 Si02
#       7
#     8   4   4   4   8   8   8
#     4  11  20  40  62  93 133 176 218 262 334 397
#     4  10  25  49  71  88 123 184 234 277 322 384
#     4  10  24  40  63  93 128 169 225 273 334 402
#     4  12  22  36  62  98 138 166 207 272 342 406
#     4  11  25  44  66  96 128 171 228 273 323 385
#     4  11  22  39  65  91 125 172 221 267 322 399
#     4  11  22  36  63  98 136 168 205 269 339 400
#
# _framework density 18.694545999999999
#
# number of rings (size 3 to 8) (size 9 to 14) (size 15 to 20)
#    0.000    1.091    4.545    2.455    5.091    0.000 
#    3.273    0.909    0.000    0.000    0.000    0.000 
#    0.000    0.000    0.000    0.000    0.000    0.000 
#
# Total GULP energy -122765.242903 kJ/mol
# GULP energy per Si atom -5580.238314 kJ/mol
# Density = 1.865200 g / cm^3
# Si number density = 18.694546 Si / 1000 Ang^3
#
#
#
# Elastic Constant Matrix: (Units=GPa)
#
#
# Indices 1 2 3 4 5 6 
#
# 1 144.6684 35.6024 57.0801 -0.0024 5.7577 0.0183
# 2 35.6024 96.6284 21.7299 -0.0014 11.9691 -0.0286
# 3 57.0801 21.7299 114.7684 -0.0027 31.2838 0.0024
# 4 -0.0024 -0.0014 -0.0027 12.3209 -0.0002 25.1966
# 5 5.7577 11.9691 31.2838 -0.0002 28.4538 -0.0047
# 6 0.0183 -0.0286 0.0024 25.1966 -0.0047 -32.3088
#
#
#
# Elastic Compliance Matrix: (Units=1/GPa)
#
#
# Indices 1 2 3 4 5 6 
#
# 1 0.009713 -0.002974 -0.005816 -0.000005 0.005680 0.000003
# 2 -0.002974 0.011939 0.000605 0.000009 -0.005085 -0.000004
# 3 -0.005816 0.000605 0.016050 0.000001 -0.016724 0.000001
# 4 -0.000005 0.000009 0.000001 0.031278 0.000000 0.024393
# 5 0.005680 -0.005085 -0.016724 0.000000 0.054522 -0.000001
# 6 0.000003 -0.000004 0.000001 0.024393 -0.000001 -0.011928
#
#
# Mechanical properties :
#
#
# Convention : Reuss Voigt Hill
#
# Bulk Modulus (GPa) = 46.88013 64.98779 55.93396
# Shear Modulus (GPa) = 37.02215 17.80336 27.41275
#
# Velocity S-wave (km/s) = 4.45496 3.08933 3.83345
# Velocity P-wave (km/s) = 7.18287 6.89665 7.04121
#
# Compressibility (1/GPa) = 0.02133100
#
# Stress axis : x y z
#
# Youngs Moduli (GPa) = 102.95493 83.76142 62.30624
#
# Poissons Ratio (x) = 0.24914 0.36236
# Poissons Ratio (y) = 0.30623 -0.03770
# Poissons Ratio (z) = 0.59877 -0.05068
#
# Static dielectric constant tensor:
#      x y z
#    x 1.637520 0.000040 0.013120 
#    y 0.000040 1.603500 -0.000230 
#    z 0.013120 -0.000230 1.692440 
# 
# From -- ./inp_files/343955.got.cif
#   From: 2010.05.17/outbox.cif.g08.bks.cpg/sg12_172_cif.got.tgz:343955.got - 2010.06.03 13:09:07.
