data_PCOD9217614
_publ_section_title
;
Structure prediction by ZEFSAII (Michael W. Deem and Ramdas Pophale) SiO2 
 PCOD9217614
Probable space group: C 2/M
;
_chemical_formula_sum "Si O2"
_cell_formula_units_Z 64
_cell_length_a 20.587152
_cell_length_b 16.791135
_cell_length_c 23.649439
_cell_angle_alpha 90.000000
_cell_angle_beta 23.275792
_cell_angle_gamma 90.000000
_cell_volume 3230.481835
_symmetry_space_group_name_H-M "C 2/M"
_symmetry_group_IT_number 12
_symmetry_cell_setting 'monoclinic'
loop_
_space_group_symop_operation_xyz
x,y,z
-x,y,-z
-x,-y,-z
x,-y,z
1/2+x,1/2+y,z
1/2-x,1/2+y,-z
1/2-x,1/2-y,-z
1/2+x,1/2-y,z
loop_
_atom_site_type_symbol
_atom_site_label
_atom_site_fract_x
_atom_site_fract_y
_atom_site_fract_z
Si Si1 0.662191 0.089707 0.330608
Si Si2 0.031852 0.652553 0.141285
Si Si3 0.351601 0.322243 0.270528
Si Si4 0.872507 0.094492 0.889138
Si Si5 0.722002 0.913037 0.570670
Si Si6 0.049772 0.651339 0.599459
Si Si7 0.459363 0.322649 0.701281
Si Si8 0.143796 0.593175 0.929417
O O1 0.500000 0.087523 0.500000
O O2 0.779020 0.154763 0.267136
O O3 0.591423 0.111807 0.325773
O O4 0.732735 0.000000 0.274390
O O5 0.950181 0.739278 0.198441
O O6 0.905075 0.599764 0.277544
O O7 0.206041 0.643942 0.034568
O O8 0.074211 0.616542 0.046370
O O9 0.483588 0.389622 0.181634
O O10 0.199333 0.325550 0.436894
O O11 0.938944 0.133564 0.777764
O O12 0.839187 0.000000 0.909777
O O13 0.629625 0.900855 0.585023
O O14 0.866977 0.850511 0.461232
O O15 0.798047 0.000000 0.511050
O O16 0.972982 0.728190 0.691773
O O17 0.303668 0.353181 0.790597
O O18 0.190376 0.500000 0.891724
O O19 0.000000 0.606145 0.000000
#
# Coordination Sequence:
#
# PCOD9217614 Si02
#       8
#     8   8   8   8   8   8   8   8
#     4   9  20  37  58  86 121 162 204 245 295 363
#     4  11  23  39  60  92 126 156 204 254 317 357
#     4  11  21  37  61  90 123 162 204 254 304 361
#     4  11  22  39  62  88 121 162 210 255 301 367
#     4  12  22  37  63  92 127 162 198 255 314 359
#     4  11  22  37  59  92 129 157 203 251 308 363
#     4  11  21  37  62  90 121 156 205 251 304 363
#     4  10  23  44  65  86 119 164 213 252 298 369
#
# _framework density 19.811287
#
# number of rings (size 3 to 8) (size 9 to 14) (size 15 to 20)
#    0.000    1.250    2.500    5.250    1.750    2.000 
#    0.000    0.625    0.000    2.250    0.000    6.125 
#    0.000    0.000    0.000    0.000    0.000    0.000 
#
# Total GULP energy -178644.118021 kJ/mol
# GULP energy per Si atom -5582.628688 kJ/mol
# Density = 1.976620 g / cm^3
# Si number density = 19.811287 Si / 1000 Ang^3
#
#
#
# Elastic Constant Matrix: (Units=GPa)
#
#
# Indices 1 2 3 4 5 6 
#
# 1 69.7395 15.4468 20.1996 0.0069 -14.3974 0.0073
# 2 15.4468 83.0427 0.3453 0.0190 -8.3172 -0.0072
# 3 20.1996 0.3453 60.5647 0.0138 -8.7772 -0.0232
# 4 0.0069 0.0190 0.0138 14.3792 -0.0054 -22.8951
# 5 -14.3974 -8.3172 -8.7772 -0.0054 25.6106 0.0018
# 6 0.0073 -0.0072 -0.0232 -22.8951 0.0018 -36.2409
#
#
#
# Elastic Compliance Matrix: (Units=1/GPa)
#
#
# Indices 1 2 3 4 5 6 
#
# 1 0.017868 -0.002547 -0.004850 0.000007 0.007555 0.000003
# 2 -0.002547 0.012827 0.001234 -0.000011 0.003157 0.000003
# 3 -0.004850 0.001234 0.018714 -0.000018 0.004088 -0.000002
# 4 0.000007 -0.000011 -0.000018 0.034670 0.000003 -0.021903
# 5 0.007555 0.003157 0.004088 0.000003 0.045720 -0.000001
# 6 0.000003 0.000003 -0.000002 -0.021903 -0.000001 -0.013756
#
#
# Mechanical properties :
#
#
# Convention : Reuss Voigt Hill
#
# Bulk Modulus (GPa) = 26.96646 31.70337 29.33492
# Shear Modulus (GPa) = 35.52923 12.57345 24.05134
#
# Velocity S-wave (km/s) = 4.23943 2.52198 3.48806
# Velocity P-wave (km/s) = 6.13228 4.95156 5.57328
#
# Compressibility (1/GPa) = 0.03708310
#
# Stress axis : x y z
#
# Youngs Moduli (GPa) = 55.96718 77.96210 53.43547
#
# Poissons Ratio (x) = 0.19854 0.25915
# Poissons Ratio (y) = 0.14253 -0.06592
# Poissons Ratio (z) = 0.27143 -0.09618
#
# Static dielectric constant tensor:
#      x y z
#    x 1.705570 0.000000 -0.011400 
#    y 0.000000 1.693110 0.000000 
#    z -0.011400 0.000000 1.696180 
# 
# From -- ./inp_files/347877.got.cif
#   From: 2010.05.17/outbox.cif.g08.bks.cpg/sg12_174_cif.got.tgz:347877.got - 2010.06.03 13:09:07.
