data_PCOD9217939
_publ_section_title
;
Structure prediction by ZEFSAII (Michael W. Deem and Ramdas Pophale) SiO2 
 PCOD9217939
Probable space group: C 2/M
;
_chemical_formula_sum "Si O2"
_cell_formula_units_Z 52
_cell_length_a 8.933808
_cell_length_b 19.254026
_cell_length_c 18.999832
_cell_angle_alpha 90.000000
_cell_angle_beta 132.470818
_cell_angle_gamma 90.000000
_cell_volume 2410.690180
_symmetry_space_group_name_H-M "C 2/M"
_symmetry_group_IT_number 12
_symmetry_cell_setting 'monoclinic'
loop_
_space_group_symop_operation_xyz
x,y,z
-x,y,-z
-x,-y,-z
x,-y,z
1/2+x,1/2+y,z
1/2-x,1/2+y,-z
1/2-x,1/2-y,-z
1/2+x,1/2-y,z
loop_
_atom_site_type_symbol
_atom_site_label
_atom_site_fract_x
_atom_site_fract_y
_atom_site_fract_z
Si Si1 0.836577 0.628466 0.752600
Si Si2 0.044075 0.806529 0.322160
Si Si3 0.360210 0.000000 0.133094
Si Si4 0.567403 0.358309 0.178411
Si Si5 0.500000 0.153527 0.500000
Si Si6 0.515256 0.231625 0.927331
Si Si7 0.490421 0.848558 0.650287
Si Si8 0.560487 0.500000 0.909985
O O1 0.596416 0.630954 0.693724
O O2 0.849563 0.643059 0.673236
O O3 0.986755 0.564173 0.810598
O O4 0.928845 0.684413 0.837494
O O5 0.005620 0.811332 0.225943
O O6 0.285151 0.811208 0.411397
O O7 0.977062 0.735355 0.338426
O O8 0.161227 0.000000 0.121088
O O9 0.246675 0.000000 0.022581
O O10 0.581293 0.308335 0.114943
O O11 0.433531 0.426719 0.128511
O O12 0.794588 0.382855 0.265135
O O13 0.565333 0.123141 0.444418
O O14 0.500000 0.199745 0.000000
O O15 0.750000 0.250000 0.000000
#
# Coordination Sequence:
#
# PCOD9217939 Si02
#       8
#     8   8   4   8   4   8   8   4
#     4  12  23  42  65  95 137 170 219 281 324 385
#     4  11  22  41  66  99 134 166 217 271 339 396
#     4  11  26  41  65  96 126 182 230 264 327 379
#     4  11  22  40  63  93 132 181 215 267 324 383
#     4  10  24  38  68 105 130 173 206 274 344 404
#     4  12  23  36  61  94 127 169 220 268 323 371
#     4  11  20  41  66  99 135 167 219 263 338 399
#     4  11  24  43  65  92 133 180 236 260 306 407
#
# _framework density 21.570587
#
# number of rings (size 3 to 8) (size 9 to 14) (size 15 to 20)
#    0.000    0.769    4.615    4.154    2.154    1.231 
#    0.000    1.154    0.000   17.538    0.000    0.000 
#    0.000    0.000    0.000    0.000    0.000    0.000 
#
# Total GULP energy -144759.527724 kJ/mol
# GULP energy per Si atom -5567.674143 kJ/mol
# Density = 2.152149 g / cm^3
# Si number density = 21.570587 Si / 1000 Ang^3
#
#
#
# Elastic Constant Matrix: (Units=GPa)
#
#
# Indices 1 2 3 4 5 6 
#
# 1 106.7271 9.0889 37.0429 0.0000 -8.9770 0.0000
# 2 9.0889 75.8443 37.4393 0.0000 -1.3624 0.0000
# 3 37.0429 37.4393 120.1239 0.0000 -10.5813 0.0000
# 4 0.0000 0.0000 0.0000 8.5006 0.0000 1.3686
# 5 -8.9770 -1.3624 -10.5813 0.0000 47.3228 0.0000
# 6 0.0000 0.0000 0.0000 1.3686 0.0000 15.9447
#
#
#
# Elastic Compliance Matrix: (Units=1/GPa)
#
#
# Indices 1 2 3 4 5 6 
#
# 1 0.010579 0.000366 -0.003263 0.000000 0.001288 0.000000
# 2 0.000366 0.015615 -0.005033 0.000000 -0.000606 0.000000
# 3 -0.003263 -0.005033 0.011050 0.000000 0.001707 0.000000
# 4 0.000000 0.000000 0.000000 0.119287 0.000000 -0.010239
# 5 0.001288 -0.000606 0.001707 0.000000 0.021740 0.000000
# 6 0.000000 0.000000 0.000000 -0.010239 0.000000 0.063595
#
#
# Mechanical properties :
#
#
# Convention : Reuss Voigt Hill
#
# Bulk Modulus (GPa) = 46.76370 52.20416 49.48393
# Shear Modulus (GPa) = 18.87835 28.96192 23.92013
#
# Velocity S-wave (km/s) = 2.96157 3.66821 3.33366
# Velocity P-wave (km/s) = 5.78109 6.49577 6.14882
#
# Compressibility (1/GPa) = 0.02138411
#
# Stress axis : x y z
#
# Youngs Moduli (GPa) = 94.52358 64.04270 90.49808
#
# Poissons Ratio (x) = -0.02345 0.29530
# Poissons Ratio (y) = -0.03460 0.45547
# Poissons Ratio (z) = 0.30844 0.32232
#
# Static dielectric constant tensor:
#      x y z
#    x 1.873100 0.000000 -0.027380 
#    y 0.000000 1.905620 0.000000 
#    z -0.027380 0.000000 1.839930 
# 
# From -- ./inp_files/258590.got.cif
#   From: 2010.05.17/outbox.cif.g08.bks.cpg/sg12_130_cif.got.tgz:258590.got - 2010.06.03 13:09:07.
