data_PCOD9217179
_publ_section_title
;
Structure prediction by ZEFSAII (Michael W. Deem and Ramdas Pophale) SiO2 
 PCOD9217179
Probable space group: C 2/M
;
_chemical_formula_sum "Si O2"
_cell_formula_units_Z 36
_cell_length_a 14.869124
_cell_length_b 7.818579
_cell_length_c 25.766834
_cell_angle_alpha 90.000000
_cell_angle_beta 28.284132
_cell_angle_gamma 90.000000
_cell_volume 1419.416902
_symmetry_space_group_name_H-M "C 2/M"
_symmetry_group_IT_number 12
_symmetry_cell_setting 'monoclinic'
loop_
_space_group_symop_operation_xyz
x,y,z
-x,y,-z
-x,-y,-z
x,-y,z
1/2+x,1/2+y,z
1/2-x,1/2+y,-z
1/2-x,1/2-y,-z
1/2+x,1/2-y,z
loop_
_atom_site_type_symbol
_atom_site_label
_atom_site_fract_x
_atom_site_fract_y
_atom_site_fract_z
Si Si1 0.534597 0.309760 0.102387
Si Si2 0.467021 0.705551 0.399882
Si Si3 0.000000 0.254522 0.000000
Si Si4 0.239960 0.306313 0.673118
Si Si5 0.401085 0.203050 0.777040
O O1 0.510296 0.500000 0.136044
O O2 0.494738 0.317141 0.061299
O O3 0.394561 0.193188 0.207088
O O4 0.750000 0.250000 0.000000
O O5 0.487563 0.500000 0.388676
O O6 0.250000 0.750000 0.500000
O O7 0.563504 0.767474 0.404586
O O8 0.577161 0.784853 0.295360
O O9 0.221032 0.311489 0.887888
O O10 0.278738 0.500000 0.635553
O O11 0.098583 0.233508 0.701725
O O12 0.371297 0.000000 0.806944
#
# Coordination Sequence:
#
# PCOD9217179 Si02
#       5
#     8   8   4   8   8
#     4  12  23  38  60  91 129 170 212 255 308 372
#     4  11  25  45  67  94 124 163 213 266 320 374
#     4  12  23  38  65  96 131 174 211 246 309 382
#     4  10  23  42  63  91 127 164 208 258 317 376
#     4  11  22  41  66  94 129 169 209 254 310 376
#
# _framework density 25.362525999999999
#
# number of rings (size 3 to 8) (size 9 to 14) (size 15 to 20)
#    0.000    0.889    4.444    3.333    0.000    2.667 
#    0.000    7.222    0.000    0.000    0.000    0.000 
#    0.000    0.000    0.000    0.000    0.000    0.000 
#
# Total GULP energy -100421.583377 kJ/mol
# GULP energy per Si atom -5578.976854 kJ/mol
# Density = 2.530480 g / cm^3
# Si number density = 25.362526 Si / 1000 Ang^3
#
#
#
# Elastic Constant Matrix: (Units=GPa)
#
#
# Indices 1 2 3 4 5 6 
#
# 1 177.4244 9.1054 13.2577 0.0001 -40.6327 0.0001
# 2 9.1054 91.9495 4.7671 0.0002 -6.2053 0.0004
# 3 13.2577 4.7671 103.3425 0.0001 -35.4968 -0.0002
# 4 0.0001 0.0002 0.0001 -22.2443 -0.0003 21.7758
# 5 -40.6327 -6.2053 -35.4968 -0.0003 65.9835 0.0001
# 6 0.0001 0.0004 -0.0002 21.7758 0.0001 -4.8181
#
#
#
# Elastic Compliance Matrix: (Units=1/GPa)
#
#
# Indices 1 2 3 4 5 6 
#
# 1 0.006614 -0.000393 0.000682 0.000000 0.004403 0.000000
# 2 -0.000393 0.010971 -0.000226 0.000000 0.000668 0.000000
# 3 0.000682 -0.000226 0.011943 0.000000 0.006824 0.000000
# 4 0.000000 0.000000 0.000000 0.013128 0.000000 0.059333
# 5 0.004403 0.000668 0.006824 0.000000 0.021600 0.000000
# 6 0.000000 0.000000 0.000000 0.059333 0.000000 0.060610
#
#
# Mechanical properties :
#
#
# Convention : Reuss Voigt Hill
#
# Bulk Modulus (GPa) = 33.72302 47.44189 40.58245
# Shear Modulus (GPa) = 37.13995 30.82328 33.98161
#
# Velocity S-wave (km/s) = 3.83085 3.48991 3.66435
# Velocity P-wave (km/s) = 5.73520 5.91485 5.82571
#
# Compressibility (1/GPa) = 0.02965334
#
# Stress axis : x y z
#
# Youngs Moduli (GPa) = 151.20180 91.14710 83.72834
#
# Poissons Ratio (x) = 0.03584 -0.05709
# Poissons Ratio (y) = 0.05945 0.01894
# Poissons Ratio (z) = -0.10310 0.02062
#
# Static dielectric constant tensor:
#      x y z
#    x 2.017370 0.000000 -0.057080 
#    y 0.000000 2.036620 0.000000 
#    z -0.057080 0.000000 2.001210 
# 
# From -- ./inp_files/244540.got.cif
#   From: 2010.05.17/outbox.cif.g08.bks.cpg/sg12_123_cif.got.tgz:244540.got - 2010.06.03 13:09:07.
