data_PCOD9217209
_publ_section_title
;
Structure prediction by ZEFSAII (Michael W. Deem and Ramdas Pophale) SiO2 
 PCOD9217209
Probable space group: C 2/M
;
_chemical_formula_sum "Si O2"
_cell_formula_units_Z 64
_cell_length_a 29.041066
_cell_length_b 8.729352
_cell_length_c 19.431449
_cell_angle_alpha 90.000000
_cell_angle_beta 40.942866
_cell_angle_gamma 90.000000
_cell_volume 3228.077657
_symmetry_space_group_name_H-M "C 2/M"
_symmetry_group_IT_number 12
_symmetry_cell_setting 'monoclinic'
loop_
_space_group_symop_operation_xyz
x,y,z
-x,y,-z
-x,-y,-z
x,-y,z
1/2+x,1/2+y,z
1/2-x,1/2+y,-z
1/2-x,1/2-y,-z
1/2+x,1/2-y,z
loop_
_atom_site_type_symbol
_atom_site_label
_atom_site_fract_x
_atom_site_fract_y
_atom_site_fract_z
Si Si1 0.919524 0.817967 0.669771
Si Si2 0.076409 0.682438 0.880788
Si Si3 0.699796 0.317016 0.834573
Si Si4 0.182423 0.325089 0.110490
Si Si5 0.945113 0.184938 0.393309
Si Si6 0.644341 0.182903 0.390791
Si Si7 0.611379 0.173852 0.047120
Si Si8 0.463572 0.318739 0.214539
O O1 0.851006 0.772277 0.791007
O O2 0.909190 0.741673 0.607474
O O3 0.985980 0.766140 0.640676
O O4 0.924451 0.000000 0.655122
O O5 0.085060 0.500000 0.877091
O O6 0.138558 0.766124 0.851371
O O7 0.076350 0.732552 0.801308
O O8 0.000000 0.722015 0.000000
O O9 0.698846 0.500000 0.844813
O O10 0.776721 0.272012 0.720536
O O11 0.678208 0.234745 0.929837
O O12 0.195955 0.500000 0.117945
O O13 0.127504 0.328616 0.109503
O O14 0.250000 0.250000 0.000000
O O15 0.879271 0.246928 0.510174
O O16 0.947658 0.233713 0.310664
O O17 0.945143 0.000000 0.393252
O O18 0.641284 0.000000 0.397456
O O19 0.545625 0.282916 0.109002
O O20 0.594560 0.000000 0.043415
O O21 0.450756 0.500000 0.224247
#
# Coordination Sequence:
#
# PCOD9217209 Si02
#       8
#     8   8   8   8   8   8   8   8
#     4  11  22  39  62  89 122 162 210 256 304 363
#     4  11  23  39  63  96 126 155 200 249 303 366
#     4  11  24  41  62  89 123 162 204 249 305 368
#     4  11  23  36  54  83 122 164 205 250 305 365
#     4  10  23  42  64  91 122 163 210 254 303 361
#     4  11  25  42  62  91 123 162 210 258 307 361
#     4  11  22  36  57  87 121 158 198 246 304 359
#     4  11  22  39  64  92 122 157 199 246 301 361
#
# _framework density 19.826042000000001
#
# number of rings (size 3 to 8) (size 9 to 14) (size 15 to 20)
#    0.000    1.125    2.500    3.750    0.000    9.500 
#    0.000    0.625    0.000    0.000    0.000    0.000 
#    0.000    0.000    0.000    0.000    0.000    0.000 
#
# Total GULP energy -178932.779933 kJ/mol
# GULP energy per Si atom -5591.649373 kJ/mol
# Density = 1.978092 g / cm^3
# Si number density = 19.826042 Si / 1000 Ang^3
#
#
#
# Elastic Constant Matrix: (Units=GPa)
#
#
# Indices 1 2 3 4 5 6 
#
# 1 81.8317 16.9813 30.0455 0.0059 18.0982 -0.0031
# 2 16.9813 21.1799 14.8394 0.0160 5.7912 -0.0119
# 3 30.0455 14.8394 126.3095 0.0041 19.2294 -0.0048
# 4 0.0059 0.0160 0.0041 32.7341 0.0001 1.5542
# 5 18.0982 5.7912 19.2294 0.0001 30.0576 0.0003
# 6 -0.0031 -0.0119 -0.0048 1.5542 0.0003 27.3316
#
#
#
# Elastic Compliance Matrix: (Units=1/GPa)
#
#
# Indices 1 2 3 4 5 6 
#
# 1 0.016463 -0.010142 -0.001676 0.000002 -0.006886 -0.000003
# 2 -0.010142 0.058945 -0.004114 -0.000028 -0.002618 0.000025
# 3 -0.001676 -0.004114 0.009445 0.000001 -0.004240 0.000000
# 4 0.000002 -0.000028 0.000001 0.030632 0.000003 -0.001742
# 5 -0.006886 -0.002618 -0.004240 0.000003 0.040633 -0.000003
# 6 -0.000003 0.000025 0.000000 -0.001742 -0.000003 0.036687
#
#
# Mechanical properties :
#
#
# Convention : Reuss Voigt Hill
#
# Bulk Modulus (GPa) = 18.87230 39.22817 29.05023
# Shear Modulus (GPa) = 20.63284 29.18833 24.91058
#
# Velocity S-wave (km/s) = 3.22948 3.84112 3.54850
# Velocity P-wave (km/s) = 4.84207 6.28501 5.61013
#
# Compressibility (1/GPa) = 0.05298771
#
# Stress axis : x y z
#
# Youngs Moduli (GPa) = 60.74093 16.96503 105.87998
#
# Poissons Ratio (x) = 0.17207 0.17748
# Poissons Ratio (y) = 0.61606 0.43558
# Poissons Ratio (z) = 0.10181 0.06979
#
# Static dielectric constant tensor:
#      x y z
#    x 1.717110 0.000000 0.011270 
#    y 0.000000 1.672660 0.000000 
#    z 0.011270 0.000000 1.722220 
# 
# From -- ./inp_files/295594.got.cif
#   From: 2010.05.17/outbox.cif.g08.bks.cpg/sg12_148_cif.got.tgz:295594.got - 2010.06.03 13:09:07.
