data_PCOD9217836
_publ_section_title
;
Structure prediction by ZEFSAII (Michael W. Deem and Ramdas Pophale) SiO2 
 PCOD9217836
Probable space group: C 2/M
;
_chemical_formula_sum "Si O2"
_cell_formula_units_Z 48
_cell_length_a 18.713048
_cell_length_b 11.265270
_cell_length_c 14.903294
_cell_angle_alpha 90.000000
_cell_angle_beta 137.367595
_cell_angle_gamma 90.000000
_cell_volume 2127.866935
_symmetry_space_group_name_H-M "C 2/M"
_symmetry_group_IT_number 12
_symmetry_cell_setting 'monoclinic'
loop_
_space_group_symop_operation_xyz
x,y,z
-x,y,-z
-x,-y,-z
x,-y,z
1/2+x,1/2+y,z
1/2-x,1/2+y,-z
1/2-x,1/2-y,-z
1/2+x,1/2-y,z
loop_
_atom_site_type_symbol
_atom_site_label
_atom_site_fract_x
_atom_site_fract_y
_atom_site_fract_z
Si Si1 0.615521 0.865484 0.648546
Si Si2 0.765600 0.633204 0.073948
Si Si3 0.932196 0.770493 0.030720
Si Si4 0.899580 0.139358 0.670993
Si Si5 0.218649 0.229996 0.595934
Si Si6 0.910900 0.500000 0.015549
Si Si7 0.140481 0.500000 0.245540
O O1 0.500000 0.854213 0.500000
O O2 0.630633 0.854082 0.768840
O O3 0.685359 0.768163 0.663419
O O4 0.651188 0.000000 0.659671
O O5 0.766405 0.500000 0.031925
O O6 0.750000 0.750000 0.000000
O O7 0.665662 0.639855 0.050492
O O8 0.884971 0.639240 0.004301
O O9 0.012258 0.804696 0.184114
O O10 0.000000 0.771984 0.000000
O O11 0.882137 0.200059 0.558484
O O12 0.787218 0.165732 0.614908
O O13 0.918714 0.000000 0.678639
O O14 0.292938 0.114882 0.667778
O O15 0.022669 0.500000 0.173889
O O16 0.889832 0.500000 0.887543
#
# Coordination Sequence:
#
# PCOD9217836 Si02
#       7
#     8   8   8   8   8   4   4
#     4  10  23  46  71  92 125 173 230 272 323 400
#     4  11  27  48  71 104 142 184 230 284 349 412
#     4  12  23  42  70 102 136 177 230 285 341 410
#     4  11  23  37  60  95 135 168 210 273 340 402
#     4  11  22  39  62  93 131 171 215 272 332 396
#     4  11  20  36  66 100 128 166 225 274 341 398
#     4  11  18  38  59  90 133 157 212 272 327 398
#
# _framework density 22.557801000000001
#
# number of rings (size 3 to 8) (size 9 to 14) (size 15 to 20)
#    0.000    1.000    4.167    3.000    3.500    2.667 
#    3.000    0.417    0.000    0.000    0.000    0.000 
#    0.000    0.000    0.000    0.000    0.000    0.000 
#
# Total GULP energy -133883.125680 kJ/mol
# GULP energy per Si atom -5578.463570 kJ/mol
# Density = 2.250646 g / cm^3
# Si number density = 22.557801 Si / 1000 Ang^3
#
#
#
# Elastic Constant Matrix: (Units=GPa)
#
#
# Indices 1 2 3 4 5 6 
#
# 1 32.8818 30.7674 5.0908 0.0000 -5.4486 0.0000
# 2 30.7674 107.4325 34.1506 0.0000 -12.2450 0.0000
# 3 5.0908 34.1506 150.5012 0.0000 -10.8579 0.0000
# 4 0.0000 0.0000 0.0000 37.7784 0.0000 -0.7570
# 5 -5.4486 -12.2450 -10.8579 0.0000 21.3853 0.0000
# 6 0.0000 0.0000 0.0000 -0.7570 0.0000 36.7621
#
#
#
# Elastic Compliance Matrix: (Units=1/GPa)
#
#
# Indices 1 2 3 4 5 6 
#
# 1 0.042244 -0.012090 0.001652 0.000000 0.004679 0.000000
# 2 -0.012090 0.013982 -0.002500 0.000000 0.003656 0.000000
# 3 0.001652 -0.002500 0.007352 0.000000 0.002722 0.000000
# 4 0.000000 0.000000 0.000000 0.026481 0.000000 0.000545
# 5 0.004679 0.003656 0.002722 0.000000 0.051429 0.000000
# 6 0.000000 0.000000 0.000000 0.000545 0.000000 0.027213
#
#
# Mechanical properties :
#
#
# Convention : Reuss Voigt Hill
#
# Bulk Modulus (GPa) = 26.52342 47.87035 37.19689
# Shear Modulus (GPa) = 24.13765 33.90560 29.02163
#
# Velocity S-wave (km/s) = 3.27469 3.88113 3.59074
# Velocity P-wave (km/s) = 5.10702 6.43051 5.80660
#
# Compressibility (1/GPa) = 0.03770252
#
# Stress axis : x y z
#
# Youngs Moduli (GPa) = 23.67192 71.52033 136.01249
#
# Poissons Ratio (x) = 0.86468 -0.22470
# Poissons Ratio (y) = 0.28619 0.34003
# Poissons Ratio (z) = -0.03911 0.17880
#
# Static dielectric constant tensor:
#      x y z
#    x 1.903520 0.000000 -0.032420 
#    y 0.000000 1.803940 0.000000 
#    z -0.032420 0.000000 1.847340 
# 
# From -- ./inp_files/232885.got.cif
#   From: 2010.05.17/outbox.cif.g08.bks.cpg/sg12_117_cif.got.tgz:232885.got - 2010.06.03 13:09:07.
