data_PCOD9217052
_publ_section_title
;
Structure prediction by ZEFSAII (Michael W. Deem and Ramdas Pophale) SiO2 
 PCOD9217052
Probable space group: C 2/M
;
_chemical_formula_sum "Si O2"
_cell_formula_units_Z 58
_cell_length_a 23.572368
_cell_length_b 21.591732
_cell_length_c 9.418205
_cell_angle_alpha 90.000000
_cell_angle_beta 38.447704
_cell_angle_gamma 90.000000
_cell_volume 2980.640468
_symmetry_space_group_name_H-M "C 2/M"
_symmetry_group_IT_number 12
_symmetry_cell_setting 'monoclinic'
loop_
_space_group_symop_operation_xyz
x,y,z
-x,y,-z
-x,-y,-z
x,-y,z
1/2+x,1/2+y,z
1/2-x,1/2+y,-z
1/2-x,1/2-y,-z
1/2+x,1/2-y,z
loop_
_atom_site_type_symbol
_atom_site_label
_atom_site_fract_x
_atom_site_fract_y
_atom_site_fract_z
Si Si1 0.000000 0.000000 0.500000
Si Si2 0.595199 0.270876 0.395744
Si Si3 0.241139 0.649947 0.489865
Si Si4 0.402082 0.739235 0.271609
Si Si5 0.892670 0.640677 0.735523
Si Si6 0.184140 0.569490 0.861566
Si Si7 0.240112 0.429705 0.212429
Si Si8 0.145293 0.909910 0.277177
O O1 0.052409 0.945137 0.488856
O O2 0.500000 0.278606 0.500000
O O3 0.582074 0.260322 0.589609
O O4 0.640474 0.210191 0.236484
O O5 0.645257 0.336016 0.281965
O O6 0.335067 0.682280 0.358706
O O7 0.160814 0.701192 0.640455
O O8 0.207586 0.597885 0.664633
O O9 0.253460 0.617912 0.313568
O O10 0.500000 0.738460 0.000000
O O11 0.841619 0.594427 0.728105
O O12 0.000000 0.640374 0.500000
O O13 0.875037 0.617201 0.929001
O O14 0.145289 0.500000 0.931891
O O15 0.277752 0.567631 0.766701
O O16 0.223658 0.500000 0.293463
O O17 0.326461 0.430047 0.937183
#
# Coordination Sequence:
#
# PCOD9217052 Si02
#       8
#     2   8   8   8   8   8   8   8
#     4  12  20  40  64  98 130 168 210 266 320 384
#     4  11  23  39  66  99 123 164 219 272 321 383
#     4  11  25  43  67  93 134 174 213 266 331 397
#     4  11  26  45  65  96 135 170 214 273 332 389
#     4  10  23  41  65  96 128 164 220 279 321 378
#     4  11  23  42  64  92 130 172 214 268 323 386
#     4  11  23  42  63  94 129 171 217 265 328 387
#     4  11  22  38  66  93 129 168 214 267 318 378
#
# _framework density 19.458905000000001
#
# number of rings (size 3 to 8) (size 9 to 14) (size 15 to 20)
#    0.000    1.103    4.828    1.655    5.793    4.414 
#    0.000    0.000    0.000    4.138    0.000    0.000 
#    0.000    0.000    0.000    0.000    0.000    0.000 
#
# Total GULP energy -161607.440935 kJ/mol
# GULP energy per Si atom -5572.670377 kJ/mol
# Density = 1.941462 g / cm^3
# Si number density = 19.458905 Si / 1000 Ang^3
#
#
#
# Elastic Constant Matrix: (Units=GPa)
#
#
# Indices 1 2 3 4 5 6 
#
# 1 65.4708 8.6077 28.1393 0.0000 8.7927 0.0000
# 2 8.6077 133.1771 33.9777 0.0000 4.2802 0.0000
# 3 28.1393 33.9777 58.7063 0.0000 12.6544 0.0000
# 4 0.0000 0.0000 0.0000 25.5104 0.0000 6.2433
# 5 8.7927 4.2802 12.6544 0.0000 37.5705 0.0000
# 6 0.0000 0.0000 0.0000 6.2433 0.0000 14.3804
#
#
#
# Elastic Compliance Matrix: (Units=1/GPa)
#
#
# Indices 1 2 3 4 5 6 
#
# 1 0.019501 0.001281 -0.009784 0.000000 -0.001414 0.000000
# 2 0.001281 0.008915 -0.005920 0.000000 0.000678 0.000000
# 3 -0.009784 -0.005920 0.026430 0.000000 -0.005938 0.000000
# 4 0.000000 0.000000 0.000000 0.043860 0.000000 -0.019042
# 5 -0.001414 0.000678 -0.005938 0.000000 0.028870 0.000000
# 6 0.000000 0.000000 0.000000 -0.019042 0.000000 0.077806
#
#
# Mechanical properties :
#
#
# Convention : Reuss Voigt Hill
#
# Bulk Modulus (GPa) = 38.46150 44.31152 41.38651
# Shear Modulus (GPa) = 20.58522 27.93422 24.25972
#
# Velocity S-wave (km/s) = 3.25604 3.79297 3.53472
# Velocity P-wave (km/s) = 5.82616 6.48101 6.16229
#
# Compressibility (1/GPa) = 0.02600003
#
# Stress axis : x y z
#
# Youngs Moduli (GPa) = 51.28062 112.17646 37.83621
#
# Poissons Ratio (x) = -0.14372 0.37018
# Poissons Ratio (y) = -0.06570 0.22399
# Poissons Ratio (z) = 0.50172 0.66407
#
# Static dielectric constant tensor:
#      x y z
#    x 1.658660 0.000000 -0.026000 
#    y 0.000000 1.715520 0.000000 
#    z -0.026000 0.000000 1.712090 
# 
# From -- ./inp_files/99235.got.cif
#   From: 2010.05.17/outbox.cif.g08.bks.cpg/sg12_50_cif.got.tgz:99235.got - 2010.06.03 13:09:07.
