data_PCOD9217693
_publ_section_title
;
Structure prediction by ZEFSAII (Michael W. Deem and Ramdas Pophale) SiO2 
 PCOD9217693
Probable space group: C 2/M
;
_chemical_formula_sum "Si O2"
_cell_formula_units_Z 44
_cell_length_a 12.723266
_cell_length_b 24.895735
_cell_length_c 12.153285
_cell_angle_alpha 90.000000
_cell_angle_beta 33.894404
_cell_angle_gamma 90.000000
_cell_volume 2146.791577
_symmetry_space_group_name_H-M "C 2/M"
_symmetry_group_IT_number 12
_symmetry_cell_setting 'monoclinic'
loop_
_space_group_symop_operation_xyz
x,y,z
-x,y,-z
-x,-y,-z
x,-y,z
1/2+x,1/2+y,z
1/2-x,1/2+y,-z
1/2-x,1/2-y,-z
1/2+x,1/2-y,z
loop_
_atom_site_type_symbol
_atom_site_label
_atom_site_fract_x
_atom_site_fract_y
_atom_site_fract_z
Si Si1 0.298423 0.311053 0.714843
Si Si2 0.153580 0.124449 0.119182
Si Si3 0.769446 0.062570 0.431386
Si Si4 0.442006 0.099207 0.175410
Si Si5 0.688616 0.697922 0.895340
Si Si6 0.000000 0.371312 0.500000
O O1 0.500000 0.289961 0.500000
O O2 0.359482 0.358672 0.743073
O O3 0.151202 0.341074 0.761556
O O4 0.206910 0.260853 0.855839
O O5 0.977033 0.088551 0.240199
O O6 0.360240 0.098930 0.931343
O O7 0.161266 0.179352 0.043459
O O8 0.700850 0.069505 0.618408
O O9 0.628049 0.093528 0.471707
O O10 0.773602 0.000000 0.400548
O O11 0.500000 0.080667 0.000000
O O12 0.863403 0.666282 0.691058
O O13 0.500000 0.678348 0.000000
#
# Coordination Sequence:
#
# PCOD9217693 Si02
#       6
#     8   8   8   8   8   4
#     4  11  22  40  68 101 140 175 211 268 336 398
#     4  11  23  43  65  98 137 176 224 270 323 408
#     4  12  26  46  71  97 131 175 227 287 333 379
#     4  10  23  44  68  99 143 172 217 275 328 401
#     4  12  23  41  66  98 138 178 219 263 338 398
#     4  12  25  46  64 100 134 166 227 288 320 402
#
# _framework density 20.495701
#
# number of rings (size 3 to 8) (size 9 to 14) (size 15 to 20)
#    0.000    0.727    6.364    2.455    0.000    1.091 
#    0.000   10.909    0.000    0.000    0.000    0.000 
#    0.000    0.000    0.000    0.000    0.000    0.000 
#
# Total GULP energy -122662.524061 kJ/mol
# GULP energy per Si atom -5575.569276 kJ/mol
# Density = 2.044905 g / cm^3
# Si number density = 20.495701 Si / 1000 Ang^3
#
#
#
# Elastic Constant Matrix: (Units=GPa)
#
#
# Indices 1 2 3 4 5 6 
#
# 1 95.4008 35.0778 38.5370 -0.0001 -27.7390 -0.0001
# 2 35.0778 101.5369 21.3637 0.0001 -21.1484 0.0000
# 3 38.5370 21.3637 79.9320 -0.0002 -27.0544 -0.0002
# 4 -0.0001 0.0001 -0.0002 -22.3034 0.0001 -18.7873
# 5 -27.7390 -21.1484 -27.0544 0.0001 39.5069 0.0001
# 6 -0.0001 0.0000 -0.0002 -18.7873 0.0001 -3.7386
#
#
#
# Elastic Compliance Matrix: (Units=1/GPa)
#
#
# Indices 1 2 3 4 5 6 
#
# 1 0.015136 -0.003053 -0.004475 0.000000 0.005929 0.000000
# 2 -0.003053 0.011796 -0.000350 0.000000 0.003931 0.000000
# 3 -0.004475 -0.000350 0.017749 0.000000 0.008825 0.000000
# 4 0.000000 0.000000 0.000000 0.013868 0.000000 -0.069691
# 5 0.005929 0.003931 0.008825 0.000000 0.037623 0.000000
# 6 0.000000 0.000000 0.000000 -0.069691 0.000000 0.082734
#
#
# Mechanical properties :
#
#
# Convention : Reuss Voigt Hill
#
# Bulk Modulus (GPa) = 34.57237 51.86961 43.22099
# Shear Modulus (GPa) = 24.47349 14.81908 19.64628
#
# Velocity S-wave (km/s) = 3.45929 2.69185 3.09941
# Velocity P-wave (km/s) = 5.73239 5.91810 5.82599
#
# Compressibility (1/GPa) = 0.02892484
#
# Stress axis : x y z
#
# Youngs Moduli (GPa) = 66.06763 84.77662 56.34254
#
# Poissons Ratio (x) = 0.25879 0.25212
# Poissons Ratio (y) = 0.20168 0.01974
# Poissons Ratio (z) = 0.29563 0.02971
#
# Static dielectric constant tensor:
#      x y z
#    x 1.802870 0.000000 -0.016740 
#    y 0.000000 1.694990 0.000000 
#    z -0.016740 0.000000 1.800660 
# 
# From -- ./inp_files/136856.got.cif
#   From: 2010.05.17/outbox.cif.g08.bks.cpg/sg12_69_cif.got.tgz:136856.got - 2010.06.03 13:09:07.
