data_PCOD9217937
_publ_section_title
;
Structure prediction by ZEFSAII (Michael W. Deem and Ramdas Pophale) SiO2 
 PCOD9217937
Probable space group: C 2/M
;
_chemical_formula_sum "Si O2"
_cell_formula_units_Z 36
_cell_length_a 21.938028
_cell_length_b 9.873313
_cell_length_c 8.850742
_cell_angle_alpha 90.000000
_cell_angle_beta 107.626198
_cell_angle_gamma 90.000000
_cell_volume 1827.077259
_symmetry_space_group_name_H-M "C 2/M"
_symmetry_group_IT_number 12
_symmetry_cell_setting 'monoclinic'
loop_
_space_group_symop_operation_xyz
x,y,z
-x,y,-z
-x,-y,-z
x,-y,z
1/2+x,1/2+y,z
1/2-x,1/2+y,-z
1/2-x,1/2-y,-z
1/2+x,1/2-y,z
loop_
_atom_site_type_symbol
_atom_site_label
_atom_site_fract_x
_atom_site_fract_y
_atom_site_fract_z
Si Si1 0.267097 0.345234 0.373352
Si Si2 0.014925 0.000000 0.264306
Si Si3 0.130810 0.650005 0.701727
Si Si4 0.315683 0.228652 0.956326
Si Si5 0.892968 0.000000 0.952555
Si Si6 0.500000 0.730122 0.500000
O O1 0.282890 0.500000 0.425793
O O2 0.250000 0.250000 0.500000
O O3 0.325732 0.269729 0.334140
O O4 0.207516 0.344693 0.212140
O O5 0.069527 0.000000 0.177937
O O6 0.018308 0.130735 0.374962
O O7 0.946986 0.000000 0.124674
O O8 0.152621 0.500000 0.668373
O O9 0.059492 0.679854 0.595484
O O10 0.138288 0.657113 0.888673
O O11 0.348501 0.369316 0.937061
O O12 0.250000 0.250000 0.000000
#
# Coordination Sequence:
#
# PCOD9217937 Si02
#       6
#     8   4   8   8   4   4
#     4  11  26  42  65  96 131 169 217 276 337 398
#     4  10  24  40  70 100 132 176 228 281 320 401
#     4  11  24  42  65  92 131 176 220 269 334 401
#     4  10  24  38  67  92 133 170 220 268 333 395
#     4  11  22  44  66 102 132 178 228 273 329 398
#     4  11  23  40  66  98 130 174 222 278 338 386
#
# _framework density 19.703600000000002
#
# number of rings (size 3 to 8) (size 9 to 14) (size 15 to 20)
#    0.000    1.333    2.222    1.667   20.222    0.000 
#    0.000    0.000    0.000    1.333    0.000    0.000 
#    0.000    0.000    0.000    0.000    0.000    0.000 
#
# Total GULP energy -100545.436256 kJ/mol
# GULP energy per Si atom -5585.857570 kJ/mol
# Density = 1.965875 g / cm^3
# Si number density = 19.703600 Si / 1000 Ang^3
#
#
#
# Elastic Constant Matrix: (Units=GPa)
#
#
# Indices 1 2 3 4 5 6 
#
# 1 86.2393 45.9182 43.1646 0.0000 10.3305 0.0000
# 2 45.9182 164.4877 40.1543 0.0000 -2.3426 0.0000
# 3 43.1646 40.1543 131.2416 0.0000 6.9969 0.0000
# 4 0.0000 0.0000 0.0000 17.4736 0.0000 8.1894
# 5 10.3305 -2.3426 6.9969 0.0000 36.1327 0.0000
# 6 0.0000 0.0000 0.0000 8.1894 0.0000 32.5737
#
#
#
# Elastic Compliance Matrix: (Units=1/GPa)
#
#
# Indices 1 2 3 4 5 6 
#
# 1 0.015938 -0.003544 -0.003943 0.000000 -0.004023 0.000000
# 2 -0.003544 0.007383 -0.001185 0.000000 0.001721 0.000000
# 3 -0.003943 -0.001185 0.009319 0.000000 -0.000754 0.000000
# 4 0.000000 0.000000 0.000000 0.064873 0.000000 -0.016310
# 5 -0.004023 0.001721 -0.000754 0.000000 0.029084 0.000000
# 6 0.000000 0.000000 0.000000 -0.016310 0.000000 0.034800
#
#
# Mechanical properties :
#
#
# Convention : Reuss Voigt Hill
#
# Bulk Modulus (GPa) = 65.37765 71.16030 68.26898
# Shear Modulus (GPa) = 27.19766 34.08479 30.64123
#
# Velocity S-wave (km/s) = 3.71932 4.16369 3.94776
# Velocity P-wave (km/s) = 7.19007 7.70123 7.45003
#
# Compressibility (1/GPa) = 0.01529575
#
# Stress axis : x y z
#
# Youngs Moduli (GPa) = 62.74236 135.45378 107.30576
#
# Poissons Ratio (x) = 0.48005 0.42313
# Poissons Ratio (y) = 0.22236 0.12715
# Poissons Ratio (z) = 0.24741 0.16050
#
# Static dielectric constant tensor:
#      x y z
#    x 1.661550 0.000000 0.007670 
#    y 0.000000 1.689080 0.000000 
#    z 0.007670 0.000000 1.725240 
# 
# From -- ./inp_files/92663.got.cif
#   From: 2010.05.17/outbox.cif.g08.bks.cpg/sg12_47_cif.got.tgz:92663.got - 2010.06.03 13:09:07.
