data_PCOD9217359
_publ_section_title
;
Structure prediction by ZEFSAII (Michael W. Deem and Ramdas Pophale) SiO2 
 PCOD9217359
Probable space group: C 2/M
;
_chemical_formula_sum "Si O2"
_cell_formula_units_Z 42
_cell_length_a 19.449701
_cell_length_b 14.820542
_cell_length_c 7.047474
_cell_angle_alpha 90.000000
_cell_angle_beta 109.708519
_cell_angle_gamma 90.000000
_cell_volume 1912.467701
_symmetry_space_group_name_H-M "C 2/M"
_symmetry_group_IT_number 12
_symmetry_cell_setting 'monoclinic'
loop_
_space_group_symop_operation_xyz
x,y,z
-x,y,-z
-x,-y,-z
x,-y,z
1/2+x,1/2+y,z
1/2-x,1/2+y,-z
1/2-x,1/2-y,-z
1/2+x,1/2-y,z
loop_
_atom_site_type_symbol
_atom_site_label
_atom_site_fract_x
_atom_site_fract_y
_atom_site_fract_z
Si Si1 0.185759 0.601367 0.339339
Si Si2 0.931779 0.339622 0.042204
Si Si3 0.691697 0.361510 0.822063
Si Si4 0.500000 0.500000 0.000000
Si Si5 0.470271 0.351858 0.260987
Si Si6 0.182278 0.644425 0.776178
O O1 0.159049 0.500000 0.274818
O O2 0.133466 0.668796 0.173306
O O3 0.267084 0.608931 0.330150
O O4 0.183511 0.619004 0.559356
O O5 0.961109 0.244601 0.150013
O O6 0.890531 0.386084 0.180317
O O7 0.000000 0.384423 0.000000
O O8 0.610930 0.393891 0.791725
O O9 0.684566 0.253057 0.798732
O O10 0.746901 0.387659 0.042232
O O11 0.515247 0.420397 0.174450
O O12 0.500000 0.338366 0.500000
#
# Coordination Sequence:
#
# PCOD9217359 Si02
#       6
#     8   8   8   2   8   8
#     4  11  24  41  67 101 133 172 224 278 335 389
#     4  10  23  42  69  95 132 175 218 272 327 403
#     4   9  21  41  65  92 130 171 219 273 317 396
#     4  12  26  44  64 102 142 164 220 272 324 400
#     4  11  25  44  69 101 135 176 221 266 334 406
#     4   9  20  40  66  94 125 174 226 264 329 395
#
# _framework density 21.961155999999999
#
# number of rings (size 3 to 8) (size 9 to 14) (size 15 to 20)
#    0.000    1.905    0.952    2.000    6.667    4.952 
#    3.429    0.952    0.000    0.000    0.000    0.000 
#    0.000    0.000    0.000    0.000    0.000    0.000 
#
# Total GULP energy -117011.461103 kJ/mol
# GULP energy per Si atom -5571.974338 kJ/mol
# Density = 2.191117 g / cm^3
# Si number density = 21.961156 Si / 1000 Ang^3
#
#
#
# Elastic Constant Matrix: (Units=GPa)
#
#
# Indices 1 2 3 4 5 6 
#
# 1 50.0139 -18.2683 19.6691 0.0000 -9.9537 0.0000
# 2 -18.2683 85.2629 24.5613 0.0000 8.0443 0.0000
# 3 19.6691 24.5613 140.9245 0.0000 -34.4139 0.0000
# 4 0.0000 0.0000 0.0000 -52.9843 0.0000 37.8862
# 5 -9.9537 8.0443 -34.4139 0.0000 29.8451 0.0000
# 6 0.0000 0.0000 0.0000 37.8862 0.0000 -39.0133
#
#
#
# Elastic Compliance Matrix: (Units=1/GPa)
#
#
# Indices 1 2 3 4 5 6 
#
# 1 0.024181 0.006172 -0.004019 0.000000 0.001766 0.000000
# 2 0.006172 0.015506 -0.005682 0.000000 -0.008672 0.000000
# 3 -0.004019 -0.005682 0.012101 0.000000 0.014145 0.000000
# 4 0.000000 0.000000 0.000000 -0.061756 0.000000 -0.059972
# 5 0.001766 -0.008672 0.014145 0.000000 0.052743 0.000000
# 6 0.000000 0.000000 0.000000 -0.059972 0.000000 -0.083872
#
#
# Mechanical properties :
#
#
# Convention : Reuss Voigt Hill
#
# Bulk Modulus (GPa) = 22.35604 36.45840 29.40722
# Shear Modulus (GPa) = -261.38778 4.25212 -128.56783
#
# Velocity S-wave (km/s) = -10.92159 1.39298 -7.65966
# Velocity P-wave (km/s) = 12.19999 4.38458 8.05031
#
# Compressibility (1/GPa) = 0.04473065
#
# Stress axis : x y z
#
# Youngs Moduli (GPa) = 41.35443 64.49202 82.63487
#
# Poissons Ratio (x) = -0.39806 0.33214
# Poissons Ratio (y) = -0.25525 0.46951
# Poissons Ratio (z) = 0.16622 0.36643
#
# Static dielectric constant tensor:
#      x y z
#    x 1.865260 0.000000 -0.018760 
#    y 0.000000 1.721230 0.000000 
#    z -0.018760 0.000000 1.760410 
# 
# From -- ./inp_files/20510.got.cif
#   From: 2010.05.17/outbox.cif.g08.bks.cpg/sg12_11_cif.got.tgz:20510.got - 2010.06.03 13:09:07.
