data_PCOD9217264
_publ_section_title
;
Structure prediction by ZEFSAII (Michael W. Deem and Ramdas Pophale) SiO2 
 PCOD9217264
Probable space group: C 2/M
;
_chemical_formula_sum "Si O2"
_cell_formula_units_Z 58
_cell_length_a 26.060981
_cell_length_b 7.935605
_cell_length_c 23.849655
_cell_angle_alpha 90.000000
_cell_angle_beta 31.169769
_cell_angle_gamma 90.000000
_cell_volume 2552.858333
_symmetry_space_group_name_H-M "C 2/M"
_symmetry_group_IT_number 12
_symmetry_cell_setting 'monoclinic'
loop_
_space_group_symop_operation_xyz
x,y,z
-x,y,-z
-x,-y,-z
x,-y,z
1/2+x,1/2+y,z
1/2-x,1/2+y,-z
1/2-x,1/2-y,-z
1/2+x,1/2-y,z
loop_
_atom_site_type_symbol
_atom_site_label
_atom_site_fract_x
_atom_site_fract_y
_atom_site_fract_z
Si Si1 0.717976 0.306927 0.152033
Si Si2 0.538185 0.197484 0.246445
Si Si3 0.895768 0.681729 0.640787
Si Si4 0.677487 0.700504 0.516998
Si Si5 0.065264 0.803349 0.886368
Si Si6 0.776553 0.806683 0.653037
Si Si7 0.500000 0.500000 0.500000
Si Si8 0.568435 0.795976 0.091249
O O1 0.734028 0.500000 0.154405
O O2 0.623323 0.292833 0.200324
O O3 0.690045 0.203133 0.233006
O O4 0.817364 0.251154 0.027656
O O5 0.430112 0.219334 0.373938
O O6 0.536458 0.253942 0.183464
O O7 0.565244 0.000000 0.222084
O O8 0.944181 0.500000 0.605368
O O9 0.843563 0.691413 0.629249
O O10 0.963412 0.847960 0.578217
O O11 0.665316 0.500000 0.530185
O O12 0.750000 0.750000 0.500000
O O13 0.720548 0.739888 0.415005
O O14 0.165975 0.703726 0.780388
O O15 0.998851 0.785391 0.893219
O O16 0.090227 0.000000 0.872863
O O17 0.000000 0.742427 0.000000
O O18 0.816889 0.000000 0.622744
O O19 0.557968 0.000000 0.097129
#
# Coordination Sequence:
#
# PCOD9217264 Si02
#       8
#     8   8   8   8   8   8   2   8
#     4  11  23  43  67  96 134 175 222 274 336 399
#     4  11  24  41  64  96 129 171 224 271 330 401
#     4  12  26  44  70 101 136 178 225 280 334 400
#     4  11  25  43  65  92 128 169 215 271 329 391
#     4  11  24  40  64  97 129 165 218 277 335 403
#     4  11  24  44  66  94 133 175 221 274 333 399
#     4  12  26  48  68  98 142 176 230 272 342 402
#     4  10  23  42  65  93 131 174 219 276 337 401
#
# _framework density 22.719631
#
# number of rings (size 3 to 8) (size 9 to 14) (size 15 to 20)
#    0.000    0.966    1.379    4.345    1.931   11.034 
#    0.000    0.000    0.000    0.000    0.000    0.000 
#    0.000    0.000    0.000    0.000    0.000    0.000 
#
# Total GULP energy -162123.737862 kJ/mol
# GULP energy per Si atom -5590.473719 kJ/mol
# Density = 2.266792 g / cm^3
# Si number density = 22.719631 Si / 1000 Ang^3
#
#
#
# Elastic Constant Matrix: (Units=GPa)
#
#
# Indices 1 2 3 4 5 6 
#
# 1 73.9131 17.1791 5.7443 0.0009 17.7208 -0.0033
# 2 17.1791 102.5508 33.5489 -0.0117 7.4760 0.0094
# 3 5.7443 33.5489 122.6517 -0.0016 17.2242 0.0017
# 4 0.0009 -0.0117 -0.0016 14.1221 0.0044 3.1399
# 5 17.7208 7.4760 17.2242 0.0044 46.9125 -0.0018
# 6 -0.0033 0.0094 0.0017 3.1399 -0.0018 40.7983
#
#
#
# Elastic Compliance Matrix: (Units=1/GPa)
#
#
# Indices 1 2 3 4 5 6 
#
# 1 0.015399 -0.002405 0.000738 -0.000001 -0.005704 0.000002
# 2 -0.002405 0.011105 -0.002956 0.000010 0.000224 -0.000003
# 3 0.000738 -0.002956 0.009384 0.000000 -0.003253 0.000000
# 4 -0.000001 0.000010 0.000000 0.072044 -0.000008 -0.005545
# 5 -0.005704 0.000224 -0.003253 -0.000008 0.024630 0.000001
# 6 0.000002 -0.000003 0.000000 -0.005545 0.000001 0.024938
#
#
# Mechanical properties :
#
#
# Convention : Reuss Voigt Hill
#
# Bulk Modulus (GPa) = 37.53709 45.78448 41.66079
# Shear Modulus (GPa) = 28.46954 36.54280 32.50617
#
# Velocity S-wave (km/s) = 3.54373 4.01487 3.78663
# Velocity P-wave (km/s) = 5.77077 6.45662 6.12330
#
# Compressibility (1/GPa) = 0.02664032
#
# Stress axis : x y z
#
# Youngs Moduli (GPa) = 64.94061 90.04975 106.56325
#
# Poissons Ratio (x) = 0.21657 -0.07862
# Poissons Ratio (y) = 0.15619 0.31504
# Poissons Ratio (z) = -0.04791 0.26622
#
# Static dielectric constant tensor:
#      x y z
#    x 1.519080 -0.000010 0.221320 
#    y -0.000010 1.840950 0.000010 
#    z 0.221320 0.000010 1.689970 
# 
# From -- ./inp_files/351437.got.cif
#   From: 2010.05.17/outbox.cif.g08.bks.cpg/sg12_176_cif.got.tgz:351437.got - 2010.06.03 13:09:07.
