data_PCOD9217343
_publ_section_title
;
Structure prediction by ZEFSAII (Michael W. Deem and Ramdas Pophale) SiO2 
 PCOD9217343
Probable space group: C 2/M
;
_chemical_formula_sum "Si O2"
_cell_formula_units_Z 44
_cell_length_a 13.205552
_cell_length_b 21.012362
_cell_length_c 15.052065
_cell_angle_alpha 90.000000
_cell_angle_beta 30.501718
_cell_angle_gamma 90.000000
_cell_volume 2119.915255
_symmetry_space_group_name_H-M "C 2/M"
_symmetry_group_IT_number 12
_symmetry_cell_setting 'monoclinic'
loop_
_space_group_symop_operation_xyz
x,y,z
-x,y,-z
-x,-y,-z
x,-y,z
1/2+x,1/2+y,z
1/2-x,1/2+y,-z
1/2-x,1/2-y,-z
1/2+x,1/2-y,z
loop_
_atom_site_type_symbol
_atom_site_label
_atom_site_fract_x
_atom_site_fract_y
_atom_site_fract_z
Si Si1 0.000000 0.677085 0.000000
Si Si2 0.773176 0.073578 0.196656
Si Si3 0.186364 0.428708 0.968318
Si Si4 0.380664 0.393051 0.305631
Si Si5 0.948361 0.623349 0.313338
Si Si6 0.007955 0.749361 0.173991
O O1 0.833732 0.627342 0.089337
O O2 0.951648 0.722240 0.119440
O O3 0.761784 0.080492 0.310957
O O4 0.619652 0.115363 0.257789
O O5 0.741201 0.000000 0.195030
O O6 0.000000 0.091264 0.000000
O O7 0.156738 0.500000 0.956787
O O8 0.403310 0.424457 0.848805
O O9 0.025712 0.412110 0.166458
O O10 0.421940 0.318636 0.256626
O O11 0.252603 0.402223 0.491033
O O12 0.929269 0.696992 0.302154
O O13 0.250000 0.750000 0.000000
#
# Coordination Sequence:
#
# PCOD9217343 Si02
#       6
#     4   8   8   8   8   8
#     4  10  23  42  68  94 121 170 210 260 318 374
#     4  11  22  39  62  92 130 169 209 256 313 375
#     4  11  23  43  66  90 129 171 214 262 313 378
#     4  12  24  39  66  96 128 166 211 264 323 372
#     4  11  24  41  62  97 128 168 212 262 318 378
#     4  11  22  43  68  91 127 165 209 261 318 378
#
# _framework density 20.755547
#
# number of rings (size 3 to 8) (size 9 to 14) (size 15 to 20)
#    0.000    0.909    5.455    2.455    3.818    3.636 
#    0.000    3.636    0.000    5.455    0.000    0.000 
#    0.000    0.000    0.000    0.000    0.000    0.000 
#
# Total GULP energy -123011.837696 kJ/mol
# GULP energy per Si atom -5591.447168 kJ/mol
# Density = 2.070831 g / cm^3
# Si number density = 20.755547 Si / 1000 Ang^3
#
#
#
# Elastic Constant Matrix: (Units=GPa)
#
#
# Indices 1 2 3 4 5 6 
#
# 1 90.8416 25.5595 6.2535 0.0049 12.6975 0.0215
# 2 25.5595 95.2923 19.2853 -0.2056 -0.6695 0.4588
# 3 6.2535 19.2853 93.9134 -0.0297 13.2247 0.0225
# 4 0.0049 -0.2056 -0.0297 -27.4444 -0.0704 85.6783
# 5 12.6975 -0.6695 13.2247 -0.0704 15.4146 0.1355
# 6 0.0215 0.4588 0.0225 85.6783 0.1355 -147.4145
#
#
#
# Elastic Compliance Matrix: (Units=1/GPa)
#
#
# Indices 1 2 3 4 5 6 
#
# 1 0.013903 -0.004183 0.001787 0.000007 -0.013167 -0.000019
# 2 -0.004183 0.012310 -0.003196 -0.000035 0.006722 0.000023
# 3 0.001787 -0.003196 0.012980 0.000022 -0.012747 -0.000007
# 4 0.000007 -0.000035 0.000022 0.044738 -0.000050 0.026002
# 5 -0.013167 0.006722 -0.012747 -0.000050 0.086947 0.000068
# 6 -0.000019 0.000023 -0.000007 0.026002 0.000068 0.008329
#
#
# Mechanical properties :
#
#
# Convention : Reuss Voigt Hill
#
# Bulk Modulus (GPa) = 35.70197 42.47155 39.08676
# Shear Modulus (GPa) = 25.03419 -16.62560 4.20429
#
# Velocity S-wave (km/s) = 3.47673 -2.83330 1.42479
# Velocity P-wave (km/s) = 5.77541 3.13109 4.64538
#
# Compressibility (1/GPa) = 0.02800966
#
# Stress axis : x y z
#
# Youngs Moduli (GPa) = 71.92935 81.23573 77.03899
#
# Poissons Ratio (x) = 0.33982 -0.13770
# Poissons Ratio (y) = 0.30089 0.24621
# Poissons Ratio (z) = -0.12857 0.25962
#
# Static dielectric constant tensor:
#      x y z
#    x 1.740700 -0.000010 0.014070 
#    y -0.000010 1.730570 0.000010 
#    z 0.014070 0.000010 1.747950 
# 
# From -- ./inp_files/217584.got.cif
#   From: 2010.05.17/outbox.cif.g08.bks.cpg/sg12_109_cif.got.tgz:217584.got - 2010.06.03 13:09:07.
