data_PCOD9217736
_publ_section_title
;
Structure prediction by ZEFSAII (Michael W. Deem and Ramdas Pophale) SiO2 
 PCOD9217736
Probable space group: C 2/M
;
_chemical_formula_sum "Si O2"
_cell_formula_units_Z 32
_cell_length_a 9.366507
_cell_length_b 15.195384
_cell_length_c 9.520493
_cell_angle_alpha 90.000000
_cell_angle_beta 85.029259
_cell_angle_gamma 90.000000
_cell_volume 1349.933428
_symmetry_space_group_name_H-M "C 2/M"
_symmetry_group_IT_number 12
_symmetry_cell_setting 'monoclinic'
loop_
_space_group_symop_operation_xyz
x,y,z
-x,y,-z
-x,-y,-z
x,-y,z
1/2+x,1/2+y,z
1/2-x,1/2+y,-z
1/2-x,1/2-y,-z
1/2+x,1/2-y,z
loop_
_atom_site_type_symbol
_atom_site_label
_atom_site_fract_x
_atom_site_fract_y
_atom_site_fract_z
Si Si1 0.608367 0.404922 0.858141
Si Si2 0.124729 0.763663 0.399577
Si Si3 0.560311 0.901707 0.218970
Si Si4 0.318670 0.216665 0.140871
O O1 0.577746 0.500000 0.787998
O O2 0.781987 0.408582 0.865855
O O3 0.603570 0.304692 0.802858
O O4 0.500000 0.403818 0.000000
O O5 0.250000 0.750000 0.500000
O O6 0.077287 0.667950 0.344223
O O7 0.194322 0.810703 0.258866
O O8 0.000000 0.807958 0.500000
O O9 0.520548 0.000000 0.266277
O O10 0.563547 0.858728 0.864629
O O11 0.250000 0.250000 0.000000
#
# Coordination Sequence:
#
# PCOD9217736 Si02
#       4
#     8   8   8   8
#     4   9  21  38  61  96 139 179 225 289 357 425
#     4  11  23  45  70 103 143 190 240 300 364 436
#     4  10  23  44  72 104 142 193 249 298 362 441
#     4  11  25  40  71 105 139 187 243 304 362 430
#
# _framework density 23.704871000000001
#
# number of rings (size 3 to 8) (size 9 to 14) (size 15 to 20)
#    0.000    1.750    2.500    0.000    7.000    1.500 
#    0.000    6.250    0.000    4.500    0.000    0.000 
#    0.000    0.000    0.000    0.000    0.000    0.000 
#
# Total GULP energy -89128.436145 kJ/mol
# GULP energy per Si atom -5570.527259 kJ/mol
# Density = 2.365092 g / cm^3
# Si number density = 23.704871 Si / 1000 Ang^3
#
#
#
# Elastic Constant Matrix: (Units=GPa)
#
#
# Indices 1 2 3 4 5 6 
#
# 1 129.5529 -3.1866 58.8367 0.0000 -18.5211 0.0000
# 2 -3.1866 140.1068 -12.1087 0.0000 0.4026 0.0000
# 3 58.8367 -12.1087 139.2838 0.0000 -17.1716 0.0000
# 4 0.0000 0.0000 0.0000 13.2365 0.0000 0.7278
# 5 -18.5211 0.4026 -17.1716 0.0000 57.1951 0.0000
# 6 0.0000 0.0000 0.0000 0.7278 0.0000 37.9439
#
#
#
# Elastic Compliance Matrix: (Units=1/GPa)
#
#
# Indices 1 2 3 4 5 6 
#
# 1 0.009768 -0.000120 -0.003891 0.000000 0.001996 0.000000
# 2 -0.000120 0.007194 0.000691 0.000000 0.000118 0.000000
# 3 -0.003891 0.000691 0.009063 0.000000 0.001456 0.000000
# 4 0.000000 0.000000 0.000000 0.075628 0.000000 -0.001451
# 5 0.001996 0.000118 0.001456 0.000000 0.018567 0.000000
# 6 0.000000 0.000000 0.000000 -0.001451 0.000000 0.026383
#
#
# Mechanical properties :
#
#
# Convention : Reuss Voigt Hill
#
# Bulk Modulus (GPa) = 51.58620 55.11406 53.35013
# Shear Modulus (GPa) = 31.30795 46.03525 38.67160
#
# Velocity S-wave (km/s) = 3.63814 4.41161 4.04341
# Velocity P-wave (km/s) = 6.28150 7.01786 6.65986
#
# Compressibility (1/GPa) = 0.01938503
#
# Stress axis : x y z
#
# Youngs Moduli (GPa) = 102.37299 139.00419 110.34312
#
# Poissons Ratio (x) = 0.01665 0.42931
# Poissons Ratio (y) = 0.01227 -0.07620
# Poissons Ratio (z) = 0.39830 -0.09599
#
# Static dielectric constant tensor:
#      x y z
#    x 1.994730 0.000000 0.014370 
#    y 0.000000 1.951450 0.000000 
#    z 0.014370 0.000000 1.985990 
# 
# From -- ./inp_files/45227.got.cif
#   From: 2010.05.17/outbox.cif.g08.bks.cpg/sg12_23_cif.got.tgz:45227.got - 2010.06.03 13:09:07.
