data_PCOD9217860
_publ_section_title
;
Structure prediction by ZEFSAII (Michael W. Deem and Ramdas Pophale) SiO2 
 PCOD9217860
Probable space group: C 2/M
;
_chemical_formula_sum "Si O2"
_cell_formula_units_Z 50
_cell_length_a 12.274389
_cell_length_b 16.624287
_cell_length_c 15.325865
_cell_angle_alpha 90.000000
_cell_angle_beta 128.028520
_cell_angle_gamma 90.000000
_cell_volume 2463.378050
_symmetry_space_group_name_H-M "C 2/M"
_symmetry_group_IT_number 12
_symmetry_cell_setting 'monoclinic'
loop_
_space_group_symop_operation_xyz
x,y,z
-x,y,-z
-x,-y,-z
x,-y,z
1/2+x,1/2+y,z
1/2-x,1/2+y,-z
1/2-x,1/2-y,-z
1/2+x,1/2-y,z
loop_
_atom_site_type_symbol
_atom_site_label
_atom_site_fract_x
_atom_site_fract_y
_atom_site_fract_z
Si Si1 0.921924 0.822195 0.693370
Si Si2 0.873712 0.366292 0.048015
Si Si3 0.366712 0.908113 0.486983
Si Si4 0.395360 0.131885 0.699293
Si Si5 0.402226 0.594105 0.367182
Si Si6 0.931306 0.176065 0.055534
Si Si7 0.500000 0.000000 0.000000
O O1 0.772318 0.858574 0.598395
O O2 0.911728 0.726178 0.687473
O O3 0.033459 0.853245 0.678269
O O4 0.973912 0.844614 0.815155
O O5 0.911837 0.273630 0.044168
O O6 0.980699 0.393896 0.176023
O O7 0.892691 0.428468 0.979261
O O8 0.718385 0.362350 0.005397
O O9 0.500000 0.875945 0.500000
O O10 0.393953 0.908423 0.603981
O O11 0.344066 0.000000 0.446428
O O12 0.252271 0.116288 0.679546
O O13 0.500000 0.604447 0.500000
O O14 0.406241 0.500000 0.344421
O O15 0.000000 0.150489 0.000000
#
# Coordination Sequence:
#
# PCOD9217860 Si02
#       7
#     8   8   8   8   8   8   2
#     4  11  25  40  70  99 129 177 225 267 332 398
#     4  10  25  41  70 100 136 170 227 272 344 386
#     4  11  25  43  63  91 134 174 213 270 336 398
#     4  11  25  40  69 100 132 173 218 278 326 401
#     4  11  24  42  66  97 136 172 218 276 337 394
#     4  10  23  47  67  96 136 183 220 278 328 406
#     4  12  24  44  66 108 132 174 222 286 320 414
#
# _framework density 20.297332000000001
#
# number of rings (size 3 to 8) (size 9 to 14) (size 15 to 20)
#    0.000    1.280    2.400    1.440    8.960    2.560 
#    1.440    0.400    0.000    0.000    0.000    0.000 
#    0.000    0.000    0.000    0.000    0.000    0.000 
#
# Total GULP energy -139559.875902 kJ/mol
# GULP energy per Si atom -5582.395036 kJ/mol
# Density = 2.025113 g / cm^3
# Si number density = 20.297332 Si / 1000 Ang^3
#
#
#
# Elastic Constant Matrix: (Units=GPa)
#
#
# Indices 1 2 3 4 5 6 
#
# 1 132.2349 9.1753 29.2241 0.0000 -5.0504 0.0000
# 2 9.1753 47.6352 -0.6763 0.0000 0.9553 0.0000
# 3 29.2241 -0.6763 65.3565 0.0000 8.8660 0.0000
# 4 0.0000 0.0000 0.0000 30.8780 0.0000 0.1203
# 5 -5.0504 0.9553 8.8660 0.0000 30.1997 0.0000
# 6 0.0000 0.0000 0.0000 0.1203 0.0000 43.9047
#
#
#
# Elastic Compliance Matrix: (Units=1/GPa)
#
#
# Indices 1 2 3 4 5 6 
#
# 1 0.008745 -0.001801 -0.004307 0.000000 0.002784 0.000000
# 2 -0.001801 0.021384 0.001208 0.000000 -0.001332 0.000000
# 3 -0.004307 0.001208 0.018061 0.000000 -0.006061 0.000000
# 4 0.000000 0.000000 0.000000 0.032386 0.000000 -0.000089
# 5 0.002784 -0.001332 -0.006061 0.000000 0.035400 0.000000
# 6 0.000000 0.000000 0.000000 -0.000089 0.000000 0.022777
#
#
# Mechanical properties :
#
#
# Convention : Reuss Voigt Hill
#
# Bulk Modulus (GPa) = 26.04928 35.63033 30.83980
# Shear Modulus (GPa) = 30.98838 34.83004 32.90921
#
# Velocity S-wave (km/s) = 3.91157 4.14695 4.03098
# Velocity P-wave (km/s) = 5.76734 6.36568 6.07388
#
# Compressibility (1/GPa) = 0.03838877
#
# Stress axis : x y z
#
# Youngs Moduli (GPa) = 114.34549 46.76450 55.36748
#
# Poissons Ratio (x) = 0.08425 0.23846
# Poissons Ratio (y) = 0.20599 -0.06686
# Poissons Ratio (z) = 0.49246 -0.05647
#
# Static dielectric constant tensor:
#      x y z
#    x 1.679370 0.000000 -0.009070 
#    y 0.000000 1.675520 0.000000 
#    z -0.009070 0.000000 1.723770 
# 
# From -- ./inp_files/206324.got.cif
#   From: 2010.05.17/outbox.cif.g08.bks.cpg/sg12_104_cif.got.tgz:206324.got - 2010.06.03 13:09:07.
