data_PCOD9217235
_publ_section_title
;
Structure prediction by ZEFSAII (Michael W. Deem and Ramdas Pophale) SiO2 
 PCOD9217235
Probable space group: C 2/M
;
_chemical_formula_sum "Si O2"
_cell_formula_units_Z 34
_cell_length_a 18.801809
_cell_length_b 12.098914
_cell_length_c 7.085104
_cell_angle_alpha 90.000000
_cell_angle_beta 67.504180
_cell_angle_gamma 90.000000
_cell_volume 1489.089236
_symmetry_space_group_name_H-M "C 2/M"
_symmetry_group_IT_number 12
_symmetry_cell_setting 'monoclinic'
loop_
_space_group_symop_operation_xyz
x,y,z
-x,y,-z
-x,-y,-z
x,-y,z
1/2+x,1/2+y,z
1/2-x,1/2+y,-z
1/2-x,1/2-y,-z
1/2+x,1/2-y,z
loop_
_atom_site_type_symbol
_atom_site_label
_atom_site_fract_x
_atom_site_fract_y
_atom_site_fract_z
Si Si1 0.500000 0.500000 0.000000
Si Si2 0.864661 0.785956 0.482169
Si Si3 0.769093 0.123834 0.250399
Si Si4 0.095384 0.174929 0.151959
Si Si5 0.503775 0.874933 0.723215
O O1 0.537503 0.595596 0.100885
O O2 0.828616 0.867839 0.366085
O O3 0.796694 0.711728 0.640483
O O4 0.904861 0.841433 0.621599
O O5 0.921706 0.701164 0.319273
O O6 0.737325 0.000000 0.269677
O O7 0.820335 0.151041 0.016748
O O8 0.069099 0.301565 0.143329
O O9 0.500000 0.881641 0.500000
O O10 0.507573 0.000000 0.789349
#
# Coordination Sequence:
#
# PCOD9217235 Si02
#       5
#     2   8   8   8   8
#     4  12  24  40  64  96 140 170 226 266 324 418
#     4  10  23  42  64  96 130 174 224 271 339 393
#     4  11  23  41  65  94 134 172 222 274 329 409
#     4  11  23  42  65  97 134 174 219 277 338 394
#     4   9  19  39  66  94 125 169 222 276 336 392
#
# _framework density 22.832747999999999
#
# number of rings (size 3 to 8) (size 9 to 14) (size 15 to 20)
#    0.000    1.647    1.176    2.824    1.647    0.941 
#    0.000   12.941    0.000    0.000    0.000    0.000 
#    0.000    0.000    0.000    0.000    0.000    0.000 
#
# Total GULP energy -94826.010106 kJ/mol
# GULP energy per Si atom -5578.000594 kJ/mol
# Density = 2.278078 g / cm^3
# Si number density = 22.832748 Si / 1000 Ang^3
#
#
#
# Elastic Constant Matrix: (Units=GPa)
#
#
# Indices 1 2 3 4 5 6 
#
# 1 51.3759 -2.1160 0.5405 0.0000 25.1671 0.0000
# 2 -2.1160 118.7467 15.1542 0.0000 7.5440 0.0000
# 3 0.5405 15.1542 73.4885 0.0000 25.7940 0.0000
# 4 0.0000 0.0000 0.0000 14.2238 0.0000 7.7137
# 5 25.1671 7.5440 25.7940 0.0000 26.3848 0.0000
# 6 0.0000 0.0000 0.0000 7.7137 0.0000 8.3995
#
#
#
# Elastic Compliance Matrix: (Units=1/GPa)
#
#
# Indices 1 2 3 4 5 6 
#
# 1 0.066142 0.003116 0.032469 0.000000 -0.095722 0.000000
# 2 0.003116 0.008817 0.000133 0.000000 -0.005623 0.000000
# 3 0.032469 0.000133 0.036880 0.000000 -0.067062 0.000000
# 4 0.000000 0.000000 0.000000 0.140059 0.000000 -0.128624
# 5 -0.095722 -0.005623 -0.067062 0.000000 0.196374 0.000000
# 6 0.000000 0.000000 0.000000 -0.128624 0.000000 0.237178
#
#
# Mechanical properties :
#
#
# Convention : Reuss Voigt Hill
#
# Bulk Modulus (GPa) = 5.45631 30.08540 17.77085
# Shear Modulus (GPa) = 7.40624 25.13711 16.27167
#
# Velocity S-wave (km/s) = 1.80298 3.32162 2.67244
# Velocity P-wave (km/s) = 2.59407 5.28355 4.16203
#
# Compressibility (1/GPa) = 0.18327421
#
# Stress axis : x y z
#
# Youngs Moduli (GPa) = 15.11900 113.41555 27.11501
#
# Poissons Ratio (x) = -0.35343 -0.88039
# Poissons Ratio (y) = -0.04711 -0.00359
# Poissons Ratio (z) = -0.49090 -0.01503
#
# Static dielectric constant tensor:
#      x y z
#    x 1.889500 0.000000 -0.006950 
#    y 0.000000 1.809370 0.000000 
#    z -0.006950 0.000000 1.850760 
# 
# From -- ./inp_files/82738.got.cif
#   From: 2010.05.17/outbox.cif.g08.bks.cpg/sg12_42_cif.got.tgz:82738.got - 2010.06.03 13:09:07.
