data_PCOD9217994
_publ_section_title
;
Structure prediction by ZEFSAII (Michael W. Deem and Ramdas Pophale) SiO2 
 PCOD9217994
Probable space group: C 2/M
;
_chemical_formula_sum "Si O2"
_cell_formula_units_Z 36
_cell_length_a 8.844705
_cell_length_b 19.983942
_cell_length_c 9.638749
_cell_angle_alpha 90.000000
_cell_angle_beta 77.678757
_cell_angle_gamma 90.000000
_cell_volume 1664.427439
_symmetry_space_group_name_H-M "C 2/M"
_symmetry_group_IT_number 12
_symmetry_cell_setting 'monoclinic'
loop_
_space_group_symop_operation_xyz
x,y,z
-x,y,-z
-x,-y,-z
x,-y,z
1/2+x,1/2+y,z
1/2-x,1/2+y,-z
1/2-x,1/2-y,-z
1/2+x,1/2-y,z
loop_
_atom_site_type_symbol
_atom_site_label
_atom_site_fract_x
_atom_site_fract_y
_atom_site_fract_z
Si Si1 0.865798 0.500000 0.141843
Si Si2 0.601815 0.000000 0.344172
Si Si3 0.167774 0.878646 0.286049
Si Si4 0.296149 0.224122 0.799773
Si Si5 0.701341 0.621321 0.605750
Si Si6 0.500000 0.757774 0.000000
O O1 0.755067 0.434522 0.177313
O O2 0.975802 0.500000 0.252162
O O3 0.000000 0.500000 0.000000
O O4 0.500000 0.000000 0.500000
O O5 0.710907 0.936083 0.328551
O O6 0.193393 0.803516 0.227033
O O7 0.224603 0.883629 0.435549
O O8 0.981691 0.886155 0.330410
O O9 0.274287 0.188299 0.657520
O O10 0.139582 0.213093 0.916619
O O11 0.434353 0.203599 0.877450
#
# Coordination Sequence:
#
# PCOD9217994 Si02
#       6
#     4   4   8   8   8   4
#     4  12  29  47  71 107 144 188 240 290 358 425
#     4  12  25  47  71 103 140 186 231 300 348 417
#     4  11  24  46  71 104 143 187 232 293 354 424
#     4  11  23  43  68 105 139 189 236 289 354 420
#     4  11  24  45  74 102 140 185 238 290 358 415
#     4  10  24  40  64  96 152 184 224 288 358 410
#
# _framework density 21.629061
#
# number of rings (size 3 to 8) (size 9 to 14) (size 15 to 20)
#    0.000    0.889    4.444    1.333    4.667    3.556 
#    4.000    1.111    0.000    0.000    0.000    0.000 
#    0.000    0.000    0.000    0.000    0.000    0.000 
#
# Total GULP energy -100534.975683 kJ/mol
# GULP energy per Si atom -5585.276427 kJ/mol
# Density = 2.157983 g / cm^3
# Si number density = 21.629061 Si / 1000 Ang^3
#
#
#
# Elastic Constant Matrix: (Units=GPa)
#
#
# Indices 1 2 3 4 5 6 
#
# 1 105.7998 31.8111 29.7027 0.0000 9.9301 0.0000
# 2 31.8111 125.0113 13.3824 0.0000 -13.6911 0.0000
# 3 29.7027 13.3824 78.3433 0.0000 -6.6760 0.0000
# 4 0.0000 0.0000 0.0000 13.6064 0.0000 0.4218
# 5 9.9301 -13.6911 -6.6760 0.0000 41.7173 0.0000
# 6 0.0000 0.0000 0.0000 0.4218 0.0000 14.4865
#
#
#
# Elastic Compliance Matrix: (Units=1/GPa)
#
#
# Indices 1 2 3 4 5 6 
#
# 1 0.012060 -0.003097 -0.004435 0.000000 -0.004597 0.000000
# 2 -0.003097 0.009206 -0.000079 0.000000 0.003746 0.000000
# 3 -0.004435 -0.000079 0.014748 0.000000 0.003390 0.000000
# 4 0.000000 0.000000 0.000000 0.073561 0.000000 -0.002142
# 5 -0.004597 0.003746 0.003390 0.000000 0.026837 0.000000
# 6 0.000000 0.000000 0.000000 -0.002142 0.000000 0.069092
#
#
# Mechanical properties :
#
#
# Convention : Reuss Voigt Hill
#
# Bulk Modulus (GPa) = 48.09705 50.99409 49.54557
# Shear Modulus (GPa) = 21.96285 29.57927 25.77106
#
# Velocity S-wave (km/s) = 3.19004 3.70208 3.45556
# Velocity P-wave (km/s) = 5.98782 6.47315 6.23521
#
# Compressibility (1/GPa) = 0.02079130
#
# Stress axis : x y z
#
# Youngs Moduli (GPa) = 82.92116 108.62253 67.80533
#
# Poissons Ratio (x) = 0.33645 0.30071
# Poissons Ratio (y) = 0.25684 0.00536
# Poissons Ratio (z) = 0.36774 0.00858
#
# Static dielectric constant tensor:
#      x y z
#    x 1.817290 0.000000 -0.005210 
#    y 0.000000 1.797770 0.000000 
#    z -0.005210 0.000000 1.802730 
# 
# From -- ./inp_files/38028.got.cif
#   From: 2010.05.17/outbox.cif.g08.bks.cpg/sg12_20_cif.got.tgz:38028.got - 2010.06.03 13:09:07.
