data_PCOD9217268
_publ_section_title
;
Structure prediction by ZEFSAII (Michael W. Deem and Ramdas Pophale) SiO2 
 PCOD9217268
Probable space group: C 2/M
;
_chemical_formula_sum "Si O2"
_cell_formula_units_Z 40
_cell_length_a 13.131360
_cell_length_b 22.437323
_cell_length_c 8.164818
_cell_angle_alpha 90.000000
_cell_angle_beta 129.080743
_cell_angle_gamma 90.000000
_cell_volume 1867.383560
_symmetry_space_group_name_H-M "C 2/M"
_symmetry_group_IT_number 12
_symmetry_cell_setting 'monoclinic'
loop_
_space_group_symop_operation_xyz
x,y,z
-x,y,-z
-x,-y,-z
x,-y,z
1/2+x,1/2+y,z
1/2-x,1/2+y,-z
1/2-x,1/2-y,-z
1/2+x,1/2-y,z
loop_
_atom_site_type_symbol
_atom_site_label
_atom_site_fract_x
_atom_site_fract_y
_atom_site_fract_z
Si Si1 0.301787 0.682658 0.603560
Si Si2 0.147916 0.067009 0.573835
Si Si3 0.180753 0.335156 0.833374
Si Si4 0.937683 0.208277 0.258245
Si Si5 0.593649 0.066552 0.953256
O O1 0.250000 0.750000 0.500000
O O2 0.303511 0.623610 0.487063
O O3 0.232478 0.666609 0.701868
O O4 0.456855 0.693037 0.771212
O O5 0.259751 0.062989 0.825494
O O6 0.000000 0.073823 0.500000
O O7 0.147597 0.000000 0.492759
O O8 0.092450 0.277765 0.774029
O O9 0.304328 0.325585 0.081041
O O10 0.101115 0.392869 0.802794
O O11 0.000000 0.196677 0.500000
O O12 0.544889 0.000000 0.869357
O O13 0.500000 0.092563 0.000000
#
# Coordination Sequence:
#
# PCOD9217268 Si02
#       5
#     8   8   8   8   8
#     4  12  24  39  64  99 133 169 217 283 327 391
#     4  10  23  44  69  92 129 182 225 271 334 402
#     4  11  25  38  66  94 125 181 209 271 334 393
#     4  11  23  41  59  92 134 168 216 267 329 394
#     4  10  23  42  65  94 129 172 221 272 330 401
#
# _framework density 21.420345000000001
#
# number of rings (size 3 to 8) (size 9 to 14) (size 15 to 20)
#    0.000    1.200    2.000    3.600    5.600    0.800 
#    0.000    0.000    0.000   10.200    0.000    0.000 
#    0.000    0.000    0.000    0.000    0.000    0.000 
#
# Total GULP energy -111523.324139 kJ/mol
# GULP energy per Si atom -5576.166207 kJ/mol
# Density = 2.137159 g / cm^3
# Si number density = 21.420345 Si / 1000 Ang^3
#
#
#
# Elastic Constant Matrix: (Units=GPa)
#
#
# Indices 1 2 3 4 5 6 
#
# 1 104.0179 63.3196 12.7007 0.0000 -27.7028 0.0000
# 2 63.3196 174.0699 23.2866 0.0000 -31.8227 0.0000
# 3 12.7007 23.2866 53.1793 0.0000 -8.7212 0.0000
# 4 0.0000 0.0000 0.0000 -43.7621 0.0000 -2.1438
# 5 -27.7028 -31.8227 -8.7212 0.0000 35.9434 0.0000
# 6 0.0000 0.0000 0.0000 -2.1438 0.0000 37.1220
#
#
#
# Elastic Compliance Matrix: (Units=1/GPa)
#
#
# Indices 1 2 3 4 5 6 
#
# 1 0.013834 -0.003624 -0.000515 0.000000 0.007330 0.000000
# 2 -0.003624 0.008034 -0.002025 0.000000 0.003829 0.000000
# 3 -0.000515 -0.002025 0.020261 0.000000 0.002726 0.000000
# 4 0.000000 0.000000 0.000000 -0.022786 0.000000 -0.001316
# 5 0.007330 0.003829 0.002726 0.000000 0.037522 0.000000
# 6 0.000000 0.000000 0.000000 -0.001316 0.000000 0.026862
#
#
# Mechanical properties :
#
#
# Convention : Reuss Voigt Hill
#
# Bulk Modulus (GPa) = 33.55441 58.87565 46.21503
# Shear Modulus (GPa) = 47.17512 21.32466 34.24989
#
# Velocity S-wave (km/s) = 4.69801 3.15863 4.00302
# Velocity P-wave (km/s) = 6.71768 6.39125 6.55650
#
# Compressibility (1/GPa) = 0.02980234
#
# Stress axis : x y z
#
# Youngs Moduli (GPa) = 72.28307 124.47578 49.35577
#
# Poissons Ratio (x) = 0.45104 0.02544
# Poissons Ratio (y) = 0.26192 0.09992
# Poissons Ratio (z) = 0.03725 0.25201
#
# Static dielectric constant tensor:
#      x y z
#    x 1.812520 0.000000 -0.010140 
#    y 0.000000 1.863500 0.000000 
#    z -0.010140 0.000000 1.813470 
# 
# From -- ./inp_files/63802.got.cif
#   From: 2010.05.17/outbox.cif.g08.bks.cpg/sg12_32_cif.got.tgz:63802.got - 2010.06.03 13:09:07.
