data_PCOD9217661
_publ_section_title
;
Structure prediction by ZEFSAII (Michael W. Deem and Ramdas Pophale) SiO2 
 PCOD9217661
Probable space group: C 2/M
;
_chemical_formula_sum "Si O2"
_cell_formula_units_Z 48
_cell_length_a 12.136652
_cell_length_b 14.802718
_cell_length_c 22.255659
_cell_angle_alpha 90.000000
_cell_angle_beta 141.980177
_cell_angle_gamma 90.000000
_cell_volume 2462.720084
_symmetry_space_group_name_H-M "C 2/M"
_symmetry_group_IT_number 12
_symmetry_cell_setting 'monoclinic'
loop_
_space_group_symop_operation_xyz
x,y,z
-x,y,-z
-x,-y,-z
x,-y,z
1/2+x,1/2+y,z
1/2-x,1/2+y,-z
1/2-x,1/2-y,-z
1/2+x,1/2-y,z
loop_
_atom_site_type_symbol
_atom_site_label
_atom_site_fract_x
_atom_site_fract_y
_atom_site_fract_z
Si Si1 0.251020 0.751307 0.748543
Si Si2 0.608869 0.838786 0.376163
Si Si3 0.684022 0.150063 0.541865
Si Si4 0.053933 0.099080 0.244730
Si Si5 0.351741 0.103670 0.885225
Si Si6 0.651783 0.402668 0.615960
O O1 0.370552 0.680787 0.762826
O O2 0.358751 0.818582 0.838056
O O3 0.147401 0.818872 0.658596
O O4 0.093936 0.695583 0.713411
O O5 0.646897 0.881556 0.457939
O O6 0.739014 0.751577 0.428490
O O7 0.665453 0.897001 0.343554
O O8 0.500000 0.146754 0.500000
O O9 0.833882 0.100307 0.645083
O O10 0.846295 0.110356 0.171245
O O11 0.080486 0.000000 0.227596
O O12 0.371783 0.000000 0.870800
O O13 0.500000 0.116977 0.000000
O O14 0.500000 0.397510 0.500000
O O15 0.633905 0.500000 0.639226
#
# Coordination Sequence:
#
# PCOD9217661 Si02
#       6
#     8   8   8   8   8   8
#     4  12  21  40  63  84 122 158 193 248 302 351
#     4  11  20  33  56  80 119 163 198 236 284 350
#     4  11  19  34  54  82 119 164 202 230 283 338
#     4  11  24  39  59  90 121 156 205 249 291 353
#     4  10  23  44  68  91 114 150 202 254 305 358
#     4  11  23  35  52  84 119 158 201 241 289 350
#
# _framework density 19.490644
#
# number of rings (size 3 to 8) (size 9 to 14) (size 15 to 20)
#    0.000    1.000    5.000    3.000    0.000    2.333 
#    0.000    0.000    0.000    0.500    0.000    0.000 
#    0.000    0.000    0.000    0.000    0.000    0.000 
#
# Total GULP energy -134110.119369 kJ/mol
# GULP energy per Si atom -5587.921640 kJ/mol
# Density = 1.944628 g / cm^3
# Si number density = 19.490644 Si / 1000 Ang^3
#
#
#
# Elastic Constant Matrix: (Units=GPa)
#
#
# Indices 1 2 3 4 5 6 
#
# 1 46.9853 17.1991 12.3421 -0.0001 8.0677 0.0000
# 2 17.1991 122.3496 30.8608 0.0000 -4.9141 0.0000
# 3 12.3421 30.8608 102.3549 -0.0002 4.2335 0.0000
# 4 -0.0001 0.0000 -0.0002 85.8649 -0.0001 -18.3958
# 5 8.0677 -4.9141 4.2335 -0.0001 21.3089 0.0000
# 6 0.0000 0.0000 0.0000 -18.3958 0.0000 9.0115
#
#
#
# Elastic Compliance Matrix: (Units=1/GPa)
#
#
# Indices 1 2 3 4 5 6 
#
# 1 0.024642 -0.003476 -0.001517 0.000000 -0.009830 0.000000
# 2 -0.003476 0.009481 -0.002606 0.000000 0.004020 0.000000
# 3 -0.001517 -0.002606 0.010829 0.000000 -0.002178 0.000000
# 4 0.000000 0.000000 0.000000 0.020699 0.000000 0.042254
# 5 -0.009830 0.004020 -0.002178 0.000000 0.052010 0.000000
# 6 0.000000 0.000000 0.000000 0.042254 0.000000 0.197226
#
#
# Mechanical properties :
#
#
# Convention : Reuss Voigt Hill
#
# Bulk Modulus (GPa) = 33.60882 43.61045 38.60963
# Shear Modulus (GPa) = 14.70583 37.32291 26.01437
#
# Velocity S-wave (km/s) = 2.74981 4.38072 3.65733
# Velocity P-wave (km/s) = 5.23096 6.92902 6.13898
#
# Compressibility (1/GPa) = 0.02975410
#
# Stress axis : x y z
#
# Youngs Moduli (GPa) = 40.58106 105.47793 92.34888
#
# Poissons Ratio (x) = 0.36667 0.14006
# Poissons Ratio (y) = 0.14107 0.24062
# Poissons Ratio (z) = 0.06155 0.27483
#
# Static dielectric constant tensor:
#      x y z
#    x 1.704010 0.000000 -0.016220 
#    y 0.000000 1.743670 0.000000 
#    z -0.016220 0.000000 1.664430 
# 
# From -- ./inp_files/305694.got.cif
#   From: 2010.05.17/outbox.cif.g08.bks.cpg/sg12_153_cif.got.tgz:305694.got - 2010.06.03 13:09:07.
