data_PCOD9217539
_publ_section_title
;
Structure prediction by ZEFSAII (Michael W. Deem and Ramdas Pophale) SiO2 
 PCOD9217539
Probable space group: C 2/M
;
_chemical_formula_sum "Si O2"
_cell_formula_units_Z 56
_cell_length_a 18.721859
_cell_length_b 24.757214
_cell_length_c 5.531264
_cell_angle_alpha 90.000000
_cell_angle_beta 75.256845
_cell_angle_gamma 90.000000
_cell_volume 2479.338876
_symmetry_space_group_name_H-M "C 2/M"
_symmetry_group_IT_number 12
_symmetry_cell_setting 'monoclinic'
loop_
_space_group_symop_operation_xyz
x,y,z
-x,y,-z
-x,-y,-z
x,-y,z
1/2+x,1/2+y,z
1/2-x,1/2+y,-z
1/2-x,1/2-y,-z
1/2+x,1/2-y,z
loop_
_atom_site_type_symbol
_atom_site_label
_atom_site_fract_x
_atom_site_fract_y
_atom_site_fract_z
Si Si1 0.281778 0.771394 0.224115
Si Si2 0.282366 0.879258 0.454528
Si Si3 0.653928 0.941409 0.980693
Si Si4 0.080356 0.350369 0.331831
Si Si5 0.311370 0.438624 0.121970
Si Si6 0.546833 0.615245 0.215175
Si Si7 0.928217 0.236238 0.902490
O O1 0.250000 0.750000 0.500000
O O2 0.272138 0.835772 0.250261
O O3 0.250000 0.750000 0.000000
O O4 0.363181 0.747911 0.144669
O O5 0.319494 0.932853 0.315455
O O6 0.347470 0.854483 0.561273
O O7 0.206722 0.895184 0.651901
O O8 0.619840 0.000000 0.051097
O O9 0.600938 0.892435 0.101683
O O10 0.731827 0.939364 0.057251
O O11 0.074808 0.287796 0.267176
O O12 0.000000 0.366195 0.500000
O O13 0.325793 0.500000 0.196139
O O14 0.379437 0.419904 0.897052
O O15 0.500000 0.601352 0.500000
O O16 0.573093 0.677698 0.218230
O O17 0.500000 0.611348 0.000000
O O18 0.000000 0.238725 0.000000
#
# Coordination Sequence:
#
# PCOD9217539 Si02
#       7
#     8   8   8   8   8   8   8
#     4  12  26  41  69 104 140 181 234 293 345 418
#     4  11  23  43  67 103 137 183 234 296 355 425
#     4  10  23  43  67  99 135 179 238 295 358 418
#     4  11  23  41  68  97 137 186 238 284 349 426
#     4  10  24  46  74 101 138 190 236 298 364 426
#     4  11  27  46  70 106 145 187 238 297 359 429
#     4  11  24  45  68  99 141 191 228 285 360 433
#
# _framework density 22.586666999999998
#
# number of rings (size 3 to 8) (size 9 to 14) (size 15 to 20)
#    0.000    1.143    1.429    3.429    6.000    4.857 
#    0.000    0.714    0.000    0.000    0.000    0.000 
#    0.000    0.000    0.000    0.000    0.000    0.000 
#
# Total GULP energy -156396.845441 kJ/mol
# GULP energy per Si atom -5585.601623 kJ/mol
# Density = 2.253526 g / cm^3
# Si number density = 22.586667 Si / 1000 Ang^3
#
#
#
# Elastic Constant Matrix: (Units=GPa)
#
#
# Indices 1 2 3 4 5 6 
#
# 1 72.2769 39.1992 48.4525 0.0000 -36.5425 0.0000
# 2 39.1992 113.2454 38.8927 0.0000 -6.6014 0.0000
# 3 48.4525 38.8927 138.8076 0.0000 -41.1169 0.0000
# 4 0.0000 0.0000 0.0000 46.1155 0.0000 -30.0909
# 5 -36.5425 -6.6014 -41.1169 0.0000 48.1133 0.0000
# 6 0.0000 0.0000 0.0000 -30.0909 0.0000 56.9467
#
#
#
# Elastic Compliance Matrix: (Units=1/GPa)
#
#
# Indices 1 2 3 4 5 6 
#
# 1 0.029778 -0.008394 -0.002255 0.000000 0.019538 0.000000
# 2 -0.008394 0.012202 -0.002519 0.000000 -0.006854 0.000000
# 3 -0.002255 -0.002519 0.010829 0.000000 0.007196 0.000000
# 4 0.000000 0.000000 0.000000 0.033096 0.000000 0.017488
# 5 0.019538 -0.006854 0.007196 0.000000 0.040832 0.000000
# 6 0.000000 0.000000 0.000000 0.017488 0.000000 0.026801
#
#
# Mechanical properties :
#
#
# Convention : Reuss Voigt Hill
#
# Bulk Modulus (GPa) = 37.77566 64.15763 50.96665
# Shear Modulus (GPa) = 26.49744 43.42081 34.95912
#
# Velocity S-wave (km/s) = 3.42884 4.38929 3.93845
# Velocity P-wave (km/s) = 5.69535 7.35898 6.57995
#
# Compressibility (1/GPa) = 0.02647207
#
# Stress axis : x y z
#
# Youngs Moduli (GPa) = 33.58171 81.95708 92.34811
#
# Poissons Ratio (x) = 0.68796 0.20825
# Poissons Ratio (y) = 0.28189 0.23262
# Poissons Ratio (z) = 0.07573 0.20644
#
# Static dielectric constant tensor:
#      x y z
#    x 1.784210 0.000000 -0.002840 
#    y 0.000000 1.906920 0.000000 
#    z -0.002840 0.000000 1.904970 
# 
# From -- ./inp_files/21840.got.cif
#   From: 2010.05.17/outbox.cif.g08.bks.cpg/sg12_11_cif.got.tgz:21840.got - 2010.06.03 13:09:07.
