data_PCOD9217857
_publ_section_title
;
Structure prediction by ZEFSAII (Michael W. Deem and Ramdas Pophale) SiO2 
 PCOD9217857
Probable space group: C 2/M
;
_chemical_formula_sum "Si O2"
_cell_formula_units_Z 28
_cell_length_a 13.495373
_cell_length_b 17.401999
_cell_length_c 7.682484
_cell_angle_alpha 90.000000
_cell_angle_beta 39.708161
_cell_angle_gamma 90.000000
_cell_volume 1152.665309
_symmetry_space_group_name_H-M "C 2/M"
_symmetry_group_IT_number 12
_symmetry_cell_setting 'monoclinic'
loop_
_space_group_symop_operation_xyz
x,y,z
-x,y,-z
-x,-y,-z
x,-y,z
1/2+x,1/2+y,z
1/2-x,1/2+y,-z
1/2-x,1/2-y,-z
1/2+x,1/2-y,z
loop_
_atom_site_type_symbol
_atom_site_label
_atom_site_fract_x
_atom_site_fract_y
_atom_site_fract_z
Si Si1 0.273871 0.412261 0.009752
Si Si2 0.443746 0.686018 0.262270
Si Si3 0.816769 0.412235 0.269004
Si Si4 0.500000 0.802468 0.500000
O O1 0.243844 0.500000 0.101220
O O2 0.146015 0.355661 0.260162
O O3 0.441058 0.384185 0.845393
O O4 0.258338 0.407327 0.821662
O O5 0.272273 0.650193 0.496043
O O6 0.466948 0.748112 0.380701
O O7 0.500000 0.715546 0.000000
O O8 0.796975 0.500000 0.361306
O O9 0.000000 0.399504 0.000000
#
# Coordination Sequence:
#
# PCOD9217857 Si02
#       4
#     8   8   8   4
#     4  11  25  49  78 107 149 199 249 306 368 439
#     4  12  27  47  80 110 152 197 247 301 377 442
#     4  10  23  46  76 113 152 195 250 308 368 441
#     4  12  27  50  73 112 154 194 244 314 365 442
#
# _framework density 24.291526999999999
#
# number of rings (size 3 to 8) (size 9 to 14) (size 15 to 20)
#    0.000    0.857    2.857    2.143    4.000    6.857 
#    0.000    0.000    0.000    0.857    0.000    0.000 
#    0.000    0.000    0.000    0.000    0.000    0.000 
#
# Total GULP energy -78620.713082 kJ/mol
# GULP energy per Si atom -5615.765220 kJ/mol
# Density = 2.423624 g / cm^3
# Si number density = 24.291527 Si / 1000 Ang^3
#
#
#
# Elastic Constant Matrix: (Units=GPa)
#
#
# Indices 1 2 3 4 5 6 
#
# 1 90.4403 45.8392 39.1369 -0.0001 10.4492 0.0001
# 2 45.8392 177.5932 90.5034 -0.0001 15.3352 0.0000
# 3 39.1369 90.5034 152.6660 -0.0002 5.5647 0.0002
# 4 -0.0001 -0.0001 -0.0002 57.0961 0.0001 4.0724
# 5 10.4492 15.3352 5.5647 0.0001 47.6091 -0.0001
# 6 0.0001 0.0000 0.0002 4.0724 -0.0001 31.8008
#
#
#
# Elastic Compliance Matrix: (Units=1/GPa)
#
#
# Indices 1 2 3 4 5 6 
#
# 1 0.013286 -0.002236 -0.002009 0.000000 -0.001961 0.000000
# 2 -0.002236 0.008649 -0.004489 0.000000 -0.001770 0.000000
# 3 -0.002009 -0.004489 0.009699 0.000000 0.000753 0.000000
# 4 0.000000 0.000000 0.000000 0.017676 0.000000 -0.002264
# 5 -0.001961 -0.001770 0.000753 0.000000 0.021917 0.000000
# 6 0.000000 0.000000 0.000000 -0.002264 0.000000 0.031736
#
#
# Mechanical properties :
#
#
# Convention : Reuss Voigt Hill
#
# Bulk Modulus (GPa) = 70.59525 85.73984 78.16754
# Shear Modulus (GPa) = 39.95102 43.64921 41.80011
#
# Velocity S-wave (km/s) = 4.05983 4.24357 4.15272
# Velocity P-wave (km/s) = 7.14850 7.70606 7.43251
#
# Compressibility (1/GPa) = 0.01416526
#
# Stress axis : x y z
#
# Youngs Moduli (GPa) = 75.26523 115.62374 103.10220
#
# Poissons Ratio (x) = 0.25857 0.20711
# Poissons Ratio (y) = 0.16832 0.46286
# Poissons Ratio (z) = 0.15119 0.51907
#
# Static dielectric constant tensor:
#      x y z
#    x 1.919030 0.000000 -0.002160 
#    y 0.000000 1.882230 0.000000 
#    z -0.002160 0.000000 1.927250 
# 
# From -- ./inp_files/58876.got.cif
#   From: 2010.05.17/outbox.cif.g08.bks.cpg/sg12_30_cif.got.tgz:58876.got - 2010.06.03 13:09:07.
