data_PCOD9217208
_publ_section_title
;
Structure prediction by ZEFSAII (Michael W. Deem and Ramdas Pophale) SiO2 
 PCOD9217208
Probable space group: C 2/M
;
_chemical_formula_sum "Si O2"
_cell_formula_units_Z 64
_cell_length_a 29.951451
_cell_length_b 15.915600
_cell_length_c 9.517819
_cell_angle_alpha 90.000000
_cell_angle_beta 37.920808
_cell_angle_gamma 90.000000
_cell_volume 2788.373218
_symmetry_space_group_name_H-M "C 2/M"
_symmetry_group_IT_number 12
_symmetry_cell_setting 'monoclinic'
loop_
_space_group_symop_operation_xyz
x,y,z
-x,y,-z
-x,-y,-z
x,-y,z
1/2+x,1/2+y,z
1/2-x,1/2+y,-z
1/2-x,1/2-y,-z
1/2+x,1/2-y,z
loop_
_atom_site_type_symbol
_atom_site_label
_atom_site_fract_x
_atom_site_fract_y
_atom_site_fract_z
Si Si1 0.286387 0.099436 0.828426
Si Si2 0.113697 0.901752 0.265301
Si Si3 0.404496 0.841735 0.334940
Si Si4 0.693120 0.595229 0.562748
Si Si5 0.419112 0.663184 0.955285
Si Si6 0.569185 0.350787 0.675017
Si Si7 0.445117 0.139463 0.923092
Si Si8 0.682163 0.903659 0.942029
O O1 0.328839 0.143866 0.598019
O O2 0.304440 0.000000 0.774579
O O3 0.200228 0.107656 0.034769
O O4 0.311349 0.133877 0.919105
O O5 0.088875 0.849220 0.461247
O O6 0.097315 0.000000 0.332722
O O7 0.079458 0.873183 0.204141
O O8 0.421811 0.742510 0.283916
O O9 0.410619 0.877119 0.162701
O O10 0.469850 0.879269 0.267952
O O11 0.709275 0.500000 0.569650
O O12 0.657402 0.644072 0.780753
O O13 0.629710 0.594844 0.602325
O O14 0.763319 0.633707 0.310527
O O15 0.435265 0.761809 0.914865
O O16 0.484864 0.623077 0.883120
O O17 0.398375 0.096081 0.919430
O O18 0.708534 0.000000 0.892096
#
# Coordination Sequence:
#
# PCOD9217208 Si02
#       8
#     8   8   8   8   8   8   8   8
#     4  10  23  43  64  89 122 159 200 248 302 362
#     4  11  24  41  60  90 127 161 204 252 296 351
#     4  10  23  42  65  91 121 158 199 247 305 362
#     4  11  22  39  62  89 122 161 203 247 297 355
#     4  11  24  39  60  92 124 160 204 249 296 354
#     4  11  22  41  62  87 125 162 202 248 297 355
#     4  10  23  43  63  91 125 154 197 254 302 358
#     4  10  23  42  64  91 122 157 199 249 303 360
#
# _framework density 22.952451
#
# number of rings (size 3 to 8) (size 9 to 14) (size 15 to 20)
#    0.000    1.500    2.500    1.500    3.500    6.500 
#    0.000    2.500    0.000    0.000    0.000    0.000 
#    0.000    0.000    0.000    0.000    0.000    0.000 
#
# Total GULP energy -178962.890347 kJ/mol
# GULP energy per Si atom -5592.590323 kJ/mol
# Density = 2.290021 g / cm^3
# Si number density = 22.952451 Si / 1000 Ang^3
#
#
#
# Elastic Constant Matrix: (Units=GPa)
#
#
# Indices 1 2 3 4 5 6 
#
# 1 81.0716 2.4262 -14.4603 0.0000 2.5108 0.0000
# 2 2.4262 21.5112 -0.7173 0.0000 -2.6836 0.0000
# 3 -14.4603 -0.7173 53.5244 0.0000 -0.6202 0.0000
# 4 0.0000 0.0000 0.0000 33.6698 0.0000 3.1354
# 5 2.5108 -2.6836 -0.6202 0.0000 28.4292 0.0000
# 6 0.0000 0.0000 0.0000 3.1354 0.0000 0.8057
#
#
#
# Elastic Compliance Matrix: (Units=1/GPa)
#
#
# Indices 1 2 3 4 5 6 
#
# 1 0.013040 -0.001506 0.003489 0.000000 -0.001218 0.000000
# 2 -0.001506 0.047240 0.000279 0.000000 0.004598 0.000000
# 3 0.003489 0.000279 0.019631 0.000000 0.000147 0.000000
# 4 0.000000 0.000000 0.000000 0.046579 0.000000 -0.181257
# 5 -0.001218 0.004598 0.000147 0.000000 0.035720 0.000000
# 6 0.000000 0.000000 0.000000 -0.181257 0.000000 1.946440
#
#
# Mechanical properties :
#
#
# Convention : Reuss Voigt Hill
#
# Bulk Modulus (GPa) = 11.84351 14.51161 13.17756
# Shear Modulus (GPa) = 2.34492 23.83820 13.09156
#
# Velocity S-wave (km/s) = 1.01186 3.22621 2.39085
# Velocity P-wave (km/s) = 2.55663 4.49601 3.65722
#
# Compressibility (1/GPa) = 0.08443440
#
# Stress axis : x y z
#
# Youngs Moduli (GPa) = 76.68829 21.16838 50.93987
#
# Poissons Ratio (x) = 0.03189 -0.17771
# Poissons Ratio (y) = 0.11552 -0.01423
# Poissons Ratio (z) = -0.26753 -0.00592
#
# Static dielectric constant tensor:
#      x y z
#    x 1.848790 0.000000 -0.003140 
#    y 0.000000 1.855810 0.000000 
#    z -0.003140 0.000000 1.857550 
# 
# From -- ./inp_files/112849.got.cif
#   From: 2010.05.17/outbox.cif.g08.bks.cpg/sg12_57_cif.got.tgz:112849.got - 2010.06.03 13:09:07.
