data_PCOD9217680
_publ_section_title
;
Structure prediction by ZEFSAII (Michael W. Deem and Ramdas Pophale) SiO2 
 PCOD9217680
Probable space group: C 2/M
;
_chemical_formula_sum "Si O2"
_cell_formula_units_Z 64
_cell_length_a 12.202791
_cell_length_b 25.738833
_cell_length_c 14.165414
_cell_angle_alpha 90.000000
_cell_angle_beta 138.352083
_cell_angle_gamma 90.000000
_cell_volume 2956.690427
_symmetry_space_group_name_H-M "C 2/M"
_symmetry_group_IT_number 12
_symmetry_cell_setting 'monoclinic'
loop_
_space_group_symop_operation_xyz
x,y,z
-x,y,-z
-x,-y,-z
x,-y,z
1/2+x,1/2+y,z
1/2-x,1/2+y,-z
1/2-x,1/2-y,-z
1/2+x,1/2-y,z
loop_
_atom_site_type_symbol
_atom_site_label
_atom_site_fract_x
_atom_site_fract_y
_atom_site_fract_z
Si Si1 0.676988 0.060700 0.082308
Si Si2 0.766032 0.123726 0.979092
Si Si3 0.219491 0.368465 0.541041
Si Si4 0.999701 0.705367 0.113221
Si Si5 0.150898 0.770492 0.668954
Si Si6 0.158854 0.647295 0.711625
Si Si7 0.507942 0.693903 0.771430
Si Si8 0.485178 0.437375 0.601881
O O1 0.838905 0.080129 0.241200
O O2 0.670312 0.000000 0.098936
O O3 0.500000 0.083572 0.000000
O O4 0.710392 0.071056 0.993767
O O5 0.628436 0.164367 0.928957
O O6 0.765218 0.126916 0.866925
O O7 0.934724 0.143048 0.134991
O O8 0.194415 0.381666 0.636082
O O9 0.323013 0.314852 0.614957
O O10 0.333756 0.407296 0.554322
O O11 0.034097 0.360191 0.385790
O O12 0.189840 0.699049 0.266290
O O13 0.958806 0.760341 0.134093
O O14 0.000000 0.708150 0.000000
O O15 0.185099 0.709121 0.711333
O O16 0.109622 0.794811 0.743342
O O17 0.000000 0.773894 0.500000
O O18 0.500000 0.427141 0.500000
O O19 0.466331 0.500000 0.603171
#
# Coordination Sequence:
#
# PCOD9217680 Si02
#       8
#     8   8   8   8   8   8   8   8
#     4  10  23  44  68  97 132 165 207 270 338 397
#     4  12  24  40  63  95 125 170 223 269 326 392
#     4  11  24  44  65  98 129 171 223 269 326 391
#     4  12  23  38  60  88 129 168 224 277 323 381
#     4  12  24  41  58  88 128 177 221 273 329 378
#     4  11  24  43  64  91 135 178 217 263 325 393
#     4  12  24  39  61  91 125 171 226 275 323 385
#     4  10  23  47  76 102 130 167 214 275 338 392
#
# _framework density 21.645824999999999
#
# number of rings (size 3 to 8) (size 9 to 14) (size 15 to 20)
#    0.000    0.750    6.250    1.500    3.500    1.500 
#    0.000    1.875    0.000    1.500    0.000    0.000 
#    0.000    0.000    0.000    0.000    0.000    0.000 
#
# Total GULP energy -178816.751572 kJ/mol
# GULP energy per Si atom -5588.023487 kJ/mol
# Density = 2.159656 g / cm^3
# Si number density = 21.645825 Si / 1000 Ang^3
#
#
#
# Elastic Constant Matrix: (Units=GPa)
#
#
# Indices 1 2 3 4 5 6 
#
# 1 89.1472 19.3022 22.8896 0.0000 3.7750 0.0000
# 2 19.3022 37.1448 6.5479 0.0000 1.9161 0.0000
# 3 22.8896 6.5479 92.3215 0.0000 -1.7014 0.0000
# 4 0.0000 0.0000 0.0000 15.0292 0.0000 3.4085
# 5 3.7750 1.9161 -1.7014 0.0000 47.5953 0.0000
# 6 0.0000 0.0000 0.0000 3.4085 0.0000 30.2775
#
#
#
# Elastic Compliance Matrix: (Units=1/GPa)
#
#
# Indices 1 2 3 4 5 6 
#
# 1 0.013381 -0.006399 -0.002880 0.000000 -0.000907 0.000000
# 2 -0.006399 0.030387 -0.000582 0.000000 -0.000737 0.000000
# 3 -0.002880 -0.000582 0.011599 0.000000 0.000667 0.000000
# 4 0.000000 0.000000 0.000000 0.068280 0.000000 -0.007687
# 5 -0.000907 -0.000737 0.000667 0.000000 0.021136 0.000000
# 6 0.000000 0.000000 0.000000 -0.007687 0.000000 0.033893
#
#
# Mechanical properties :
#
#
# Convention : Reuss Voigt Hill
#
# Bulk Modulus (GPa) = 28.05472 35.12146 31.58809
# Shear Modulus (GPa) = 23.77760 29.90531 26.84145
#
# Velocity S-wave (km/s) = 3.31793 3.72099 3.52522
# Velocity P-wave (km/s) = 5.25996 5.89251 5.58520
#
# Compressibility (1/GPa) = 0.03564463
#
# Stress axis : x y z
#
# Youngs Moduli (GPa) = 74.73363 32.90830 86.21095
#
# Poissons Ratio (x) = 0.21057 0.24833
# Poissons Ratio (y) = 0.47821 0.05020
# Poissons Ratio (z) = 0.21527 0.01916
#
# Static dielectric constant tensor:
#      x y z
#    x 1.816770 0.000000 0.043010 
#    y 0.000000 1.789290 0.000000 
#    z 0.043010 0.000000 1.808530 
# 
# From -- ./inp_files/209418.got.cif
#   From: 2010.05.17/outbox.cif.g08.bks.cpg/sg12_105_cif.got.tgz:209418.got - 2010.06.03 13:09:07.
