data_PCOD9217858
_publ_section_title
;
Structure prediction by ZEFSAII (Michael W. Deem and Ramdas Pophale) SiO2 
 PCOD9217858
Probable space group: C 2/M
;
_chemical_formula_sum "Si O2"
_cell_formula_units_Z 40
_cell_length_a 14.735307
_cell_length_b 14.969537
_cell_length_c 8.676340
_cell_angle_alpha 90.000000
_cell_angle_beta 127.596608
_cell_angle_gamma 90.000000
_cell_volume 1516.379473
_symmetry_space_group_name_H-M "C 2/M"
_symmetry_group_IT_number 12
_symmetry_cell_setting 'monoclinic'
loop_
_space_group_symop_operation_xyz
x,y,z
-x,y,-z
-x,-y,-z
x,-y,z
1/2+x,1/2+y,z
1/2-x,1/2+y,-z
1/2-x,1/2-y,-z
1/2+x,1/2-y,z
loop_
_atom_site_type_symbol
_atom_site_label
_atom_site_fract_x
_atom_site_fract_y
_atom_site_fract_z
Si Si1 0.067933 0.145002 0.930857
Si Si2 0.318855 0.891509 0.274972
Si Si3 0.120914 0.256002 0.430071
Si Si4 0.583761 0.898073 0.950993
Si Si5 0.347228 0.404350 0.311900
O O1 0.195601 0.158143 0.131532
O O2 0.980386 0.224354 0.789677
O O3 0.099395 0.097452 0.803465
O O4 0.000000 0.098774 0.000000
O O5 0.380244 0.852709 0.489527
O O6 0.304426 0.000000 0.263732
O O7 0.386150 0.864060 0.189911
O O8 0.250000 0.250000 0.500000
O O9 0.210622 0.398715 0.155596
O O10 0.114871 0.181100 0.555687
O O11 0.545506 0.000000 0.881978
O O12 0.500000 0.866629 0.000000
O O13 0.374175 0.500000 0.415253
#
# Coordination Sequence:
#
# PCOD9217858 Si02
#       5
#     8   8   8   8   8
#     4  11  23  47  78 109 152 202 256 325 395 461
#     4  10  23  46  78 115 154 206 267 323 386 470
#     4  12  26  48  70 114 158 202 258 327 394 464
#     4   8  16  38  71 107 145 194 254 315 382 461
#     4  10  24  46  73 110 154 200 259 327 392 465
#
# _framework density 26.378622
#
# number of rings (size 3 to 8) (size 9 to 14) (size 15 to 20)
#    0.000    1.800    2.000    2.400    0.000    8.000 
#   10.800    0.000    0.000    4.200    0.000    0.000 
#    0.000    0.000    0.000    0.000    0.000    0.000 
#
# Total GULP energy -111757.254779 kJ/mol
# GULP energy per Si atom -5587.862739 kJ/mol
# Density = 2.631858 g / cm^3
# Si number density = 26.378622 Si / 1000 Ang^3
#
#
#
# Elastic Constant Matrix: (Units=GPa)
#
#
# Indices 1 2 3 4 5 6 
#
# 1 269.6499 51.0556 87.4063 0.0000 -10.1658 0.0000
# 2 51.0556 122.7827 59.4185 0.0000 -4.3719 0.0000
# 3 87.4063 59.4185 95.6241 0.0000 4.9505 0.0000
# 4 0.0000 0.0000 0.0000 -23.6387 0.0000 -4.5226
# 5 -10.1658 -4.3719 4.9505 0.0000 74.6277 0.0000
# 6 0.0000 0.0000 0.0000 -4.5226 0.0000 24.1470
#
#
#
# Elastic Compliance Matrix: (Units=1/GPa)
#
#
# Indices 1 2 3 4 5 6 
#
# 1 0.005359 0.000298 -0.005140 0.000000 0.001088 0.000000
# 2 0.000298 0.011765 -0.007647 0.000000 0.001237 0.000000
# 3 -0.005140 -0.007647 0.020036 0.000000 -0.002477 0.000000
# 4 0.000000 0.000000 0.000000 -0.040840 0.000000 -0.007649
# 5 0.001088 0.001237 -0.002477 0.000000 0.013785 0.000000
# 6 0.000000 0.000000 0.000000 -0.007649 0.000000 0.039980
#
#
# Mechanical properties :
#
#
# Convention : Reuss Voigt Hill
#
# Bulk Modulus (GPa) = 82.08859 98.20192 90.14526
# Shear Modulus (GPa) = 63.19159 34.37231 48.78195
#
# Velocity S-wave (km/s) = 4.89976 3.61368 4.30501
# Velocity P-wave (km/s) = 7.94966 7.39731 7.67845
#
# Compressibility (1/GPa) = 0.01218196
#
# Stress axis : x y z
#
# Youngs Moduli (GPa) = 186.59070 84.99599 49.91083
#
# Poissons Ratio (x) = -0.02530 0.25655
# Poissons Ratio (y) = -0.05555 0.38166
# Poissons Ratio (z) = 0.95909 0.64995
#
# Static dielectric constant tensor:
#      x y z
#    x 2.058680 0.000000 0.041620 
#    y 0.000000 2.099360 0.000000 
#    z 0.041620 0.000000 2.083590 
# 
# From -- ./inp_files/59084.got.cif
#   From: 2010.05.17/outbox.cif.g08.bks.cpg/sg12_30_cif.got.tgz:59084.got - 2010.06.03 13:09:07.
