data_PCOD9217282
_publ_section_title
;
Structure prediction by ZEFSAII (Michael W. Deem and Ramdas Pophale) SiO2 
 PCOD9217282
Probable space group: C 2/M
;
_chemical_formula_sum "Si O2"
_cell_formula_units_Z 40
_cell_length_a 19.297911
_cell_length_b 8.527484
_cell_length_c 11.962560
_cell_angle_alpha 90.000000
_cell_angle_beta 104.751011
_cell_angle_gamma 90.000000
_cell_volume 1903.708413
_symmetry_space_group_name_H-M "C 2/M"
_symmetry_group_IT_number 12
_symmetry_cell_setting 'monoclinic'
loop_
_space_group_symop_operation_xyz
x,y,z
-x,y,-z
-x,-y,-z
x,-y,z
1/2+x,1/2+y,z
1/2-x,1/2+y,-z
1/2-x,1/2-y,-z
1/2+x,1/2-y,z
loop_
_atom_site_type_symbol
_atom_site_label
_atom_site_fract_x
_atom_site_fract_y
_atom_site_fract_z
Si Si1 0.810736 0.815507 0.107929
Si Si2 0.855990 0.313578 0.716210
Si Si3 0.069021 0.814237 0.458199
Si Si4 0.200875 0.316081 0.649577
Si Si5 0.083998 0.686499 0.017090
O O1 0.807628 0.725623 0.223391
O O2 0.799762 0.000000 0.123205
O O3 0.750000 0.750000 0.000000
O O4 0.884250 0.781967 0.072909
O O5 0.846023 0.500000 0.708846
O O6 0.918255 0.266276 0.655984
O O7 0.781596 0.232976 0.651600
O O8 0.876163 0.269429 0.851285
O O9 0.140259 0.777265 0.558142
O O10 0.000000 0.758403 0.500000
O O11 0.061647 0.000000 0.438154
O O12 0.190825 0.500000 0.625049
O O13 0.096291 0.500000 0.002852
O O14 0.000000 0.710451 0.000000
#
# Coordination Sequence:
#
# PCOD9217282 Si02
#       5
#     8   8   8   8   8
#     4  12  24  41  66  98 133 170 215 263 319 381
#     4  11  23  42  68  96 131 171 217 267 319 384
#     4  11  26  46  67  95 131 168 214 269 325 384
#     4  12  25  43  69  96 129 171 217 267 321 383
#     4  10  23  42  65  97 134 173 215 263 318 380
#
# _framework density 21.011621000000002
#
# number of rings (size 3 to 8) (size 9 to 14) (size 15 to 20)
#    0.000    0.800    2.000    5.400    2.800    2.800 
#    0.000    0.000    0.000    0.000    0.000    0.000 
#    0.000    0.000    0.000    0.000    0.000    0.000 
#
# Total GULP energy -111985.246197 kJ/mol
# GULP energy per Si atom -5599.262310 kJ/mol
# Density = 2.096380 g / cm^3
# Si number density = 21.011621 Si / 1000 Ang^3
#
#
#
# Elastic Constant Matrix: (Units=GPa)
#
#
# Indices 1 2 3 4 5 6 
#
# 1 96.4784 7.4754 7.0457 0.0000 -18.5280 0.0000
# 2 7.4754 25.4305 -13.1778 0.0000 -7.6168 0.0000
# 3 7.0457 -13.1778 54.9129 0.0000 -18.5871 0.0000
# 4 0.0000 0.0000 0.0000 26.1859 0.0000 -9.0193
# 5 -18.5280 -7.6168 -18.5871 0.0000 41.2438 0.0000
# 6 0.0000 0.0000 0.0000 -9.0193 0.0000 33.6837
#
#
#
# Elastic Compliance Matrix: (Units=1/GPa)
#
#
# Indices 1 2 3 4 5 6 
#
# 1 0.011441 -0.002269 -0.000489 0.000000 0.004500 0.000000
# 2 -0.002269 0.055714 0.019822 0.000000 0.018203 0.000000
# 3 -0.000489 0.019822 0.028550 0.000000 0.016308 0.000000
# 4 0.000000 0.000000 0.000000 0.042068 0.000000 0.011264
# 5 0.004500 0.018203 0.016308 0.000000 0.036979 0.000000
# 6 0.000000 0.000000 0.000000 0.011264 0.000000 0.032704
#
#
# Mechanical properties :
#
#
# Convention : Reuss Voigt Hill
#
# Bulk Modulus (GPa) = 7.70214 19.94537 13.82375
# Shear Modulus (GPa) = 23.08358 31.92125 27.50242
#
# Velocity S-wave (km/s) = 3.31812 3.90194 3.62182
# Velocity P-wave (km/s) = 4.28410 5.46016 4.90749
#
# Compressibility (1/GPa) = 0.12983400
#
# Stress axis : x y z
#
# Youngs Moduli (GPa) = 87.40697 17.94891 35.02607
#
# Poissons Ratio (x) = 0.04072 0.01713
# Poissons Ratio (y) = 0.19830 -0.69430
# Poissons Ratio (z) = 0.04275 -0.35579
#
# Static dielectric constant tensor:
#      x y z
#    x 1.759590 0.000000 -0.011240 
#    y 0.000000 1.706060 0.000000 
#    z -0.011240 0.000000 1.741820 
# 
# From -- ./inp_files/151657.got.cif
#   From: 2010.05.17/outbox.cif.g08.bks.cpg/sg12_76_cif.got.tgz:151657.got - 2010.06.03 13:09:07.
