data_PCOD9217941
_publ_section_title
;
Structure prediction by ZEFSAII (Michael W. Deem and Ramdas Pophale) SiO2 
 PCOD9217941
Probable space group: C 2/M
;
_chemical_formula_sum "Si O2"
_cell_formula_units_Z 48
_cell_length_a 9.059836
_cell_length_b 16.445523
_cell_length_c 13.550045
_cell_angle_alpha 90.000000
_cell_angle_beta 101.997227
_cell_angle_gamma 90.000000
_cell_volume 1974.775017
_symmetry_space_group_name_H-M "C 2/M"
_symmetry_group_IT_number 12
_symmetry_cell_setting 'monoclinic'
loop_
_space_group_symop_operation_xyz
x,y,z
-x,y,-z
-x,-y,-z
x,-y,z
1/2+x,1/2+y,z
1/2-x,1/2+y,-z
1/2-x,1/2-y,-z
1/2+x,1/2-y,z
loop_
_atom_site_type_symbol
_atom_site_label
_atom_site_fract_x
_atom_site_fract_y
_atom_site_fract_z
Si Si1 0.212299 0.327308 0.928704
Si Si2 0.591135 0.643553 0.674985
Si Si3 0.608806 0.867651 0.349587
Si Si4 0.600947 0.500000 0.412018
Si Si5 0.822817 0.000000 0.938462
Si Si6 0.453040 0.262925 0.813457
Si Si7 0.650529 0.000000 0.700253
Si Si8 0.500000 0.773873 0.500000
O O1 0.249440 0.417169 0.969985
O O2 0.329903 0.313637 0.854494
O O3 0.038000 0.309573 0.881836
O O4 0.250000 0.250000 0.000000
O O5 0.452469 0.583140 0.645895
O O6 0.581799 0.679973 0.783430
O O7 0.572049 0.715531 0.592089
O O8 0.737616 0.592675 0.664880
O O9 0.616445 0.784769 0.287281
O O10 0.613375 0.835124 0.461276
O O11 0.461305 0.921597 0.309828
O O12 0.500000 0.500000 0.500000
O O13 0.775167 0.500000 0.399319
O O14 0.766653 0.000000 0.812109
O O15 0.000000 0.000000 0.000000
#
# Coordination Sequence:
#
# PCOD9217941 Si02
#       8
#     8   8   8   4   4   8   4   4
#     4  12  25  48  76 110 146 191 246 315 383 462
#     4  11  23  44  68  99 147 193 248 301 366 438
#     4  11  24  43  71 101 143 188 246 307 367 435
#     4  12  27  42  67 103 151 196 248 306 368 447
#     4  12  26  49  77 110 148 193 251 311 390 461
#     4  11  23  44  73 104 140 187 247 301 374 446
#     4  12  27  48  73 104 147 192 250 314 380 451
#     4  10  24  38  70 102 140 192 248 294 370 436
#
# _framework density 24.306567999999999
#
# number of rings (size 3 to 8) (size 9 to 14) (size 15 to 20)
#    0.000    0.667    4.167    3.500    2.333    1.667 
#    0.000    2.500    0.000    0.000    0.000    0.000 
#    0.000    0.000    0.000    0.000    0.000    0.000 
#
# Total GULP energy -133858.284772 kJ/mol
# GULP energy per Si atom -5577.428532 kJ/mol
# Density = 2.425125 g / cm^3
# Si number density = 24.306568 Si / 1000 Ang^3
#
#
#
# Elastic Constant Matrix: (Units=GPa)
#
#
# Indices 1 2 3 4 5 6 
#
# 1 96.1842 19.0693 6.1948 0.0000 -5.9129 0.0000
# 2 19.0693 140.1011 24.9348 0.0000 0.7010 0.0000
# 3 6.1948 24.9348 61.9736 0.0000 -4.5526 0.0000
# 4 0.0000 0.0000 0.0000 13.2860 0.0000 -7.4703
# 5 -5.9129 0.7010 -4.5526 0.0000 41.6337 0.0000
# 6 0.0000 0.0000 0.0000 -7.4703 0.0000 18.4730
#
#
#
# Elastic Compliance Matrix: (Units=1/GPa)
#
#
# Indices 1 2 3 4 5 6 
#
# 1 0.010794 -0.001405 -0.000402 0.000000 0.001513 0.000000
# 2 -0.001405 0.007880 -0.003079 0.000000 -0.000669 0.000000
# 3 -0.000402 -0.003079 0.017556 0.000000 0.001914 0.000000
# 4 0.000000 0.000000 0.000000 0.097418 0.000000 0.039395
# 5 0.001513 -0.000669 0.001914 0.000000 0.024454 0.000000
# 6 0.000000 0.000000 0.000000 0.039395 0.000000 0.070064
#
#
# Mechanical properties :
#
#
# Convention : Reuss Voigt Hill
#
# Bulk Modulus (GPa) = 37.79807 44.29519 41.04663
# Shear Modulus (GPa) = 20.26270 31.21588 25.73929
#
# Velocity S-wave (km/s) = 2.89040 3.58754 3.25767
# Velocity P-wave (km/s) = 5.16948 5.95178 5.57437
#
# Compressibility (1/GPa) = 0.02645637
#
# Stress axis : x y z
#
# Youngs Moduli (GPa) = 92.64222 126.89787 56.96153
#
# Poissons Ratio (x) = 0.17831 0.02293
# Poissons Ratio (y) = 0.13018 0.17540
# Poissons Ratio (z) = 0.03729 0.39076
#
# Static dielectric constant tensor:
#      x y z
#    x 2.113100 0.000000 0.079480 
#    y 0.000000 1.948970 0.000000 
#    z 0.079480 0.000000 2.043370 
# 
# From -- ./inp_files/196053.got.cif
#   From: 2010.05.17/outbox.cif.g08.bks.cpg/sg12_99_cif.got.tgz:196053.got - 2010.06.03 13:09:07.
