data_PCOD9217007
_publ_section_title
;
Structure prediction by ZEFSAII (Michael W. Deem and Ramdas Pophale) SiO2 
 PCOD9217007
Probable space group: C 2/M
;
_chemical_formula_sum "Si O2"
_cell_formula_units_Z 48
_cell_length_a 9.613648
_cell_length_b 29.746993
_cell_length_c 8.464221
_cell_angle_alpha 90.000000
_cell_angle_beta 90.682901
_cell_angle_gamma 90.000000
_cell_volume 2420.401612
_symmetry_space_group_name_H-M "C 2/M"
_symmetry_group_IT_number 12
_symmetry_cell_setting 'monoclinic'
loop_
_space_group_symop_operation_xyz
x,y,z
-x,y,-z
-x,-y,-z
x,-y,z
1/2+x,1/2+y,z
1/2-x,1/2+y,-z
1/2-x,1/2-y,-z
1/2+x,1/2-y,z
loop_
_atom_site_type_symbol
_atom_site_label
_atom_site_fract_x
_atom_site_fract_y
_atom_site_fract_z
Si Si1 0.497097 0.612382 0.326433
Si Si2 0.631563 0.229850 0.888161
Si Si3 0.533757 0.000000 0.259268
Si Si4 0.360648 0.701945 0.399814
Si Si5 0.000000 0.936301 0.000000
Si Si6 0.798030 0.343534 0.352790
Si Si7 0.500000 0.080638 0.500000
Si Si8 0.261923 0.000000 0.038673
O O1 0.500000 0.588631 0.500000
O O2 0.382689 0.651240 0.338120
O O3 0.645830 0.636847 0.314097
O O4 0.470730 0.586738 0.166518
O O5 0.634331 0.264879 0.744567
O O6 0.648936 0.181637 0.802909
O O7 0.500000 0.229155 0.000000
O O8 0.750000 0.250000 0.000000
O O9 0.550830 0.954833 0.365938
O O10 0.645721 0.000000 0.119449
O O11 0.377162 0.000000 0.180407
O O12 0.500000 0.712151 0.500000
O O13 0.228726 0.695390 0.513648
O O14 0.851611 0.960232 0.961406
O O15 0.889541 0.384634 0.420494
#
# Coordination Sequence:
#
# PCOD9217007 Si02
#       8
#     8   8   4   8   4   8   4   4
#     4   9  21  40  64  97 125 173 222 279 330 396
#     4  12  26  41  62  98 136 178 220 279 336 394
#     4  10  24  48  66  94 144 168 208 286 352 400
#     4   9  21  41  65  86 130 176 217 277 333 384
#     4  11  22  40  74  96 134 168 226 280 326 411
#     4  10  23  41  63  97 126 173 233 269 327 410
#     4  11  24  42  72  92 126 180 228 266 336 409
#     4  10  24  44  64 104 128 172 206 272 354 408
#
# _framework density 19.831417999999999
#
# number of rings (size 3 to 8) (size 9 to 14) (size 15 to 20)
#    0.000    2.167    0.000    3.500   11.667    0.000 
#    6.000    0.833    0.000    0.000    0.000    0.000 
#    0.000    0.000    0.000    0.000    0.000    0.000 
#
# Total GULP energy -133622.200842 kJ/mol
# GULP energy per Si atom -5567.591702 kJ/mol
# Density = 1.978628 g / cm^3
# Si number density = 19.831418 Si / 1000 Ang^3
#
#
#
# Elastic Constant Matrix: (Units=GPa)
#
#
# Indices 1 2 3 4 5 6 
#
# 1 91.6216 36.4274 43.7754 0.0000 -16.7385 0.0000
# 2 36.4274 77.5604 76.1837 0.0000 1.4869 0.0000
# 3 43.7754 76.1837 156.8614 0.0000 -6.9805 0.0000
# 4 0.0000 0.0000 0.0000 44.1293 0.0000 6.0252
# 5 -16.7385 1.4869 -6.9805 0.0000 29.8442 0.0000
# 6 0.0000 0.0000 0.0000 6.0252 0.0000 27.7948
#
#
#
# Elastic Compliance Matrix: (Units=1/GPa)
#
#
# Indices 1 2 3 4 5 6 
#
# 1 0.015577 -0.006900 -0.000598 0.000000 0.008940 0.000000
# 2 -0.006900 0.028211 -0.012137 0.000000 -0.008114 0.000000
# 3 -0.000598 -0.012137 0.012579 0.000000 0.003212 0.000000
# 4 0.000000 0.000000 0.000000 0.023352 0.000000 -0.005062
# 5 0.008940 -0.008114 0.003212 0.000000 0.039677 0.000000
# 6 0.000000 0.000000 0.000000 -0.005062 0.000000 0.037075
#
#
# Mechanical properties :
#
#
# Convention : Reuss Voigt Hill
#
# Bulk Modulus (GPa) = 58.48796 70.97961 64.73378
# Shear Modulus (GPa) = 24.82132 31.66412 28.24272
#
# Velocity S-wave (km/s) = 3.54166 4.00016 3.77787
# Velocity P-wave (km/s) = 6.80302 7.56335 7.19324
#
# Compressibility (1/GPa) = 0.01709754
#
# Stress axis : x y z
#
# Youngs Moduli (GPa) = 64.19808 35.44748 79.49469
#
# Poissons Ratio (x) = 0.24458 0.04755
# Poissons Ratio (y) = 0.44295 0.96481
# Poissons Ratio (z) = 0.03840 0.43022
#
# Static dielectric constant tensor:
#      x y z
#    x 1.657640 0.000000 -0.079000 
#    y 0.000000 1.751430 0.000000 
#    z -0.079000 0.000000 1.391250 
# 
# From -- ./inp_files/42336.got.cif
#   From: 2010.05.17/outbox.cif.g08.bks.cpg/sg12_22_cif.got.tgz:42336.got - 2010.06.03 13:09:07.
