data_PCOD9217325
_publ_section_title
;
Structure prediction by ZEFSAII (Michael W. Deem and Ramdas Pophale) SiO2 
 PCOD9217325
Probable space group: C 2/M
;
_chemical_formula_sum "Si O2"
_cell_formula_units_Z 40
_cell_length_a 9.699754
_cell_length_b 18.561583
_cell_length_c 10.785961
_cell_angle_alpha 90.000000
_cell_angle_beta 99.311367
_cell_angle_gamma 90.000000
_cell_volume 1916.346864
_symmetry_space_group_name_H-M "C 2/M"
_symmetry_group_IT_number 12
_symmetry_cell_setting 'monoclinic'
loop_
_space_group_symop_operation_xyz
x,y,z
-x,y,-z
-x,-y,-z
x,-y,z
1/2+x,1/2+y,z
1/2-x,1/2+y,-z
1/2-x,1/2-y,-z
1/2+x,1/2-y,z
loop_
_atom_site_type_symbol
_atom_site_label
_atom_site_fract_x
_atom_site_fract_y
_atom_site_fract_z
Si Si1 0.585268 0.850015 0.389620
Si Si2 0.478459 0.284731 0.262153
Si Si3 0.723680 0.294289 0.119906
Si Si4 0.377243 0.581041 0.382650
Si Si5 0.930860 0.414295 0.123955
O O1 0.500000 0.871628 0.500000
O O2 0.568928 0.763527 0.370842
O O3 0.741433 0.880037 0.419109
O O4 0.521502 0.883477 0.252461
O O5 0.569893 0.286189 0.150953
O O6 0.333093 0.242389 0.230337
O O7 0.439575 0.365632 0.289741
O O8 0.781351 0.374718 0.109549
O O9 0.750000 0.250000 0.000000
O O10 0.500000 0.575897 0.500000
O O11 0.340842 0.500000 0.335043
O O12 0.920951 0.500000 0.132894
O O13 0.000000 0.396656 0.000000
#
# Coordination Sequence:
#
# PCOD9217325 Si02
#       5
#     8   8   8   8   8
#     4  11  24  44  72  98 132 176 230 275 327 404
#     4  11  23  41  67  95 131 175 220 279 327 401
#     4  11  22  41  66  95 129 173 228 272 328 399
#     4  11  26  43  63  97 139 174 213 277 343 394
#     4  10  23  42  67  98 133 173 221 277 336 402
#
# _framework density 20.873048000000001
#
# number of rings (size 3 to 8) (size 9 to 14) (size 15 to 20)
#    0.000    1.200    2.000    4.200    5.600    4.000 
#    0.000    0.000    0.000    2.400    0.000    0.000 
#    0.000    0.000    0.000    0.000    0.000    0.000 
#
# Total GULP energy -111698.716964 kJ/mol
# GULP energy per Si atom -5584.935848 kJ/mol
# Density = 2.082554 g / cm^3
# Si number density = 20.873048 Si / 1000 Ang^3
#
#
#
# Elastic Constant Matrix: (Units=GPa)
#
#
# Indices 1 2 3 4 5 6 
#
# 1 115.4911 33.5340 40.9590 0.0000 -24.6622 0.0000
# 2 33.5340 107.4193 20.4025 0.0000 -14.7921 0.0000
# 3 40.9590 20.4025 92.5181 0.0000 -26.6981 0.0000
# 4 0.0000 0.0000 0.0000 25.0172 0.0000 -1.7950
# 5 -24.6622 -14.7921 -26.6981 0.0000 37.2138 0.0000
# 6 0.0000 0.0000 0.0000 -1.7950 0.0000 50.1649
#
#
#
# Elastic Compliance Matrix: (Units=1/GPa)
#
#
# Indices 1 2 3 4 5 6 
#
# 1 0.011425 -0.002351 -0.003310 0.000000 0.004263 0.000000
# 2 -0.002351 0.010461 -0.000650 0.000000 0.002133 0.000000
# 3 -0.003310 -0.000650 0.014767 0.000000 0.008142 0.000000
# 4 0.000000 0.000000 0.000000 0.040075 0.000000 0.001434
# 5 0.004263 0.002133 0.008142 0.000000 0.036386 0.000000
# 6 0.000000 0.000000 0.000000 0.001434 0.000000 0.019986
#
#
# Mechanical properties :
#
#
# Convention : Reuss Voigt Hill
#
# Bulk Modulus (GPa) = 41.61313 56.13550 48.87432
# Shear Modulus (GPa) = 32.52402 37.18138 34.85270
#
# Velocity S-wave (km/s) = 3.95166 4.22514 4.09069
# Velocity P-wave (km/s) = 6.38752 7.12422 6.76591
#
# Compressibility (1/GPa) = 0.02403087
#
# Stress axis : x y z
#
# Youngs Moduli (GPa) = 87.52429 95.59709 67.71883
#
# Poissons Ratio (x) = 0.22476 0.22412
# Poissons Ratio (y) = 0.20578 0.04404
# Poissons Ratio (z) = 0.28967 0.06217
#
# Static dielectric constant tensor:
#      x y z
#    x 1.751080 0.000000 0.050980 
#    y 0.000000 1.778490 0.000000 
#    z 0.050980 0.000000 1.796430 
# 
# From -- ./inp_files/119071.got.cif
#   From: 2010.05.17/outbox.cif.g08.bks.cpg/sg12_60_cif.got.tgz:119071.got - 2010.06.03 13:09:07.
