data_PCOD9217490
_publ_section_title
;
Structure prediction by ZEFSAII (Michael W. Deem and Ramdas Pophale) SiO2 
 PCOD9217490
Probable space group: C 2/M
;
_chemical_formula_sum "Si O2"
_cell_formula_units_Z 38
_cell_length_a 11.301232
_cell_length_b 19.105722
_cell_length_c 17.155819
_cell_angle_alpha 90.000000
_cell_angle_beta 151.759964
_cell_angle_gamma 90.000000
_cell_volume 1752.728551
_symmetry_space_group_name_H-M "C 2/M"
_symmetry_group_IT_number 12
_symmetry_cell_setting 'monoclinic'
loop_
_space_group_symop_operation_xyz
x,y,z
-x,y,-z
-x,-y,-z
x,-y,z
1/2+x,1/2+y,z
1/2-x,1/2+y,-z
1/2-x,1/2-y,-z
1/2+x,1/2-y,z
loop_
_atom_site_type_symbol
_atom_site_label
_atom_site_fract_x
_atom_site_fract_y
_atom_site_fract_z
Si Si1 0.232809 0.500000 0.573476
Si Si2 0.131184 0.652408 0.492658
Si Si3 0.874449 0.614870 0.786917
Si Si4 0.029405 0.274040 0.749715
Si Si5 0.500000 0.500000 0.500000
Si Si6 0.000000 0.297560 0.000000
Si Si7 0.805194 0.500000 0.961452
O O1 0.205773 0.573214 0.512100
O O2 0.513848 0.500000 0.770772
O O3 0.000000 0.500000 0.500000
O O4 0.959643 0.685807 0.326520
O O5 0.357512 0.706174 0.636898
O O6 0.000000 0.648048 0.500000
O O7 0.909633 0.672861 0.741317
O O8 0.660902 0.561113 0.639617
O O9 0.841339 0.655203 0.848942
O O10 0.122446 0.568204 0.946333
O O11 0.304133 0.249387 0.932842
O O12 0.000000 0.500000 0.000000
#
# Coordination Sequence:
#
# PCOD9217490 Si02
#       7
#     4   8   8   8   2   4   4
#     4  10  23  43  70  96 134 190 241 287 356 442
#     4  10  23  43  66  97 137 180 236 290 349 419
#     4  11  25  44  68 104 141 189 229 302 350 425
#     4  11  25  40  68 101 137 183 233 292 347 420
#     4  10  28  42  72 102 144 176 246 292 346 416
#     4  12  24  43  70  99 144 188 230 286 362 425
#     4  11  23  42  68 100 141 189 235 293 367 424
#
# _framework density 21.680482000000001
#
# number of rings (size 3 to 8) (size 9 to 14) (size 15 to 20)
#    0.000    1.263    1.053    3.158    7.368    6.737 
#    0.000    0.000    0.000    8.211    0.000    0.000 
#    0.000    0.000    0.000    0.000    0.000    0.000 
#
# Total GULP energy -105944.843201 kJ/mol
# GULP energy per Si atom -5576.044379 kJ/mol
# Density = 2.163114 g / cm^3
# Si number density = 21.680482 Si / 1000 Ang^3
#
#
#
# Elastic Constant Matrix: (Units=GPa)
#
#
# Indices 1 2 3 4 5 6 
#
# 1 73.8705 39.3625 29.7628 0.0032 -9.6481 -0.0002
# 2 39.3625 177.6912 46.3452 -0.0016 -2.9444 0.0068
# 3 29.7628 46.3452 112.1435 -0.0303 5.2417 0.0324
# 4 0.0032 -0.0016 -0.0303 95.6314 0.0159 9.8844
# 5 -9.6481 -2.9444 5.2417 0.0159 28.5683 -0.0012
# 6 -0.0002 0.0068 0.0324 9.8844 -0.0012 -5.6401
#
#
#
# Elastic Compliance Matrix: (Units=1/GPa)
#
#
# Indices 1 2 3 4 5 6 
#
# 1 0.017337 -0.002758 -0.003754 0.000000 0.006260 -0.000027
# 2 -0.002758 0.006783 -0.002078 0.000000 0.000149 -0.000004
# 3 -0.003754 -0.002078 0.010935 -0.000002 -0.003488 0.000058
# 4 0.000000 0.000000 -0.000002 0.008853 -0.000004 0.015515
# 5 0.006260 0.000149 -0.003488 -0.000004 0.037773 -0.000035
# 6 -0.000027 -0.000004 0.000058 0.015515 -0.000035 -0.150109
#
#
# Mechanical properties :
#
#
# Convention : Reuss Voigt Hill
#
# Bulk Modulus (GPa) = 55.94348 66.07180 61.00764
# Shear Modulus (GPa) = -110.40149 40.26089 -35.07030
#
# Velocity S-wave (km/s) = -7.14371 4.31398 -4.02630
# Velocity P-wave (km/s) = 6.49491 7.44011 2.56627
#
# Compressibility (1/GPa) = 0.01787518
#
# Stress axis : x y z
#
# Youngs Moduli (GPa) = 57.68111 147.42400 91.44583
#
# Poissons Ratio (x) = 0.40654 0.34330
# Poissons Ratio (y) = 0.15906 0.19006
# Poissons Ratio (z) = 0.21654 0.30640
#
# Static dielectric constant tensor:
#      x y z
#    x 1.838080 0.000000 0.010450 
#    y 0.000000 1.806670 0.000000 
#    z 0.010450 0.000000 1.754620 
# 
# From -- ./inp_files/264488.got.cif
#   From: 2010.05.17/outbox.cif.g08.bks.cpg/sg12_133_cif.got.tgz:264488.got - 2010.06.03 13:09:07.
