data_PCOD9217122
_publ_section_title
;
Structure prediction by ZEFSAII (Michael W. Deem and Ramdas Pophale) SiO2 
 PCOD9217122
Probable space group: C 2/M
;
_chemical_formula_sum "Si O2"
_cell_formula_units_Z 36
_cell_length_a 23.291800
_cell_length_b 7.263838
_cell_length_c 20.445155
_cell_angle_alpha 90.000000
_cell_angle_beta 156.367211
_cell_angle_gamma 90.000000
_cell_volume 1386.649907
_symmetry_space_group_name_H-M "C 2/M"
_symmetry_group_IT_number 12
_symmetry_cell_setting 'monoclinic'
loop_
_space_group_symop_operation_xyz
x,y,z
-x,y,-z
-x,-y,-z
x,-y,z
1/2+x,1/2+y,z
1/2-x,1/2+y,-z
1/2-x,1/2-y,-z
1/2+x,1/2-y,z
loop_
_atom_site_type_symbol
_atom_site_label
_atom_site_fract_x
_atom_site_fract_y
_atom_site_fract_z
Si Si1 0.797986 0.000000 0.945038
Si Si2 0.644125 0.218776 0.108606
Si Si3 0.175265 0.209334 0.586099
Si Si4 0.880386 0.217380 0.686128
Si Si5 0.423929 0.273940 0.224870
O O1 0.858600 0.839185 0.958341
O O2 0.712929 0.840132 0.898617
O O3 0.774765 0.285188 0.292163
O O4 0.660781 0.000000 0.112574
O O5 0.500000 0.241813 0.000000
O O6 0.316656 0.209035 0.687044
O O7 0.044512 0.281538 0.406021
O O8 0.135391 0.000000 0.558040
O O9 0.750000 0.250000 0.500000
O O10 0.010782 0.281928 0.777418
O O11 0.905415 0.000000 0.720467
O O12 0.414087 0.500000 0.215209
#
# Coordination Sequence:
#
# PCOD9217122 Si02
#       5
#     4   8   8   8   8
#     4  12  23  35  60  82 117 151 185 223 286 359
#     4  10  23  42  59  81 107 149 198 243 279 318
#     4   9  19  34  56  83 114 145 188 234 276 331
#     4   9  17  29  51  81 115 145 180 224 273 333
#     4   9  20  34  51  87 121 145 173 224 288 343
#
# _framework density 25.961853000000001
#
# number of rings (size 3 to 8) (size 9 to 14) (size 15 to 20)
#    0.000    2.444    0.000    3.000    9.333    1.778 
#    0.000    3.333    0.000    1.333    0.000    0.000 
#    0.000    0.000    0.000    0.000    0.000    0.000 
#
# Total GULP energy -100220.429711 kJ/mol
# GULP energy per Si atom -5567.801651 kJ/mol
# Density = 2.590276 g / cm^3
# Si number density = 25.961853 Si / 1000 Ang^3
#
#
#
# Elastic Constant Matrix: (Units=GPa)
#
#
# Indices 1 2 3 4 5 6 
#
# 1 102.7990 51.1807 43.0217 0.0000 12.6902 0.0000
# 2 51.1807 138.2640 16.2367 0.0000 6.2709 0.0000
# 3 43.0217 16.2367 112.9638 0.0000 -19.6346 0.0000
# 4 0.0000 0.0000 0.0000 348.3676 0.0000 208.5976
# 5 12.6902 6.2709 -19.6346 0.0000 41.4880 0.0000
# 6 0.0000 0.0000 0.0000 208.5976 0.0000 164.3573
#
#
#
# Elastic Compliance Matrix: (Units=1/GPa)
#
#
# Indices 1 2 3 4 5 6 
#
# 1 0.015708 -0.004719 -0.006554 0.000000 -0.007193 0.000000
# 2 -0.004719 0.008894 0.000584 0.000000 0.000375 0.000000
# 3 -0.006554 0.000584 0.012637 0.000000 0.007897 0.000000
# 4 0.000000 0.000000 0.000000 0.011959 0.000000 -0.015178
# 5 -0.007193 0.000375 0.007897 0.000000 0.029984 0.000000
# 6 0.000000 0.000000 0.000000 -0.015178 0.000000 0.025347
#
#
# Mechanical properties :
#
#
# Convention : Reuss Voigt Hill
#
# Bulk Modulus (GPa) = 63.04813 63.87834 63.46324
# Shear Modulus (GPa) = 38.11138 127.08175 82.59656
#
# Velocity S-wave (km/s) = 3.83557 7.00398 5.64656
# Velocity P-wave (km/s) = 6.62972 9.49029 8.18593
#
# Compressibility (1/GPa) = 0.01586090
#
# Stress axis : x y z
#
# Youngs Moduli (GPa) = 63.66157 112.44017 79.13070
#
# Poissons Ratio (x) = 0.53057 0.51866
# Poissons Ratio (y) = 0.30040 -0.04621
# Poissons Ratio (z) = 0.41727 -0.06567
#
# Static dielectric constant tensor:
#      x y z
#    x 1.810160 0.000000 -0.161870 
#    y 0.000000 2.006210 0.000000 
#    z -0.161870 0.000000 2.169010 
# 
# From -- ./inp_files/348365.got.cif
#   From: 2010.05.17/outbox.cif.g08.bks.cpg/sg12_175_cif.got.tgz:348365.got - 2010.06.03 13:09:07.
