data_PCOD9217447
_publ_section_title
;
Structure prediction by ZEFSAII (Michael W. Deem and Ramdas Pophale) SiO2 
 PCOD9217447
Probable space group: C 2/M
;
_chemical_formula_sum "Si O2"
_cell_formula_units_Z 32
_cell_length_a 24.582312
_cell_length_b 8.792195
_cell_length_c 10.075170
_cell_angle_alpha 90.000000
_cell_angle_beta 50.866326
_cell_angle_gamma 90.000000
_cell_volume 1689.089092
_symmetry_space_group_name_H-M "C 2/M"
_symmetry_group_IT_number 12
_symmetry_cell_setting 'monoclinic'
loop_
_space_group_symop_operation_xyz
x,y,z
-x,y,-z
-x,-y,-z
x,-y,z
1/2+x,1/2+y,z
1/2-x,1/2+y,-z
1/2-x,1/2-y,-z
1/2+x,1/2-y,z
loop_
_atom_site_type_symbol
_atom_site_label
_atom_site_fract_x
_atom_site_fract_y
_atom_site_fract_z
Si Si1 0.939554 0.816290 0.486388
Si Si2 0.219110 0.817777 0.182048
Si Si3 0.435876 0.176577 0.201259
Si Si4 0.296415 0.680165 0.312161
O O1 0.861828 0.774341 0.660361
O O2 0.951447 0.739447 0.324783
O O3 0.000000 0.776596 0.500000
O O4 0.940704 0.000000 0.467497
O O5 0.268871 0.757048 0.221431
O O6 0.221063 0.000000 0.173780
O O7 0.250000 0.750000 0.000000
O O8 0.374934 0.275965 0.229622
O O9 0.413282 0.000000 0.248029
O O10 0.500000 0.182394 0.000000
O O11 0.287895 0.500000 0.317442
O O12 0.250000 0.750000 0.500000
#
# Coordination Sequence:
#
# PCOD9217447 Si02
#       4
#     8   8   8   8
#     4  10  23  43  65  92 127 170 216 260 315 381
#     4  11  24  42  65  96 131 170 213 265 320 380
#     4  11  25  43  65  97 130 167 215 265 320 382
#     4  12  24  42  68  95 127 169 215 269 323 380
#
# _framework density 18.945122000000001
#
# number of rings (size 3 to 8) (size 9 to 14) (size 15 to 20)
#    0.000    1.000    2.500    3.750    3.500    3.500 
#    0.000    0.000    0.000    0.000    0.000    0.000 
#    0.000    0.000    0.000    0.000    0.000    0.000 
#
# Total GULP energy -89450.777841 kJ/mol
# GULP energy per Si atom -5590.673615 kJ/mol
# Density = 1.890200 g / cm^3
# Si number density = 18.945122 Si / 1000 Ang^3
#
#
#
# Elastic Constant Matrix: (Units=GPa)
#
#
# Indices 1 2 3 4 5 6 
#
# 1 128.6492 37.0295 63.0617 0.0000 27.6527 0.0000
# 2 37.0295 83.2990 53.6913 0.0000 6.8867 0.0000
# 3 63.0617 53.6913 147.7619 0.0000 31.1091 0.0000
# 4 0.0000 0.0000 0.0000 36.8216 0.0000 5.7905
# 5 27.6527 6.8867 31.1091 0.0000 37.5162 0.0000
# 6 0.0000 0.0000 0.0000 5.7905 0.0000 29.0849
#
#
#
# Elastic Compliance Matrix: (Units=1/GPa)
#
#
# Indices 1 2 3 4 5 6 
#
# 1 0.010998 -0.002815 -0.002511 0.000000 -0.005507 0.000000
# 2 -0.002815 0.016553 -0.005586 0.000000 0.003668 0.000000
# 3 -0.002511 -0.005586 0.011223 0.000000 -0.006430 0.000000
# 4 0.000000 0.000000 0.000000 0.028036 0.000000 -0.005582
# 5 -0.005507 0.003668 -0.006430 0.000000 0.035373 0.000000
# 6 0.000000 0.000000 0.000000 -0.005582 0.000000 0.035493
#
#
# Mechanical properties :
#
#
# Convention : Reuss Voigt Hill
#
# Bulk Modulus (GPa) = 58.99712 74.14166 66.56939
# Shear Modulus (GPa) = 30.27538 34.41305 32.34422
#
# Velocity S-wave (km/s) = 4.00191 4.26662 4.13638
# Velocity P-wave (km/s) = 7.24999 7.96818 7.61756
#
# Compressibility (1/GPa) = 0.01694998
#
# Stress axis : x y z
#
# Youngs Moduli (GPa) = 90.92418 60.41036 89.10424
#
# Poissons Ratio (x) = 0.17006 0.22378
# Poissons Ratio (y) = 0.25595 0.49772
# Poissons Ratio (z) = 0.22835 0.33744
#
# Static dielectric constant tensor:
#      x y z
#    x 1.649980 0.000000 0.021210 
#    y 0.000000 1.635280 0.000000 
#    z 0.021210 0.000000 1.695860 
# 
# From -- ./inp_files/81699.got.cif
#   From: 2010.05.17/outbox.cif.g08.bks.cpg/sg12_41_cif.got.tgz:81699.got - 2010.06.03 13:09:07.
