data_PCOD9217701
_publ_section_title
;
Structure prediction by ZEFSAII (Michael W. Deem and Ramdas Pophale) SiO2 
 PCOD9217701
Probable space group: C 2/M
;
_chemical_formula_sum "Si O2"
_cell_formula_units_Z 42
_cell_length_a 7.806391
_cell_length_b 21.854523
_cell_length_c 13.217958
_cell_angle_alpha 90.000000
_cell_angle_beta 77.553723
_cell_angle_gamma 90.000000
_cell_volume 2202.052097
_symmetry_space_group_name_H-M "C 2/M"
_symmetry_group_IT_number 12
_symmetry_cell_setting 'monoclinic'
loop_
_space_group_symop_operation_xyz
x,y,z
-x,y,-z
-x,-y,-z
x,-y,z
1/2+x,1/2+y,z
1/2-x,1/2+y,-z
1/2-x,1/2-y,-z
1/2+x,1/2-y,z
loop_
_atom_site_type_symbol
_atom_site_label
_atom_site_fract_x
_atom_site_fract_y
_atom_site_fract_z
Si Si1 0.000000 0.000000 0.500000
Si Si2 0.104904 0.933695 0.091579
Si Si3 0.451800 0.401107 0.324518
Si Si4 0.190862 0.305536 0.936563
Si Si5 0.900530 0.325159 0.617162
Si Si6 0.259489 0.199498 0.300414
O O1 0.970937 0.052753 0.415159
O O2 0.206821 0.869598 0.074209
O O3 0.990635 0.929124 0.208747
O O4 0.201610 0.000000 0.085907
O O5 0.000000 0.935287 0.000000
O O6 0.257682 0.372270 0.347436
O O7 0.602467 0.349500 0.321245
O O8 0.202805 0.282119 0.820103
O O9 0.250000 0.250000 0.000000
O O10 0.000000 0.321029 0.000000
O O11 0.808464 0.258629 0.630982
O O12 0.000000 0.336363 0.500000
O O13 0.057247 0.325375 0.679124
#
# Coordination Sequence:
#
# PCOD9217701 Si02
#       6
#     2   8   8   8   8   8
#     4  12  24  48  72  88 134 188 228 270 350 396
#     4  10  23  44  69  94 134 183 225 274 347 412
#     4  11  25  44  70  97 135 181 228 285 336 419
#     4  11  24  39  66 103 138 179 224 284 340 407
#     4  12  24  40  66 101 136 173 227 286 349 403
#     4  11  24  41  67 102 138 174 225 280 353 406
#
# _framework density 19.073118000000001
#
# number of rings (size 3 to 8) (size 9 to 14) (size 15 to 20)
#    0.000    0.952    2.857    3.429    9.333    0.381 
#    0.000    4.286    0.000    0.000    0.000    0.000 
#    0.000    0.000    0.000    0.000    0.000    0.000 
#
# Total GULP energy -116930.482642 kJ/mol
# GULP energy per Si atom -5568.118221 kJ/mol
# Density = 1.902971 g / cm^3
# Si number density = 19.073118 Si / 1000 Ang^3
#
#
#
# Elastic Constant Matrix: (Units=GPa)
#
#
# Indices 1 2 3 4 5 6 
#
# 1 117.7674 47.9303 70.7531 0.0000 -5.5818 0.0000
# 2 47.9303 112.4706 60.9460 0.0000 -8.6974 0.0000
# 3 70.7531 60.9460 140.7034 0.0000 10.0231 0.0000
# 4 0.0000 0.0000 0.0000 35.6052 0.0000 11.6658
# 5 -5.5818 -8.6974 10.0231 0.0000 31.0988 0.0000
# 6 0.0000 0.0000 0.0000 11.6658 0.0000 6.1209
#
#
#
# Elastic Compliance Matrix: (Units=1/GPa)
#
#
# Indices 1 2 3 4 5 6 
#
# 1 0.013078 -0.002068 -0.005943 0.000000 0.003684 0.000000
# 2 -0.002068 0.012753 -0.004822 0.000000 0.004750 0.000000
# 3 -0.005943 -0.004822 0.012647 0.000000 -0.006491 0.000000
# 4 0.000000 0.000000 0.000000 0.074786 0.000000 -0.142535
# 5 0.003684 0.004750 -0.006491 0.000000 0.036237 0.000000
# 6 0.000000 0.000000 0.000000 -0.142535 0.000000 0.435030
#
#
# Mechanical properties :
#
#
# Convention : Reuss Voigt Hill
#
# Bulk Modulus (GPa) = 78.05778 81.13336 79.59557
# Shear Modulus (GPa) = 8.13711 27.31911 17.72811
#
# Velocity S-wave (km/s) = 2.06774 3.78873 3.05205
# Velocity P-wave (km/s) = 6.83484 7.85937 7.36494
#
# Compressibility (1/GPa) = 0.01281102
#
# Stress axis : x y z
#
# Youngs Moduli (GPa) = 76.46358 78.41285 79.07055
#
# Poissons Ratio (x) = 0.16216 0.46992
# Poissons Ratio (y) = 0.15812 0.38131
# Poissons Ratio (z) = 0.45443 0.37814
#
# Static dielectric constant tensor:
#      x y z
#    x 1.648940 0.000000 0.013830 
#    y 0.000000 1.152170 0.000000 
#    z 0.013830 0.000000 1.659330 
# 
# From -- ./inp_files/120633.got.cif
#   From: 2010.05.17/outbox.cif.g08.bks.cpg/sg12_61_cif.got.tgz:120633.got - 2010.06.03 13:09:07.
