data_PCOD9217523
_publ_section_title
;
Structure prediction by ZEFSAII (Michael W. Deem and Ramdas Pophale) SiO2 
 PCOD9217523
Probable space group: C 2/M
;
_chemical_formula_sum "Si O2"
_cell_formula_units_Z 52
_cell_length_a 14.766823
_cell_length_b 21.788883
_cell_length_c 7.883700
_cell_angle_alpha 90.000000
_cell_angle_beta 66.668769
_cell_angle_gamma 90.000000
_cell_volume 2329.184578
_symmetry_space_group_name_H-M "C 2/M"
_symmetry_group_IT_number 12
_symmetry_cell_setting 'monoclinic'
loop_
_space_group_symop_operation_xyz
x,y,z
-x,y,-z
-x,-y,-z
x,-y,z
1/2+x,1/2+y,z
1/2-x,1/2+y,-z
1/2-x,1/2-y,-z
1/2+x,1/2-y,z
loop_
_atom_site_type_symbol
_atom_site_label
_atom_site_fract_x
_atom_site_fract_y
_atom_site_fract_z
Si Si1 0.289404 0.401832 0.200625
Si Si2 0.782284 0.930454 0.814464
Si Si3 0.920825 0.180433 0.703127
Si Si4 0.758752 0.758662 0.289096
Si Si5 0.398700 0.150868 0.169569
Si Si6 0.000000 0.134824 0.000000
Si Si7 0.403476 0.066191 0.454375
O O1 0.274867 0.426639 0.022815
O O2 0.270658 0.328852 0.230384
O O3 0.204461 0.431136 0.378815
O O4 0.407743 0.405478 0.138524
O O5 0.794556 0.000000 0.748488
O O6 0.871389 0.885605 0.697545
O O7 0.683413 0.898428 0.823610
O O8 0.833040 0.229183 0.743292
O O9 0.000000 0.194567 0.500000
O O10 0.963239 0.173355 0.862376
O O11 0.750000 0.750000 0.500000
O O12 0.853342 0.717389 0.174831
O O13 0.414564 0.130546 0.349903
O O14 0.500000 0.142886 0.000000
O O15 0.500000 0.064329 0.500000
O O16 0.407752 0.000000 0.355575
#
# Coordination Sequence:
#
# PCOD9217523 Si02
#       7
#     8   8   8   8   8   4   8
#     4  11  23  44  67  97 138 176 230 287 347 423
#     4  10  23  43  67  96 132 175 229 284 342 415
#     4  10  23  43  68  98 139 183 230 291 353 420
#     4  11  23  44  70  99 137 181 237 289 354 427
#     4  11  24  42  66 100 132 177 227 282 353 414
#     4  10  24  42  67 100 142 178 235 284 356 422
#     4  11  24  43  69  98 135 183 231 289 351 414
#
# _framework density 22.325409000000001
#
# number of rings (size 3 to 8) (size 9 to 14) (size 15 to 20)
#    0.000    1.385    1.538    2.769    3.231    8.923 
#    5.538    9.615    0.000    0.000    0.000    0.000 
#    0.000    0.000    0.000    0.000    0.000    0.000 
#
# Total GULP energy -145237.422682 kJ/mol
# GULP energy per Si atom -5586.054719 kJ/mol
# Density = 2.227460 g / cm^3
# Si number density = 22.325409 Si / 1000 Ang^3
#
#
#
# Elastic Constant Matrix: (Units=GPa)
#
#
# Indices 1 2 3 4 5 6 
#
# 1 127.9670 30.9575 29.0851 0.0000 -2.3091 0.0000
# 2 30.9575 131.5051 -12.7846 0.0000 -10.4720 0.0000
# 3 29.0851 -12.7846 57.7687 0.0000 -20.1963 0.0000
# 4 0.0000 0.0000 0.0000 -7.0260 0.0000 30.4454
# 5 -2.3091 -10.4720 -20.1963 0.0000 33.5477 0.0000
# 6 0.0000 0.0000 0.0000 30.4454 0.0000 3.1944
#
#
#
# Elastic Compliance Matrix: (Units=1/GPa)
#
#
# Indices 1 2 3 4 5 6 
#
# 1 0.010369 -0.003607 -0.007806 0.000000 -0.005111 0.000000
# 2 -0.003607 0.009571 0.006196 0.000000 0.006469 0.000000
# 3 -0.007806 0.006196 0.029258 0.000000 0.019010 0.000000
# 4 0.000000 0.000000 0.000000 -0.003365 0.000000 0.032069
# 5 -0.005111 0.006469 0.019010 0.000000 0.042920 0.000000
# 6 0.000000 0.000000 0.000000 0.032069 0.000000 0.007401
#
#
# Mechanical properties :
#
#
# Convention : Reuss Voigt Hill
#
# Bulk Modulus (GPa) = 25.79720 45.75075 35.77398
# Shear Modulus (GPa) = 41.83799 23.94209 32.89004
#
# Velocity S-wave (km/s) = 4.33368 3.27833 3.84241
# Velocity P-wave (km/s) = 6.05154 5.90483 5.97864
#
# Compressibility (1/GPa) = 0.03876390
#
# Stress axis : x y z
#
# Youngs Moduli (GPa) = 96.44171 104.48407 34.17909
#
# Poissons Ratio (x) = 0.37686 0.26679
# Poissons Ratio (y) = 0.34785 -0.21176
# Poissons Ratio (z) = 0.75279 -0.64735
#
# Static dielectric constant tensor:
#      x y z
#    x 1.593590 0.000000 0.062560 
#    y 0.000000 1.796680 0.000000 
#    z 0.062560 0.000000 1.826660 
# 
# From -- ./inp_files/65249.got.cif
#   From: 2010.05.17/outbox.cif.g08.bks.cpg/sg12_33_cif.got.tgz:65249.got - 2010.06.03 13:09:07.
