data_PCOD9217892
_publ_section_title
;
Structure prediction by ZEFSAII (Michael W. Deem and Ramdas Pophale) SiO2 
 PCOD9217892
Probable space group: C 2/M
;
_chemical_formula_sum "Si O2"
_cell_formula_units_Z 56
_cell_length_a 8.995718
_cell_length_b 14.652296
_cell_length_c 24.330713
_cell_angle_alpha 90.000000
_cell_angle_beta 58.847949
_cell_angle_gamma 90.000000
_cell_volume 2744.526040
_symmetry_space_group_name_H-M "C 2/M"
_symmetry_group_IT_number 12
_symmetry_cell_setting 'monoclinic'
loop_
_space_group_symop_operation_xyz
x,y,z
-x,y,-z
-x,-y,-z
x,-y,z
1/2+x,1/2+y,z
1/2-x,1/2+y,-z
1/2-x,1/2-y,-z
1/2+x,1/2-y,z
loop_
_atom_site_type_symbol
_atom_site_label
_atom_site_fract_x
_atom_site_fract_y
_atom_site_fract_z
Si Si1 0.658881 0.106666 0.046272
Si Si2 0.751384 0.393256 0.092267
Si Si3 0.626155 0.211066 0.160777
Si Si4 0.341119 0.393334 0.453728
Si Si5 0.373845 0.288934 0.339223
Si Si6 0.250000 0.748666 0.250000
Si Si7 0.248616 0.106744 0.407733
O O1 0.453491 0.116914 0.071620
O O2 0.700448 0.162523 0.092867
O O3 0.690104 0.000000 0.050600
O O4 0.757577 0.130605 0.971010
O O5 0.705768 0.500000 0.107938
O O6 0.644272 0.319677 0.146658
O O7 0.422588 0.192116 0.207231
O O8 0.719998 0.191868 0.200144
O O9 0.309896 0.500000 0.449400
O O10 0.299552 0.337477 0.407133
O O11 0.242423 0.369395 0.528990
O O12 0.546509 0.383086 0.428380
O O13 0.280002 0.308132 0.299856
O O14 0.577412 0.307884 0.292770
O O15 0.355729 0.180323 0.353342
O O16 0.294232 0.000000 0.392062
#
# Coordination Sequence:
#
# PCOD9217892 Si02
#       7
#     8   8   8   8   8   8   8
#     4   9  18  34  59  86 108 138 181 224 274 333
#     4   9  18  34  59  86 108 138 181 224 274 333
#     4  11  19  40  54  82 109 151 176 232 264 315
#     4   9  18  34  59  86 108 138 181 224 274 333
#     4  11  19  40  54  82 109 151 176 232 264 315
#     4  10  24  34  56  76 114 148 196 210 260 326
#     4   9  18  34  59  86 108 138 181 224 274 333
#
# _framework density 20.404253000000001
#
# number of rings (size 3 to 8) (size 9 to 14) (size 15 to 20)
#    0.000    2.286    2.857    2.571    0.000    0.000 
#    0.000   10.000    0.000    3.429    0.000    0.000 
#    0.000    0.000    0.000    0.000    0.000    0.000 
#
# Total GULP energy -156192.905340 kJ/mol
# GULP energy per Si atom -5578.318048 kJ/mol
# Density = 2.035781 g / cm^3
# Si number density = 20.404253 Si / 1000 Ang^3
#
#
#
# Elastic Constant Matrix: (Units=GPa)
#
#
# Indices 1 2 3 4 5 6 
#
# 1 61.3167 12.6755 32.6475 0.0000 26.3366 0.0000
# 2 12.6755 52.4511 53.2318 0.0000 14.2400 0.0000
# 3 32.6475 53.2318 112.4724 0.0000 41.0756 0.0000
# 4 0.0000 0.0000 0.0000 9.3409 0.0000 -0.3919
# 5 26.3366 14.2400 41.0756 0.0000 47.9821 0.0000
# 6 0.0000 0.0000 0.0000 -0.3919 0.0000 7.8708
#
#
#
# Elastic Compliance Matrix: (Units=1/GPa)
#
#
# Indices 1 2 3 4 5 6 
#
# 1 0.021963 0.000418 -0.003092 0.000000 -0.009532 0.000000
# 2 0.000418 0.037834 -0.020140 0.000000 0.005783 0.000000
# 3 -0.003092 -0.020140 0.024031 0.000000 -0.012898 0.000000
# 4 0.000000 0.000000 0.000000 0.107280 0.000000 0.005342
# 5 -0.009532 0.005783 -0.012898 0.000000 0.035398 0.000000
# 6 0.000000 0.000000 0.000000 0.005342 0.000000 0.127318
#
#
# Mechanical properties :
#
#
# Convention : Reuss Voigt Hill
#
# Bulk Modulus (GPa) = 26.17752 47.03886 36.60819
# Shear Modulus (GPa) = 12.13052 21.55113 16.84083
#
# Velocity S-wave (km/s) = 2.44090 3.25346 2.87602
# Velocity P-wave (km/s) = 4.56084 6.10056 5.38601
#
# Compressibility (1/GPa) = 0.03820072
#
# Stress axis : x y z
#
# Youngs Moduli (GPa) = 45.53148 26.43157 41.61358
#
# Poissons Ratio (x) = -0.01105 0.12866
# Poissons Ratio (y) = -0.01904 0.83808
# Poissons Ratio (z) = 0.14078 0.53232
#
# Static dielectric constant tensor:
#      x y z
#    x 1.750670 0.000000 0.015240 
#    y 0.000000 1.697430 0.000000 
#    z 0.015240 0.000000 1.737780 
# 
# From -- ./inp_files/332569.got.cif
#   From: 2010.05.17/outbox.cif.g08.bks.cpg/sg12_167_cif.got.tgz:332569.got - 2010.06.03 13:09:07.
