data_PCOD9217716
_publ_section_title
;
Structure prediction by ZEFSAII (Michael W. Deem and Ramdas Pophale) SiO2 
 PCOD9217716
Probable space group: C 2/M
;
_chemical_formula_sum "Si O2"
_cell_formula_units_Z 50
_cell_length_a 16.880152
_cell_length_b 13.590708
_cell_length_c 27.321596
_cell_angle_alpha 90.000000
_cell_angle_beta 160.442392
_cell_angle_gamma 90.000000
_cell_volume 2098.219326
_symmetry_space_group_name_H-M "C 2/M"
_symmetry_group_IT_number 12
_symmetry_cell_setting 'monoclinic'
loop_
_space_group_symop_operation_xyz
x,y,z
-x,y,-z
-x,-y,-z
x,-y,z
1/2+x,1/2+y,z
1/2-x,1/2+y,-z
1/2-x,1/2-y,-z
1/2+x,1/2-y,z
loop_
_atom_site_type_symbol
_atom_site_label
_atom_site_fract_x
_atom_site_fract_y
_atom_site_fract_z
Si Si1 0.355441 0.115884 0.531196
Si Si2 0.757530 0.800034 0.632076
Si Si3 0.000000 0.000000 0.000000
Si Si4 0.131569 0.388883 0.165365
Si Si5 0.125218 0.114454 0.920679
Si Si6 0.130410 0.111785 0.505440
Si Si7 0.848421 0.821989 0.848037
O O1 0.195658 0.151090 0.393393
O O2 0.248217 0.137440 0.521778
O O3 0.611854 0.165438 0.678052
O O4 0.383963 0.000000 0.543563
O O5 0.500000 0.837640 0.500000
O O6 0.723990 0.685848 0.600207
O O7 0.957748 0.825504 0.786845
O O8 0.837305 0.089998 0.880878
O O9 0.142657 0.500000 0.149963
O O10 0.352673 0.381585 0.331201
O O11 0.140861 0.294415 0.134700
O O12 0.891691 0.380202 0.056896
O O13 0.074198 0.151386 0.945721
O O14 0.051929 0.000000 0.876914
O O15 0.188202 0.000000 0.552087
#
# Coordination Sequence:
#
# PCOD9217716 Si02
#       7
#     8   8   2   8   8   8   8
#     4  11  22  41  70  98 143 177 235 297 353 413
#     4  12  23  38  70 109 135 187 233 298 359 420
#     4  12  28  44  74 106 138 188 232 302 380 428
#     4  10  23  45  72  99 144 198 228 285 356 423
#     4  11  23  43  71 105 146 181 238 300 359 423
#     4  10  23  44  69  98 143 194 238 288 349 423
#     4  12  23  45  71 105 141 181 239 298 359 424
#
# _framework density 23.829730000000001
#
# number of rings (size 3 to 8) (size 9 to 14) (size 15 to 20)
#    0.000    0.960    4.800    1.440    0.000    2.240 
#    0.000    1.200    0.000    0.000    0.000    0.000 
#    0.000    0.000    0.000    0.000    0.000    0.000 
#
# Total GULP energy -139647.525087 kJ/mol
# GULP energy per Si atom -5585.901003 kJ/mol
# Density = 2.377549 g / cm^3
# Si number density = 23.829730 Si / 1000 Ang^3
#
#
#
# Elastic Constant Matrix: (Units=GPa)
#
#
# Indices 1 2 3 4 5 6 
#
# 1 43.1014 40.0890 11.2963 0.0087 1.8152 0.0010
# 2 40.0890 198.9269 31.6769 0.0189 -3.5696 -0.0015
# 3 11.2963 31.6769 44.4784 0.0450 9.2359 -0.0010
# 4 0.0087 0.0189 0.0450 27.2803 -0.0047 0.7197
# 5 1.8152 -3.5696 9.2359 -0.0047 25.5779 -0.0029
# 6 0.0010 -0.0015 -0.0010 0.7197 -0.0029 18.2396
#
#
#
# Elastic Compliance Matrix: (Units=1/GPa)
#
#
# Indices 1 2 3 4 5 6 
#
# 1 0.029124 -0.005387 -0.003216 0.000000 -0.001657 -0.000003
# 2 -0.005387 0.006810 -0.004063 0.000004 0.002800 0.000001
# 3 -0.003216 -0.004063 0.028393 -0.000045 -0.010591 0.000001
# 4 0.000000 0.000004 -0.000045 0.036695 0.000023 -0.001448
# 5 -0.001657 0.002800 -0.010591 0.000023 0.043429 0.000006
# 6 -0.000003 0.000001 0.000001 -0.001448 0.000006 0.054883
#
#
# Mechanical properties :
#
#
# Convention : Reuss Voigt Hill
#
# Bulk Modulus (GPa) = 25.64477 50.29234 37.96856
# Shear Modulus (GPa) = 21.03812 27.78251 24.41032
#
# Velocity S-wave (km/s) = 2.97451 3.41820 3.20404
# Velocity P-wave (km/s) = 4.75205 6.06048 5.44570
#
# Compressibility (1/GPa) = 0.03899431
#
# Stress axis : x y z
#
# Youngs Moduli (GPa) = 34.33568 146.84687 35.22041
#
# Poissons Ratio (x) = 0.79105 0.11328
# Poissons Ratio (y) = 0.18496 0.14310
# Poissons Ratio (z) = 0.11043 0.59665
#
# Static dielectric constant tensor:
#      x y z
#    x 1.947420 0.000000 0.015960 
#    y 0.000000 1.927680 -0.000010 
#    z 0.015960 -0.000010 1.886890 
# 
# From -- ./inp_files/379486.got.cif
#   From: 2010.05.17/outbox.cif.g08.bks.cpg/sg12_190_cif.got.tgz:379486.got - 2010.06.03 13:09:07.
