data_PCOD9217811
_publ_section_title
;
Structure prediction by ZEFSAII (Michael W. Deem and Ramdas Pophale) SiO2 
 PCOD9217811
Probable space group: C 2/M
;
_chemical_formula_sum "Si O2"
_cell_formula_units_Z 24
_cell_length_a 13.910347
_cell_length_b 13.780941
_cell_length_c 4.827982
_cell_angle_alpha 90.000000
_cell_angle_beta 87.264410
_cell_angle_gamma 90.000000
_cell_volume 924.458212
_symmetry_space_group_name_H-M "C 2/M"
_symmetry_group_IT_number 12
_symmetry_cell_setting 'monoclinic'
loop_
_space_group_symop_operation_xyz
x,y,z
-x,y,-z
-x,-y,-z
x,-y,z
1/2+x,1/2+y,z
1/2-x,1/2+y,-z
1/2-x,1/2-y,-z
1/2+x,1/2-y,z
loop_
_atom_site_type_symbol
_atom_site_label
_atom_site_fract_x
_atom_site_fract_y
_atom_site_fract_z
Si Si1 0.404556 0.109656 0.698061
Si Si2 0.392844 0.299406 0.057686
Si Si3 0.201023 0.110120 0.429384
O O1 0.500000 0.125112 0.500000
O O2 0.396315 0.191375 0.933467
O O3 0.309961 0.113836 0.519050
O O4 0.408250 0.000000 0.814553
O O5 0.316742 0.358384 0.881814
O O6 0.500000 0.340028 0.000000
O O7 0.361089 0.316725 0.374665
O O8 0.166582 0.000000 0.474361
#
# Coordination Sequence:
#
# PCOD9217811 Si02
#       3
#     8   8   8
#     4  10  23  45  72 102 136 176 226 282 340 400
#     4  12  25  44  69 101 139 179 224 276 336 402
#     4  11  25  45  71 101 136 179 225 278 336 399
#
# _framework density 25.961152999999999
#
# number of rings (size 3 to 8) (size 9 to 14) (size 15 to 20)
#    0.000    1.000    0.000    6.000    0.000    7.333 
#    0.000   11.667    0.000    0.000    0.000    0.000 
#    0.000    0.000    0.000    0.000    0.000    0.000 
#
# Total GULP energy -67426.637944 kJ/mol
# GULP energy per Si atom -5618.886495 kJ/mol
# Density = 2.590206 g / cm^3
# Si number density = 25.961153 Si / 1000 Ang^3
#
#
#
# Elastic Constant Matrix: (Units=GPa)
#
#
# Indices 1 2 3 4 5 6 
#
# 1 139.2734 11.1793 -0.6790 0.0000 7.4184 0.0000
# 2 11.1793 187.8830 15.3028 0.0000 -13.2550 0.0000
# 3 -0.6790 15.3028 71.7108 0.0000 3.4740 0.0000
# 4 0.0000 0.0000 0.0000 -2.7115 0.0000 2.1386
# 5 7.4184 -13.2550 3.4740 0.0000 46.5904 0.0000
# 6 0.0000 0.0000 0.0000 2.1386 0.0000 29.8531
#
#
#
# Elastic Compliance Matrix: (Units=1/GPa)
#
#
# Indices 1 2 3 4 5 6 
#
# 1 0.007297 -0.000549 0.000251 0.000000 -0.001337 0.000000
# 2 -0.000549 0.005585 -0.001283 0.000000 0.001772 0.000000
# 3 0.000251 -0.001283 0.014292 0.000000 -0.001471 0.000000
# 4 0.000000 0.000000 0.000000 -0.349081 0.000000 0.025008
# 5 -0.001337 0.001772 -0.001471 0.000000 0.022290 0.000000
# 6 0.000000 0.000000 0.000000 0.025008 0.000000 0.031706
#
#
# Mechanical properties :
#
#
# Convention : Reuss Voigt Hill
#
# Bulk Modulus (GPa) = 41.64569 50.05260 45.84914
# Shear Modulus (GPa) = -19.47450 39.61736 10.07143
#
# Velocity S-wave (km/s) = -2.74184 3.91067 1.97176
# Velocity P-wave (km/s) = 2.46024 6.30181 4.78360
#
# Compressibility (1/GPa) = 0.02401209
#
# Stress axis : x y z
#
# Youngs Moduli (GPa) = 137.05002 179.06365 69.96792
#
# Poissons Ratio (x) = 0.09829 -0.01756
# Poissons Ratio (y) = 0.07523 0.08975
# Poissons Ratio (z) = -0.03440 0.22970
#
# Static dielectric constant tensor:
#      x y z
#    x 2.001630 0.000000 0.017430 
#    y 0.000000 2.013360 0.000000 
#    z 0.017430 0.000000 1.937970 
# 
# From -- ./inp_files/9325.got.cif
#   From: 2010.05.17/outbox.cif.g08.bks.cpg/sg12_5_cif.got.tgz:9325.got - 2010.06.03 13:09:07.
