data_PCOD9217667
_publ_section_title
;
Structure prediction by ZEFSAII (Michael W. Deem and Ramdas Pophale) SiO2 
 PCOD9217667
Probable space group: C 2/M
;
_chemical_formula_sum "Si O2"
_cell_formula_units_Z 48
_cell_length_a 19.417725
_cell_length_b 8.381438
_cell_length_c 31.029607
_cell_angle_alpha 90.000000
_cell_angle_beta 151.188652
_cell_angle_gamma 90.000000
_cell_volume 2433.742466
_symmetry_space_group_name_H-M "C 2/M"
_symmetry_group_IT_number 12
_symmetry_cell_setting 'monoclinic'
loop_
_space_group_symop_operation_xyz
x,y,z
-x,y,-z
-x,-y,-z
x,-y,z
1/2+x,1/2+y,z
1/2-x,1/2+y,-z
1/2-x,1/2-y,-z
1/2+x,1/2-y,z
loop_
_atom_site_type_symbol
_atom_site_label
_atom_site_fract_x
_atom_site_fract_y
_atom_site_fract_z
Si Si1 0.385426 0.307342 0.047732
Si Si2 0.193842 0.689468 0.249454
Si Si3 0.141737 0.308195 0.743497
Si Si4 0.161150 0.818124 0.072333
Si Si5 0.835403 0.307341 0.414877
Si Si6 0.176778 0.192212 0.415946
O O1 0.393344 0.500000 0.050275
O O2 0.536641 0.249747 0.149371
O O3 0.250000 0.250000 0.000000
O O4 0.352589 0.242177 0.981845
O O5 0.190606 0.500000 0.250095
O O6 0.304452 0.741745 0.272677
O O7 0.244994 0.755684 0.323604
O O8 0.154795 0.500000 0.747781
O O9 0.244182 0.245846 0.837959
O O10 0.982733 0.260200 0.669177
O O11 0.216903 0.000000 0.096816
O O12 0.000000 0.828899 0.000000
O O13 0.838502 0.500000 0.417401
O O14 0.762574 0.255003 0.419990
O O15 0.000000 0.251431 0.500000
O O16 0.250000 0.250000 0.500000
O O17 0.172263 0.000000 0.413064
#
# Coordination Sequence:
#
# PCOD9217667 Si02
#       6
#     8   8   8   8   8   8
#     4  11  23  41  63  91 128 169 213 263 317 373
#     4  12  25  41  63  94 128 168 214 261 316 377
#     4  11  22  40  66  92 126 169 210 261 318 373
#     4   9  18  37  63  89 118 163 213 253 304 367
#     4  10  23  44  68  93 125 166 209 258 317 377
#     4  11  24  42  66  98 129 161 207 259 315 378
#
# _framework density 19.722712000000001
#
# number of rings (size 3 to 8) (size 9 to 14) (size 15 to 20)
#    0.000    1.333    1.667    4.000    2.333    3.000 
#    0.000    3.333    0.000    0.000    0.000    0.000 
#    0.000    0.000    0.000    0.000    0.000    0.000 
#
# Total GULP energy -134050.161211 kJ/mol
# GULP energy per Si atom -5585.423384 kJ/mol
# Density = 1.967782 g / cm^3
# Si number density = 19.722712 Si / 1000 Ang^3
#
#
#
# Elastic Constant Matrix: (Units=GPa)
#
#
# Indices 1 2 3 4 5 6 
#
# 1 193.7693 20.8027 84.6901 0.0000 -13.7198 0.0000
# 2 20.8027 36.4771 12.0089 0.0000 -0.7191 -0.0001
# 3 84.6901 12.0089 136.5191 0.0001 -14.2832 0.0001
# 4 0.0000 0.0000 0.0001 20.7494 0.0000 10.6596
# 5 -13.7198 -0.7191 -14.2832 0.0000 42.0953 0.0000
# 6 0.0000 -0.0001 0.0001 10.6596 0.0000 22.6772
#
#
#
# Elastic Compliance Matrix: (Units=1/GPa)
#
#
# Indices 1 2 3 4 5 6 
#
# 1 0.007376 -0.002795 -0.004234 0.000000 0.000920 0.000000
# 2 -0.002795 0.029297 -0.000919 0.000000 -0.000722 0.000000
# 3 -0.004234 -0.000919 0.010250 0.000000 0.002082 0.000000
# 4 0.000000 0.000000 0.000000 0.063537 0.000000 -0.029866
# 5 0.000920 -0.000722 0.002082 0.000000 0.024750 0.000000
# 6 0.000000 0.000000 0.000000 -0.029866 0.000000 0.058136
#
#
# Mechanical properties :
#
#
# Convention : Reuss Voigt Hill
#
# Bulk Modulus (GPa) = 32.22886 66.86320 49.54603
# Shear Modulus (GPa) = 22.77037 33.72197 28.24617
#
# Velocity S-wave (km/s) = 3.40152 4.13946 3.78850
# Velocity P-wave (km/s) = 5.63946 7.53804 6.65679
#
# Compressibility (1/GPa) = 0.03102809
#
# Stress axis : x y z
#
# Youngs Moduli (GPa) = 135.56645 34.13367 97.55896
#
# Poissons Ratio (x) = 0.09539 0.41306
# Poissons Ratio (y) = 0.37887 0.08965
# Poissons Ratio (z) = 0.57398 0.03137
#
# Static dielectric constant tensor:
#      x y z
#    x 1.639760 0.000000 -0.020050 
#    y 0.000000 1.696120 0.000000 
#    z -0.020050 0.000000 1.668470 
# 
# From -- ./inp_files/378551.got.cif
#   From: 2010.05.17/outbox.cif.g08.bks.cpg/sg12_190_cif.got.tgz:378551.got - 2010.06.03 13:09:07.
