data_PCOD9217673
_publ_section_title
;
Structure prediction by ZEFSAII (Michael W. Deem and Ramdas Pophale) SiO2 
 PCOD9217673
Probable space group: C 2/M
;
_chemical_formula_sum "Si O2"
_cell_formula_units_Z 56
_cell_length_a 31.587453
_cell_length_b 8.842021
_cell_length_c 12.047713
_cell_angle_alpha 90.000000
_cell_angle_beta 123.770488
_cell_angle_gamma 90.000000
_cell_volume 2797.134435
_symmetry_space_group_name_H-M "C 2/M"
_symmetry_group_IT_number 12
_symmetry_cell_setting 'monoclinic'
loop_
_space_group_symop_operation_xyz
x,y,z
-x,y,-z
-x,-y,-z
x,-y,z
1/2+x,1/2+y,z
1/2-x,1/2+y,-z
1/2-x,1/2-y,-z
1/2+x,1/2-y,z
loop_
_atom_site_type_symbol
_atom_site_label
_atom_site_fract_x
_atom_site_fract_y
_atom_site_fract_z
Si Si1 0.693980 0.320477 0.409436
Si Si2 0.115065 0.680508 0.673767
Si Si3 0.487872 0.680137 0.856437
Si Si4 0.726304 0.680021 0.853911
Si Si5 0.895625 0.679811 0.589620
Si Si6 0.675689 0.821175 0.150145
Si Si7 0.909302 0.179189 0.131533
O O1 0.697423 0.500000 0.420505
O O2 0.750000 0.250000 0.500000
O O3 0.656530 0.259170 0.449441
O O4 0.670889 0.268306 0.257751
O O5 0.114230 0.500000 0.688578
O O6 0.173261 0.737909 0.754521
O O7 0.091524 0.716944 0.519502
O O8 0.089498 0.759701 0.741684
O O9 0.476723 0.500000 0.841308
O O10 0.440218 0.765429 0.735007
O O11 0.537763 0.705322 0.854555
O O12 0.500000 0.726787 0.000000
O O13 0.718291 0.500000 0.856144
O O14 0.767865 0.701855 0.817820
O O15 0.750000 0.750000 0.000000
O O16 0.888745 0.500000 0.587701
O O17 0.668583 0.000000 0.159015
O O18 0.635391 0.762780 0.001119
O O19 0.898719 0.000000 0.116306
#
# Coordination Sequence:
#
# PCOD9217673 Si02
#       7
#     8   8   8   8   8   8   8
#     4  12  25  42  65  93 128 167 210 260 314 378
#     4  11  24  41  61  90 129 169 213 261 315 382
#     4  10  23  44  68  95 125 161 208 262 322 383
#     4  11  22  36  59  90 126 167 211 257 311 373
#     4  11  25  44  67  94 126 168 213 262 320 377
#     4  11  23  39  62  93 128 166 211 263 318 377
#     4  11  23  39  64  95 126 164 211 263 317 375
#
# _framework density 20.020489000000001
#
# number of rings (size 3 to 8) (size 9 to 14) (size 15 to 20)
#    0.000    1.000    1.429    5.143    0.000    9.429 
#    0.000    2.857    0.000    0.000    0.000    0.000 
#    0.000    0.000    0.000    0.000    0.000    0.000 
#
# Total GULP energy -156727.774191 kJ/mol
# GULP energy per Si atom -5597.420507 kJ/mol
# Density = 1.997492 g / cm^3
# Si number density = 20.020489 Si / 1000 Ang^3
#
#
#
# Elastic Constant Matrix: (Units=GPa)
#
#
# Indices 1 2 3 4 5 6 
#
# 1 89.4380 59.7746 44.8175 0.0000 -17.6404 0.0000
# 2 59.7746 89.5361 48.0041 0.0000 -9.8569 0.0000
# 3 44.8175 48.0041 120.2077 0.0000 -16.9074 0.0000
# 4 0.0000 0.0000 0.0000 33.6485 0.0000 -4.2599
# 5 -17.6404 -9.8569 -16.9074 0.0000 31.7417 0.0000
# 6 0.0000 0.0000 0.0000 -4.2599 0.0000 30.9271
#
#
#
# Elastic Compliance Matrix: (Units=1/GPa)
#
#
# Indices 1 2 3 4 5 6 
#
# 1 0.022359 -0.012986 -0.002129 0.000000 0.007259 0.000000
# 2 -0.012986 0.021820 -0.004253 0.000000 -0.002706 0.000000
# 3 -0.002129 -0.004253 0.011306 0.000000 0.003518 0.000000
# 4 0.000000 0.000000 0.000000 0.030246 0.000000 0.004166
# 5 0.007259 -0.002706 0.003518 0.000000 0.036572 0.000000
# 6 0.000000 0.000000 0.000000 0.004166 0.000000 0.032908
#
#
# Mechanical properties :
#
#
# Convention : Reuss Voigt Hill
#
# Bulk Modulus (GPa) = 59.70542 67.15269 63.42906
# Shear Modulus (GPa) = 25.05885 29.03585 27.04735
#
# Velocity S-wave (km/s) = 3.54172 3.81242 3.67956
# Velocity P-wave (km/s) = 6.82729 7.27971 7.05713
#
# Compressibility (1/GPa) = 0.01674890
#
# Stress axis : x y z
#
# Youngs Moduli (GPa) = 44.72555 45.82874 88.44898
#
# Poissons Ratio (x) = 0.59513 0.18832
# Poissons Ratio (y) = 0.58081 0.37616
# Poissons Ratio (z) = 0.09523 0.19490
#
# Static dielectric constant tensor:
#      x y z
#    x 1.690960 0.000000 -0.017220 
#    y 0.000000 1.668800 0.000000 
#    z -0.017220 0.000000 1.695680 
# 
# From -- ./inp_files/187711.got.cif
#   From: 2010.05.17/outbox.cif.g08.bks.cpg/sg12_94_cif.got.tgz:187711.got - 2010.06.03 13:09:07.
