data_PCOD9217867
_publ_section_title
;
Structure prediction by ZEFSAII (Michael W. Deem and Ramdas Pophale) SiO2 
 PCOD9217867
Probable space group: C 2/M
;
_chemical_formula_sum "Si O2"
_cell_formula_units_Z 56
_cell_length_a 9.278727
_cell_length_b 13.535434
_cell_length_c 22.822935
_cell_angle_alpha 90.000000
_cell_angle_beta 61.563058
_cell_angle_gamma 90.000000
_cell_volume 2520.517737
_symmetry_space_group_name_H-M "C 2/M"
_symmetry_group_IT_number 12
_symmetry_cell_setting 'monoclinic'
loop_
_space_group_symop_operation_xyz
x,y,z
-x,y,-z
-x,-y,-z
x,-y,z
1/2+x,1/2+y,z
1/2-x,1/2+y,-z
1/2-x,1/2-y,-z
1/2+x,1/2-y,z
loop_
_atom_site_type_symbol
_atom_site_label
_atom_site_fract_x
_atom_site_fract_y
_atom_site_fract_z
Si Si1 0.600424 0.116780 0.229812
Si Si2 0.990022 0.883704 0.318475
Si Si3 0.433846 0.285477 0.453439
Si Si4 0.180758 0.291700 0.797763
Si Si5 0.037007 0.316947 0.061469
Si Si6 0.870215 0.895848 0.972820
Si Si7 0.628202 0.886605 0.358501
O O1 0.770509 0.178444 0.195387
O O2 0.466926 0.175719 0.217010
O O3 0.552224 0.119343 0.308192
O O4 0.613500 0.000000 0.211184
O O5 0.956499 0.851991 0.391810
O O6 0.820692 0.859555 0.317712
O O7 0.150929 0.832525 0.261858
O O8 0.015910 0.000000 0.309782
O O9 0.500000 0.333821 0.500000
O O10 0.250000 0.250000 0.500000
O O11 0.540715 0.188169 0.418606
O O12 0.120595 0.340783 0.869966
O O13 0.097502 0.206314 0.067085
O O14 0.193407 0.385914 0.037855
O O15 0.000000 0.317719 0.000000
O O16 0.879371 0.000000 0.938069
O O17 0.000000 0.897544 0.000000
O O18 0.618377 0.000000 0.380540
#
# Coordination Sequence:
#
# PCOD9217867 Si02
#       7
#     8   8   8   8   8   8   8
#     4  11  26  46  74 107 142 191 244 299 367 434
#     4  11  25  47  72 105 143 187 246 300 363 441
#     4  12  25  42  69 103 142 185 232 293 363 427
#     4  12  26  45  75 106 148 190 240 310 369 438
#     4  10  24  44  68 101 139 182 231 293 362 431
#     4   9  20  41  66  93 130 175 228 282 344 424
#     4  10  23  47  72  99 138 186 241 295 359 437
#
# _framework density 22.217656000000002
#
# number of rings (size 3 to 8) (size 9 to 14) (size 15 to 20)
#    0.000    1.286    2.857    1.286    8.000    3.143 
#    0.000    0.714    0.000    0.000    0.000    0.000 
#    0.000    0.000    0.000    0.000    0.000    0.000 
#
# Total GULP energy -156407.966607 kJ/mol
# GULP energy per Si atom -5585.998807 kJ/mol
# Density = 2.216709 g / cm^3
# Si number density = 22.217656 Si / 1000 Ang^3
#
#
#
# Elastic Constant Matrix: (Units=GPa)
#
#
# Indices 1 2 3 4 5 6 
#
# 1 126.0624 54.4867 43.9592 0.0000 0.8199 0.0000
# 2 54.4867 110.2113 9.5537 0.0000 -6.1486 0.0000
# 3 43.9592 9.5537 102.5416 0.0000 -6.3226 0.0000
# 4 0.0000 0.0000 0.0000 27.4974 0.0000 -25.1309
# 5 0.8199 -6.1486 -6.3226 0.0000 35.3343 0.0000
# 6 0.0000 0.0000 0.0000 -25.1309 0.0000 56.0564
#
#
#
# Elastic Compliance Matrix: (Units=1/GPa)
#
#
# Indices 1 2 3 4 5 6 
#
# 1 0.012060 -0.005667 -0.004773 0.000000 -0.002120 0.000000
# 2 -0.005667 0.011885 0.001474 0.000000 0.002463 0.000000
# 3 -0.004773 0.001474 0.011814 0.000000 0.002481 0.000000
# 4 0.000000 0.000000 0.000000 0.061611 0.000000 0.027621
# 5 -0.002120 0.002463 0.002481 0.000000 0.029223 0.000000
# 6 0.000000 0.000000 0.000000 0.027621 0.000000 0.030222
#
#
# Mechanical properties :
#
#
# Convention : Reuss Voigt Hill
#
# Bulk Modulus (GPa) = 56.09398 61.64604 58.87001
# Shear Modulus (GPa) = 27.67191 39.16534 33.41863
#
# Velocity S-wave (km/s) = 3.53298 4.20313 3.88254
# Velocity P-wave (km/s) = 6.47649 7.16671 6.83032
#
# Compressibility (1/GPa) = 0.01782722
#
# Stress axis : x y z
#
# Youngs Moduli (GPa) = 82.91873 84.14170 84.64616
#
# Poissons Ratio (x) = 0.47681 0.40400
# Poissons Ratio (y) = 0.46988 -0.12476
# Poissons Ratio (z) = 0.39576 -0.12402
#
# Static dielectric constant tensor:
#      x y z
#    x 1.776030 0.000000 -0.038050 
#    y 0.000000 1.854830 0.000000 
#    z -0.038050 0.000000 1.751090 
# 
# From -- ./inp_files/332841.got.cif
#   From: 2010.05.17/outbox.cif.g08.bks.cpg/sg12_167_cif.got.tgz:332841.got - 2010.06.03 13:09:07.
