data_PCOD9217367
_publ_section_title
;
Structure prediction by ZEFSAII (Michael W. Deem and Ramdas Pophale) SiO2 
 PCOD9217367
Probable space group: C 2/M
;
_chemical_formula_sum "Si O2"
_cell_formula_units_Z 40
_cell_length_a 9.317537
_cell_length_b 14.346594
_cell_length_c 14.843760
_cell_angle_alpha 90.000000
_cell_angle_beta 91.309022
_cell_angle_gamma 90.000000
_cell_volume 1983.720599
_symmetry_space_group_name_H-M "C 2/M"
_symmetry_group_IT_number 12
_symmetry_cell_setting 'monoclinic'
loop_
_space_group_symop_operation_xyz
x,y,z
-x,y,-z
-x,-y,-z
x,-y,z
1/2+x,1/2+y,z
1/2-x,1/2+y,-z
1/2-x,1/2-y,-z
1/2+x,1/2-y,z
loop_
_atom_site_type_symbol
_atom_site_label
_atom_site_fract_x
_atom_site_fract_y
_atom_site_fract_z
Si Si1 0.790187 0.345829 0.835260
Si Si2 0.387779 0.500000 0.420059
Si Si3 0.860681 0.795263 0.434103
Si Si4 0.580277 0.500000 0.766282
Si Si5 0.167302 0.500000 0.015000
Si Si6 0.389052 0.813389 0.241612
Si Si7 0.766702 0.000000 0.811546
O O1 0.684781 0.413277 0.778128
O O2 0.701689 0.250023 0.830345
O O3 0.947807 0.330252 0.792721
O O4 0.798353 0.406041 0.927430
O O5 0.500000 0.500000 0.500000
O O6 0.307662 0.401758 0.417507
O O7 0.485352 0.500000 0.333062
O O8 0.750000 0.750000 0.500000
O O9 0.885019 0.738563 0.340078
O O10 0.000000 0.800004 0.500000
O O11 0.439153 0.500000 0.822667
O O12 0.224417 0.500000 0.915490
O O13 0.000000 0.500000 0.000000
O O14 0.302277 0.910440 0.238977
#
# Coordination Sequence:
#
# PCOD9217367 Si02
#       7
#     8   4   8   4   4   8   4
#     4  11  24  43  75  97 143 179 231 293 344 429
#     4  10  23  42  70  96 139 180 227 293 343 409
#     4  11  25  43  68 102 141 181 235 288 345 417
#     4  11  23  45  69 100 132 187 230 286 353 415
#     4  11  23  52  67 107 141 179 232 298 361 418
#     4  12  24  44  69 106 137 190 234 283 359 416
#     4  12  27  44  75  98 144 183 238 296 357 432
#
# _framework density 20.16413
#
# number of rings (size 3 to 8) (size 9 to 14) (size 15 to 20)
#    0.000    0.800    4.000    3.000    5.600    2.400 
#    0.000    1.000    0.000    0.000    0.000    0.000 
#    0.000    0.000    0.000    0.000    0.000    0.000 
#
# Total GULP energy -111354.361743 kJ/mol
# GULP energy per Si atom -5567.718087 kJ/mol
# Density = 2.011824 g / cm^3
# Si number density = 20.164130 Si / 1000 Ang^3
#
#
#
# Elastic Constant Matrix: (Units=GPa)
#
#
# Indices 1 2 3 4 5 6 
#
# 1 132.4760 48.9068 17.1733 0.0000 -9.0649 0.0000
# 2 48.9068 179.0182 38.8577 0.0000 -0.8431 0.0000
# 3 17.1733 38.8577 120.6492 0.0000 3.8062 0.0000
# 4 0.0000 0.0000 0.0000 8.5469 0.0000 10.2007
# 5 -9.0649 -0.8431 3.8062 0.0000 38.6247 0.0000
# 6 0.0000 0.0000 0.0000 10.2007 0.0000 26.7994
#
#
#
# Elastic Compliance Matrix: (Units=1/GPa)
#
#
# Indices 1 2 3 4 5 6 
#
# 1 0.008577 -0.002209 -0.000573 0.000000 0.002021 0.000000
# 2 -0.002209 0.006579 -0.001798 0.000000 -0.000198 0.000000
# 3 -0.000573 -0.001798 0.008983 0.000000 -0.001059 0.000000
# 4 0.000000 0.000000 0.000000 0.214401 0.000000 -0.081608
# 5 0.002021 -0.000198 -0.001059 0.000000 0.026465 0.000000
# 6 0.000000 0.000000 0.000000 -0.081608 0.000000 0.068377
#
#
# Mechanical properties :
#
#
# Convention : Reuss Voigt Hill
#
# Bulk Modulus (GPa) = 66.76743 71.33544 69.05144
# Shear Modulus (GPa) = 14.38706 36.60791 25.49749
#
# Velocity S-wave (km/s) = 2.67404 4.26549 3.55983
# Velocity P-wave (km/s) = 6.53589 7.72744 7.15651
#
# Compressibility (1/GPa) = 0.01497736
#
# Stress axis : x y z
#
# Youngs Moduli (GPa) = 116.59493 151.99992 111.32619
#
# Poissons Ratio (x) = 0.33580 0.06380
# Poissons Ratio (y) = 0.25758 0.20019
# Poissons Ratio (z) = 0.06682 0.27333
#
# Static dielectric constant tensor:
#      x y z
#    x 1.584920 0.000000 0.030170 
#    y 0.000000 2.054780 0.000000 
#    z 0.030170 0.000000 1.697490 
# 
# From -- ./inp_files/194637.got.cif
#   From: 2010.05.17/outbox.cif.g08.bks.cpg/sg12_98_cif.got.tgz:194637.got - 2010.06.03 13:09:07.
