data_PCOD9217381
_publ_section_title
;
Structure prediction by ZEFSAII (Michael W. Deem and Ramdas Pophale) SiO2 
 PCOD9217381
Probable space group: C 2/M
;
_chemical_formula_sum "Si O2"
_cell_formula_units_Z 28
_cell_length_a 9.275880
_cell_length_b 16.921178
_cell_length_c 17.434803
_cell_angle_alpha 90.000000
_cell_angle_beta 27.470272
_cell_angle_gamma 90.000000
_cell_volume 1262.336740
_symmetry_space_group_name_H-M "C 2/M"
_symmetry_group_IT_number 12
_symmetry_cell_setting 'monoclinic'
loop_
_space_group_symop_operation_xyz
x,y,z
-x,y,-z
-x,-y,-z
x,-y,z
1/2+x,1/2+y,z
1/2-x,1/2+y,-z
1/2-x,1/2-y,-z
1/2+x,1/2-y,z
loop_
_atom_site_type_symbol
_atom_site_label
_atom_site_fract_x
_atom_site_fract_y
_atom_site_fract_z
Si Si1 0.830867 0.360692 0.815286
Si Si2 0.691141 0.910219 0.785190
Si Si3 0.355918 0.165531 0.484281
Si Si4 0.500000 0.206107 0.000000
O O1 0.787150 0.267086 0.855568
O O2 0.104492 0.395302 0.737751
O O3 0.899690 0.368298 0.693427
O O4 0.500000 0.395588 0.000000
O O5 0.050094 0.889074 0.630735
O O6 0.622880 0.000000 0.838327
O O7 0.488653 0.849306 0.931493
O O8 0.500000 0.173947 0.500000
O O9 0.250000 0.250000 0.500000
#
# Coordination Sequence:
#
# PCOD9217381 Si02
#       4
#     8   8   8   4
#     4  10  24  43  76 101 140 189 244 277 350 429
#     4  12  26  44  71 108 147 183 233 302 358 407
#     4  12  25  43  72 104 140 187 238 289 350 428
#     4  10  23  42  73 104 138 188 236 284 345 430
#
# _framework density 22.181084999999999
#
# number of rings (size 3 to 8) (size 9 to 14) (size 15 to 20)
#    0.857    0.000    2.857    3.857    4.000    3.429 
#    0.000    0.000    0.000    0.000    0.000    0.000 
#    0.000    0.000    0.000    0.000    0.000    0.000 
#
# Total GULP energy -78291.079913 kJ/mol
# GULP energy per Si atom -5592.219994 kJ/mol
# Density = 2.213060 g / cm^3
# Si number density = 22.181085 Si / 1000 Ang^3
#
#
#
# Elastic Constant Matrix: (Units=GPa)
#
#
# Indices 1 2 3 4 5 6 
#
# 1 184.9553 15.0984 52.3272 0.0266 6.1818 -0.0464
# 2 15.0984 83.3460 -10.3277 -0.0564 -9.9914 0.0040
# 3 52.3272 -10.3277 84.8147 0.0748 11.4040 -0.1645
# 4 0.0266 -0.0564 0.0748 9.1148 -0.1051 4.0844
# 5 6.1818 -9.9914 11.4040 -0.1051 38.8147 0.0861
# 6 -0.0464 0.0040 -0.1645 4.0844 0.0861 -8.5280
#
#
#
# Elastic Compliance Matrix: (Units=1/GPa)
#
#
# Indices 1 2 3 4 5 6 
#
# 1 0.006803 -0.001807 -0.004382 -0.000015 -0.000261 0.000037
# 2 -0.001807 0.012964 0.002296 0.000082 0.002950 0.000041
# 3 -0.004382 0.002296 0.015200 0.000000 -0.003176 -0.000300
# 4 -0.000015 0.000082 0.000000 0.090328 0.000172 0.043263
# 5 -0.000261 0.002950 -0.003176 0.000172 0.027497 0.000424
# 6 0.000037 0.000041 -0.000300 0.043263 0.000424 -0.096531
#
#
# Mechanical properties :
#
#
# Convention : Reuss Voigt Hill
#
# Bulk Modulus (GPa) = 36.78829 51.92352 44.35590
# Shear Modulus (GPa) = 68.39496 27.61485 48.00491
#
# Velocity S-wave (km/s) = 5.55893 3.53224 4.65717
# Velocity P-wave (km/s) = 7.60419 6.33209 6.99711
#
# Compressibility (1/GPa) = 0.02718256
#
# Stress axis : x y z
#
# Youngs Moduli (GPa) = 147.00285 77.13832 65.79013
#
# Poissons Ratio (x) = 0.13936 0.28827
# Poissons Ratio (y) = 0.26557 -0.15109
# Poissons Ratio (z) = 0.64412 -0.17715
#
# Static dielectric constant tensor:
#      x y z
#    x 1.778350 0.000040 0.017560 
#    y 0.000040 1.812590 -0.000030 
#    z 0.017560 -0.000030 1.870910 
# 
# From -- ./inp_files/74865.got.cif
#   From: 2010.05.17/outbox.cif.g08.bks.cpg/sg12_38_cif.got.tgz:74865.got - 2010.06.03 13:09:07.
