data_PCOD9217707
_publ_section_title
;
Structure prediction by ZEFSAII (Michael W. Deem and Ramdas Pophale) SiO2 
 PCOD9217707
Probable space group: C 2/M
;
_chemical_formula_sum "Si O2"
_cell_formula_units_Z 34
_cell_length_a 7.728783
_cell_length_b 15.495935
_cell_length_c 16.005203
_cell_angle_alpha 90.000000
_cell_angle_beta 137.255163
_cell_angle_gamma 90.000000
_cell_volume 1301.038228
_symmetry_space_group_name_H-M "C 2/M"
_symmetry_group_IT_number 12
_symmetry_cell_setting 'monoclinic'
loop_
_space_group_symop_operation_xyz
x,y,z
-x,y,-z
-x,-y,-z
x,-y,z
1/2+x,1/2+y,z
1/2-x,1/2+y,-z
1/2-x,1/2-y,-z
1/2+x,1/2-y,z
loop_
_atom_site_type_symbol
_atom_site_label
_atom_site_fract_x
_atom_site_fract_y
_atom_site_fract_z
Si Si1 0.500000 0.000000 0.000000
Si Si2 0.210873 0.395065 0.396063
Si Si3 0.268979 0.600457 0.677740
Si Si4 0.001250 0.810610 0.911225
Si Si5 0.231152 0.361317 0.215973
O O1 0.588060 0.075107 0.100747
O O2 0.500000 0.361531 0.500000
O O3 0.219831 0.500000 0.404920
O O4 0.119777 0.373271 0.269342
O O5 0.006676 0.363263 0.393104
O O6 0.226306 0.500000 0.653194
O O7 0.450928 0.620929 0.821770
O O8 0.463701 0.622791 0.673185
O O9 0.793812 0.736079 0.824507
O O10 0.000000 0.854999 0.000000
O O11 0.250000 0.750000 0.000000
#
# Coordination Sequence:
#
# PCOD9217707 Si02
#       5
#     2   8   8   8   8
#     4  12  20  40  68 102 128 184 212 260 334 402
#     4  10  23  44  69  96 130 177 229 283 331 388
#     4  11  24  43  67 100 130 177 231 271 332 406
#     4  12  23  40  63  95 139 180 211 272 338 402
#     4  12  23  42  66  97 142 171 220 275 334 399
#
# _framework density 26.132975999999999
#
# number of rings (size 3 to 8) (size 9 to 14) (size 15 to 20)
#    0.000    0.706    5.882    1.412    0.000    1.412 
#    0.000    4.706    0.000    0.000    0.000    0.000 
#    0.000    0.000    0.000    0.000    0.000    0.000 
#
# Total GULP energy -94777.284272 kJ/mol
# GULP energy per Si atom -5575.134369 kJ/mol
# Density = 2.607350 g / cm^3
# Si number density = 26.132976 Si / 1000 Ang^3
#
#
#
# Elastic Constant Matrix: (Units=GPa)
#
#
# Indices 1 2 3 4 5 6 
#
# 1 127.3503 9.1315 4.8262 0.0001 34.6564 0.0000
# 2 9.1315 56.3967 7.5998 0.0000 -2.7973 0.0000
# 3 4.8262 7.5998 87.4966 0.0000 18.7749 0.0001
# 4 0.0001 0.0000 0.0000 -10.9256 0.0001 12.9920
# 5 34.6564 -2.7973 18.7749 0.0001 43.6260 0.0000
# 6 0.0000 0.0000 0.0001 12.9920 0.0000 24.0013
#
#
#
# Elastic Compliance Matrix: (Units=1/GPa)
#
#
# Indices 1 2 3 4 5 6 
#
# 1 0.010447 -0.002359 0.001589 0.000000 -0.009134 0.000000
# 2 -0.002359 0.018635 -0.002365 0.000000 0.004086 0.000000
# 3 0.001589 -0.002365 0.013056 0.000000 -0.007032 0.000000
# 4 0.000000 0.000000 0.000000 -0.055684 0.000000 0.030142
# 5 -0.009134 0.004086 -0.007032 0.000000 0.033467 0.000000
# 6 0.000000 0.000000 0.000000 0.030142 0.000000 0.025348
#
#
# Mechanical properties :
#
#
# Convention : Reuss Voigt Hill
#
# Bulk Modulus (GPa) = 27.88092 34.92870 31.40481
# Shear Modulus (GPa) = 78.74724 27.98608 53.36666
#
# Velocity S-wave (km/s) = 5.49533 3.27603 4.52388
# Velocity P-wave (km/s) = 7.13841 5.26351 6.27142
#
# Compressibility (1/GPa) = 0.03586682
#
# Stress axis : x y z
#
# Youngs Moduli (GPa) = 95.72189 53.66282 76.59413
#
# Poissons Ratio (x) = 0.12657 -0.12168
# Poissons Ratio (y) = 0.22577 0.18117
# Poissons Ratio (z) = -0.15206 0.12693
#
# Static dielectric constant tensor:
#      x y z
#    x 2.153600 0.000000 0.036920 
#    y 0.000000 1.866820 0.000000 
#    z 0.036920 0.000000 2.201920 
# 
# From -- ./inp_files/256341.got.cif
#   From: 2010.05.17/outbox.cif.g08.bks.cpg/sg12_129_cif.got.tgz:256341.got - 2010.06.03 13:09:07.
