data_PCOD9217802
_publ_section_title
;
Structure prediction by ZEFSAII (Michael W. Deem and Ramdas Pophale) SiO2 
 PCOD9217802
Probable space group: C 2/M
;
_chemical_formula_sum "Si O2"
_cell_formula_units_Z 48
_cell_length_a 23.423553
_cell_length_b 8.666465
_cell_length_c 12.103545
_cell_angle_alpha 90.000000
_cell_angle_beta 68.393137
_cell_angle_gamma 90.000000
_cell_volume 2284.363998
_symmetry_space_group_name_H-M "C 2/M"
_symmetry_group_IT_number 12
_symmetry_cell_setting 'monoclinic'
loop_
_space_group_symop_operation_xyz
x,y,z
-x,y,-z
-x,-y,-z
x,-y,z
1/2+x,1/2+y,z
1/2-x,1/2+y,-z
1/2-x,1/2-y,-z
1/2+x,1/2-y,z
loop_
_atom_site_type_symbol
_atom_site_label
_atom_site_fract_x
_atom_site_fract_y
_atom_site_fract_z
Si Si1 0.176862 0.317931 0.223429
Si Si2 0.486685 0.177463 0.878638
Si Si3 0.570834 0.184336 0.466041
Si Si4 0.605200 0.316965 0.672625
Si Si5 0.855419 0.180109 0.978043
Si Si6 0.204219 0.317503 0.762497
O O1 0.182160 0.500000 0.197078
O O2 0.111892 0.288055 0.328852
O O3 0.181003 0.226305 0.106101
O O4 0.230762 0.265102 0.266496
O O5 0.545476 0.243741 0.774204
O O6 0.426074 0.277692 0.903965
O O7 0.475454 0.000000 0.851430
O O8 0.500000 0.177767 0.000000
O O9 0.500000 0.229511 0.500000
O O10 0.599887 0.271958 0.548673
O O11 0.572339 0.000000 0.487584
O O12 0.604804 0.500000 0.688193
O O13 0.664973 0.246797 0.688722
O O14 0.848028 0.000000 0.008411
O O15 0.833703 0.277397 0.098992
O O16 0.212014 0.500000 0.747025
#
# Coordination Sequence:
#
# PCOD9217802 Si02
#       6
#     8   8   8   8   8   8
#     4  11  24  43  67  95 129 171 218 265 320 383
#     4  11  22  38  63  93 128 169 210 257 316 379
#     4  10  23  45  71  96 127 168 213 261 318 386
#     4  12  25  41  66  98 132 168 213 269 324 380
#     4  12  24  40  65  97 133 169 214 269 324 381
#     4  12  25  43  65  92 130 173 218 266 321 384
#
# _framework density 21.012412999999999
#
# number of rings (size 3 to 8) (size 9 to 14) (size 15 to 20)
#    0.000    0.667    1.667    7.000    0.000    4.333 
#    0.000    0.000    0.000    0.000    0.000    0.000 
#    0.000    0.000    0.000    0.000    0.000    0.000 
#
# Total GULP energy -134436.349726 kJ/mol
# GULP energy per Si atom -5601.514572 kJ/mol
# Density = 2.096459 g / cm^3
# Si number density = 21.012413 Si / 1000 Ang^3
#
#
#
# Elastic Constant Matrix: (Units=GPa)
#
#
# Indices 1 2 3 4 5 6 
#
# 1 99.7073 -6.4895 2.9813 0.0000 5.8847 0.0000
# 2 -6.4895 58.3044 9.9376 0.0000 2.2570 0.0000
# 3 2.9813 9.9376 36.4800 0.0000 18.4150 0.0000
# 4 0.0000 0.0000 0.0000 25.2321 0.0000 -1.0370
# 5 5.8847 2.2570 18.4150 0.0000 26.9686 0.0000
# 6 0.0000 0.0000 0.0000 -1.0370 0.0000 28.4830
#
#
#
# Elastic Compliance Matrix: (Units=1/GPa)
#
#
# Indices 1 2 3 4 5 6 
#
# 1 0.010248 0.001229 0.000013 0.000000 -0.002348 0.000000
# 2 0.001229 0.018274 -0.006365 0.000000 0.002549 0.000000
# 3 0.000013 -0.006365 0.044067 0.000000 -0.029561 0.000000
# 4 0.000000 0.000000 0.000000 0.039692 0.000000 0.001445
# 5 -0.002348 0.002549 -0.029561 0.000000 0.057564 0.000000
# 6 0.000000 0.000000 0.000000 0.001445 0.000000 0.035161
#
#
# Mechanical properties :
#
#
# Convention : Reuss Voigt Hill
#
# Bulk Modulus (GPa) = 16.04028 23.03893 19.53961
# Shear Modulus (GPa) = 21.18342 28.67423 24.92882
#
# Velocity S-wave (km/s) = 3.17856 3.69810 3.44813
# Velocity P-wave (km/s) = 4.59579 5.40582 5.01718
#
# Compressibility (1/GPa) = 0.06234305
#
# Stress axis : x y z
#
# Youngs Moduli (GPa) = 97.58439 54.72128 22.69250
#
# Poissons Ratio (x) = -0.06727 -0.00029
# Poissons Ratio (y) = -0.11996 0.14444
# Poissons Ratio (z) = -0.00124 0.34831
#
# Static dielectric constant tensor:
#      x y z
#    x 1.756140 0.000000 -0.005680 
#    y 0.000000 1.700170 0.000000 
#    z -0.005680 0.000000 1.733620 
# 
# From -- ./inp_files/172184.got.cif
#   From: 2010.05.17/outbox.cif.g08.bks.cpg/sg12_87_cif.got.tgz:172184.got - 2010.06.03 13:09:07.
