data_PCOD9217134
_publ_section_title
;
Structure prediction by ZEFSAII (Michael W. Deem and Ramdas Pophale) SiO2 
 PCOD9217134
Probable space group: C 2/M
;
_chemical_formula_sum "Si O2"
_cell_formula_units_Z 48
_cell_length_a 19.954188
_cell_length_b 12.834811
_cell_length_c 9.599721
_cell_angle_alpha 90.000000
_cell_angle_beta 55.578667
_cell_angle_gamma 90.000000
_cell_volume 2028.079976
_symmetry_space_group_name_H-M "C 2/M"
_symmetry_group_IT_number 12
_symmetry_cell_setting 'monoclinic'
loop_
_space_group_symop_operation_xyz
x,y,z
-x,y,-z
-x,-y,-z
x,-y,z
1/2+x,1/2+y,z
1/2-x,1/2+y,-z
1/2-x,1/2-y,-z
1/2+x,1/2-y,z
loop_
_atom_site_type_symbol
_atom_site_label
_atom_site_fract_x
_atom_site_fract_y
_atom_site_fract_z
Si Si1 0.122952 0.382469 0.184855
Si Si2 0.895455 0.876212 0.245479
Si Si3 0.532289 0.677390 0.314360
Si Si4 0.407789 0.169426 0.092973
Si Si5 0.714306 0.623577 0.109035
Si Si6 0.255065 0.621228 0.613900
O O1 0.112066 0.500000 0.250283
O O2 0.055011 0.299745 0.308046
O O3 0.117811 0.377582 0.023296
O O4 0.216840 0.343431 0.085277
O O5 0.905274 0.795215 0.107656
O O6 0.810298 0.845392 0.420180
O O7 0.965418 0.847983 0.276471
O O8 0.898511 0.000000 0.208610
O O9 0.500000 0.635836 0.500000
O O10 0.621218 0.634353 0.173677
O O11 0.341994 0.131507 0.282240
O O12 0.500000 0.136541 0.000000
O O13 0.730958 0.500000 0.098389
O O14 0.720868 0.664920 0.261806
O O15 0.276068 0.500000 0.597131
#
# Coordination Sequence:
#
# PCOD9217134 Si02
#       6
#     8   8   8   8   8   8
#     4  10  23  42  61  85 116 154 199 246 290 340
#     4  11  23  39  58  89 125 153 191 239 293 348
#     4  12  22  37  62  90 118 155 192 236 293 354
#     4  11  21  39  61  86 115 153 199 240 290 339
#     4   9  18  35  61  88 116 152 193 236 286 347
#     4   9  19  36  61  88 117 153 193 241 286 343
#
# _framework density 23.667707
#
# number of rings (size 3 to 8) (size 9 to 14) (size 15 to 20)
#    0.000    1.667    3.333    3.000    0.000    2.667 
#    0.000    0.000    0.000    4.000    0.000    0.000 
#    0.000    0.000    0.000    0.000    0.000    0.000 
#
# Total GULP energy -133902.681937 kJ/mol
# GULP energy per Si atom -5579.278414 kJ/mol
# Density = 2.361384 g / cm^3
# Si number density = 23.667707 Si / 1000 Ang^3
#
#
#
# Elastic Constant Matrix: (Units=GPa)
#
#
# Indices 1 2 3 4 5 6 
#
# 1 57.8900 2.8450 24.7594 0.0000 -27.9716 0.0000
# 2 2.8450 81.5078 -0.5321 0.0000 9.6016 0.0000
# 3 24.7594 -0.5321 85.5874 0.0000 -22.5467 0.0000
# 4 0.0000 0.0000 0.0000 40.1256 0.0000 -9.8873
# 5 -27.9716 9.6016 -22.5467 0.0000 36.4073 0.0000
# 6 0.0000 0.0000 0.0000 -9.8873 0.0000 34.4782
#
#
#
# Elastic Compliance Matrix: (Units=1/GPa)
#
#
# Indices 1 2 3 4 5 6 
#
# 1 0.029036 -0.003570 -0.002745 0.000000 0.021550 0.000000
# 2 -0.003570 0.013167 -0.000625 0.000000 -0.006602 0.000000
# 3 -0.002745 -0.000625 0.014294 0.000000 0.006908 0.000000
# 4 0.000000 0.000000 0.000000 0.026817 0.000000 0.007690
# 5 0.021550 -0.006602 0.006908 0.000000 0.050043 0.000000
# 6 0.000000 0.000000 0.000000 0.007690 0.000000 0.031209
#
#
# Mechanical properties :
#
#
# Convention : Reuss Voigt Hill
#
# Bulk Modulus (GPa) = 23.46430 31.01443 27.23937
# Shear Modulus (GPa) = 25.95364 35.39640 30.67502
#
# Velocity S-wave (km/s) = 3.31506 3.87144 3.60400
# Velocity P-wave (km/s) = 4.95867 5.75470 5.37145
#
# Compressibility (1/GPa) = 0.04261793
#
# Stress axis : x y z
#
# Youngs Moduli (GPa) = 34.43973 75.94725 69.95964
#
# Poissons Ratio (x) = 0.27113 0.19204
# Poissons Ratio (y) = 0.12295 0.04370
# Poissons Ratio (z) = 0.09454 0.04744
#
# Static dielectric constant tensor:
#      x y z
#    x 1.931970 0.000000 -0.088020 
#    y 0.000000 1.978740 0.000000 
#    z -0.088020 0.000000 1.960600 
# 
# From -- ./inp_files/164697.got.cif
#   From: 2010.05.17/outbox.cif.g08.bks.cpg/sg12_83_cif.got.tgz:164697.got - 2010.06.03 13:09:07.
