data_PCOD9217945
_publ_section_title
;
Structure prediction by ZEFSAII (Michael W. Deem and Ramdas Pophale) SiO2 
 PCOD9217945
Probable space group: C 2/M
;
_chemical_formula_sum "Si O2"
_cell_formula_units_Z 64
_cell_length_a 22.641606
_cell_length_b 27.269726
_cell_length_c 15.473324
_cell_angle_alpha 90.000000
_cell_angle_beta 19.029836
_cell_angle_gamma 90.000000
_cell_volume 3115.084135
_symmetry_space_group_name_H-M "C 2/M"
_symmetry_group_IT_number 12
_symmetry_cell_setting 'monoclinic'
loop_
_space_group_symop_operation_xyz
x,y,z
-x,y,-z
-x,-y,-z
x,-y,z
1/2+x,1/2+y,z
1/2-x,1/2+y,-z
1/2-x,1/2-y,-z
1/2+x,1/2-y,z
loop_
_atom_site_type_symbol
_atom_site_label
_atom_site_fract_x
_atom_site_fract_y
_atom_site_fract_z
Si Si1 0.320587 0.776356 0.267607
Si Si2 0.754239 0.835145 0.971516
Si Si3 0.006822 0.254410 0.586501
Si Si4 0.555865 0.890344 0.675839
Si Si5 0.949942 0.895372 0.853821
Si Si6 0.859646 0.181625 0.320617
Si Si7 0.141594 0.557115 0.376455
Si Si8 0.845340 0.441563 0.284961
O O1 0.187462 0.804270 0.515776
O O2 0.394701 0.730993 0.221520
O O3 0.205183 0.756073 0.348476
O O4 0.500000 0.807104 0.000000
O O5 0.600501 0.795557 0.211921
O O6 0.648708 0.870784 0.052179
O O7 0.907108 0.798311 0.725671
O O8 0.840245 0.868013 0.929263
O O9 0.000000 0.273794 0.500000
O O10 0.688712 0.845157 0.514735
O O11 0.616991 0.913885 0.500060
O O12 0.581547 0.926566 0.721190
O O13 0.979645 0.856262 0.890609
O O14 0.147988 0.914981 0.550037
O O15 0.832496 0.936814 0.063445
O O16 0.105024 0.500000 0.444628
O O17 0.000000 0.575547 0.500000
O O18 0.816761 0.500000 0.319262
O O19 0.000000 0.428655 0.000000
#
# Coordination Sequence:
#
# PCOD9217945 Si02
#       8
#     8   8   8   8   8   8   8   8
#     4  11  24  39  59  85 126 170 217 277 321 385
#     4  11  24  42  61  96 132 174 229 265 334 390
#     4  11  26  40  62  90 134 179 221 282 326 393
#     4  11  23  42  69  96 132 174 218 279 325 415
#     4  11  23  42  70  96 132 175 218 278 325 413
#     4  10  24  39  58  88 121 166 223 261 325 379
#     4  11  24  41  67 104 138 170 210 278 351 406
#     4  10  24  47  72  98 131 172 218 278 342 403
#
# _framework density 20.545190999999999
#
# number of rings (size 3 to 8) (size 9 to 14) (size 15 to 20)
#    0.000    1.250    3.750    0.750    7.000    4.500 
#    0.000    3.125    0.000    1.500    0.000    0.000 
#    0.000    0.000    0.000    0.000    0.000    0.000 
#
# Total GULP energy -178624.500741 kJ/mol
# GULP energy per Si atom -5582.015648 kJ/mol
# Density = 2.049843 g / cm^3
# Si number density = 20.545191 Si / 1000 Ang^3
#
#
#
# Elastic Constant Matrix: (Units=GPa)
#
#
# Indices 1 2 3 4 5 6 
#
# 1 88.5526 8.4424 25.8684 -0.0494 -18.7694 0.0005
# 2 8.4424 67.0502 6.7085 -0.0204 -5.9068 0.0072
# 3 25.8684 6.7085 84.1892 -0.0727 -9.8374 -0.0131
# 4 -0.0494 -0.0204 -0.0727 -11.6154 0.0269 -38.4707
# 5 -18.7694 -5.9068 -9.8374 0.0269 38.6191 -0.0145
# 6 0.0005 0.0072 -0.0131 -38.4707 -0.0145 -27.2888
#
#
#
# Elastic Compliance Matrix: (Units=1/GPa)
#
#
# Indices 1 2 3 4 5 6 
#
# 1 0.013566 -0.000871 -0.003447 0.000005 0.005582 -0.000008
# 2 -0.000871 0.015250 -0.000747 0.000007 0.001719 -0.000006
# 3 -0.003447 -0.000747 0.013180 0.000010 0.001568 -0.000022
# 4 0.000005 0.000007 0.000010 0.023464 -0.000023 -0.033078
# 5 0.005582 0.001719 0.001568 -0.000023 0.029269 0.000016
# 6 -0.000008 -0.000006 -0.000022 -0.033078 0.000016 0.009987
#
#
# Mechanical properties :
#
#
# Convention : Reuss Voigt Hill
#
# Bulk Modulus (GPa) = 31.38117 35.75896 33.57007
# Shear Modulus (GPa) = 39.85107 13.19450 26.52279
#
# Velocity S-wave (km/s) = 4.40896 2.53695 3.59688
# Velocity P-wave (km/s) = 6.42074 5.10140 5.79872
#
# Compressibility (1/GPa) = 0.03186624
#
# Stress axis : x y z
#
# Youngs Moduli (GPa) = 73.71488 65.57359 75.87408
#
# Poissons Ratio (x) = 0.05715 0.26151
# Poissons Ratio (y) = 0.06424 0.05664
# Poissons Ratio (z) = 0.25407 0.04895
#
# Static dielectric constant tensor:
#      x y z
#    x 1.736060 -0.000030 0.009100 
#    y -0.000030 1.707150 0.000040 
#    z 0.009100 0.000040 1.742690 
# 
# From -- ./inp_files/235994.got.cif
#   From: 2010.05.17/outbox.cif.g08.bks.cpg/sg12_118_cif.got.tgz:235994.got - 2010.06.03 13:09:07.
