data_PCOD9217877
_publ_section_title
;
Structure prediction by ZEFSAII (Michael W. Deem and Ramdas Pophale) SiO2 
 PCOD9217877
Probable space group: C 2/M
;
_chemical_formula_sum "Si O2"
_cell_formula_units_Z 52
_cell_length_a 29.346466
_cell_length_b 9.339597
_cell_length_c 15.400567
_cell_angle_alpha 90.000000
_cell_angle_beta 140.514666
_cell_angle_gamma 90.000000
_cell_volume 2684.085164
_symmetry_space_group_name_H-M "C 2/M"
_symmetry_group_IT_number 12
_symmetry_cell_setting 'monoclinic'
loop_
_space_group_symop_operation_xyz
x,y,z
-x,y,-z
-x,-y,-z
x,-y,z
1/2+x,1/2+y,z
1/2-x,1/2+y,-z
1/2-x,1/2-y,-z
1/2+x,1/2-y,z
loop_
_atom_site_type_symbol
_atom_site_label
_atom_site_fract_x
_atom_site_fract_y
_atom_site_fract_z
Si Si1 0.543065 0.166782 0.650550
Si Si2 0.547285 0.671159 0.831666
Si Si3 0.212143 0.331782 0.864939
Si Si4 0.811231 0.665889 0.894357
Si Si5 0.280485 0.500000 0.560226
Si Si6 0.692817 0.207742 0.315741
Si Si7 0.534644 0.837768 0.144829
O O1 0.500000 0.201712 0.500000
O O2 0.525724 0.268408 0.705841
O O3 0.627291 0.177885 0.753283
O O4 0.527808 0.000000 0.651149
O O5 0.553846 0.500000 0.841679
O O6 0.491538 0.726116 0.822254
O O7 0.621893 0.748697 0.966477
O O8 0.231934 0.500000 0.891854
O O9 0.240649 0.248606 0.822595
O O10 0.250000 0.250000 0.000000
O O11 0.811772 0.500000 0.924705
O O12 0.816726 0.669997 0.798861
O O13 0.297322 0.374665 0.655905
O O14 0.257947 0.623072 0.454859
O O15 0.619849 0.163969 0.258243
O O16 0.511278 0.000000 0.134384
O O17 0.500000 0.804698 0.000000
#
# Coordination Sequence:
#
# PCOD9217877 Si02
#       7
#     8   8   8   8   4   8   8
#     4  10  23  48  70  94 132 177 216 266 331 400
#     4  12  26  40  65 100 132 167 217 276 334 388
#     4  11  23  40  68 100 131 168 219 272 326 389
#     4  12  23  41  67  96 130 170 222 275 323 385
#     4  10  24  44  64  90 132 180 218 270 318 390
#     4  11  23  44  66  93 133 176 221 267 323 385
#     4  11  22  40  66  94 129 172 217 268 326 383
#
# _framework density 19.373455
#
# number of rings (size 3 to 8) (size 9 to 14) (size 15 to 20)
#    0.000    0.923    4.615    2.308    3.231    1.231 
#    5.538    0.000    0.000    0.000    0.000    0.000 
#    0.000    0.000    0.000    0.000    0.000    0.000 
#
# Total GULP energy -144799.136291 kJ/mol
# GULP energy per Si atom -5569.197550 kJ/mol
# Density = 1.932936 g / cm^3
# Si number density = 19.373455 Si / 1000 Ang^3
#
#
#
# Elastic Constant Matrix: (Units=GPa)
#
#
# Indices 1 2 3 4 5 6 
#
# 1 86.0924 55.7143 18.3714 0.0000 -12.8332 0.0000
# 2 55.7143 202.1150 48.2646 0.0000 -21.6150 0.0000
# 3 18.3714 48.2646 78.5661 0.0000 -19.4188 0.0000
# 4 0.0000 0.0000 0.0000 -47.7340 0.0000 -110.9100
# 5 -12.8332 -21.6150 -19.4188 0.0000 18.0574 0.0000
# 6 0.0000 0.0000 0.0000 -110.9100 0.0000 -122.6663
#
#
#
# Elastic Compliance Matrix: (Units=1/GPa)
#
#
# Indices 1 2 3 4 5 6 
#
# 1 0.014769 -0.003426 0.000316 0.000000 0.006735 0.000000
# 2 -0.003426 0.006841 -0.002696 0.000000 0.002855 0.000000
# 3 0.000316 -0.002696 0.018480 0.000000 0.016871 0.000000
# 4 0.000000 0.000000 0.000000 0.019031 0.000000 -0.017207
# 5 0.006735 0.002855 0.016871 0.000000 0.081726 0.000000
# 6 0.000000 0.000000 0.000000 -0.017207 0.000000 0.007406
#
#
# Mechanical properties :
#
#
# Convention : Reuss Voigt Hill
#
# Bulk Modulus (GPa) = 35.11459 67.94156 51.52807
# Shear Modulus (GPa) = 29.52310 -14.17371 7.67469
#
# Velocity S-wave (km/s) = 3.90794 -2.70775 1.99250
# Velocity P-wave (km/s) = 6.20702 5.03683 5.65229
#
# Compressibility (1/GPa) = 0.02847819
#
# Stress axis : x y z
#
# Youngs Moduli (GPa) = 67.70786 146.17133 54.11145
#
# Poissons Ratio (x) = 0.50085 -0.01710
# Poissons Ratio (y) = 0.23200 0.14588
# Poissons Ratio (z) = -0.02139 0.39406
#
# Static dielectric constant tensor:
#      x y z
#    x 1.704040 0.000000 0.013700 
#    y 0.000000 1.679350 0.000000 
#    z 0.013700 0.000000 1.680100 
# 
# From -- ./inp_files/250135.got.cif
#   From: 2010.05.17/outbox.cif.g08.bks.cpg/sg12_126_cif.got.tgz:250135.got - 2010.06.03 13:09:07.
