data_PCOD9217003
_publ_section_title
;
Structure prediction by ZEFSAII (Michael W. Deem and Ramdas Pophale) SiO2 
 PCOD9217003
Probable space group: C 2/M
;
_chemical_formula_sum "Si O2"
_cell_formula_units_Z 42
_cell_length_a 12.637099
_cell_length_b 14.078344
_cell_length_c 10.003658
_cell_angle_alpha 90.000000
_cell_angle_beta 88.924130
_cell_angle_gamma 90.000000
_cell_volume 1779.431307
_symmetry_space_group_name_H-M "C 2/M"
_symmetry_group_IT_number 12
_symmetry_cell_setting 'monoclinic'
loop_
_space_group_symop_operation_xyz
x,y,z
-x,y,-z
-x,-y,-z
x,-y,z
1/2+x,1/2+y,z
1/2-x,1/2+y,-z
1/2-x,1/2-y,-z
1/2+x,1/2-y,z
loop_
_atom_site_type_symbol
_atom_site_label
_atom_site_fract_x
_atom_site_fract_y
_atom_site_fract_z
Si Si1 0.236698 0.389125 0.460310
Si Si2 0.342859 0.364588 0.956179
Si Si3 0.566720 0.603875 0.337583
Si Si4 0.618558 0.755287 0.658024
Si Si5 0.611556 0.842711 0.951072
Si Si6 0.500000 0.500000 0.000000
O O1 0.212996 0.500000 0.428944
O O2 0.335757 0.389240 0.562174
O O3 0.282076 0.319353 0.343868
O O4 0.144369 0.331031 0.539633
O O5 0.382398 0.397103 0.810332
O O6 0.222018 0.393691 0.973354
O O7 0.418429 0.418182 0.055613
O O8 0.368269 0.254667 0.968440
O O9 0.514062 0.500000 0.355812
O O10 0.485302 0.689989 0.353289
O O11 0.610180 0.813055 0.795760
O O12 0.500000 0.884127 0.000000
#
# Coordination Sequence:
#
# PCOD9217003 Si02
#       6
#     8   8   8   8   8   2
#     4  10  23  41  63  94 129 169 220 274 325 397
#     4  11  22  36  63  94 133 169 219 271 327 389
#     4  11  20  37  64  95 126 165 224 276 321 387
#     4  11  21  38  65  93 126 172 215 272 336 384
#     4  11  22  40  60  96 132 177 214 267 333 407
#     4  12  20  40  62  96 126 174 216 282 314 386
#
# _framework density 23.603045999999999
#
# number of rings (size 3 to 8) (size 9 to 14) (size 15 to 20)
#    0.000    1.143    5.714    1.143    0.000    1.524 
#    1.714    0.476    0.000   10.286    0.000    0.000 
#    0.000    0.000    0.000    0.000    0.000    0.000 
#
# Total GULP energy -117117.479557 kJ/mol
# GULP energy per Si atom -5577.022836 kJ/mol
# Density = 2.354932 g / cm^3
# Si number density = 23.603046 Si / 1000 Ang^3
#
#
#
# Elastic Constant Matrix: (Units=GPa)
#
#
# Indices 1 2 3 4 5 6 
#
# 1 160.1782 38.2322 10.6832 0.0000 -28.8546 0.0000
# 2 38.2322 132.5283 -2.3055 0.0000 -22.3087 0.0000
# 3 10.6832 -2.3055 65.7650 0.0000 -27.5524 0.0000
# 4 0.0000 0.0000 0.0000 7.6329 0.0000 13.2743
# 5 -28.8546 -22.3087 -27.5524 0.0000 39.8662 0.0000
# 6 0.0000 0.0000 0.0000 13.2743 0.0000 17.6027
#
#
#
# Elastic Compliance Matrix: (Units=1/GPa)
#
#
# Indices 1 2 3 4 5 6 
#
# 1 0.007440 -0.001219 0.001012 0.000000 0.005402 0.000000
# 2 -0.001219 0.009024 0.003182 0.000000 0.006366 0.000000
# 3 0.001012 0.003182 0.022810 0.000000 0.018277 0.000000
# 4 0.000000 0.000000 0.000000 -0.420640 0.000000 0.317207
# 5 0.005402 0.006366 0.018277 0.000000 0.045188 0.000000
# 6 0.000000 0.000000 0.000000 0.317207 0.000000 -0.182398
#
#
# Mechanical properties :
#
#
# Convention : Reuss Voigt Hill
#
# Bulk Modulus (GPa) = 22.11319 50.18792 36.15055
# Shear Modulus (GPa) = -9.81451 33.81114 11.99832
#
# Velocity S-wave (km/s) = -2.04137 3.78893 2.25708
# Velocity P-wave (km/s) = 1.95778 6.36010 4.70551
#
# Compressibility (1/GPa) = 0.04522188
#
# Stress axis : x y z
#
# Youngs Moduli (GPa) = 134.41469 110.81196 43.84030
#
# Poissons Ratio (x) = 0.13512 -0.04435
# Poissons Ratio (y) = 0.16390 -0.13948
# Poissons Ratio (z) = -0.13599 -0.35255
#
# Static dielectric constant tensor:
#      x y z
#    x 2.038180 0.000000 0.112060 
#    y 0.000000 1.929550 0.000000 
#    z 0.112060 0.000000 2.016320 
# 
# From -- ./inp_files/129680.got.cif
#   From: 2010.05.17/outbox.cif.g08.bks.cpg/sg12_65_cif.got.tgz:129680.got - 2010.06.03 13:09:07.
