data_PCOD9217987
_publ_section_title
;
Structure prediction by ZEFSAII (Michael W. Deem and Ramdas Pophale) SiO2 
 PCOD9217987
Probable space group: C 2/M
;
_chemical_formula_sum "Si O2"
_cell_formula_units_Z 60
_cell_length_a 18.150069
_cell_length_b 25.438361
_cell_length_c 6.552211
_cell_angle_alpha 90.000000
_cell_angle_beta 95.588320
_cell_angle_gamma 90.000000
_cell_volume 3010.830293
_symmetry_space_group_name_H-M "C 2/M"
_symmetry_group_IT_number 12
_symmetry_cell_setting 'monoclinic'
loop_
_space_group_symop_operation_xyz
x,y,z
-x,y,-z
-x,-y,-z
x,-y,z
1/2+x,1/2+y,z
1/2-x,1/2+y,-z
1/2-x,1/2-y,-z
1/2+x,1/2-y,z
loop_
_atom_site_type_symbol
_atom_site_label
_atom_site_fract_x
_atom_site_fract_y
_atom_site_fract_z
Si Si1 0.089071 0.805566 0.849866
Si Si2 0.671234 0.126265 0.184016
Si Si3 0.226614 0.438364 0.829892
Si Si4 0.500000 0.625952 0.500000
Si Si5 0.081667 0.401908 0.537967
Si Si6 0.214141 0.801830 0.580449
Si Si7 0.127681 0.127694 0.256135
Si Si8 0.066139 0.315566 0.873527
O O1 0.042024 0.837846 0.673981
O O2 0.170402 0.795027 0.779222
O O3 0.057488 0.746857 0.856543
O O4 0.095354 0.843000 0.048245
O O5 0.607618 0.104764 0.312984
O O6 0.725933 0.154089 0.355508
O O7 0.708812 0.082705 0.052599
O O8 0.639898 0.169464 0.018098
O O9 0.241320 0.500000 0.831888
O O10 0.151205 0.427805 0.677694
O O11 0.300522 0.407741 0.775485
O O12 0.564380 0.599354 0.377891
O O13 0.069224 0.347034 0.660947
O O14 0.000000 0.427592 0.500000
O O15 0.250000 0.750000 0.500000
O O16 0.157798 0.824468 0.400677
O O17 0.000000 0.335568 0.000000
#
# Coordination Sequence:
#
# PCOD9217987 Si02
#       8
#     8   8   8   4   8   8   8   8
#     4  11  23  37  59  94 136 176 216 261 315 392
#     4  11  22  41  59  92 128 167 214 270 323 379
#     4  11  26  45  70  96 121 167 226 281 335 383
#     4  10  24  40  63  94 132 176 209 260 330 396
#     4  11  23  42  65  93 133 172 212 273 323 382
#     4  11  22  35  61  95 128 174 214 254 320 396
#     4  11  22  43  64  94 131 169 219 273 325 387
#     4  11  22  34  59  91 131 177 219 253 309 389
#
# _framework density 19.928056999999999
#
# number of rings (size 3 to 8) (size 9 to 14) (size 15 to 20)
#    0.000    1.067    4.000    2.800    2.800    4.000 
#    0.000    1.000    0.000    1.600    0.000    0.000 
#    0.000    0.000    0.000    0.000    0.000    0.000 
#
# Total GULP energy -167306.593196 kJ/mol
# GULP energy per Si atom -5576.886440 kJ/mol
# Density = 1.988270 g / cm^3
# Si number density = 19.928057 Si / 1000 Ang^3
#
#
#
# Elastic Constant Matrix: (Units=GPa)
#
#
# Indices 1 2 3 4 5 6 
#
# 1 114.4190 26.5104 49.8041 0.0000 -27.8767 0.0000
# 2 26.5104 70.2780 36.3288 0.0000 -11.6347 0.0000
# 3 49.8041 36.3288 109.9049 0.0000 -8.6348 0.0000
# 4 0.0000 0.0000 0.0000 8.5154 0.0000 -2.2450
# 5 -27.8767 -11.6347 -8.6348 0.0000 58.9180 0.0000
# 6 0.0000 0.0000 0.0000 -2.2450 0.0000 8.3087
#
#
#
# Elastic Compliance Matrix: (Units=1/GPa)
#
#
# Indices 1 2 3 4 5 6 
#
# 1 0.012306 -0.001391 -0.004735 0.000000 0.004854 0.000000
# 2 -0.001391 0.017718 -0.005061 0.000000 0.002099 0.000000
# 3 -0.004735 -0.005061 0.012811 0.000000 -0.001363 0.000000
# 4 0.000000 0.000000 0.000000 0.126441 0.000000 0.034164
# 5 0.004854 0.002099 -0.001363 0.000000 0.019484 0.000000
# 6 0.000000 0.000000 0.000000 0.034164 0.000000 0.129587
#
#
# Mechanical properties :
#
#
# Convention : Reuss Voigt Hill
#
# Bulk Modulus (GPa) = 48.87785 57.76538 53.32162
# Shear Modulus (GPa) = 14.38679 27.27899 20.83289
#
# Velocity S-wave (km/s) = 2.68980 3.70384 3.23678
# Velocity P-wave (km/s) = 5.85039 6.88049 6.38625
#
# Compressibility (1/GPa) = 0.02045917
#
# Stress axis : x y z
#
# Youngs Moduli (GPa) = 81.26253 56.44081 78.05984
#
# Poissons Ratio (x) = 0.07848 0.36965
# Poissons Ratio (y) = 0.11300 0.39510
# Poissons Ratio (z) = 0.38482 0.28567
#
# Static dielectric constant tensor:
#      x y z
#    x 1.723480 0.000000 -0.018860 
#    y 0.000000 1.658330 0.000000 
#    z -0.018860 0.000000 1.717150 
# 
# From -- ./inp_files/17674.got.cif
#   From: 2010.05.17/outbox.cif.g08.bks.cpg/sg12_9_cif.got.tgz:17674.got - 2010.06.03 13:09:07.
