data_PCOD9217159
_publ_section_title
;
Structure prediction by ZEFSAII (Michael W. Deem and Ramdas Pophale) SiO2 
 PCOD9217159
Probable space group: C 2/M
;
_chemical_formula_sum "Si O2"
_cell_formula_units_Z 44
_cell_length_a 9.303183
_cell_length_b 18.222909
_cell_length_c 17.129639
_cell_angle_alpha 90.000000
_cell_angle_beta 45.542322
_cell_angle_gamma 90.000000
_cell_volume 2072.786381
_symmetry_space_group_name_H-M "C 2/M"
_symmetry_group_IT_number 12
_symmetry_cell_setting 'monoclinic'
loop_
_space_group_symop_operation_xyz
x,y,z
-x,y,-z
-x,-y,-z
x,-y,z
1/2+x,1/2+y,z
1/2-x,1/2+y,-z
1/2-x,1/2-y,-z
1/2+x,1/2-y,z
loop_
_atom_site_type_symbol
_atom_site_label
_atom_site_fract_x
_atom_site_fract_y
_atom_site_fract_z
Si Si1 0.163730 0.159202 0.868592
Si Si2 0.606089 0.713755 0.160577
Si Si3 0.582105 0.000000 0.842152
Si Si4 0.703638 0.500000 0.870922
Si Si5 0.000000 0.254753 0.500000
Si Si6 0.594398 0.341710 0.612493
Si Si7 0.990535 0.000000 0.409653
Si Si8 0.500000 0.125015 0.000000
O O1 0.353194 0.202970 0.829635
O O2 0.205501 0.076670 0.824737
O O3 0.066704 0.206153 0.836972
O O4 0.000000 0.154953 0.000000
O O5 0.546187 0.667769 0.259175
O O6 0.811591 0.677006 0.050712
O O7 0.392368 0.000000 0.856673
O O8 0.559667 0.070990 0.906578
O O9 0.787237 0.000000 0.714648
O O10 0.500000 0.500000 0.000000
O O11 0.195794 0.304456 0.441234
O O12 0.995396 0.202810 0.578026
O O13 0.615575 0.425648 0.578787
O O14 0.000000 0.000000 0.500000
#
# Coordination Sequence:
#
# PCOD9217159 Si02
#       8
#     8   8   4   4   4   8   4   4
#     4  11  24  40  63  94 143 183 225 276 330 404
#     4  12  24  40  68 102 136 180 233 279 339 414
#     4  11  24  42  68 100 140 189 220 283 354 416
#     4  10  23  42  62  92 143 181 227 276 339 408
#     4  10  24  48  72  96 138 186 230 292 348 412
#     4  11  24  46  73 101 136 179 233 289 352 410
#     4  12  25  47  72 106 136 175 235 296 346 413
#     4  11  22  38  68 101 140 182 224 275 346 424
#
# _framework density 21.227464999999999
#
# number of rings (size 3 to 8) (size 9 to 14) (size 15 to 20)
#    0.000    0.909    3.636    3.818    2.545    3.273 
#    3.273    0.000    0.000    0.000    0.000    0.000 
#    0.000    0.000    0.000    0.000    0.000    0.000 
#
# Total GULP energy -123068.688080 kJ/mol
# GULP energy per Si atom -5594.031276 kJ/mol
# Density = 2.117915 g / cm^3
# Si number density = 21.227465 Si / 1000 Ang^3
#
#
#
# Elastic Constant Matrix: (Units=GPa)
#
#
# Indices 1 2 3 4 5 6 
#
# 1 124.9280 50.1331 27.3341 0.0001 2.5711 0.0004
# 2 50.1331 167.4371 23.0955 0.0001 0.1114 0.0001
# 3 27.3341 23.0955 72.4337 0.0000 16.5576 0.0003
# 4 0.0001 0.0001 0.0000 5.8780 -0.0001 -8.8166
# 5 2.5711 0.1114 16.5576 -0.0001 26.1232 -0.0003
# 6 0.0004 0.0001 0.0003 -8.8166 -0.0003 14.9480
#
#
#
# Elastic Compliance Matrix: (Units=1/GPa)
#
#
# Indices 1 2 3 4 5 6 
#
# 1 0.009648 -0.002463 -0.003088 -0.000003 0.001018 -0.000002
# 2 -0.002463 0.006923 -0.001551 0.000001 0.001196 0.000001
# 3 -0.003088 -0.001551 0.018003 -0.000006 -0.011100 -0.000004
# 4 -0.000003 0.000001 -0.000006 1.475382 0.000017 0.870209
# 5 0.001018 0.001196 -0.011100 0.000017 0.045211 0.000011
# 6 -0.000002 0.000001 -0.000004 0.870209 0.000011 0.580164
#
#
# Mechanical properties :
#
#
# Convention : Reuss Voigt Hill
#
# Bulk Modulus (GPa) = 49.09521 62.88047 55.98784
# Shear Modulus (GPa) = 2.31876 27.00557 14.66216
#
# Velocity S-wave (km/s) = 1.04628 3.57066 2.63100
# Velocity P-wave (km/s) = 4.96367 6.83272 5.97177
#
# Compressibility (1/GPa) = 0.02036858
#
# Stress axis : x y z
#
# Youngs Moduli (GPa) = 103.64952 144.44269 55.54585
#
# Poissons Ratio (x) = 0.35583 0.17153
# Poissons Ratio (y) = 0.25533 0.08617
# Poissons Ratio (z) = 0.32008 0.22407
#
# Static dielectric constant tensor:
#      x y z
#    x 1.728020 0.000000 -0.001800 
#    y 0.000000 1.786780 0.000000 
#    z -0.001800 0.000000 1.767070 
# 
# From -- ./inp_files/256918.got.cif
#   From: 2010.05.17/outbox.cif.g08.bks.cpg/sg12_129_cif.got.tgz:256918.got - 2010.06.03 13:09:07.
