data_PCOD9217280
_publ_section_title
;
Structure prediction by ZEFSAII (Michael W. Deem and Ramdas Pophale) SiO2 
 PCOD9217280
Probable space group: C 2/M
;
_chemical_formula_sum "Si O2"
_cell_formula_units_Z 56
_cell_length_a 27.987470
_cell_length_b 8.337153
_cell_length_c 18.023720
_cell_angle_alpha 90.000000
_cell_angle_beta 38.116289
_cell_angle_gamma 90.000000
_cell_volume 2595.934193
_symmetry_space_group_name_H-M "C 2/M"
_symmetry_group_IT_number 12
_symmetry_cell_setting 'monoclinic'
loop_
_space_group_symop_operation_xyz
x,y,z
-x,y,-z
-x,-y,-z
x,-y,z
1/2+x,1/2+y,z
1/2-x,1/2+y,-z
1/2-x,1/2-y,-z
1/2+x,1/2-y,z
loop_
_atom_site_type_symbol
_atom_site_label
_atom_site_fract_x
_atom_site_fract_y
_atom_site_fract_z
Si Si1 0.038613 0.804840 0.874555
Si Si2 0.892390 0.188736 0.960049
Si Si3 0.232573 0.814596 0.182616
Si Si4 0.494887 0.318616 0.594908
Si Si5 0.212879 0.805979 0.622866
Si Si6 0.657674 0.812396 0.417923
Si Si7 0.355746 0.183364 0.844689
O O1 0.125492 0.748645 0.748728
O O2 0.976542 0.762845 0.886680
O O3 0.042886 0.000000 0.872982
O O4 0.000000 0.752536 0.000000
O O5 0.879072 0.222971 0.890080
O O6 0.882175 0.000000 0.988105
O O7 0.823042 0.282750 0.084537
O O8 0.185114 0.713211 0.300112
O O9 0.209638 0.760505 0.127694
O O10 0.212756 0.000000 0.216538
O O11 0.500000 0.306988 0.500000
O O12 0.469340 0.500000 0.644538
O O13 0.579010 0.284512 0.525333
O O14 0.432617 0.194961 0.700815
O O15 0.250000 0.750000 0.500000
O O16 0.272710 0.757669 0.614293
O O17 0.209908 0.000000 0.625370
O O18 0.642791 0.000000 0.449426
O O19 0.336009 0.000000 0.886938
#
# Coordination Sequence:
#
# PCOD9217280 Si02
#       7
#     8   8   8   8   8   8   8
#     4   9  19  40  68  94 123 164 216 266 316 380
#     4  11  23  40  65  94 125 164 209 259 317 375
#     4  12  24  41  63  92 127 166 211 257 313 379
#     4  11  23  40  63  92 126 166 211 256 309 378
#     4  10  23  42  65  97 130 167 213 268 329 386
#     4  11  23  40  65  94 126 166 212 260 315 377
#     4  12  25  41  62  90 128 166 208 259 314 375
#
# _framework density 21.572195000000001
#
# number of rings (size 3 to 8) (size 9 to 14) (size 15 to 20)
#    0.000    1.143    1.429    5.143    2.000    4.000 
#    0.000    0.714    0.000    3.000    0.000    0.000 
#    0.000    0.000    0.000    0.000    0.000    0.000 
#
# Total GULP energy -156591.303317 kJ/mol
# GULP energy per Si atom -5592.546547 kJ/mol
# Density = 2.152310 g / cm^3
# Si number density = 21.572195 Si / 1000 Ang^3
#
#
#
# Elastic Constant Matrix: (Units=GPa)
#
#
# Indices 1 2 3 4 5 6 
#
# 1 144.7260 15.3520 49.7877 -0.0028 -24.1904 0.0020
# 2 15.3520 36.8659 3.4803 -0.0139 -10.5745 0.0108
# 3 49.7877 3.4803 100.6153 -0.0112 -20.7382 0.0060
# 4 -0.0028 -0.0139 -0.0112 28.4607 0.0071 4.9542
# 5 -24.1904 -10.5745 -20.7382 0.0071 43.2584 -0.0039
# 6 0.0020 0.0108 0.0060 4.9542 -0.0039 20.1311
#
#
#
# Elastic Compliance Matrix: (Units=1/GPa)
#
#
# Indices 1 2 3 4 5 6 
#
# 1 0.008918 -0.002632 -0.003802 -0.000003 0.002521 0.000003
# 2 -0.002632 0.029971 0.001634 0.000017 0.006638 -0.000019
# 3 -0.003802 0.001634 0.012659 0.000005 0.004342 -0.000005
# 4 -0.000003 0.000017 0.000005 0.036709 -0.000002 -0.009034
# 5 0.002521 0.006638 0.004342 -0.000002 0.028231 0.000001
# 6 0.000003 -0.000019 -0.000005 -0.009034 0.000001 0.051898
#
#
# Mechanical properties :
#
#
# Convention : Reuss Voigt Hill
#
# Bulk Modulus (GPa) = 23.83949 46.60524 35.22237
# Shear Modulus (GPa) = 26.04599 32.60919 29.32759
#
# Velocity S-wave (km/s) = 3.47852 3.89219 3.69115
# Velocity P-wave (km/s) = 5.21617 6.46916 5.87616
#
# Compressibility (1/GPa) = 0.04194721
#
# Stress axis : x y z
#
# Youngs Moduli (GPa) = 112.13007 33.36556 78.99661
#
# Poissons Ratio (x) = 0.08781 0.30038
# Poissons Ratio (y) = 0.29510 -0.12906
# Poissons Ratio (z) = 0.42636 -0.05451
#
# Static dielectric constant tensor:
#      x y z
#    x 1.771040 0.000000 -0.006180 
#    y 0.000000 1.731240 0.000000 
#    z -0.006180 0.000000 1.800650 
# 
# From -- ./inp_files/292388.got.cif
#   From: 2010.05.17/outbox.cif.g08.bks.cpg/sg12_147_cif.got.tgz:292388.got - 2010.06.03 13:09:07.
