data_PCOD9217731
_publ_section_title
;
Structure prediction by ZEFSAII (Michael W. Deem and Ramdas Pophale) SiO2 
 PCOD9217731
Probable space group: C 2/M
;
_chemical_formula_sum "Si O2"
_cell_formula_units_Z 36
_cell_length_a 18.698453
_cell_length_b 11.581862
_cell_length_c 8.628290
_cell_angle_alpha 90.000000
_cell_angle_beta 130.292823
_cell_angle_gamma 90.000000
_cell_volume 1425.248650
_symmetry_space_group_name_H-M "C 2/M"
_symmetry_group_IT_number 12
_symmetry_cell_setting 'monoclinic'
loop_
_space_group_symop_operation_xyz
x,y,z
-x,y,-z
-x,-y,-z
x,-y,z
1/2+x,1/2+y,z
1/2-x,1/2+y,-z
1/2-x,1/2-y,-z
1/2+x,1/2-y,z
loop_
_atom_site_type_symbol
_atom_site_label
_atom_site_fract_x
_atom_site_fract_y
_atom_site_fract_z
Si Si1 0.084886 0.875437 0.736168
Si Si2 0.662024 0.000000 0.545972
Si Si3 0.943315 0.713812 0.071043
Si Si4 0.222522 0.238690 0.706958
Si Si5 0.093948 0.500000 0.808036
Si Si6 0.728658 0.000000 0.305785
O O1 0.034401 0.834678 0.820568
O O2 0.160842 0.785596 0.774877
O O3 0.000000 0.881124 0.500000
O O4 0.131057 0.000000 0.820715
O O5 0.701972 0.133536 0.615888
O O6 0.616465 0.000000 0.658551
O O7 0.654336 0.000000 0.343816
O O8 0.962657 0.614244 0.224130
O O9 0.833737 0.730094 0.884516
O O10 0.000000 0.686877 0.000000
O O11 0.208453 0.116494 0.596081
O O12 0.175183 0.500000 0.060058
#
# Coordination Sequence:
#
# PCOD9217731 Si02
#       6
#     8   4   8   8   4   4
#     4  11  25  45  73 103 143 190 241 300 369 427
#     4  12  24  41  75 113 132 192 252 289 367 435
#     4  11  25  45  71 103 146 189 245 294 362 439
#     4  11  24  46  75 101 147 193 239 303 362 432
#     4  10  23  44  71 100 145 186 231 303 367 427
#     4  10  24  41  70 105 144 184 240 298 355 431
#
# _framework density 25.258748000000001
#
# number of rings (size 3 to 8) (size 9 to 14) (size 15 to 20)
#    0.000    1.111    3.333    1.667    4.667    5.778 
#    0.000    2.222    0.000    0.000    0.000    0.000 
#    0.000    0.000    0.000    0.000    0.000    0.000 
#
# Total GULP energy -100252.406705 kJ/mol
# GULP energy per Si atom -5569.578150 kJ/mol
# Density = 2.520126 g / cm^3
# Si number density = 25.258748 Si / 1000 Ang^3
#
#
#
# Elastic Constant Matrix: (Units=GPa)
#
#
# Indices 1 2 3 4 5 6 
#
# 1 127.8755 28.7137 65.2612 0.0000 -42.5839 0.0000
# 2 28.7137 178.5950 40.4216 0.0000 -7.5318 0.0000
# 3 65.2612 40.4216 72.1873 0.0000 -25.9879 0.0000
# 4 0.0000 0.0000 0.0000 13.7860 0.0000 -11.6751
# 5 -42.5839 -7.5318 -25.9879 0.0000 38.3432 0.0000
# 6 0.0000 0.0000 0.0000 -11.6751 0.0000 20.0524
#
#
#
# Elastic Compliance Matrix: (Units=1/GPa)
#
#
# Indices 1 2 3 4 5 6 
#
# 1 0.017782 0.000370 -0.012099 0.000000 0.011620 0.000000
# 2 0.000370 0.006490 -0.004447 0.000000 -0.001328 0.000000
# 3 -0.012099 -0.004447 0.029271 0.000000 0.005529 0.000000
# 4 0.000000 0.000000 0.000000 0.143093 0.000000 0.083313
# 5 0.011620 -0.001328 0.005529 0.000000 0.042472 0.000000
# 6 0.000000 0.000000 0.000000 0.083313 0.000000 0.098376
#
#
# Mechanical properties :
#
#
# Convention : Reuss Voigt Hill
#
# Bulk Modulus (GPa) = 47.18996 71.93898 59.56447
# Shear Modulus (GPa) = 13.26610 30.72042 21.99326
#
# Velocity S-wave (km/s) = 2.29423 3.49123 2.95400
# Velocity P-wave (km/s) = 5.07357 6.69285 5.93866
#
# Compressibility (1/GPa) = 0.02119095
#
# Stress axis : x y z
#
# Youngs Moduli (GPa) = 56.23798 154.07796 34.16319
#
# Poissons Ratio (x) = -0.05695 0.41334
# Poissons Ratio (y) = -0.02079 0.15191
# Poissons Ratio (z) = 0.68043 0.68513
#
# Static dielectric constant tensor:
#      x y z
#    x 2.058430 0.000000 0.076640 
#    y 0.000000 2.162310 0.000000 
#    z 0.076640 0.000000 2.091860 
# 
# From -- ./inp_files/71525.got.cif
#   From: 2010.05.17/outbox.cif.g08.bks.cpg/sg12_36_cif.got.tgz:71525.got - 2010.06.03 13:09:07.
