data_PCOD9217253
_publ_section_title
;
Structure prediction by ZEFSAII (Michael W. Deem and Ramdas Pophale) SiO2 
 PCOD9217253
Probable space group: C 2/M
;
_chemical_formula_sum "Si O2"
_cell_formula_units_Z 32
_cell_length_a 22.551064
_cell_length_b 13.896583
_cell_length_c 8.194275
_cell_angle_alpha 90.000000
_cell_angle_beta 34.107138
_cell_angle_gamma 90.000000
_cell_volume 1439.954606
_symmetry_space_group_name_H-M "C 2/M"
_symmetry_group_IT_number 12
_symmetry_cell_setting 'monoclinic'
loop_
_space_group_symop_operation_xyz
x,y,z
-x,y,-z
-x,-y,-z
x,-y,z
1/2+x,1/2+y,z
1/2-x,1/2+y,-z
1/2-x,1/2-y,-z
1/2+x,1/2-y,z
loop_
_atom_site_type_symbol
_atom_site_label
_atom_site_fract_x
_atom_site_fract_y
_atom_site_fract_z
Si Si1 0.375506 0.500000 0.303894
Si Si2 0.213197 0.500000 0.927263
Si Si3 0.485845 0.000000 0.839656
Si Si4 0.637233 0.839959 0.349439
Si Si5 0.681575 0.393228 0.863112
Si Si6 0.500000 0.677702 0.500000
O O1 0.330195 0.500000 0.587513
O O2 0.500000 0.500000 0.000000
O O3 0.334595 0.407394 0.292652
O O4 0.187651 0.405015 0.090438
O O5 0.133183 0.500000 0.955451
O O6 0.544881 0.093314 0.633732
O O7 0.500000 0.000000 0.000000
O O8 0.583441 0.745175 0.403973
O O9 0.728373 0.823192 0.276003
O O10 0.721947 0.500000 0.821522
O O11 0.570999 0.377790 0.206554
#
# Coordination Sequence:
#
# PCOD9217253 Si02
#       6
#     4   4   4   8   8   4
#     4  10  24  42  68  92 124 178 226 255 322 400
#     4  11  19  38  69  89 124 171 223 259 315 396
#     4  11  19  37  68  92 132 174 213 260 324 399
#     4  11  21  40  67  99 124 171 220 267 323 380
#     4  10  23  42  65  92 127 177 219 263 324 389
#     4  12  23  39  66 102 132 164 220 279 327 378
#
# _framework density 22.222922000000001
#
# number of rings (size 3 to 8) (size 9 to 14) (size 15 to 20)
#    0.750    0.500    5.000    3.375    3.500    0.000 
#    0.000    2.500    0.000    0.000    0.000    0.000 
#    0.000    0.000    0.000    0.000    0.000    0.000 
#
# Total GULP energy -89405.609857 kJ/mol
# GULP energy per Si atom -5587.850616 kJ/mol
# Density = 2.217234 g / cm^3
# Si number density = 22.222922 Si / 1000 Ang^3
#
#
#
# Elastic Constant Matrix: (Units=GPa)
#
#
# Indices 1 2 3 4 5 6 
#
# 1 81.5021 3.5132 5.0627 0.0000 -10.8635 0.0000
# 2 3.5132 25.5239 -0.0582 0.0000 3.5024 0.0000
# 3 5.0627 -0.0582 92.3276 0.0000 2.3515 0.0000
# 4 0.0000 0.0000 0.0000 18.0919 0.0000 -3.3492
# 5 -10.8635 3.5024 2.3515 0.0000 41.4026 0.0000
# 6 0.0000 0.0000 0.0000 -3.3492 0.0000 0.3787
#
#
#
# Elastic Compliance Matrix: (Units=1/GPa)
#
#
# Indices 1 2 3 4 5 6 
#
# 1 0.012900 -0.002275 -0.000801 0.000000 0.003623 0.000000
# 2 -0.002275 0.040041 0.000252 0.000000 -0.003998 0.000000
# 3 -0.000801 0.000252 0.010897 0.000000 -0.000850 0.000000
# 4 0.000000 0.000000 0.000000 -0.086724 0.000000 -0.767056
# 5 0.003623 -0.003998 -0.000850 0.000000 0.025490 0.000000
# 6 0.000000 0.000000 0.000000 -0.767056 0.000000 -4.143579
#
#
# Mechanical properties :
#
#
# Convention : Reuss Voigt Hill
#
# Bulk Modulus (GPa) = 17.18493 24.04323 20.61408
# Shear Modulus (GPa) = -1.21479 24.69703 11.74112
#
# Velocity S-wave (km/s) = -0.74015 3.33728 2.30104
# Velocity P-wave (km/s) = 2.64940 5.06878 4.04425
#
# Compressibility (1/GPa) = 0.05819053
#
# Stress axis : x y z
#
# Youngs Moduli (GPa) = 77.51744 24.97425 91.77062
#
# Poissons Ratio (x) = 0.05681 0.07352
# Poissons Ratio (y) = 0.17632 -0.02311
# Poissons Ratio (z) = 0.06210 -0.00629
#
# Static dielectric constant tensor:
#      x y z
#    x 1.853100 0.000000 -0.020720 
#    y 0.000000 1.788430 0.000000 
#    z -0.020720 0.000000 1.801540 
# 
# From -- ./inp_files/97521.got.cif
#   From: 2010.05.17/outbox.cif.g08.bks.cpg/sg12_49_cif.got.tgz:97521.got - 2010.06.03 13:09:07.
