data_PCOD9217378
_publ_section_title
;
Structure prediction by ZEFSAII (Michael W. Deem and Ramdas Pophale) SiO2 
 PCOD9217378
Probable space group: C 2/M
;
_chemical_formula_sum "Si O2"
_cell_formula_units_Z 48
_cell_length_a 8.662964
_cell_length_b 31.058141
_cell_length_c 8.524922
_cell_angle_alpha 90.000000
_cell_angle_beta 89.584688
_cell_angle_gamma 90.000000
_cell_volume 2293.617384
_symmetry_space_group_name_H-M "C 2/M"
_symmetry_group_IT_number 12
_symmetry_cell_setting 'monoclinic'
loop_
_space_group_symop_operation_xyz
x,y,z
-x,y,-z
-x,-y,-z
x,-y,z
1/2+x,1/2+y,z
1/2-x,1/2+y,-z
1/2-x,1/2-y,-z
1/2+x,1/2-y,z
loop_
_atom_site_type_symbol
_atom_site_label
_atom_site_fract_x
_atom_site_fract_y
_atom_site_fract_z
Si Si1 0.666680 0.627417 0.501650
Si Si2 0.000000 0.578164 0.500000
Si Si3 0.985406 0.300219 0.327249
Si Si4 0.500000 0.687167 0.000000
Si Si5 0.737094 0.859933 0.837743
Si Si6 0.897590 0.452563 0.160005
Si Si7 0.330488 0.285605 0.296141
O O1 0.500000 0.603147 0.500000
O O2 0.828147 0.601179 0.522988
O O3 0.678453 0.646110 0.327720
O O4 0.651953 0.669084 0.613432
O O5 0.979045 0.554431 0.330587
O O6 0.915980 0.332284 0.197504
O O7 0.876612 0.259847 0.371016
O O8 0.000000 0.322239 0.500000
O O9 0.149596 0.284813 0.264571
O O10 0.350058 0.658575 0.965289
O O11 0.557390 0.714232 0.853514
O O12 0.705776 0.910163 0.858222
O O13 0.822786 0.500000 0.166455
O O14 0.000000 0.452286 0.000000
#
# Coordination Sequence:
#
# PCOD9217378 Si02
#       7
#     8   4   8   4   8   8   8
#     4  11  21  41  66  94 131 182 227 279 335 409
#     4  10  23  42  72 108 138 184 232 290 355 428
#     4  12  25  42  69  94 128 179 237 285 342 410
#     4  12  28  42  61  98 138 182 219 286 348 410
#     4  11  25  42  66  98 131 175 227 281 343 420
#     4  10  23  43  72 105 137 177 225 285 360 429
#     4  12  25  41  64  94 135 175 229 284 341 404
#
# _framework density 20.927641999999999
#
# number of rings (size 3 to 8) (size 9 to 14) (size 15 to 20)
#    0.000    0.833    3.333    4.250    5.833    2.667 
#    0.000    0.417    0.000   14.500    0.000    0.000 
#    0.000    0.000    0.000    0.000    0.000    0.000 
#
# Total GULP energy -133701.099769 kJ/mol
# GULP energy per Si atom -5570.879157 kJ/mol
# Density = 2.088001 g / cm^3
# Si number density = 20.927642 Si / 1000 Ang^3
#
#
#
# Elastic Constant Matrix: (Units=GPa)
#
#
# Indices 1 2 3 4 5 6 
#
# 1 134.1901 73.5421 8.6790 0.0000 4.9176 0.0000
# 2 73.5421 96.0671 30.1192 0.0000 12.7443 0.0000
# 3 8.6790 30.1192 78.0916 0.0000 -3.9789 0.0000
# 4 0.0000 0.0000 0.0000 4.6176 0.0000 4.3423
# 5 4.9176 12.7443 -3.9789 0.0000 40.0235 0.0000
# 6 0.0000 0.0000 0.0000 4.3423 0.0000 6.7699
#
#
#
# Elastic Compliance Matrix: (Units=1/GPa)
#
#
# Indices 1 2 3 4 5 6 
#
# 1 0.013560 -0.011670 0.003114 0.000000 0.002359 0.000000
# 2 -0.011670 0.022649 -0.007772 0.000000 -0.006551 0.000000
# 3 0.003114 -0.007772 0.015643 0.000000 0.003647 0.000000
# 4 0.000000 0.000000 0.000000 0.545710 0.000000 -0.350021
# 5 0.002359 -0.006551 0.003647 0.000000 0.027144 0.000000
# 6 0.000000 0.000000 0.000000 -0.350021 0.000000 0.372217
#
#
# Mechanical properties :
#
#
# Convention : Reuss Voigt Hill
#
# Bulk Modulus (GPa) = 52.09503 59.22549 55.66026
# Shear Modulus (GPa) = 4.82636 23.34943 14.08790
#
# Velocity S-wave (km/s) = 1.52027 3.34387 2.59737
# Velocity P-wave (km/s) = 5.29420 6.57801 5.97071
#
# Compressibility (1/GPa) = 0.01919569
#
# Stress axis : x y z
#
# Youngs Moduli (GPa) = 73.74756 44.15270 63.92684
#
# Poissons Ratio (x) = 0.51525 -0.19908
# Poissons Ratio (y) = 0.86061 0.49685
# Poissons Ratio (z) = -0.22966 0.34316
#
# Static dielectric constant tensor:
#      x y z
#    x 1.907270 0.000000 0.104240 
#    y 0.000000 1.770390 0.000000 
#    z 0.104240 0.000000 1.903440 
# 
# From -- ./inp_files/42311.got.cif
#   From: 2010.05.17/outbox.cif.g08.bks.cpg/sg12_22_cif.got.tgz:42311.got - 2010.06.03 13:09:07.
