data_PCOD9217077
_publ_section_title
;
Structure prediction by ZEFSAII (Michael W. Deem and Ramdas Pophale) SiO2 
 PCOD9217077
Probable space group: C 2/M
;
_chemical_formula_sum "Si O2"
_cell_formula_units_Z 56
_cell_length_a 10.334704
_cell_length_b 19.215064
_cell_length_c 21.428907
_cell_angle_alpha 90.000000
_cell_angle_beta 142.091084
_cell_angle_gamma 90.000000
_cell_volume 2614.548780
_symmetry_space_group_name_H-M "C 2/M"
_symmetry_group_IT_number 12
_symmetry_cell_setting 'monoclinic'
loop_
_space_group_symop_operation_xyz
x,y,z
-x,y,-z
-x,-y,-z
x,-y,z
1/2+x,1/2+y,z
1/2-x,1/2+y,-z
1/2-x,1/2-y,-z
1/2+x,1/2-y,z
loop_
_atom_site_type_symbol
_atom_site_label
_atom_site_fract_x
_atom_site_fract_y
_atom_site_fract_z
Si Si1 0.170137 0.178465 0.327952
Si Si2 0.421374 0.576020 0.539892
Si Si3 0.543273 0.683671 0.874726
Si Si4 0.595740 0.081040 0.968841
Si Si5 0.855179 0.706197 0.187134
Si Si6 0.359986 0.821317 0.527210
Si Si7 0.130845 0.582645 0.244581
O O1 0.398388 0.196236 0.387340
O O2 0.246948 0.146092 0.421992
O O3 0.052133 0.144851 0.223854
O O4 0.026522 0.245429 0.287820
O O5 0.500000 0.568480 0.500000
O O6 0.378327 0.500000 0.551219
O O7 0.209824 0.620338 0.451965
O O8 0.629757 0.606923 0.652644
O O9 0.358121 0.702614 0.853313
O O10 0.711610 0.632735 0.968904
O O11 0.848957 0.748909 0.118267
O O12 0.423779 0.089310 0.849311
O O13 0.662430 0.000000 0.993758
O O14 0.500000 0.097267 0.000000
O O15 0.961087 0.631512 0.214500
O O16 0.250000 0.750000 0.500000
O O17 0.117545 0.500000 0.256194
#
# Coordination Sequence:
#
# PCOD9217077 Si02
#       7
#     8   8   8   8   8   8   8
#     4   9  23  37  57  97 127 168 221 259 333 386
#     4  10  24  40  64  97 131 173 221 274 332 392
#     4  10  24  42  65  96 136 169 221 274 332 393
#     4  10  24  45  70  98 132 177 224 271 335 402
#     4  10  23  41  66  97 134 171 218 279 327 399
#     4  11  21  36  64  90 128 175 213 272 320 397
#     4  10  23  42  67  95 130 177 224 274 334 402
#
# _framework density 21.418610999999999
#
# number of rings (size 3 to 8) (size 9 to 14) (size 15 to 20)
#    0.857    1.143    0.000    1.714   12.000    1.714 
#    0.000    3.571    0.000    0.000    0.000    0.000 
#    0.000    0.000    0.000    0.000    0.000    0.000 
#
# Total GULP energy -155934.952981 kJ/mol
# GULP energy per Si atom -5569.105464 kJ/mol
# Density = 2.136986 g / cm^3
# Si number density = 21.418611 Si / 1000 Ang^3
#
#
#
# Elastic Constant Matrix: (Units=GPa)
#
#
# Indices 1 2 3 4 5 6 
#
# 1 95.7336 28.4665 24.2478 0.0009 22.9955 -0.0013
# 2 28.4665 51.7158 17.0768 -0.0003 18.8470 0.0004
# 3 24.2478 17.0768 99.8312 -0.0024 10.0464 0.0033
# 4 0.0009 -0.0003 -0.0024 11.6283 -0.0009 40.5042
# 5 22.9955 18.8470 10.0464 -0.0009 31.7357 0.0015
# 6 -0.0013 0.0004 0.0033 40.5042 0.0015 -34.2562
#
#
#
# Elastic Compliance Matrix: (Units=1/GPa)
#
#
# Indices 1 2 3 4 5 6 
#
# 1 0.013912 -0.004559 -0.001918 0.000000 -0.006766 -0.000001
# 2 -0.004559 0.026974 -0.002300 0.000000 -0.011988 0.000000
# 3 -0.001918 -0.002300 0.010948 0.000000 -0.000709 0.000001
# 4 0.000000 0.000000 0.000000 0.016801 -0.000001 0.019865
# 5 -0.006766 -0.011988 -0.000709 -0.000001 0.043757 0.000001
# 6 -0.000001 0.000000 0.000001 0.019865 0.000001 -0.005703
#
#
# Mechanical properties :
#
#
# Convention : Reuss Voigt Hill
#
# Bulk Modulus (GPa) = 29.17220 42.98475 36.07847
# Shear Modulus (GPa) = 36.85395 13.65419 25.25407
#
# Velocity S-wave (km/s) = 4.15257 2.52760 3.43749
# Velocity P-wave (km/s) = 6.05321 5.35077 5.71280
#
# Compressibility (1/GPa) = 0.03427921
#
# Stress axis : x y z
#
# Youngs Moduli (GPa) = 71.87849 37.07255 91.34272
#
# Poissons Ratio (x) = 0.16900 0.17524
# Poissons Ratio (y) = 0.32767 0.21013
# Poissons Ratio (z) = 0.13790 0.08529
#
# Static dielectric constant tensor:
#      x y z
#    x 1.797960 0.000000 -0.143420 
#    y 0.000000 1.766290 0.000000 
#    z -0.143420 0.000000 1.765500 
# 
# From -- ./inp_files/336779.got.cif
#   From: 2010.05.17/outbox.cif.g08.bks.cpg/sg12_169_cif.got.tgz:336779.got - 2010.06.03 13:09:07.
