data_PCOD9217285
_publ_section_title
;
Structure prediction by ZEFSAII (Michael W. Deem and Ramdas Pophale) SiO2 
 PCOD9217285
Probable space group: C 2/M
;
_chemical_formula_sum "Si O2"
_cell_formula_units_Z 32
_cell_length_a 20.938517
_cell_length_b 7.686567
_cell_length_c 13.606472
_cell_angle_alpha 90.000000
_cell_angle_beta 132.336882
_cell_angle_gamma 90.000000
_cell_volume 1618.767529
_symmetry_space_group_name_H-M "C 2/M"
_symmetry_group_IT_number 12
_symmetry_cell_setting 'monoclinic'
loop_
_space_group_symop_operation_xyz
x,y,z
-x,y,-z
-x,-y,-z
x,-y,z
1/2+x,1/2+y,z
1/2-x,1/2+y,-z
1/2-x,1/2-y,-z
1/2+x,1/2-y,z
loop_
_atom_site_type_symbol
_atom_site_label
_atom_site_fract_x
_atom_site_fract_y
_atom_site_fract_z
Si Si1 0.400662 0.791129 0.400354
Si Si2 0.443755 0.500000 0.786747
Si Si3 0.652436 0.205727 0.431480
Si Si4 0.130039 0.000000 0.070306
Si Si5 0.253524 0.804174 0.890207
O O1 0.500000 0.733648 0.500000
O O2 0.361001 0.757890 0.466825
O O3 0.341063 0.707692 0.255913
O O4 0.399240 0.000000 0.383058
O O5 0.411749 0.330260 0.694963
O O6 0.545386 0.500000 0.913993
O O7 0.398098 0.500000 0.845842
O O8 0.750000 0.250000 0.500000
O O9 0.636344 0.000000 0.398733
O O10 0.187000 0.831784 0.105460
O O11 0.286724 0.000000 0.916141
O O12 0.250000 0.750000 0.000000
#
# Coordination Sequence:
#
# PCOD9217285 Si02
#       5
#     8   4   8   4   8
#     4  10  23  42  66 100 135 169 223 284 332 394
#     4  11  26  44  70  93 136 181 221 284 330 401
#     4  11  23  41  69  99 134 175 223 276 339 402
#     4  11  26  48  64  98 137 172 231 277 333 402
#     4  12  25  43  71  96 135 180 218 272 341 410
#
# _framework density 19.768125000000001
#
# number of rings (size 3 to 8) (size 9 to 14) (size 15 to 20)
#    0.000    1.000    3.750    1.500    5.250    4.500 
#    0.000    2.500    0.000    0.000    0.000    0.000 
#    0.000    0.000    0.000    0.000    0.000    0.000 
#
# Total GULP energy -89529.962034 kJ/mol
# GULP energy per Si atom -5595.622627 kJ/mol
# Density = 1.972313 g / cm^3
# Si number density = 19.768125 Si / 1000 Ang^3
#
#
#
# Elastic Constant Matrix: (Units=GPa)
#
#
# Indices 1 2 3 4 5 6 
#
# 1 93.8319 32.5081 42.8730 0.0000 9.0992 0.0000
# 2 32.5081 131.9061 60.8632 0.0000 1.7195 0.0000
# 3 42.8730 60.8632 150.8392 0.0000 4.9164 0.0000
# 4 0.0000 0.0000 0.0000 33.9367 0.0000 -6.7393
# 5 9.0992 1.7195 4.9164 0.0000 25.5752 0.0000
# 6 0.0000 0.0000 0.0000 -6.7393 0.0000 9.3152
#
#
#
# Elastic Compliance Matrix: (Units=1/GPa)
#
#
# Indices 1 2 3 4 5 6 
#
# 1 0.012964 -0.001847 -0.002811 0.000000 -0.003948 0.000000
# 2 -0.001847 0.009579 -0.003362 0.000000 0.000659 0.000000
# 3 -0.002811 -0.003362 0.008800 0.000000 -0.000466 0.000000
# 4 0.000000 0.000000 0.000000 0.034410 0.000000 0.024895
# 5 -0.003948 0.000659 -0.000466 0.000000 0.040550 0.000000
# 6 0.000000 0.000000 0.000000 0.024895 0.000000 0.125362
#
#
# Mechanical properties :
#
#
# Convention : Reuss Voigt Hill
#
# Bulk Modulus (GPa) = 65.33928 72.11843 68.72886
# Shear Modulus (GPa) = 19.77804 29.78762 24.78283
#
# Velocity S-wave (km/s) = 3.16650 3.88603 3.54457
# Velocity P-wave (km/s) = 6.81862 7.52970 7.18296
#
# Compressibility (1/GPa) = 0.01530473
#
# Stress axis : x y z
#
# Youngs Moduli (GPa) = 77.13451 104.39784 113.63421
#
# Poissons Ratio (x) = 0.19277 0.31944
# Poissons Ratio (y) = 0.14243 0.38200
# Poissons Ratio (z) = 0.21683 0.35095
#
# Static dielectric constant tensor:
#      x y z
#    x 1.674150 0.000000 0.007530 
#    y 0.000000 1.702920 0.000000 
#    z 0.007530 0.000000 1.669760 
# 
# From -- ./inp_files/162898.got.cif
#   From: 2010.05.17/outbox.cif.g08.bks.cpg/sg12_82_cif.got.tgz:162898.got - 2010.06.03 13:09:07.
