data_PCOD9217695
_publ_section_title
;
Structure prediction by ZEFSAII (Michael W. Deem and Ramdas Pophale) SiO2 
 PCOD9217695
Probable space group: C 2/M
;
_chemical_formula_sum "Si O2"
_cell_formula_units_Z 36
_cell_length_a 10.642730
_cell_length_b 25.353021
_cell_length_c 6.510595
_cell_angle_alpha 90.000000
_cell_angle_beta 114.228861
_cell_angle_gamma 90.000000
_cell_volume 1601.980011
_symmetry_space_group_name_H-M "C 2/M"
_symmetry_group_IT_number 12
_symmetry_cell_setting 'monoclinic'
loop_
_space_group_symop_operation_xyz
x,y,z
-x,y,-z
-x,-y,-z
x,-y,z
1/2+x,1/2+y,z
1/2-x,1/2+y,-z
1/2-x,1/2-y,-z
1/2+x,1/2-y,z
loop_
_atom_site_type_symbol
_atom_site_label
_atom_site_fract_x
_atom_site_fract_y
_atom_site_fract_z
Si Si1 0.162160 0.319314 0.585325
Si Si2 0.763567 0.885251 0.971731
Si Si3 0.114524 0.500000 0.397610
Si Si4 0.500000 0.915781 0.000000
Si Si5 0.343100 0.294690 0.314122
Si Si6 0.663151 0.500000 0.100090
O O1 0.225023 0.307763 0.404205
O O2 0.186068 0.267458 0.744953
O O3 0.000000 0.330898 0.500000
O O4 0.252381 0.367272 0.730380
O O5 0.846927 0.841663 0.151809
O O6 0.610863 0.881353 0.959154
O O7 0.798515 0.946771 0.996322
O O8 0.255980 0.500000 0.625177
O O9 0.000000 0.500000 0.500000
O O10 0.080672 0.548975 0.223904
O O11 0.500000 0.292778 0.500000
O O12 0.500000 0.500000 0.000000
#
# Coordination Sequence:
#
# PCOD9217695 Si02
#       6
#     8   8   4   4   8   4
#     4  10  23  44  69 102 132 176 231 290 351 407
#     4  12  25  42  68 100 137 178 229 287 345 412
#     4  11  22  47  66  90 140 175 229 288 325 410
#     4  11  24  40  74 106 118 184 238 287 346 406
#     4  10  24  43  69  99 137 182 226 283 356 422
#     4  12  30  44  66 102 142 192 234 277 356 418
#
# _framework density 22.472190999999999
#
# number of rings (size 3 to 8) (size 9 to 14) (size 15 to 20)
#    0.000    1.111    2.222    2.667    9.333    0.000 
#    0.000    8.333    0.000    0.000    0.000    0.000 
#    0.000    0.000    0.000    0.000    0.000    0.000 
#
# Total GULP energy -100425.266369 kJ/mol
# GULP energy per Si atom -5579.181465 kJ/mol
# Density = 2.242104 g / cm^3
# Si number density = 22.472191 Si / 1000 Ang^3
#
#
#
# Elastic Constant Matrix: (Units=GPa)
#
#
# Indices 1 2 3 4 5 6 
#
# 1 90.1201 -3.0471 14.9524 0.0000 12.1661 0.0000
# 2 -3.0471 130.1879 34.6545 0.0000 9.5559 0.0000
# 3 14.9524 34.6545 80.9950 0.0000 10.9576 0.0000
# 4 0.0000 0.0000 0.0000 35.9677 0.0000 -7.6479
# 5 12.1661 9.5559 10.9576 0.0000 25.8393 0.0000
# 6 0.0000 0.0000 0.0000 -7.6479 0.0000 19.4771
#
#
#
# Elastic Compliance Matrix: (Units=1/GPa)
#
#
# Indices 1 2 3 4 5 6 
#
# 1 0.012197 0.001223 -0.002055 0.000000 -0.005324 0.000000
# 2 0.001223 0.008865 -0.003710 0.000000 -0.002281 0.000000
# 3 -0.002055 -0.003710 0.014849 0.000000 -0.003957 0.000000
# 4 0.000000 0.000000 0.000000 0.030335 0.000000 0.011912
# 5 -0.005324 -0.002281 -0.003957 0.000000 0.043729 0.000000
# 6 0.000000 0.000000 0.000000 0.011912 0.000000 0.056019
#
#
# Mechanical properties :
#
#
# Convention : Reuss Voigt Hill
#
# Bulk Modulus (GPa) = 37.27551 43.82472 40.55011
# Shear Modulus (GPa) = 27.17084 33.23971 30.20528
#
# Velocity S-wave (km/s) = 3.48097 3.85014 3.67020
# Velocity P-wave (km/s) = 5.72534 6.26968 6.00368
#
# Compressibility (1/GPa) = 0.02682726
#
# Stress axis : x y z
#
# Youngs Moduli (GPa) = 81.98517 112.80489 67.34658
#
# Poissons Ratio (x) = -0.13799 0.13839
# Poissons Ratio (y) = -0.10029 0.24987
# Poissons Ratio (z) = 0.16847 0.41852
#
# Static dielectric constant tensor:
#      x y z
#    x 1.791310 0.000000 0.005870 
#    y 0.000000 2.050760 0.000000 
#    z 0.005870 0.000000 1.894660 
# 
# From -- ./inp_files/7827.got.cif
#   From: 2010.05.17/outbox.cif.g08.bks.cpg/sg12_4_cif.got.tgz:7827.got - 2010.06.03 13:09:07.
