data_PCOD9217433
_publ_section_title
;
Structure prediction by ZEFSAII (Michael W. Deem and Ramdas Pophale) SiO2 
 PCOD9217433
Probable space group: C 2/M
;
_chemical_formula_sum "Si O2"
_cell_formula_units_Z 48
_cell_length_a 20.769434
_cell_length_b 8.507368
_cell_length_c 17.921169
_cell_angle_alpha 90.000000
_cell_angle_beta 54.082087
_cell_angle_gamma 90.000000
_cell_volume 2564.455937
_symmetry_space_group_name_H-M "C 2/M"
_symmetry_group_IT_number 12
_symmetry_cell_setting 'monoclinic'
loop_
_space_group_symop_operation_xyz
x,y,z
-x,y,-z
-x,-y,-z
x,-y,z
1/2+x,1/2+y,z
1/2-x,1/2+y,-z
1/2-x,1/2-y,-z
1/2+x,1/2-y,z
loop_
_atom_site_type_symbol
_atom_site_label
_atom_site_fract_x
_atom_site_fract_y
_atom_site_fract_z
Si Si1 0.091298 0.808792 0.439942
Si Si2 0.633441 0.311381 0.247138
Si Si3 0.280003 0.688449 0.058634
Si Si4 0.984099 0.687454 0.250882
Si Si5 0.535830 0.309867 0.055468
Si Si6 0.160598 0.810598 0.551179
O O1 0.127565 0.758336 0.336835
O O2 0.131533 0.756525 0.488920
O O3 0.000000 0.759215 0.500000
O O4 0.093001 0.000000 0.439905
O O5 0.626506 0.500000 0.248726
O O6 0.718090 0.258578 0.158886
O O7 0.560732 0.245714 0.246621
O O8 0.276119 0.500000 0.063355
O O9 0.250000 0.750000 0.000000
O O10 0.371362 0.735750 0.006799
O O11 0.982800 0.500000 0.253252
O O12 0.903863 0.751132 0.344623
O O13 0.994709 0.744146 0.158166
O O14 0.530993 0.500000 0.062965
O O15 0.500000 0.260688 0.000000
O O16 0.250000 0.750000 0.500000
O O17 0.160066 0.000000 0.553779
#
# Coordination Sequence:
#
# PCOD9217433 Si02
#       6
#     8   8   8   8   8   8
#     4   9  18  36  62  89 117 158 205 250 301 357
#     4  11  21  37  63  91 121 160 207 258 308 360
#     4  11  22  37  60  90 123 158 201 251 304 365
#     4  12  24  39  62  92 124 162 205 250 311 374
#     4  10  23  43  65  89 122 165 207 253 309 365
#     4  11  23  42  65  91 127 164 205 253 307 368
#
# _framework density 18.717420000000001
#
# number of rings (size 3 to 8) (size 9 to 14) (size 15 to 20)
#    0.000    1.333    3.333    3.000    0.000    2.333 
#    0.000    7.500    0.000    0.000    0.000    0.000 
#    0.000    0.000    0.000    0.000    0.000    0.000 
#
# Total GULP energy -134067.235746 kJ/mol
# GULP energy per Si atom -5586.134823 kJ/mol
# Density = 1.867482 g / cm^3
# Si number density = 18.717420 Si / 1000 Ang^3
#
#
#
# Elastic Constant Matrix: (Units=GPa)
#
#
# Indices 1 2 3 4 5 6 
#
# 1 180.1374 43.2315 111.8917 0.0001 7.8371 0.0001
# 2 43.2315 61.5746 49.4308 0.0002 0.7690 0.0001
# 3 111.8917 49.4308 228.0723 0.0000 9.5344 0.0000
# 4 0.0001 0.0002 0.0000 21.5871 0.0000 -17.3289
# 5 7.8371 0.7690 9.5344 0.0000 31.7795 0.0000
# 6 0.0001 0.0001 0.0000 -17.3289 0.0000 13.1384
#
#
#
# Elastic Compliance Matrix: (Units=1/GPa)
#
#
# Indices 1 2 3 4 5 6 
#
# 1 0.008494 -0.003195 -0.003433 0.000001 -0.000987 0.000001
# 2 -0.003195 0.020884 -0.003008 0.000004 0.001185 0.000005
# 3 -0.003433 -0.003008 0.006767 -0.000001 -0.001111 -0.000002
# 4 0.000001 0.000004 -0.000001 -0.788041 -0.000001 -1.039391
# 5 -0.000987 0.001185 -0.001111 -0.000001 0.032015 -0.000001
# 6 0.000001 0.000005 -0.000002 -1.039391 -0.000001 -1.294796
#
#
# Mechanical properties :
#
#
# Convention : Reuss Voigt Hill
#
# Bulk Modulus (GPa) = 59.27040 97.65471 78.46256
# Shear Modulus (GPa) = -2.51284 30.98301 14.23509
#
# Velocity S-wave (km/s) = -1.15993 4.07296 2.76076
# Velocity P-wave (km/s) = 5.47181 8.62584 7.22308
#
# Compressibility (1/GPa) = 0.01687183
#
# Stress axis : x y z
#
# Youngs Moduli (GPa) = 117.73659 47.88397 147.76850
#
# Poissons Ratio (x) = 0.15298 0.50732
# Poissons Ratio (y) = 0.37615 0.44454
# Poissons Ratio (z) = 0.40421 0.14405
#
# Static dielectric constant tensor:
#      x y z
#    x 1.623920 0.000000 0.006910 
#    y 0.000000 1.642560 0.000000 
#    z 0.006910 0.000000 1.592340 
# 
# From -- ./inp_files/280810.got.cif
#   From: 2010.05.17/outbox.cif.g08.bks.cpg/sg12_141_cif.got.tgz:280810.got - 2010.06.03 13:09:07.
