data_PCOD9217144
_publ_section_title
;
Structure prediction by ZEFSAII (Michael W. Deem and Ramdas Pophale) SiO2 
 PCOD9217144
Probable space group: C 2/M
;
_chemical_formula_sum "Si O2"
_cell_formula_units_Z 30
_cell_length_a 10.262249
_cell_length_b 16.299611
_cell_length_c 10.034652
_cell_angle_alpha 90.000000
_cell_angle_beta 50.815623
_cell_angle_gamma 90.000000
_cell_volume 1301.035815
_symmetry_space_group_name_H-M "C 2/M"
_symmetry_group_IT_number 12
_symmetry_cell_setting 'monoclinic'
loop_
_space_group_symop_operation_xyz
x,y,z
-x,y,-z
-x,-y,-z
x,-y,z
1/2+x,1/2+y,z
1/2-x,1/2+y,-z
1/2-x,1/2-y,-z
1/2+x,1/2-y,z
loop_
_atom_site_type_symbol
_atom_site_label
_atom_site_fract_x
_atom_site_fract_y
_atom_site_fract_z
Si Si1 0.478980 0.408852 0.216955
Si Si2 0.000000 0.850444 0.500000
Si Si3 0.640320 0.142984 0.067781
Si Si4 0.000000 0.500000 0.000000
Si Si5 0.752974 0.229377 0.226009
O O1 0.420908 0.500000 0.216435
O O2 0.484726 0.400476 0.373441
O O3 0.673013 0.397119 0.048297
O O4 0.369826 0.336438 0.222962
O O5 0.837290 0.792495 0.618590
O O6 0.659617 0.214897 0.945177
O O7 0.515427 0.072721 0.103141
O O8 0.611223 0.182116 0.230463
#
# Coordination Sequence:
#
# PCOD9217144 Si02
#       5
#     8   4   8   2   8
#     4  11  22  42  65  94 124 164 212 262 305 368
#     4  10  23  42  61  92 128 172 206 247 322 367
#     4  10  24  40  64  95 126 166 203 259 318 368
#     4  12  24  40  62 100 130 152 208 268 312 372
#     4  10  23  42  66  91 127 168 210 251 312 376
#
# _framework density 23.058548999999999
#
# number of rings (size 3 to 8) (size 9 to 14) (size 15 to 20)
#    0.000    1.600    1.333    2.000   13.067    1.067 
#    0.000    0.667    0.000    0.000    0.000    0.000 
#    0.000    0.000    0.000    0.000    0.000    0.000 
#
# Total GULP energy -83611.340241 kJ/mol
# GULP energy per Si atom -5574.089349 kJ/mol
# Density = 2.300607 g / cm^3
# Si number density = 23.058549 Si / 1000 Ang^3
#
#
#
# Elastic Constant Matrix: (Units=GPa)
#
#
# Indices 1 2 3 4 5 6 
#
# 1 48.7654 33.2835 0.7901 0.0000 13.5998 0.0000
# 2 33.2835 159.2415 6.9146 0.0000 13.8414 0.0000
# 3 0.7901 6.9146 56.4275 0.0000 14.6158 0.0000
# 4 0.0000 0.0000 0.0000 10.6623 0.0000 14.7689
# 5 13.5998 13.8414 14.6158 0.0000 20.5734 0.0000
# 6 0.0000 0.0000 0.0000 14.7689 0.0000 41.5284
#
#
#
# Elastic Compliance Matrix: (Units=1/GPa)
#
#
# Indices 1 2 3 4 5 6 
#
# 1 0.029107 -0.004582 0.005318 0.000000 -0.019936 0.000000
# 2 -0.004582 0.007399 -0.000414 0.000000 -0.001655 0.000000
# 3 0.005318 -0.000414 0.022717 0.000000 -0.019375 0.000000
# 4 0.000000 0.000000 0.000000 0.184843 0.000000 -0.065736
# 5 -0.019936 -0.001655 -0.019375 0.000000 0.076663 0.000000
# 6 0.000000 0.000000 0.000000 -0.065736 0.000000 0.047458
#
#
# Mechanical properties :
#
#
# Convention : Reuss Voigt Hill
#
# Bulk Modulus (GPa) = 16.70355 38.49011 27.59683
# Shear Modulus (GPa) = 12.90326 29.44925 21.17625
#
# Velocity S-wave (km/s) = 2.36813 3.57760 3.03375
# Velocity P-wave (km/s) = 3.83889 5.81328 4.92602
#
# Compressibility (1/GPa) = 0.05986750
#
# Stress axis : x y z
#
# Youngs Moduli (GPa) = 34.35571 135.14818 44.02058
#
# Poissons Ratio (x) = 0.61922 -0.23409
# Poissons Ratio (y) = 0.15741 0.01821
# Poissons Ratio (z) = -0.18270 0.05592
#
# Static dielectric constant tensor:
#      x y z
#    x 1.953730 0.000000 -0.010480 
#    y 0.000000 1.864080 0.000000 
#    z -0.010480 0.000000 1.860100 
# 
# From -- ./inp_files/46483.got.cif
#   From: 2010.05.17/outbox.cif.g08.bks.cpg/sg12_24_cif.got.tgz:46483.got - 2010.06.03 13:09:07.
