data_PCOD9217742
_publ_section_title
;
Structure prediction by ZEFSAII (Michael W. Deem and Ramdas Pophale) SiO2 
 PCOD9217742
Probable space group: C 2/M
;
_chemical_formula_sum "Si O2"
_cell_formula_units_Z 60
_cell_length_a 23.757757
_cell_length_b 20.768671
_cell_length_c 11.923223
_cell_angle_alpha 90.000000
_cell_angle_beta 154.263867
_cell_angle_gamma 90.000000
_cell_volume 2554.611641
_symmetry_space_group_name_H-M "C 2/M"
_symmetry_group_IT_number 12
_symmetry_cell_setting 'monoclinic'
loop_
_space_group_symop_operation_xyz
x,y,z
-x,y,-z
-x,-y,-z
x,-y,z
1/2+x,1/2+y,z
1/2-x,1/2+y,-z
1/2-x,1/2-y,-z
1/2+x,1/2-y,z
loop_
_atom_site_type_symbol
_atom_site_label
_atom_site_fract_x
_atom_site_fract_y
_atom_site_fract_z
Si Si1 0.364261 0.574322 0.307665
Si Si2 0.585473 0.114660 0.048846
Si Si3 0.824230 0.683720 0.010901
Si Si4 0.013630 0.129759 0.264709
Si Si5 0.408088 0.763514 0.487318
Si Si6 0.329350 0.573749 0.631479
Si Si7 0.550852 0.000000 0.343350
Si Si8 0.769151 0.610123 0.298899
O O1 0.500000 0.598845 0.500000
O O2 0.343920 0.500000 0.242353
O O3 0.241469 0.618465 0.060993
O O4 0.399601 0.583044 0.501947
O O5 0.632029 0.166467 0.039274
O O6 0.707493 0.084839 0.331851
O O7 0.500000 0.140664 0.000000
O O8 0.514782 0.057383 0.853712
O O9 0.705980 0.734410 0.795170
O O10 0.953870 0.707526 0.303323
O O11 0.048067 0.201829 0.361731
O O12 0.058039 0.117028 0.218233
O O13 0.862382 0.115051 0.008723
O O14 0.337314 0.820954 0.425570
O O15 0.371342 0.500000 0.702857
O O16 0.278540 0.588371 0.663994
O O17 0.628841 0.943441 0.554241
#
# Coordination Sequence:
#
# PCOD9217742 Si02
#       8
#     8   8   8   8   8   8   4   8
#     4  10  23  44  73 102 125 159 214 272 330 387
#     4  12  20  36  56  88 124 167 222 266 305 367
#     4  11  23  41  65  92 128 172 215 275 316 384
#     4  11  25  40  62  90 127 168 207 267 323 385
#     4  11  22  42  62  87 131 171 223 257 317 382
#     4  12  22  36  57  87 125 170 219 260 313 382
#     4  12  23  32  57  90 120 168 214 267 308 371
#     4  12  24  38  57  89 133 169 211 265 315 381
#
# _framework density 23.486936
#
# number of rings (size 3 to 8) (size 9 to 14) (size 15 to 20)
#    0.000    0.667    8.000    1.000    2.800    1.067 
#    2.400    2.667    0.000    0.000    0.000    2.800 
#    0.000    0.000    0.000    0.000    0.000    0.000 
#
# Total GULP energy -167215.998337 kJ/mol
# GULP energy per Si atom -5573.866611 kJ/mol
# Density = 2.343348 g / cm^3
# Si number density = 23.486936 Si / 1000 Ang^3
#
#
#
# Elastic Constant Matrix: (Units=GPa)
#
#
# Indices 1 2 3 4 5 6 
#
# 1 74.5361 13.1896 8.2095 0.0000 16.1220 0.0000
# 2 13.1896 94.9157 42.3094 0.0000 7.5898 0.0000
# 3 8.2095 42.3094 146.5228 0.0000 17.1413 0.0000
# 4 0.0000 0.0000 0.0000 -2.8120 0.0000 16.9659
# 5 16.1220 7.5898 17.1413 0.0000 33.0685 0.0000
# 6 0.0000 0.0000 0.0000 16.9659 0.0000 20.4017
#
#
#
# Elastic Compliance Matrix: (Units=1/GPa)
#
#
# Indices 1 2 3 4 5 6 
#
# 1 0.015250 -0.001762 0.000508 0.000000 -0.007294 0.000000
# 2 -0.001762 0.012329 -0.003439 0.000000 -0.000188 0.000000
# 3 0.000508 -0.003439 0.008225 0.000000 -0.003722 0.000000
# 4 0.000000 0.000000 0.000000 -0.059099 0.000000 0.049146
# 5 -0.007294 -0.000188 -0.003722 0.000000 0.035768 0.000000
# 6 0.000000 0.000000 0.000000 0.049146 0.000000 0.008146
#
#
# Mechanical properties :
#
#
# Convention : Reuss Voigt Hill
#
# Bulk Modulus (GPa) = 37.85624 49.26574 43.56099
# Shear Modulus (GPa) = 128.82791 26.94938 77.88865
#
# Velocity S-wave (km/s) = 7.41417 3.39103 5.76494
# Velocity P-wave (km/s) = 9.45760 6.02939 7.93094
#
# Compressibility (1/GPa) = 0.02641572
#
# Stress axis : x y z
#
# Youngs Moduli (GPa) = 65.57459 81.11192 121.58168
#
# Poissons Ratio (x) = 0.14294 -0.06172
# Poissons Ratio (y) = 0.11556 0.41815
# Poissons Ratio (z) = -0.03329 0.27897
#
# Static dielectric constant tensor:
#      x y z
#    x 1.968530 0.000000 0.039620 
#    y 0.000000 1.767960 0.000000 
#    z 0.039620 0.000000 1.943290 
# 
# From -- ./inp_files/178035.got.cif
#   From: 2010.05.17/outbox.cif.g08.bks.cpg/sg12_90_cif.got.tgz:178035.got - 2010.06.03 13:09:07.
