data_PCOD9217278
_publ_section_title
;
Structure prediction by ZEFSAII (Michael W. Deem and Ramdas Pophale) SiO2 
 PCOD9217278
Probable space group: C 2/M
;
_chemical_formula_sum "Si O2"
_cell_formula_units_Z 50
_cell_length_a 12.746428
_cell_length_b 14.478831
_cell_length_c 14.167101
_cell_angle_alpha 90.000000
_cell_angle_beta 56.507736
_cell_angle_gamma 90.000000
_cell_volume 2180.461295
_symmetry_space_group_name_H-M "C 2/M"
_symmetry_group_IT_number 12
_symmetry_cell_setting 'monoclinic'
loop_
_space_group_symop_operation_xyz
x,y,z
-x,y,-z
-x,-y,-z
x,-y,z
1/2+x,1/2+y,z
1/2-x,1/2+y,-z
1/2-x,1/2-y,-z
1/2+x,1/2-y,z
loop_
_atom_site_type_symbol
_atom_site_label
_atom_site_fract_x
_atom_site_fract_y
_atom_site_fract_z
Si Si1 0.076506 0.162044 0.050643
Si Si2 0.500000 0.000000 0.000000
Si Si3 0.158152 0.203296 0.696956
Si Si4 0.000346 0.791460 0.387822
Si Si5 0.325603 0.133939 0.028708
Si Si6 0.407135 0.102293 0.637105
Si Si7 0.243272 0.898813 0.278677
O O1 0.200884 0.113704 0.030224
O O2 0.971347 0.181661 0.182717
O O3 0.138414 0.259000 0.986620
O O4 0.000000 0.121241 0.000000
O O5 0.450948 0.921152 0.946738
O O6 0.268249 0.134246 0.674132
O O7 0.202583 0.308139 0.696357
O O8 0.127673 0.189333 0.602079
O O9 0.047203 0.691450 0.325885
O O10 0.098772 0.873311 0.327199
O O11 0.000000 0.780643 0.500000
O O12 0.299654 0.097295 0.146414
O O13 0.500000 0.096334 0.500000
O O14 0.405505 0.000000 0.681567
O O15 0.256095 0.000000 0.317972
#
# Coordination Sequence:
#
# PCOD9217278 Si02
#       7
#     8   2   8   8   8   8   8
#     4  11  22  41  67  98 133 186 222 280 341 413
#     4  12  20  40  62 100 126 178 220 286 330 400
#     4  11  22  41  68  97 131 180 224 278 342 405
#     4  10  23  42  65  96 132 173 224 280 343 405
#     4  11  22  37  68  95 136 177 229 278 338 406
#     4   9  21  41  66  93 128 173 221 275 338 406
#     4  11  22  39  64  98 135 172 228 280 336 406
#
# _framework density 22.930927000000001
#
# number of rings (size 3 to 8) (size 9 to 14) (size 15 to 20)
#    0.000    1.440    4.800    0.000    0.000    7.360 
#    1.440    3.600    7.040    0.000    0.000    0.000 
#    0.000    0.000    0.000    0.000    0.000    0.000 
#
# Total GULP energy -139177.445235 kJ/mol
# GULP energy per Si atom -5567.097809 kJ/mol
# Density = 2.287874 g / cm^3
# Si number density = 22.930927 Si / 1000 Ang^3
#
#
#
# Elastic Constant Matrix: (Units=GPa)
#
#
# Indices 1 2 3 4 5 6 
#
# 1 153.6419 10.2863 20.3854 0.0000 -3.7793 0.0000
# 2 10.2863 96.7613 14.7737 0.0000 -14.7887 0.0000
# 3 20.3854 14.7737 41.2948 0.0000 -1.2103 0.0000
# 4 0.0000 0.0000 0.0000 16.5521 0.0000 -6.6330
# 5 -3.7793 -14.7887 -1.2103 0.0000 29.2418 0.0000
# 6 0.0000 0.0000 0.0000 -6.6330 0.0000 13.3931
#
#
#
# Elastic Compliance Matrix: (Units=1/GPa)
#
#
# Indices 1 2 3 4 5 6 
#
# 1 0.006983 -0.000118 -0.003384 0.000000 0.000703 0.000000
# 2 -0.000118 0.011848 -0.004010 0.000000 0.005811 0.000000
# 3 -0.003384 -0.004010 0.027282 0.000000 -0.001336 0.000000
# 4 0.000000 0.000000 0.000000 0.075374 0.000000 0.037330
# 5 0.000703 0.005811 -0.001336 0.000000 0.037172 0.000000
# 6 0.000000 0.000000 0.000000 0.037330 0.000000 0.093153
#
#
# Mechanical properties :
#
#
# Convention : Reuss Voigt Hill
#
# Bulk Modulus (GPa) = 32.16692 42.50986 37.33839
# Shear Modulus (GPa) = 18.03758 28.25425 23.14592
#
# Velocity S-wave (km/s) = 2.80769 3.51400 3.18051
# Velocity P-wave (km/s) = 4.95672 5.91969 5.45948
#
# Compressibility (1/GPa) = 0.03108784
#
# Stress axis : x y z
#
# Youngs Moduli (GPa) = 143.20768 84.40536 36.65396
#
# Poissons Ratio (x) = 0.00998 0.12405
# Poissons Ratio (y) = 0.01693 0.14698
# Poissons Ratio (z) = 0.48465 0.33846
#
# Static dielectric constant tensor:
#      x y z
#    x 3.113830 0.000000 -1.285780 
#    y 0.000000 1.902280 0.000000 
#    z -1.285780 0.000000 3.246780 
# 
# From -- ./inp_files/204944.got.cif
#   From: 2010.05.17/outbox.cif.g08.bks.cpg/sg12_103_cif.got.tgz:204944.got - 2010.06.03 13:09:07.
