data_PCOD9217881
_publ_section_title
;
Structure prediction by ZEFSAII (Michael W. Deem and Ramdas Pophale) SiO2 
 PCOD9217881
Probable space group: C 2/M
;
_chemical_formula_sum "Si O2"
_cell_formula_units_Z 56
_cell_length_a 15.203174
_cell_length_b 21.247773
_cell_length_c 14.211086
_cell_angle_alpha 90.000000
_cell_angle_beta 32.721519
_cell_angle_gamma 90.000000
_cell_volume 2481.509332
_symmetry_space_group_name_H-M "C 2/M"
_symmetry_group_IT_number 12
_symmetry_cell_setting 'monoclinic'
loop_
_space_group_symop_operation_xyz
x,y,z
-x,y,-z
-x,-y,-z
x,-y,z
1/2+x,1/2+y,z
1/2-x,1/2+y,-z
1/2-x,1/2-y,-z
1/2+x,1/2-y,z
loop_
_atom_site_type_symbol
_atom_site_label
_atom_site_fract_x
_atom_site_fract_y
_atom_site_fract_z
Si Si1 0.822444 0.216686 0.211039
Si Si2 0.425987 0.567334 0.961796
Si Si3 0.112752 0.429547 0.990257
Si Si4 0.132833 0.576706 0.619283
Si Si5 0.419682 0.665381 0.316612
Si Si6 0.099334 0.395957 0.328234
Si Si7 0.121126 0.169126 0.309032
O O1 0.841917 0.210822 0.306840
O O2 0.701103 0.161509 0.282404
O O3 0.735499 0.279794 0.255799
O O4 0.000000 0.213460 0.000000
O O5 0.487893 0.500000 0.870958
O O6 0.470117 0.622177 0.851534
O O7 0.500000 0.575738 0.000000
O O8 0.234815 0.566099 0.150677
O O9 0.175848 0.500000 0.950811
O O10 0.986406 0.413867 0.185960
O O11 0.262541 0.383630 0.839464
O O12 0.000000 0.429339 0.000000
O O13 0.148925 0.500000 0.589487
O O14 0.301177 0.614415 0.473004
O O15 0.042500 0.614639 0.617708
O O16 0.520333 0.696531 0.310618
O O17 0.000000 0.429354 0.500000
O O18 0.000000 0.145732 0.500000
#
# Coordination Sequence:
#
# PCOD9217881 Si02
#       7
#     8   8   8   8   8   8   8
#     4  12  26  50  69 100 145 189 240 297 352 420
#     4  11  21  38  66 103 145 184 232 289 359 432
#     4  10  23  48  75 105 144 183 234 301 356 422
#     4  11  24  41  73 111 145 186 231 283 362 433
#     4  12  24  47  72 101 147 188 236 300 360 413
#     4  12  21  40  64  98 146 187 227 285 343 426
#     4  12  29  48  74 107 134 189 248 295 362 428
#
# _framework density 22.566911000000001
#
# number of rings (size 3 to 8) (size 9 to 14) (size 15 to 20)
#    0.000    0.571    4.286    3.429    0.000    6.000 
#    2.571    0.000    0.000    0.000    0.000    0.000 
#    0.000    0.000    0.000    0.000    0.000    0.000 
#
# Total GULP energy -156395.666404 kJ/mol
# GULP energy per Si atom -5585.559514 kJ/mol
# Density = 2.251555 g / cm^3
# Si number density = 22.566911 Si / 1000 Ang^3
#
#
#
# Elastic Constant Matrix: (Units=GPa)
#
#
# Indices 1 2 3 4 5 6 
#
# 1 125.0796 26.6701 31.2410 -0.0030 20.9027 0.0080
# 2 26.6701 74.0070 57.7372 -0.0036 2.7668 0.0073
# 3 31.2410 57.7372 133.3757 -0.0076 10.9831 0.0114
# 4 -0.0030 -0.0036 -0.0076 27.5522 0.0023 -7.1805
# 5 20.9027 2.7668 10.9831 0.0023 34.4144 -0.0088
# 6 0.0080 0.0073 0.0114 -7.1805 -0.0088 9.2383
#
#
#
# Elastic Compliance Matrix: (Units=1/GPa)
#
#
# Indices 1 2 3 4 5 6 
#
# 1 0.009653 -0.002810 -0.000596 -0.000002 -0.005447 -0.000012
# 2 -0.002810 0.021270 -0.008780 -0.000001 0.002799 -0.000001
# 3 -0.000596 -0.008780 0.011656 0.000000 -0.002652 -0.000010
# 4 -0.000002 -0.000001 0.000000 0.045514 0.000007 0.035376
# 5 -0.005447 0.002799 -0.002652 0.000007 0.032987 0.000043
# 6 -0.000012 -0.000001 -0.000010 0.035376 0.000043 0.135741
#
#
# Mechanical properties :
#
#
# Convention : Reuss Voigt Hill
#
# Bulk Modulus (GPa) = 54.92234 62.63989 58.78112
# Shear Modulus (GPa) = 17.40561 28.69525 23.05043
#
# Velocity S-wave (km/s) = 2.78022 3.56977 3.19944
# Velocity P-wave (km/s) = 5.89038 6.69393 6.30497
#
# Compressibility (1/GPa) = 0.01820753
#
# Stress axis : x y z
#
# Youngs Moduli (GPa) = 103.59198 47.01467 85.79010
#
# Poissons Ratio (x) = 0.13212 0.05114
# Poissons Ratio (y) = 0.29110 0.75322
# Poissons Ratio (z) = 0.06175 0.41278
#
# Static dielectric constant tensor:
#      x y z
#    x 1.481310 -0.000010 -0.468600 
#    y -0.000010 1.874670 0.000010 
#    z -0.468600 0.000010 1.343020 
# 
# From -- ./inp_files/218681.got.cif
#   From: 2010.05.17/outbox.cif.g08.bks.cpg/sg12_110_cif.got.tgz:218681.got - 2010.06.03 13:09:07.
