data_PCOD9217171
_publ_section_title
;
Structure prediction by ZEFSAII (Michael W. Deem and Ramdas Pophale) SiO2 
 PCOD9217171
Probable space group: C 2/M
;
_chemical_formula_sum "Si O2"
_cell_formula_units_Z 48
_cell_length_a 25.401212
_cell_length_b 8.544870
_cell_length_c 17.356217
_cell_angle_alpha 90.000000
_cell_angle_beta 33.081309
_cell_angle_gamma 90.000000
_cell_volume 2056.228145
_symmetry_space_group_name_H-M "C 2/M"
_symmetry_group_IT_number 12
_symmetry_cell_setting 'monoclinic'
loop_
_space_group_symop_operation_xyz
x,y,z
-x,y,-z
-x,-y,-z
x,-y,z
1/2+x,1/2+y,z
1/2-x,1/2+y,-z
1/2-x,1/2-y,-z
1/2+x,1/2-y,z
loop_
_atom_site_type_symbol
_atom_site_label
_atom_site_fract_x
_atom_site_fract_y
_atom_site_fract_z
Si Si1 0.626561 0.819504 0.788600
Si Si2 0.471568 0.816424 0.785572
Si Si3 0.390046 0.315019 0.608435
Si Si4 0.181858 0.682950 0.150154
Si Si5 0.422689 0.320274 0.998022
Si Si6 0.327407 0.185524 0.521351
O O1 0.536316 0.714581 0.873570
O O2 0.727739 0.772930 0.628079
O O3 0.603355 0.000000 0.802654
O O4 0.632489 0.787636 0.873292
O O5 0.422878 0.802253 0.762118
O O6 0.411904 0.722711 0.922276
O O7 0.582396 0.765721 0.642214
O O8 0.468610 0.000000 0.810439
O O9 0.500000 0.278862 0.500000
O O10 0.384460 0.500000 0.598595
O O11 0.322859 0.271721 0.763470
O O12 0.359032 0.222634 0.570336
O O13 0.201938 0.500000 0.138504
O O14 0.250000 0.750000 0.000000
O O15 0.399107 0.500000 0.042301
O O16 0.313738 0.000000 0.529521
#
# Coordination Sequence:
#
# PCOD9217171 Si02
#       6
#     8   8   8   8   8   8
#     4  11  23  42  66  92 125 161 202 252 309 368
#     4  10  23  42  63  89 124 164 205 254 310 363
#     4  11  23  40  63  91 126 164 205 252 306 366
#     4  11  24  42  63  90 125 165 210 257 308 363
#     4  11  23  41  66  93 124 161 205 253 304 366
#     4  11  23  41  65  92 123 162 209 254 303 365
#
# _framework density 23.343713000000001
#
# number of rings (size 3 to 8) (size 9 to 14) (size 15 to 20)
#    0.000    1.167    1.667    5.500    2.333    4.000 
#    0.000    0.000    0.000    0.000    0.000    0.000 
#    0.000    0.000    0.000    0.000    0.000    0.000 
#
# Total GULP energy -134404.035381 kJ/mol
# GULP energy per Si atom -5600.168141 kJ/mol
# Density = 2.329058 g / cm^3
# Si number density = 23.343713 Si / 1000 Ang^3
#
#
#
# Elastic Constant Matrix: (Units=GPa)
#
#
# Indices 1 2 3 4 5 6 
#
# 1 48.7202 3.3058 -2.9182 -0.0007 7.7487 0.0012
# 2 3.3058 26.2436 -7.0071 0.0026 -0.3292 -0.0003
# 3 -2.9182 -7.0071 92.5577 0.0025 -2.4182 0.0002
# 4 -0.0007 0.0026 0.0025 31.4635 0.0000 -0.2808
# 5 7.7487 -0.3292 -2.4182 0.0000 42.0867 -0.0009
# 6 0.0012 -0.0003 0.0002 -0.2808 -0.0009 23.8051
#
#
#
# Elastic Compliance Matrix: (Units=1/GPa)
#
#
# Indices 1 2 3 4 5 6 
#
# 1 0.021352 -0.002640 0.000371 0.000001 -0.003930 -0.000001
# 2 -0.002640 0.039227 0.002912 -0.000003 0.000960 0.000001
# 3 0.000371 0.002912 0.011052 -0.000001 0.000590 0.000000
# 4 0.000001 -0.000003 -0.000001 0.031786 0.000000 0.000375
# 5 -0.003930 0.000960 0.000590 0.000000 0.024525 0.000001
# 6 -0.000001 0.000001 0.000000 0.000375 0.000001 0.042012
#
#
# Mechanical properties :
#
#
# Convention : Reuss Voigt Hill
#
# Bulk Modulus (GPa) = 13.71473 17.14250 15.42862
# Shear Modulus (GPa) = 25.91018 31.08046 28.49532
#
# Velocity S-wave (km/s) = 3.33519 3.65283 3.49762
# Velocity P-wave (km/s) = 4.55184 5.01501 4.78903
#
# Compressibility (1/GPa) = 0.07291430
#
# Stress axis : x y z
#
# Youngs Moduli (GPa) = 46.83442 25.49294 90.48484
#
# Poissons Ratio (x) = 0.06730 -0.03354
# Poissons Ratio (y) = 0.12364 -0.26345
# Poissons Ratio (z) = -0.01736 -0.07422
#
# Static dielectric constant tensor:
#      x y z
#    x 1.971270 0.000000 -0.024010 
#    y 0.000000 1.792160 0.000000 
#    z -0.024010 0.000000 1.869550 
# 
# From -- ./inp_files/295371.got.cif
#   From: 2010.05.17/outbox.cif.g08.bks.cpg/sg12_148_cif.got.tgz:295371.got - 2010.06.03 13:09:07.
