data_PCOD9217187
_publ_section_title
;
Structure prediction by ZEFSAII (Michael W. Deem and Ramdas Pophale) SiO2 
 PCOD9217187
Probable space group: C 2/M
;
_chemical_formula_sum "Si O2"
_cell_formula_units_Z 36
_cell_length_a 19.871875
_cell_length_b 15.720251
_cell_length_c 5.403533
_cell_angle_alpha 90.000000
_cell_angle_beta 84.662735
_cell_angle_gamma 90.000000
_cell_volume 1680.695798
_symmetry_space_group_name_H-M "C 2/M"
_symmetry_group_IT_number 12
_symmetry_cell_setting 'monoclinic'
loop_
_space_group_symop_operation_xyz
x,y,z
-x,y,-z
-x,-y,-z
x,-y,z
1/2+x,1/2+y,z
1/2-x,1/2+y,-z
1/2-x,1/2-y,-z
1/2+x,1/2-y,z
loop_
_atom_site_type_symbol
_atom_site_label
_atom_site_fract_x
_atom_site_fract_y
_atom_site_fract_z
Si Si1 0.612015 0.905758 0.779124
Si Si2 0.500000 0.840605 0.500000
Si Si3 0.574328 0.252474 0.096391
Si Si4 0.244090 0.352388 0.484362
Si Si5 0.678655 0.402375 0.040758
O O1 0.537053 0.897897 0.688721
O O2 0.668936 0.888249 0.553891
O O3 0.622121 0.000000 0.882120
O O4 0.614775 0.826370 0.963343
O O5 0.442658 0.777925 0.622696
O O6 0.500000 0.260629 0.000000
O O7 0.616640 0.337035 0.056040
O O8 0.250000 0.250000 0.500000
O O9 0.274027 0.381008 0.210979
O O10 0.284492 0.388038 0.709094
O O11 0.657248 0.500000 0.028981
#
# Coordination Sequence:
#
# PCOD9217187 Si02
#       5
#     8   4   8   8   8
#     4  11  23  40  65  97 133 174 224 281 342 409
#     4  10  23  42  63  94 130 180 229 276 339 404
#     4  10  24  43  65  94 132 178 229 276 344 399
#     4  12  25  46  72 103 138 182 225 282 346 408
#     4  12  26  46  71 105 140 178 230 284 338 407
#
# _framework density 21.419699999999999
#
# number of rings (size 3 to 8) (size 9 to 14) (size 15 to 20)
#    0.000    0.889    2.222    4.333    6.222    5.333 
#    0.000    0.556    0.000    0.000    0.000    0.000 
#    0.000    0.000    0.000    0.000    0.000    0.000 
#
# Total GULP energy -100652.944333 kJ/mol
# GULP energy per Si atom -5591.830241 kJ/mol
# Density = 2.137095 g / cm^3
# Si number density = 21.419700 Si / 1000 Ang^3
#
#
#
# Elastic Constant Matrix: (Units=GPa)
#
#
# Indices 1 2 3 4 5 6 
#
# 1 83.0987 46.5045 22.1987 0.0000 -13.4413 0.0000
# 2 46.5045 210.1315 36.9383 0.0000 -15.8620 0.0000
# 3 22.1987 36.9383 98.9464 0.0000 -18.0954 0.0000
# 4 0.0000 0.0000 0.0000 20.0034 0.0000 6.8442
# 5 -13.4413 -15.8620 -18.0954 0.0000 35.0882 0.0000
# 6 0.0000 0.0000 0.0000 6.8442 0.0000 24.2099
#
#
#
# Elastic Compliance Matrix: (Units=1/GPa)
#
#
# Indices 1 2 3 4 5 6 
#
# 1 0.014528 -0.002664 -0.001620 0.000000 0.003525 0.000000
# 2 -0.002664 0.005650 -0.001359 0.000000 0.000833 0.000000
# 3 -0.001620 -0.001359 0.011871 0.000000 0.004887 0.000000
# 4 0.000000 0.000000 0.000000 0.055345 0.000000 -0.015646
# 5 0.003525 0.000833 0.004887 0.000000 0.032747 0.000000
# 6 0.000000 0.000000 0.000000 -0.015646 0.000000 0.045729
#
#
# Mechanical properties :
#
#
# Convention : Reuss Voigt Hill
#
# Bulk Modulus (GPa) = 48.16474 67.05107 57.60790
# Shear Modulus (GPa) = 27.16244 34.96264 31.06254
#
# Velocity S-wave (km/s) = 3.56491 4.04451 3.81226
# Velocity P-wave (km/s) = 6.28329 7.29261 6.80669
#
# Compressibility (1/GPa) = 0.02076208
#
# Stress axis : x y z
#
# Youngs Moduli (GPa) = 68.83307 176.97938 84.23791
#
# Poissons Ratio (x) = 0.47153 0.13647
# Poissons Ratio (y) = 0.18339 0.11451
# Poissons Ratio (z) = 0.11151 0.24058
#
# Static dielectric constant tensor:
#      x y z
#    x 1.799680 0.000000 0.028240 
#    y 0.000000 1.733790 0.000000 
#    z 0.028240 0.000000 1.840420 
# 
# From -- ./inp_files/19671.got.cif
#   From: 2010.05.17/outbox.cif.g08.bks.cpg/sg12_10_cif.got.tgz:19671.got - 2010.06.03 13:09:07.
