data_PCOD9217960
_publ_section_title
;
Structure prediction by ZEFSAII (Michael W. Deem and Ramdas Pophale) SiO2 
 PCOD9217960
Probable space group: C 2/M
;
_chemical_formula_sum "Si O2"
_cell_formula_units_Z 32
_cell_length_a 9.931058
_cell_length_b 22.636377
_cell_length_c 14.364483
_cell_angle_alpha 90.000000
_cell_angle_beta 153.094340
_cell_angle_gamma 90.000000
_cell_volume 1461.278201
_symmetry_space_group_name_H-M "C 2/M"
_symmetry_group_IT_number 12
_symmetry_cell_setting 'monoclinic'
loop_
_space_group_symop_operation_xyz
x,y,z
-x,y,-z
-x,-y,-z
x,-y,z
1/2+x,1/2+y,z
1/2-x,1/2+y,-z
1/2-x,1/2-y,-z
1/2+x,1/2-y,z
loop_
_atom_site_type_symbol
_atom_site_label
_atom_site_fract_x
_atom_site_fract_y
_atom_site_fract_z
Si Si1 0.459265 0.565111 0.585324
Si Si2 0.396052 0.689499 0.279603
Si Si3 0.522085 0.847534 0.703480
Si Si4 0.958136 0.204144 0.845808
O O1 0.500000 0.563436 0.500000
O O2 0.513178 0.500000 0.657765
O O3 0.662315 0.619058 0.748256
O O4 0.117902 0.587521 0.384587
O O5 0.779192 0.808961 0.471088
O O6 0.165553 0.733209 0.188109
O O7 0.454232 0.703986 0.207444
O O8 0.678632 0.835968 0.701694
O O9 0.765392 0.825961 0.927931
#
# Coordination Sequence:
#
# PCOD9217960 Si02
#       4
#     8   8   8   8
#     4   9  21  45  70  92 129 182 226 270 330 390
#     4  10  24  39  67  96 140 175 212 282 329 404
#     4   9  23  38  64  96 135 174 214 277 329 390
#     4  11  22  41  61 105 136 173 222 261 357 390
#
# _framework density 21.898637000000001
#
# number of rings (size 3 to 8) (size 9 to 14) (size 15 to 20)
#    1.500    0.750    0.000    1.500    3.500    6.000 
#    0.000    6.250    0.000    3.000    0.000    0.000 
#    0.000    0.000    0.000    0.000    0.000    0.000 
#
# Total GULP energy -89083.819936 kJ/mol
# GULP energy per Si atom -5567.738746 kJ/mol
# Density = 2.184879 g / cm^3
# Si number density = 21.898637 Si / 1000 Ang^3
#
#
#
# Elastic Constant Matrix: (Units=GPa)
#
#
# Indices 1 2 3 4 5 6 
#
# 1 128.3738 56.7145 31.2353 -0.0036 -6.2319 -0.0007
# 2 56.7145 158.4458 18.4720 -0.0011 -9.8272 0.0021
# 3 31.2353 18.4720 110.8833 -0.0038 6.3592 -0.0002
# 4 -0.0036 -0.0011 -0.0038 -1.7065 -0.0026 7.1659
# 5 -6.2319 -9.8272 6.3592 -0.0026 45.5389 -0.0005
# 6 -0.0007 0.0021 -0.0002 7.1659 -0.0005 5.6583
#
#
#
# Elastic Compliance Matrix: (Units=1/GPa)
#
#
# Indices 1 2 3 4 5 6 
#
# 1 0.009798 -0.003180 -0.002286 -0.000001 0.000974 0.000003
# 2 -0.003180 0.007579 -0.000439 -0.000002 0.001262 -0.000001
# 3 -0.002286 -0.000439 0.009838 -0.000002 -0.001781 0.000003
# 4 -0.000001 -0.000002 -0.000002 -0.092751 -0.000004 0.117463
# 5 0.000974 0.001262 -0.001781 -0.000004 0.022614 0.000007
# 6 0.000003 -0.000001 0.000003 0.117463 0.000007 0.027973
#
#
# Mechanical properties :
#
#
# Convention : Reuss Voigt Hill
#
# Bulk Modulus (GPa) = 64.91778 67.83850 66.37814
# Shear Modulus (GPa) = 2504.57027 29.31688 1266.94358
#
# Velocity S-wave (km/s) = 33.85548 3.66287 24.07914
# Velocity P-wave (km/s) = 39.47109 6.99532 28.34521
#
# Compressibility (1/GPa) = 0.01540410
#
# Stress axis : x y z
#
# Youngs Moduli (GPa) = 102.05834 131.94158 101.64868
#
# Poissons Ratio (x) = 0.41961 0.23239
# Poissons Ratio (y) = 0.32458 0.04463
# Poissons Ratio (z) = 0.23332 0.05793
#
# Static dielectric constant tensor:
#      x y z
#    x 1.833080 0.000000 0.002310 
#    y 0.000000 1.885940 0.000000 
#    z 0.002310 0.000000 1.899890 
# 
# From -- ./inp_files/206809.got.cif
#   From: 2010.05.17/outbox.cif.g08.bks.cpg/sg12_104_cif.got.tgz:206809.got - 2010.06.03 13:09:07.
