data_PCOD9217772
_publ_section_title
;
Structure prediction by ZEFSAII (Michael W. Deem and Ramdas Pophale) SiO2 
 PCOD9217772
Probable space group: C 2/M
;
_chemical_formula_sum "Si O2"
_cell_formula_units_Z 38
_cell_length_a 8.182895
_cell_length_b 30.020475
_cell_length_c 10.349758
_cell_angle_alpha 90.000000
_cell_angle_beta 134.122650
_cell_angle_gamma 90.000000
_cell_volume 1825.110337
_symmetry_space_group_name_H-M "C 2/M"
_symmetry_group_IT_number 12
_symmetry_cell_setting 'monoclinic'
loop_
_space_group_symop_operation_xyz
x,y,z
-x,y,-z
-x,-y,-z
x,-y,z
1/2+x,1/2+y,z
1/2-x,1/2+y,-z
1/2-x,1/2-y,-z
1/2+x,1/2-y,z
loop_
_atom_site_type_symbol
_atom_site_label
_atom_site_fract_x
_atom_site_fract_y
_atom_site_fract_z
Si Si1 0.500000 0.341496 0.000000
Si Si2 0.194575 0.910893 0.705282
Si Si3 0.798635 0.310282 0.783684
Si Si4 0.085366 0.717109 0.690927
Si Si5 0.000000 0.000000 0.000000
Si Si6 0.274554 0.077978 0.036947
O O1 0.678698 0.309481 0.167090
O O2 0.345445 0.375132 0.997957
O O3 0.173073 0.857483 0.709890
O O4 0.193961 0.933182 0.846480
O O5 0.000000 0.926623 0.500000
O O6 0.454701 0.917228 0.803106
O O7 0.637361 0.269520 0.734296
O O8 0.913857 0.298702 0.708842
O O9 0.000000 0.313663 0.000000
O O10 0.000000 0.709166 0.500000
O O11 0.809753 0.039344 0.917163
#
# Coordination Sequence:
#
# PCOD9217772 Si02
#       6
#     4   8   8   8   2   8
#     4  11  22  39  64  90 134 166 228 279 330 387
#     4  11  23  41  68  98 136 172 222 264 327 391
#     4  12  23  42  61  94 136 185 234 279 324 378
#     4  12  26  38  61  93 134 186 237 280 329 372
#     4  10  24  50  78  96 136 160 208 264 342 416
#     4  10  23  45  69 100 125 172 207 272 337 404
#
# _framework density 20.820658000000002
#
# number of rings (size 3 to 8) (size 9 to 14) (size 15 to 20)
#    0.000    0.842    5.263    1.895    5.895    1.684 
#    0.000    6.316    0.000    0.000    0.000    0.000 
#    0.000    0.000    0.000    0.000    0.000    0.000 
#
# Total GULP energy -106005.378699 kJ/mol
# GULP energy per Si atom -5579.230458 kJ/mol
# Density = 2.077327 g / cm^3
# Si number density = 20.820658 Si / 1000 Ang^3
#
#
#
# Elastic Constant Matrix: (Units=GPa)
#
#
# Indices 1 2 3 4 5 6 
#
# 1 39.4263 -19.4465 7.3377 0.0000 0.8004 0.0000
# 2 -19.4465 63.0097 -6.5476 0.0000 8.2508 0.0000
# 3 7.3377 -6.5476 121.3782 0.0000 3.1159 0.0000
# 4 0.0000 0.0000 0.0000 16.6227 0.0000 6.1693
# 5 0.8004 8.2508 3.1159 0.0000 22.9751 0.0000
# 6 0.0000 0.0000 0.0000 6.1693 0.0000 -7.7615
#
#
#
# Elastic Compliance Matrix: (Units=1/GPa)
#
#
# Indices 1 2 3 4 5 6 
#
# 1 0.030555 0.009889 -0.001199 0.000000 -0.004453 0.000000
# 2 0.009889 0.019990 0.000676 0.000000 -0.007615 0.000000
# 3 -0.001199 0.000676 0.008382 0.000000 -0.001338 0.000000
# 4 0.000000 0.000000 0.000000 0.046454 0.000000 0.036925
# 5 -0.004453 -0.007615 -0.001338 0.000000 0.046597 0.000000
# 6 0.000000 0.000000 0.000000 0.036925 0.000000 -0.099491
#
#
# Mechanical properties :
#
#
# Convention : Reuss Voigt Hill
#
# Bulk Modulus (GPa) = 12.87716 20.72239 16.79977
# Shear Modulus (GPa) = 83.83368 22.53196 53.18282
#
# Velocity S-wave (km/s) = 6.35233 3.29324 5.05952
# Velocity P-wave (km/s) = 7.74603 4.94317 6.49754
#
# Compressibility (1/GPa) = 0.07765688
#
# Stress axis : x y z
#
# Youngs Moduli (GPa) = 32.72807 50.02545 119.30287
#
# Poissons Ratio (x) = -0.49468 0.14309
# Poissons Ratio (y) = -0.32363 -0.08065
# Poissons Ratio (z) = 0.03925 -0.03382
#
# Static dielectric constant tensor:
#      x y z
#    x 1.782340 0.000000 -0.063440 
#    y 0.000000 1.681090 0.000000 
#    z -0.063440 0.000000 1.587820 
# 
# From -- ./inp_files/125525.got.cif
#   From: 2010.05.17/outbox.cif.g08.bks.cpg/sg12_63_cif.got.tgz:125525.got - 2010.06.03 13:09:07.
