data_PCOD9217709
_publ_section_title
;
Structure prediction by ZEFSAII (Michael W. Deem and Ramdas Pophale) SiO2 
 PCOD9217709
Probable space group: C 2/M
;
_chemical_formula_sum "Si O2"
_cell_formula_units_Z 56
_cell_length_a 23.645975
_cell_length_b 8.155887
_cell_length_c 16.467015
_cell_angle_alpha 90.000000
_cell_angle_beta 52.624936
_cell_angle_gamma 90.000000
_cell_volume 2523.684037
_symmetry_space_group_name_H-M "C 2/M"
_symmetry_group_IT_number 12
_symmetry_cell_setting 'monoclinic'
loop_
_space_group_symop_operation_xyz
x,y,z
-x,y,-z
-x,-y,-z
x,-y,z
1/2+x,1/2+y,z
1/2-x,1/2+y,-z
1/2-x,1/2-y,-z
1/2+x,1/2-y,z
loop_
_atom_site_type_symbol
_atom_site_label
_atom_site_fract_x
_atom_site_fract_y
_atom_site_fract_z
Si Si1 0.061090 0.193706 0.751334
Si Si2 0.602347 0.305118 0.268347
Si Si3 0.285409 0.687227 0.386416
Si Si4 0.674485 0.690058 0.361731
Si Si5 0.551125 0.190219 0.027936
Si Si6 0.049410 0.308808 0.578852
Si Si7 0.330046 0.196961 0.956969
O O1 0.139260 0.260036 0.706269
O O2 0.059796 0.221494 0.656237
O O3 0.000755 0.293921 0.849481
O O4 0.050671 0.000000 0.779124
O O5 0.587388 0.500000 0.284774
O O6 0.666893 0.272077 0.273729
O O7 0.534419 0.208940 0.361204
O O8 0.622224 0.254856 0.160690
O O9 0.302755 0.500000 0.388774
O O10 0.250000 0.750000 0.500000
O O11 0.230153 0.704656 0.362545
O O12 0.693937 0.500000 0.354960
O O13 0.598486 0.720617 0.470544
O O14 0.627526 0.255020 0.997470
O O15 0.563756 0.000000 0.994709
O O16 0.500000 0.262122 0.000000
O O17 0.069621 0.500000 0.565780
O O18 0.329598 0.000000 0.961870
O O19 0.250000 0.250000 0.000000
#
# Coordination Sequence:
#
# PCOD9217709 Si02
#       7
#     8   8   8   8   8   8   8
#     4  11  23  39  63  92 124 163 208 256 313 376
#     4  11  24  42  64  91 127 167 210 264 320 379
#     4  11  23  38  59  88 125 168 211 259 313 372
#     4  11  24  40  60  90 128 171 215 261 315 373
#     4  10  23  44  69  97 127 163 213 268 324 388
#     4  12  23  37  62  92 124 165 210 258 312 373
#     4  11  24  43  69  98 130 170 214 267 330 391
#
# _framework density 22.189782000000001
#
# number of rings (size 3 to 8) (size 9 to 14) (size 15 to 20)
#    0.000    1.000    2.857    3.857    0.000    7.714 
#    0.000    4.286    0.000    0.000    0.000    0.000 
#    0.000    0.000    0.000    0.000    0.000    0.000 
#
# Total GULP energy -156313.915561 kJ/mol
# GULP energy per Si atom -5582.639841 kJ/mol
# Density = 2.213928 g / cm^3
# Si number density = 22.189782 Si / 1000 Ang^3
#
#
#
# Elastic Constant Matrix: (Units=GPa)
#
#
# Indices 1 2 3 4 5 6 
#
# 1 137.1483 3.0781 25.3620 0.0003 9.8937 -0.0002
# 2 3.0781 35.6257 -13.2509 0.0002 4.2506 -0.0004
# 3 25.3620 -13.2509 28.2428 0.0001 14.5648 0.0000
# 4 0.0003 0.0002 0.0001 22.1047 0.0000 0.5340
# 5 9.8937 4.2506 14.5648 0.0000 39.9632 0.0000
# 6 -0.0002 -0.0004 0.0000 0.5340 0.0000 29.2649
#
#
#
# Elastic Compliance Matrix: (Units=1/GPa)
#
#
# Indices 1 2 3 4 5 6 
#
# 1 0.009617 -0.006030 -0.013013 0.000000 0.003003 0.000000
# 2 -0.006030 0.042808 0.033344 0.000000 -0.015213 0.000001
# 3 -0.013013 0.033344 0.077465 0.000000 -0.028557 0.000000
# 4 0.000000 0.000000 0.000000 0.045259 0.000000 -0.000826
# 5 0.003003 -0.015213 -0.028557 0.000000 0.036305 0.000000
# 6 0.000000 0.000001 0.000000 -0.000826 0.000000 0.034186
#
#
# Mechanical properties :
#
#
# Convention : Reuss Voigt Hill
#
# Bulk Modulus (GPa) = 6.30946 25.71061 16.01003
# Shear Modulus (GPa) = 18.52763 30.65506 24.59134
#
# Velocity S-wave (km/s) = 2.89271 3.72088 3.33262
# Velocity P-wave (km/s) = 3.74254 5.48377 4.69459
#
# Compressibility (1/GPa) = 0.15849217
#
# Stress axis : x y z
#
# Youngs Moduli (GPa) = 103.98761 23.36009 12.90912
#
# Poissons Ratio (x) = 0.14085 0.16799
# Poissons Ratio (y) = 0.62699 -0.43045
# Poissons Ratio (z) = 1.35323 -0.77893
#
# Static dielectric constant tensor:
#      x y z
#    x 1.984500 0.000000 -0.009350 
#    y 0.000000 1.776530 0.000000 
#    z -0.009350 0.000000 1.777570 
# 
# From -- ./inp_files/238352.got.cif
#   From: 2010.05.17/outbox.cif.g08.bks.cpg/sg12_120_cif.got.tgz:238352.got - 2010.06.03 13:09:07.
