data_PCOD9217451
_publ_section_title
;
Structure prediction by ZEFSAII (Michael W. Deem and Ramdas Pophale) SiO2 
 PCOD9217451
Probable space group: C 2/M
;
_chemical_formula_sum "Si O2"
_cell_formula_units_Z 58
_cell_length_a 7.619883
_cell_length_b 21.185762
_cell_length_c 16.186476
_cell_angle_alpha 90.000000
_cell_angle_beta 97.718758
_cell_angle_gamma 90.000000
_cell_volume 2589.355881
_symmetry_space_group_name_H-M "C 2/M"
_symmetry_group_IT_number 12
_symmetry_cell_setting 'monoclinic'
loop_
_space_group_symop_operation_xyz
x,y,z
-x,y,-z
-x,-y,-z
x,-y,z
1/2+x,1/2+y,z
1/2-x,1/2+y,-z
1/2-x,1/2-y,-z
1/2+x,1/2-y,z
loop_
_atom_site_type_symbol
_atom_site_label
_atom_site_fract_x
_atom_site_fract_y
_atom_site_fract_z
Si Si1 0.284757 0.608915 0.978894
Si Si2 0.667766 0.305873 0.175754
Si Si3 0.500000 0.000000 0.000000
Si Si4 0.756413 0.836574 0.156087
Si Si5 0.623814 0.325188 0.587602
Si Si6 0.716375 0.696643 0.358495
Si Si7 0.827739 0.572371 0.697619
Si Si8 0.627897 0.932711 0.587122
O O1 0.236725 0.644186 0.060281
O O2 0.500000 0.591710 0.000000
O O3 0.263727 0.653752 0.897460
O O4 0.139799 0.553698 0.971286
O O5 0.665730 0.231100 0.160937
O O6 0.468587 0.329941 0.177276
O O7 0.777000 0.310805 0.268093
O O8 0.686816 0.887327 0.219137
O O9 0.500000 0.329411 0.500000
O O10 0.493337 0.308118 0.653749
O O11 0.744934 0.263102 0.595164
O O12 0.718487 0.388981 0.620896
O O13 0.780700 0.634891 0.410815
O O14 0.766179 0.500000 0.706831
O O15 0.018407 0.567982 0.665766
O O16 0.500000 0.934765 0.500000
O O17 0.731129 0.000000 0.591828
#
# Coordination Sequence:
#
# PCOD9217451 Si02
#       8
#     8   8   2   8   8   8   8   8
#     4  10  26  47  72 110 148 189 234 298 348 420
#     4  11  23  44  70  99 137 176 231 290 351 416
#     4  12  26  48  76 110 144 196 242 276 360 434
#     4  11  24  45  70 101 140 178 230 289 353 416
#     4  12  24  40  64  96 132 176 228 287 348 411
#     4  12  22  40  63  98 129 172 227 288 340 413
#     4  11  24  42  65  95 133 183 230 282 354 423
#     4  10  23  43  65  92 132 180 229 288 354 417
#
# _framework density 22.399394999999998
#
# number of rings (size 3 to 8) (size 9 to 14) (size 15 to 20)
#    0.000    0.966    2.759    3.103    4.828    0.828 
#    4.966    0.000    0.000    0.000    0.000    0.000 
#    0.000    0.000    0.000    0.000    0.000    0.000 
#
# Total GULP energy -161529.395436 kJ/mol
# GULP energy per Si atom -5569.979153 kJ/mol
# Density = 2.234841 g / cm^3
# Si number density = 22.399395 Si / 1000 Ang^3
#
#
#
# Elastic Constant Matrix: (Units=GPa)
#
#
# Indices 1 2 3 4 5 6 
#
# 1 35.0205 40.8846 5.2617 0.0000 -15.2103 0.0000
# 2 40.8846 175.8486 42.5936 0.0000 -9.8060 0.0000
# 3 5.2617 42.5936 136.4727 0.0000 -15.7390 0.0000
# 4 0.0000 0.0000 0.0000 10.7676 0.0000 -24.2784
# 5 -15.2103 -9.8060 -15.7390 0.0000 28.7888 0.0000
# 6 0.0000 0.0000 0.0000 -24.2784 0.0000 46.4583
#
#
#
# Elastic Compliance Matrix: (Units=1/GPa)
#
#
# Indices 1 2 3 4 5 6 
#
# 1 0.053681 -0.012151 0.004820 0.000000 0.026858 0.000000
# 2 -0.012151 0.008936 -0.002892 0.000000 -0.004957 0.000000
# 3 0.004820 -0.002892 0.008778 0.000000 0.006360 0.000000
# 4 0.000000 0.000000 0.000000 -0.520839 0.000000 -0.272183
# 5 0.026858 -0.004957 0.006360 0.000000 0.050715 0.000000
# 6 0.000000 0.000000 0.000000 -0.272183 0.000000 -0.120714
#
#
# Mechanical properties :
#
#
# Convention : Reuss Voigt Hill
#
# Bulk Modulus (GPa) = 19.62734 58.31350 38.97042
# Shear Modulus (GPa) = -10.37310 34.44305 12.03498
#
# Velocity S-wave (km/s) = -2.15430 3.92558 2.32047
# Velocity P-wave (km/s) = 1.61041 6.82912 4.96137
#
# Compressibility (1/GPa) = 0.05094935
#
# Stress axis : x y z
#
# Youngs Moduli (GPa) = 18.62858 111.90955 113.92379
#
# Poissons Ratio (x) = 1.35976 -0.54912
# Poissons Ratio (y) = 0.22635 0.32948
# Poissons Ratio (z) = -0.08979 0.32365
#
# Static dielectric constant tensor:
#      x y z
#    x 1.879690 0.000000 -0.011030 
#    y 0.000000 -5.738480 0.000000 
#    z -0.011030 0.000000 1.856910 
# 
# From -- ./inp_files/257122.got.cif
#   From: 2010.05.17/outbox.cif.g08.bks.cpg/sg12_129_cif.got.tgz:257122.got - 2010.06.03 13:09:07.
