data_PCOD9217409
_publ_section_title
;
Structure prediction by ZEFSAII (Michael W. Deem and Ramdas Pophale) SiO2 
 PCOD9217409
Probable space group: C 2/M
;
_chemical_formula_sum "Si O2"
_cell_formula_units_Z 34
_cell_length_a 13.068905
_cell_length_b 11.774361
_cell_length_c 26.423210
_cell_angle_alpha 90.000000
_cell_angle_beta 161.670181
_cell_angle_gamma 90.000000
_cell_volume 1278.686783
_symmetry_space_group_name_H-M "C 2/M"
_symmetry_group_IT_number 12
_symmetry_cell_setting 'monoclinic'
loop_
_space_group_symop_operation_xyz
x,y,z
-x,y,-z
-x,-y,-z
x,-y,z
1/2+x,1/2+y,z
1/2-x,1/2+y,-z
1/2-x,1/2-y,-z
1/2+x,1/2-y,z
loop_
_atom_site_type_symbol
_atom_site_label
_atom_site_fract_x
_atom_site_fract_y
_atom_site_fract_z
Si Si1 0.140875 0.846971 0.161380
Si Si2 0.248483 0.376248 0.163089
Si Si3 0.588939 0.624268 0.482850
Si Si4 0.500000 0.500000 0.000000
Si Si5 0.215533 0.370387 0.665856
O O1 0.146174 0.713922 0.155700
O O2 0.522687 0.880571 0.339220
O O3 0.042061 0.876917 0.171819
O O4 0.984093 0.903034 0.038197
O O5 0.264345 0.500000 0.192913
O O6 0.592569 0.352560 0.296570
O O7 0.000000 0.374740 0.000000
O O8 0.500000 0.620195 0.500000
O O9 0.464202 0.500000 0.403641
O O10 0.473957 0.751410 0.412815
O O11 0.069948 0.500000 0.595329
#
# Coordination Sequence:
#
# PCOD9217409 Si02
#       5
#     8   8   8   2   8
#     4  12  23  43  68  99 135 183 228 279 346 411
#     4  10  23  43  63  94 137 176 224 284 342 406
#     4  11  23  41  68 102 142 176 227 288 345 407
#     4  12  24  44  68  96 140 184 222 286 336 408
#     4  11  24  43  71 102 134 181 231 284 345 412
#
# _framework density 26.589777000000002
#
# number of rings (size 3 to 8) (size 9 to 14) (size 15 to 20)
#    0.000    0.941    5.882    0.706    0.000    3.294 
#    0.000    0.000    0.000    0.000    0.000    0.000 
#    0.000    0.000    0.000    0.000    0.000    0.000 
#
# Total GULP energy -94709.732263 kJ/mol
# GULP energy per Si atom -5571.160721 kJ/mol
# Density = 2.652926 g / cm^3
# Si number density = 26.589777 Si / 1000 Ang^3
#
#
#
# Elastic Constant Matrix: (Units=GPa)
#
#
# Indices 1 2 3 4 5 6 
#
# 1 86.8329 18.0373 10.3125 0.0063 -31.0078 -0.0021
# 2 18.0373 258.3512 39.0948 0.0045 -1.5522 -0.0120
# 3 10.3125 39.0948 48.6981 0.0085 -0.3663 0.0201
# 4 0.0063 0.0045 0.0085 30.6870 -0.0046 19.1934
# 5 -31.0078 -1.5522 -0.3663 -0.0046 43.9903 0.0071
# 6 -0.0021 -0.0120 0.0201 19.1934 0.0071 161.7095
#
#
#
# Elastic Compliance Matrix: (Units=1/GPa)
#
#
# Indices 1 2 3 4 5 6 
#
# 1 0.015986 -0.000625 -0.002799 -0.000001 0.011223 0.000000
# 2 -0.000625 0.004431 -0.003427 0.000000 -0.000313 0.000001
# 3 -0.002799 -0.003427 0.023865 -0.000004 -0.001895 -0.000003
# 4 -0.000001 0.000000 -0.000004 0.035200 0.000004 -0.004178
# 5 0.011223 -0.000313 -0.001895 0.000004 0.030616 -0.000001
# 6 0.000000 0.000001 -0.000003 -0.004178 -0.000001 0.006680
#
#
# Mechanical properties :
#
#
# Convention : Reuss Voigt Hill
#
# Bulk Modulus (GPa) = 32.70201 58.75236 45.72719
# Shear Modulus (GPa) = 35.54311 69.03988 52.29150
#
# Velocity S-wave (km/s) = 3.66009 5.10110 4.43945
# Velocity P-wave (km/s) = 5.49427 7.53915 6.59643
#
# Compressibility (1/GPa) = 0.03057916
#
# Stress axis : x y z
#
# Youngs Moduli (GPa) = 62.55332 225.67793 41.90310
#
# Poissons Ratio (x) = 0.14108 0.11729
# Poissons Ratio (y) = 0.03910 0.14361
# Poissons Ratio (z) = 0.17509 0.77346
#
# Static dielectric constant tensor:
#      x y z
#    x 2.060660 0.000000 0.068380 
#    y 0.000000 2.094180 -0.000010 
#    z 0.068380 -0.000010 2.196340 
# 
# From -- ./inp_files/213203.got.cif
#   From: 2010.05.17/outbox.cif.g08.bks.cpg/sg12_107_cif.got.tgz:213203.got - 2010.06.03 13:09:07.
