data_PCOD9217156
_publ_section_title
;
Structure prediction by ZEFSAII (Michael W. Deem and Ramdas Pophale) SiO2 
 PCOD9217156
Probable space group: C 2/M
;
_chemical_formula_sum "Si O2"
_cell_formula_units_Z 52
_cell_length_a 19.106007
_cell_length_b 27.695993
_cell_length_c 5.661789
_cell_angle_alpha 90.000000
_cell_angle_beta 60.202414
_cell_angle_gamma 90.000000
_cell_volume 2599.880513
_symmetry_space_group_name_H-M "C 2/M"
_symmetry_group_IT_number 12
_symmetry_cell_setting 'monoclinic'
loop_
_space_group_symop_operation_xyz
x,y,z
-x,y,-z
-x,-y,-z
x,-y,z
1/2+x,1/2+y,z
1/2-x,1/2+y,-z
1/2-x,1/2-y,-z
1/2+x,1/2-y,z
loop_
_atom_site_type_symbol
_atom_site_label
_atom_site_fract_x
_atom_site_fract_y
_atom_site_fract_z
Si Si1 0.324953 0.277782 0.754657
Si Si2 0.582719 0.277515 0.981325
Si Si3 0.368220 0.944228 0.869586
Si Si4 0.000000 0.368473 0.500000
Si Si5 0.270454 0.944780 0.533832
Si Si6 0.214025 0.849328 0.539094
Si Si7 0.386255 0.809326 0.340404
O O1 0.295337 0.329127 0.709493
O O2 0.352666 0.239072 0.517673
O O3 0.250000 0.250000 0.000000
O O4 0.406319 0.284995 0.762403
O O5 0.656230 0.312173 0.772873
O O6 0.588150 0.218754 0.940776
O O7 0.500000 0.292428 0.000000
O O8 0.437522 0.903934 0.738878
O O9 0.316441 0.938012 0.710934
O O10 0.398494 0.000000 0.810764
O O11 0.322672 0.939684 0.200194
O O12 0.950439 0.336658 0.393420
O O13 0.200973 0.904743 0.620421
O O14 0.242002 0.000000 0.583493
O O15 0.307863 0.841742 0.441461
#
# Coordination Sequence:
#
# PCOD9217156 Si02
#       7
#     8   8   8   4   8   8   8
#     4  11  20  36  61  80 120 159 202 258 302 375
#     4  11  23  39  58  87 123 160 205 260 318 378
#     4  10  23  42  62  90 129 172 214 264 314 365
#     4  12  23  36  60  88 136 170 219 256 302 374
#     4  10  23  43  66  93 125 163 219 270 316 379
#     4  11  22  37  62  86 117 163 213 251 324 372
#     4  11  22  37  52  90 118 168 211 249 304 367
#
# _framework density 20.000920000000001
#
# number of rings (size 3 to 8) (size 9 to 14) (size 15 to 20)
#    0.000    1.231    4.615    2.077    4.308    3.692 
#    2.769    2.308    0.000    0.462    0.000    1.077 
#    0.000    0.000    0.000    0.000    0.000    0.000 
#
# Total GULP energy -144759.971852 kJ/mol
# GULP energy per Si atom -5567.691225 kJ/mol
# Density = 1.995540 g / cm^3
# Si number density = 20.000920 Si / 1000 Ang^3
#
#
#
# Elastic Constant Matrix: (Units=GPa)
#
#
# Indices 1 2 3 4 5 6 
#
# 1 96.3682 40.6630 12.2966 0.0000 17.2526 0.0000
# 2 40.6630 128.8170 9.6444 0.0000 2.9100 0.0000
# 3 12.2966 9.6444 42.0978 0.0000 8.8976 0.0000
# 4 0.0000 0.0000 0.0000 25.8091 0.0000 1.8589
# 5 17.2526 2.9100 8.8976 0.0000 25.9182 0.0000
# 6 0.0000 0.0000 0.0000 1.8589 0.0000 34.1410
#
#
#
# Elastic Compliance Matrix: (Units=1/GPa)
#
#
# Indices 1 2 3 4 5 6 
#
# 1 0.013728 -0.004047 -0.001345 0.000000 -0.008222 0.000000
# 2 -0.004047 0.009093 -0.001353 0.000000 0.002137 0.000000
# 3 -0.001345 -0.001353 0.026132 0.000000 -0.007924 0.000000
# 4 0.000000 0.000000 0.000000 0.038899 0.000000 -0.002118
# 5 -0.008222 0.002137 -0.007924 0.000000 0.046536 0.000000
# 6 0.000000 0.000000 0.000000 -0.002118 0.000000 0.029406
#
#
# Mechanical properties :
#
#
# Convention : Reuss Voigt Hill
#
# Bulk Modulus (GPa) = 28.19804 43.61011 35.90408
# Shear Modulus (GPa) = 26.44036 30.81893 28.62965
#
# Velocity S-wave (km/s) = 3.63982 3.92966 3.78751
# Velocity P-wave (km/s) = 5.63856 6.51468 6.09239
#
# Compressibility (1/GPa) = 0.03546345
#
# Stress axis : x y z
#
# Youngs Moduli (GPa) = 72.84295 109.96899 38.26769
#
# Poissons Ratio (x) = 0.44505 0.05147
# Poissons Ratio (y) = 0.29480 0.05177
# Poissons Ratio (z) = 0.09797 0.14877
#
# Static dielectric constant tensor:
#      x y z
#    x 1.707780 0.000000 0.046890 
#    y 0.000000 1.460580 0.000000 
#    z 0.046890 0.000000 2.008720 
# 
# From -- ./inp_files/17391.got.cif
#   From: 2010.05.17/outbox.cif.g08.bks.cpg/sg12_9_cif.got.tgz:17391.got - 2010.06.03 13:09:07.
