data_PCOD9217713
_publ_section_title
;
Structure prediction by ZEFSAII (Michael W. Deem and Ramdas Pophale) SiO2 
 PCOD9217713
Probable space group: C 2/M
;
_chemical_formula_sum "Si O2"
_cell_formula_units_Z 64
_cell_length_a 14.241395
_cell_length_b 25.049635
_cell_length_c 9.567798
_cell_angle_alpha 90.000000
_cell_angle_beta 111.619893
_cell_angle_gamma 90.000000
_cell_volume 3173.107312
_symmetry_space_group_name_H-M "C 2/M"
_symmetry_group_IT_number 12
_symmetry_cell_setting 'monoclinic'
loop_
_space_group_symop_operation_xyz
x,y,z
-x,y,-z
-x,-y,-z
x,-y,z
1/2+x,1/2+y,z
1/2-x,1/2+y,-z
1/2-x,1/2-y,-z
1/2+x,1/2-y,z
loop_
_atom_site_type_symbol
_atom_site_label
_atom_site_fract_x
_atom_site_fract_y
_atom_site_fract_z
Si Si1 0.999380 0.732743 0.665265
Si Si2 0.500810 0.361348 0.333501
Si Si3 0.283429 0.201873 0.619742
Si Si4 0.280212 0.798206 0.122282
Si Si5 0.773463 0.137173 0.157847
Si Si6 0.210852 0.133344 0.337917
Si Si7 0.093561 0.563653 0.152794
Si Si8 0.103880 0.436104 0.491418
O O1 0.990967 0.796769 0.678264
O O2 0.103809 0.711465 0.779967
O O3 0.000000 0.722370 0.500000
O O4 0.903716 0.705529 0.685988
O O5 0.500000 0.372642 0.500000
O O6 0.390398 0.377834 0.221825
O O7 0.594508 0.383981 0.294496
O O8 0.250000 0.250000 0.500000
O O9 0.239461 0.190104 0.748340
O O10 0.237700 0.153639 0.507718
O O11 0.224068 0.817243 0.235101
O O12 0.250000 0.750000 0.000000
O O13 0.261425 0.848852 0.015180
O O14 0.696359 0.093216 0.168558
O O15 0.300567 0.090170 0.375591
O O16 0.101863 0.500000 0.138190
O O17 0.087805 0.573637 0.316475
O O18 0.000000 0.581342 0.000000
O O19 0.111555 0.500000 0.513149
O O20 0.000000 0.415564 0.500000
#
# Coordination Sequence:
#
# PCOD9217713 Si02
#       8
#     8   8   8   8   8   8   8   8
#     4  11  22  37  60  86 123 168 215 265 311 370
#     4  11  21  40  64  87 125 171 217 262 316 380
#     4  12  21  38  62  90 122 171 218 257 315 382
#     4  12  27  42  58  95 136 172 218 267 317 382
#     4  12  25  41  61  93 129 170 218 265 323 381
#     4  12  24  40  66  91 127 174 217 263 326 384
#     4  10  23  44  69  98 130 165 210 274 342 393
#     4  10  23  44  70 100 128 160 213 278 336 392
#
# _framework density 20.169505000000001
#
# number of rings (size 3 to 8) (size 9 to 14) (size 15 to 20)
#    0.000    0.750    6.250    1.500    5.250    0.500 
#    0.000    0.625    0.000    2.250    0.000    1.750 
#    0.000    0.000    0.000    0.000    0.000    0.000 
#
# Total GULP energy -178444.591304 kJ/mol
# GULP energy per Si atom -5576.393478 kJ/mol
# Density = 2.012360 g / cm^3
# Si number density = 20.169505 Si / 1000 Ang^3
#
#
#
# Elastic Constant Matrix: (Units=GPa)
#
#
# Indices 1 2 3 4 5 6 
#
# 1 193.1906 34.1117 59.8321 0.0000 24.4401 0.0000
# 2 34.1117 38.8133 24.2970 0.0000 9.9680 0.0000
# 3 59.8321 24.2970 114.0161 0.0000 10.5147 0.0000
# 4 0.0000 0.0000 0.0000 -0.2662 0.0000 11.0221
# 5 24.4401 9.9680 10.5147 0.0000 39.2014 0.0000
# 6 0.0000 0.0000 0.0000 11.0221 0.0000 27.3797
#
#
#
# Elastic Compliance Matrix: (Units=1/GPa)
#
#
# Indices 1 2 3 4 5 6 
#
# 1 0.007001 -0.003828 -0.002610 0.000000 -0.002691 0.000000
# 2 -0.003828 0.033271 -0.004636 0.000000 -0.004830 0.000000
# 3 -0.002610 -0.004636 0.011145 0.000000 -0.000183 0.000000
# 4 0.000000 0.000000 0.000000 -0.212615 0.000000 0.085591
# 5 -0.002691 -0.004830 -0.000183 0.000000 0.028465 0.000000
# 6 0.000000 0.000000 0.000000 0.085591 0.000000 0.002067
#
#
# Mechanical properties :
#
#
# Convention : Reuss Voigt Hill
#
# Bulk Modulus (GPa) = 34.16508 64.72242 49.44375
# Shear Modulus (GPa) = -50.62669 28.44824 -11.08923
#
# Velocity S-wave (km/s) = -5.01549 3.75968 -2.34733
# Velocity P-wave (km/s) = 4.06994 7.14184 4.14979
#
# Compressibility (1/GPa) = 0.02926965
#
# Stress axis : x y z
#
# Youngs Moduli (GPa) = 142.83856 30.05612 89.72518
#
# Poissons Ratio (x) = 0.11505 0.23418
# Poissons Ratio (y) = 0.54677 0.41596
# Poissons Ratio (z) = 0.37280 0.13934
#
# Static dielectric constant tensor:
#      x y z
#    x 1.717780 0.000000 0.043410 
#    y 0.000000 1.795390 0.000000 
#    z 0.043410 0.000000 1.739660 
# 
# From -- ./inp_files/67024.got.cif
#   From: 2010.05.17/outbox.cif.g08.bks.cpg/sg12_34_cif.got.tgz:67024.got - 2010.06.03 13:09:07.
