data_PCOD9217839
_publ_section_title
;
Structure prediction by ZEFSAII (Michael W. Deem and Ramdas Pophale) SiO2 
 PCOD9217839
Probable space group: C 2/M
;
_chemical_formula_sum "Si O2"
_cell_formula_units_Z 56
_cell_length_a 18.080946
_cell_length_b 14.391030
_cell_length_c 21.531621
_cell_angle_alpha 90.000000
_cell_angle_beta 152.207318
_cell_angle_gamma 90.000000
_cell_volume 2612.345607
_symmetry_space_group_name_H-M "C 2/M"
_symmetry_group_IT_number 12
_symmetry_cell_setting 'monoclinic'
loop_
_space_group_symop_operation_xyz
x,y,z
-x,y,-z
-x,-y,-z
x,-y,z
1/2+x,1/2+y,z
1/2-x,1/2+y,-z
1/2-x,1/2-y,-z
1/2+x,1/2-y,z
loop_
_atom_site_type_symbol
_atom_site_label
_atom_site_fract_x
_atom_site_fract_y
_atom_site_fract_z
Si Si1 0.739478 0.389340 0.225323
Si Si2 0.374926 0.708700 0.355648
Si Si3 0.764803 0.852995 0.036792
Si Si4 0.608539 0.603759 0.999859
Si Si5 0.406076 0.104631 0.793569
Si Si6 0.357050 0.109106 0.608981
Si Si7 0.986444 0.187718 0.673947
O O1 0.776504 0.500000 0.256525
O O2 0.869882 0.320791 0.348996
O O3 0.703544 0.352676 0.127904
O O4 0.574522 0.367922 0.139049
O O5 0.500000 0.677048 0.500000
O O6 0.202706 0.672367 0.247556
O O7 0.429010 0.673673 0.328986
O O8 0.904164 0.853013 0.190321
O O9 0.750000 0.750000 0.000000
O O10 0.809010 0.901254 0.004946
O O11 0.595216 0.880802 0.938322
O O12 0.596068 0.500000 0.015049
O O13 0.364188 0.114283 0.689270
O O14 0.367944 0.000000 0.784394
O O15 0.456979 0.200544 0.661816
O O16 0.181758 0.134274 0.453965
O O17 0.401638 0.000000 0.625927
#
# Coordination Sequence:
#
# PCOD9217839 Si02
#       7
#     8   8   8   8   8   8   8
#     4   9  20  37  62  97 133 174 217 269 339 416
#     4  12  25  44  65  92 132 182 228 278 334 409
#     4  12  22  38  66 101 133 170 220 288 341 395
#     4   9  19  38  62  91 131 170 209 263 343 415
#     4  11  25  45  70  96 132 182 231 278 338 408
#     4  10  23  46  71  99 135 179 230 279 335 411
#     4  11  25  43  70 104 135 176 229 283 348 401
#
# _framework density 21.436672999999999
#
# number of rings (size 3 to 8) (size 9 to 14) (size 15 to 20)
#    0.000    1.429    2.857    3.000    0.000    4.571 
#    0.000    2.143    0.000    0.000    0.000    0.000 
#    0.000    0.000    0.000    0.000    0.000    0.000 
#
# Total GULP energy -156188.779714 kJ/mol
# GULP energy per Si atom -5578.170704 kJ/mol
# Density = 2.138788 g / cm^3
# Si number density = 21.436673 Si / 1000 Ang^3
#
#
#
# Elastic Constant Matrix: (Units=GPa)
#
#
# Indices 1 2 3 4 5 6 
#
# 1 113.5377 19.7414 22.5068 0.0006 6.8278 0.0000
# 2 19.7414 86.4108 1.6056 0.0022 -4.5394 0.0014
# 3 22.5068 1.6056 80.5992 0.0048 4.7480 0.0026
# 4 0.0006 0.0022 0.0048 19.3891 0.0009 -1.2418
# 5 6.8278 -4.5394 4.7480 0.0009 21.0256 0.0006
# 6 0.0000 0.0014 0.0026 -1.2418 0.0006 25.3864
#
#
#
# Elastic Compliance Matrix: (Units=1/GPa)
#
#
# Indices 1 2 3 4 5 6 
#
# 1 0.009915 -0.002384 -0.002535 0.000001 -0.003162 0.000001
# 2 -0.002384 0.012291 0.000222 -0.000002 0.003378 -0.000001
# 3 -0.002535 0.000222 0.013235 -0.000003 -0.002118 -0.000001
# 4 0.000001 -0.000002 -0.000003 0.051738 -0.000002 0.002531
# 5 -0.003162 0.003378 -0.002118 -0.000002 0.049795 -0.000001
# 6 0.000001 -0.000001 -0.000001 0.002531 -0.000001 0.039515
#
#
# Mechanical properties :
#
#
# Convention : Reuss Voigt Hill
#
# Bulk Modulus (GPa) = 38.39282 40.91725 39.65503
# Shear Modulus (GPa) = 25.69835 28.93980 27.31908
#
# Velocity S-wave (km/s) = 3.46613 3.67824 3.57376
# Velocity P-wave (km/s) = 5.82816 6.09657 5.96388
#
# Compressibility (1/GPa) = 0.02604654
#
# Stress axis : x y z
#
# Youngs Moduli (GPa) = 100.85892 81.36278 75.55583
#
# Poissons Ratio (x) = 0.19398 0.19153
# Poissons Ratio (y) = 0.24046 -0.01677
# Poissons Ratio (z) = 0.25567 -0.01806
#
# Static dielectric constant tensor:
#      x y z
#    x 1.707400 0.000000 0.012280 
#    y 0.000000 1.771350 0.000000 
#    z 0.012280 0.000000 1.797070 
# 
# From -- ./inp_files/316797.got.cif
#   From: 2010.05.17/outbox.cif.g08.bks.cpg/sg12_159_cif.got.tgz:316797.got - 2010.06.03 13:09:07.
