data_PCOD9217503
_publ_section_title
;
Structure prediction by ZEFSAII (Michael W. Deem and Ramdas Pophale) SiO2 
 PCOD9217503
Probable space group: C 2/M
;
_chemical_formula_sum "Si O2"
_cell_formula_units_Z 64
_cell_length_a 33.547198
_cell_length_b 8.629551
_cell_length_c 16.535075
_cell_angle_alpha 90.000000
_cell_angle_beta 137.604839
_cell_angle_gamma 90.000000
_cell_volume 3227.491790
_symmetry_space_group_name_H-M "C 2/M"
_symmetry_group_IT_number 12
_symmetry_cell_setting 'monoclinic'
loop_
_space_group_symop_operation_xyz
x,y,z
-x,y,-z
-x,-y,-z
x,-y,z
1/2+x,1/2+y,z
1/2-x,1/2+y,-z
1/2-x,1/2-y,-z
1/2+x,1/2-y,z
loop_
_atom_site_type_symbol
_atom_site_label
_atom_site_fract_x
_atom_site_fract_y
_atom_site_fract_z
Si Si1 0.449233 0.684369 0.488190
Si Si2 0.843543 0.182849 0.794055
Si Si3 0.230960 0.314104 0.058097
Si Si4 0.880964 0.315897 0.689309
Si Si5 0.112541 0.313902 0.970293
Si Si6 0.517301 0.812818 0.286829
Si Si7 0.825903 0.683051 0.324540
Si Si8 0.713673 0.317295 0.567883
O O1 0.500000 0.723685 0.500000
O O2 0.438811 0.500000 0.469449
O O3 0.469083 0.733657 0.607584
O O4 0.388351 0.772753 0.378885
O O5 0.884471 0.230925 0.780143
O O6 0.780694 0.265121 0.683685
O O7 0.833772 0.000000 0.780652
O O8 0.870037 0.237432 0.918785
O O9 0.237815 0.500000 0.070230
O O10 0.272996 0.238708 0.188420
O O11 0.250000 0.250000 0.000000
O O12 0.163526 0.276739 0.981486
O O13 0.882823 0.500000 0.704910
O O14 0.933240 0.272551 0.705763
O O15 0.819395 0.270096 0.554037
O O16 0.113208 0.500000 0.982969
O O17 0.047694 0.270132 0.842341
O O18 0.519689 0.000000 0.301514
O O19 0.822247 0.500000 0.334130
O O20 0.820723 0.772080 0.401651
O O21 0.788885 0.000000 0.450533
#
# Coordination Sequence:
#
# PCOD9217503 Si02
#       8
#     8   8   8   8   8   8   8   8
#     4  11  25  43  65  97 132 169 212 263 319 373
#     4  12  25  41  64  94 127 168 214 262 318 382
#     4  11  24  42  66  96 132 170 213 264 318 375
#     4  11  23  41  65  94 128 167 210 262 319 382
#     4  10  23  44  66  91 125 169 215 264 317 375
#     4  10  23  43  67  93 124 167 216 263 316 378
#     4  12  24  41  67  97 130 170 214 261 318 381
#     4  12  23  40  65  95 131 166 207 265 322 379
#
# _framework density 19.829640000000001
#
# number of rings (size 3 to 8) (size 9 to 14) (size 15 to 20)
#    0.000    0.875    2.500    4.875    1.750    3.000 
#    0.000    2.500    0.000    0.000    0.000    0.000 
#    0.000    0.000    0.000    0.000    0.000    0.000 
#
# Total GULP energy -179090.877181 kJ/mol
# GULP energy per Si atom -5596.589912 kJ/mol
# Density = 1.978451 g / cm^3
# Si number density = 19.829640 Si / 1000 Ang^3
#
#
#
# Elastic Constant Matrix: (Units=GPa)
#
#
# Indices 1 2 3 4 5 6 
#
# 1 95.8753 16.1156 19.5794 0.0000 4.2186 0.0000
# 2 16.1156 35.2701 4.3132 0.0000 7.0787 0.0000
# 3 19.5794 4.3132 60.4569 0.0000 14.7492 0.0000
# 4 0.0000 0.0000 0.0000 34.0142 0.0000 -4.8442
# 5 4.2186 7.0787 14.7492 0.0000 36.0981 0.0000
# 6 0.0000 0.0000 0.0000 -4.8442 0.0000 28.7482
#
#
#
# Elastic Compliance Matrix: (Units=1/GPa)
#
#
# Indices 1 2 3 4 5 6 
#
# 1 0.012043 -0.005274 -0.003813 0.000000 0.001185 0.000000
# 2 -0.005274 0.031856 0.000899 0.000000 -0.005998 0.000000
# 3 -0.003813 0.000899 0.019599 0.000000 -0.007739 0.000000
# 4 0.000000 0.000000 0.000000 0.030122 0.000000 0.005076
# 5 0.001185 -0.005998 -0.007739 0.000000 0.031902 0.000000
# 6 0.000000 0.000000 0.000000 0.005076 0.000000 0.035640
#
#
# Mechanical properties :
#
#
# Convention : Reuss Voigt Hill
#
# Bulk Modulus (GPa) = 21.22170 30.17986 25.70078
# Shear Modulus (GPa) = 25.87344 29.87837 27.87591
#
# Velocity S-wave (km/s) = 3.61610 3.88590 3.75343
# Velocity P-wave (km/s) = 5.30662 5.94864 5.63677
#
# Compressibility (1/GPa) = 0.04712157
#
# Stress axis : x y z
#
# Youngs Moduli (GPa) = 83.03345 31.39081 51.02189
#
# Poissons Ratio (x) = 0.16557 0.19455
# Poissons Ratio (y) = 0.43795 -0.04585
# Poissons Ratio (z) = 0.31661 -0.02821
#
# Static dielectric constant tensor:
#      x y z
#    x 1.719250 0.000000 -0.040870 
#    y 0.000000 1.664640 0.000000 
#    z -0.040870 0.000000 1.922580 
# 
# From -- ./inp_files/249746.got.cif
#   From: 2010.05.17/outbox.cif.g08.bks.cpg/sg12_125_cif.got.tgz:249746.got - 2010.06.03 13:09:07.
