data_PCOD9217527
_publ_section_title
;
Structure prediction by ZEFSAII (Michael W. Deem and Ramdas Pophale) SiO2 
 PCOD9217527
Probable space group: C 2/M
;
_chemical_formula_sum "Si O2"
_cell_formula_units_Z 48
_cell_length_a 9.811889
_cell_length_b 17.601770
_cell_length_c 17.587379
_cell_angle_alpha 90.000000
_cell_angle_beta 133.895020
_cell_angle_gamma 90.000000
_cell_volume 2188.825833
_symmetry_space_group_name_H-M "C 2/M"
_symmetry_group_IT_number 12
_symmetry_cell_setting 'monoclinic'
loop_
_space_group_symop_operation_xyz
x,y,z
-x,y,-z
-x,-y,-z
x,-y,z
1/2+x,1/2+y,z
1/2-x,1/2+y,-z
1/2-x,1/2-y,-z
1/2+x,1/2-y,z
loop_
_atom_site_type_symbol
_atom_site_label
_atom_site_fract_x
_atom_site_fract_y
_atom_site_fract_z
Si Si1 0.234745 0.908531 0.671798
Si Si2 0.207870 0.184644 0.045792
Si Si3 0.296036 0.086196 0.378312
Si Si4 0.073538 0.661593 0.715986
Si Si5 0.507473 0.910458 0.918059
Si Si6 0.583155 0.695123 0.405510
O O1 0.369882 0.874371 0.658493
O O2 0.344271 0.888302 0.794173
O O3 0.030655 0.869204 0.593242
O O4 0.224708 0.000000 0.661785
O O5 0.335994 0.185667 0.170035
O O6 0.286222 0.109392 0.034824
O O7 0.250000 0.250000 0.000000
O O8 0.000000 0.184021 0.000000
O O9 0.500000 0.092625 0.500000
O O10 0.323261 0.102550 0.299547
O O11 0.163932 0.149646 0.364552
O O12 0.226870 0.000000 0.364134
O O13 0.069173 0.739945 0.669059
O O14 0.486004 0.000000 0.915917
O O15 0.500000 0.876200 0.000000
O O16 0.750000 0.750000 0.500000
#
# Coordination Sequence:
#
# PCOD9217527 Si02
#       6
#     8   8   8   8   8   8
#     4  10  23  43  67  97 132 178 228 280 339 409
#     4  11  26  41  66  99 137 177 227 279 345 418
#     4  11  24  45  68  97 134 177 225 283 345 407
#     4  11  25  43  71  96 136 176 225 285 345 408
#     4   9  20  41  67  96 133 175 224 281 340 410
#     4  12  25  43  67  99 134 176 227 284 345 410
#
# _framework density 21.929565
#
# number of rings (size 3 to 8) (size 9 to 14) (size 15 to 20)
#    0.000    1.333    1.667    2.500    9.333    1.000 
#    0.000    2.500    0.000    0.000    0.000    0.000 
#    0.000    0.000    0.000    0.000    0.000    0.000 
#
# Total GULP energy -133876.310086 kJ/mol
# GULP energy per Si atom -5578.179587 kJ/mol
# Density = 2.187965 g / cm^3
# Si number density = 21.929565 Si / 1000 Ang^3
#
#
#
# Elastic Constant Matrix: (Units=GPa)
#
#
# Indices 1 2 3 4 5 6 
#
# 1 121.6871 19.7664 30.1381 0.0000 0.2850 0.0000
# 2 19.7664 88.8866 27.2773 0.0000 2.7524 0.0000
# 3 30.1381 27.2773 59.1823 0.0000 -9.3374 0.0000
# 4 0.0000 0.0000 0.0000 7.5905 0.0000 -4.5073
# 5 0.2850 2.7524 -9.3374 0.0000 32.7539 0.0000
# 6 0.0000 0.0000 0.0000 -4.5073 0.0000 37.5910
#
#
#
# Elastic Compliance Matrix: (Units=1/GPa)
#
#
# Indices 1 2 3 4 5 6 
#
# 1 0.009503 -0.000603 -0.004782 0.000000 -0.001395 0.000000
# 2 -0.000603 0.013421 -0.006341 0.000000 -0.002930 0.000000
# 3 -0.004782 -0.006341 0.023398 0.000000 0.007245 0.000000
# 4 0.000000 0.000000 0.000000 0.141842 0.000000 0.017007
# 5 -0.001395 -0.002930 0.007245 0.000000 0.032854 0.000000
# 6 0.000000 0.000000 0.000000 0.017007 0.000000 0.028641
#
#
# Mechanical properties :
#
#
# Convention : Reuss Voigt Hill
#
# Bulk Modulus (GPa) = 43.72423 47.12443 45.42433
# Shear Modulus (GPa) = 17.81040 28.42538 23.11789
#
# Velocity S-wave (km/s) = 2.85294 3.60420 3.25035
# Velocity P-wave (km/s) = 5.55285 6.23346 5.90297
#
# Compressibility (1/GPa) = 0.02287061
#
# Stress axis : x y z
#
# Youngs Moduli (GPa) = 105.22688 74.50992 42.73913
#
# Poissons Ratio (x) = 0.04491 0.20437
# Poissons Ratio (y) = 0.06342 0.27102
# Poissons Ratio (z) = 0.50318 0.47248
#
# Static dielectric constant tensor:
#      x y z
#    x 1.749240 0.000000 -0.004890 
#    y 0.000000 1.770800 0.000000 
#    z -0.004890 0.000000 1.835480 
# 
# From -- ./inp_files/256710.got.cif
#   From: 2010.05.17/outbox.cif.g08.bks.cpg/sg12_129_cif.got.tgz:256710.got - 2010.06.03 13:09:07.
