data_PCOD9217472
_publ_section_title
;
Structure prediction by ZEFSAII (Michael W. Deem and Ramdas Pophale) SiO2 
 PCOD9217472
Probable space group: C 2/M
;
_chemical_formula_sum "Si O2"
_cell_formula_units_Z 64
_cell_length_a 19.493965
_cell_length_b 8.922246
_cell_length_c 31.085278
_cell_angle_alpha 90.000000
_cell_angle_beta 37.723579
_cell_angle_gamma 90.000000
_cell_volume 3308.079529
_symmetry_space_group_name_H-M "C 2/M"
_symmetry_group_IT_number 12
_symmetry_cell_setting 'monoclinic'
loop_
_space_group_symop_operation_xyz
x,y,z
-x,y,-z
-x,-y,-z
x,-y,z
1/2+x,1/2+y,z
1/2-x,1/2+y,-z
1/2-x,1/2-y,-z
1/2+x,1/2-y,z
loop_
_atom_site_type_symbol
_atom_site_label
_atom_site_fract_x
_atom_site_fract_y
_atom_site_fract_z
Si Si1 0.951343 0.172967 0.213141
Si Si2 0.725600 0.176174 0.211340
Si Si3 0.368308 0.821080 0.568338
Si Si4 0.631169 0.673526 0.051858
Si Si5 0.289142 0.319477 0.435491
Si Si6 0.768142 0.823568 0.703549
Si Si7 0.988996 0.322358 0.285955
Si Si8 0.537995 0.820795 0.932334
O O1 0.861871 0.276792 0.233722
O O2 0.964479 0.234730 0.254316
O O3 0.064726 0.178395 0.129885
O O4 0.911494 0.000000 0.233524
O O5 0.687288 0.242055 0.276206
O O6 0.619421 0.195226 0.232939
O O7 0.838724 0.255470 0.139014
O O8 0.749797 0.000000 0.204265
O O9 0.500000 0.786451 0.500000
O O10 0.299811 0.784575 0.558809
O O11 0.318972 0.736982 0.633990
O O12 0.356666 0.000000 0.580825
O O13 0.645427 0.500000 0.032384
O O14 0.553068 0.752905 0.055249
O O15 0.750000 0.750000 0.000000
O O16 0.297921 0.500000 0.434310
O O17 0.250000 0.250000 0.500000
O O18 0.406718 0.247259 0.362471
O O19 0.782685 0.000000 0.699783
O O20 0.965401 0.500000 0.293029
O O21 0.541629 0.000000 0.925498
O O22 0.500000 0.786149 0.000000
#
# Coordination Sequence:
#
# PCOD9217472 Si02
#       8
#     8   8   8   8   8   8   8   8
#     4  11  23  42  67  94 127 168 212 264 322 378
#     4  11  25  44  66  94 129 170 214 261 320 382
#     4  10  23  43  66  92 126 171 214 259 319 379
#     4  11  25  43  67  96 130 172 216 264 320 382
#     4  11  24  42  65  92 129 172 210 262 320 379
#     4  12  24  40  67  97 127 165 213 268 318 374
#     4  11  25  43  66  96 128 168 215 265 319 382
#     4  11  25  44  66  95 131 169 213 266 321 379
#
# _framework density 19.346571999999998
#
# number of rings (size 3 to 8) (size 9 to 14) (size 15 to 20)
#    0.000    1.000    2.500    3.375    3.500    5.250 
#    0.000    0.000    0.000    0.000    0.000    0.000 
#    0.000    0.000    0.000    0.000    0.000    0.000 
#
# Total GULP energy -178957.188017 kJ/mol
# GULP energy per Si atom -5592.412126 kJ/mol
# Density = 1.930254 g / cm^3
# Si number density = 19.346572 Si / 1000 Ang^3
#
#
#
# Elastic Constant Matrix: (Units=GPa)
#
#
# Indices 1 2 3 4 5 6 
#
# 1 54.8740 29.5575 32.1396 0.0000 2.6458 -0.0009
# 2 29.5575 79.3909 48.2170 -0.0001 0.8838 -0.0011
# 3 32.1396 48.2170 101.1496 0.0000 -3.5590 0.0000
# 4 0.0000 -0.0001 0.0000 36.3180 0.0001 0.8669
# 5 2.6458 0.8838 -3.5590 0.0001 37.5176 0.0000
# 6 -0.0009 -0.0011 0.0000 0.8669 0.0000 31.7205
#
#
#
# Elastic Compliance Matrix: (Units=1/GPa)
#
#
# Indices 1 2 3 4 5 6 
#
# 1 0.024506 -0.006091 -0.004955 0.000000 -0.002055 0.000001
# 2 -0.006091 0.019299 -0.007289 0.000000 -0.000717 0.000000
# 3 -0.004955 -0.007289 0.015004 0.000000 0.001944 0.000000
# 4 0.000000 0.000000 0.000000 0.027553 0.000000 -0.000753
# 5 -0.002055 -0.000717 0.001944 0.000000 0.027000 0.000000
# 6 0.000001 0.000000 0.000000 -0.000753 0.000000 0.031546
#
#
# Mechanical properties :
#
#
# Convention : Reuss Voigt Hill
#
# Bulk Modulus (GPa) = 45.17307 50.58251 47.87779
# Shear Modulus (GPa) = 26.46092 29.47791 27.96941
#
# Velocity S-wave (km/s) = 3.70230 3.90766 3.80637
# Velocity P-wave (km/s) = 6.45570 6.82364 6.64222
#
# Compressibility (1/GPa) = 0.02213708
#
# Stress axis : x y z
#
# Youngs Moduli (GPa) = 40.80650 51.81702 66.64905
#
# Poissons Ratio (x) = 0.31563 0.33026
# Poissons Ratio (y) = 0.24856 0.48582
# Poissons Ratio (z) = 0.20221 0.37771
#
# Static dielectric constant tensor:
#      x y z
#    x 1.672580 0.000000 0.002300 
#    y 0.000000 1.653000 0.000000 
#    z 0.002300 0.000000 1.673900 
# 
# From -- ./inp_files/378105.got.cif
#   From: 2010.05.17/outbox.cif.g08.bks.cpg/sg12_190_cif.got.tgz:378105.got - 2010.06.03 13:09:07.
