data_PCOD9217292
_publ_section_title
;
Structure prediction by ZEFSAII (Michael W. Deem and Ramdas Pophale) SiO2 
 PCOD9217292
Probable space group: C 2/M
;
_chemical_formula_sum "Si O2"
_cell_formula_units_Z 32
_cell_length_a 7.845468
_cell_length_b 18.386292
_cell_length_c 9.368440
_cell_angle_alpha 90.000000
_cell_angle_beta 110.496588
_cell_angle_gamma 90.000000
_cell_volume 1265.836408
_symmetry_space_group_name_H-M "C 2/M"
_symmetry_group_IT_number 12
_symmetry_cell_setting 'monoclinic'
loop_
_space_group_symop_operation_xyz
x,y,z
-x,y,-z
-x,-y,-z
x,-y,z
1/2+x,1/2+y,z
1/2-x,1/2+y,-z
1/2-x,1/2-y,-z
1/2+x,1/2-y,z
loop_
_atom_site_type_symbol
_atom_site_label
_atom_site_fract_x
_atom_site_fract_y
_atom_site_fract_z
Si Si1 0.175821 0.385534 0.374246
Si Si2 0.680127 0.225043 0.147180
Si Si3 0.779052 0.617169 0.273603
Si Si4 0.374470 0.577438 0.164049
O O1 0.158701 0.305432 0.301327
O O2 0.214119 0.382143 0.551721
O O3 0.329728 0.421991 0.321614
O O4 0.972791 0.416891 0.287172
O O5 0.767811 0.302677 0.202451
O O6 0.786890 0.156456 0.105603
O O7 0.500000 0.232368 0.000000
O O8 0.585527 0.580980 0.185180
O O9 0.297619 0.500000 0.087443
#
# Coordination Sequence:
#
# PCOD9217292 Si02
#       4
#     8   8   8   8
#     4   9  23  37  62  96 127 160 205 264 313 365
#     4  10  23  42  66  91 131 166 214 261 311 370
#     4  11  20  40  67  94 126 163 212 262 311 370
#     4  10  24  41  64  94 130 168 206 257 320 377
#
# _framework density 25.279726
#
# number of rings (size 3 to 8) (size 9 to 14) (size 15 to 20)
#    1.500    0.500    0.000    3.000    0.000    9.500 
#    0.000    2.500    0.000    2.250    0.000    0.000 
#    0.000    0.000    0.000    0.000    0.000    0.000 
#
# Total GULP energy -89153.166826 kJ/mol
# GULP energy per Si atom -5572.072927 kJ/mol
# Density = 2.522219 g / cm^3
# Si number density = 25.279726 Si / 1000 Ang^3
#
#
#
# Elastic Constant Matrix: (Units=GPa)
#
#
# Indices 1 2 3 4 5 6 
#
# 1 103.8209 45.9782 11.0059 0.0000 8.9692 0.0000
# 2 45.9782 174.8471 29.1093 0.0000 14.3053 0.0000
# 3 11.0059 29.1093 65.1995 0.0000 5.3183 0.0000
# 4 0.0000 0.0000 0.0000 -5.9750 0.0000 9.4836
# 5 8.9692 14.3053 5.3183 0.0000 43.5914 0.0000
# 6 0.0000 0.0000 0.0000 9.4836 0.0000 -8.6983
#
#
#
# Elastic Compliance Matrix: (Units=1/GPa)
#
#
# Indices 1 2 3 4 5 6 
#
# 1 0.010996 -0.002693 -0.000547 0.000000 -0.001312 0.000000
# 2 -0.002693 0.006967 -0.002540 0.000000 -0.001422 0.000000
# 3 -0.000547 -0.002540 0.016652 0.000000 -0.001086 0.000000
# 4 0.000000 0.000000 0.000000 0.229106 0.000000 0.249790
# 5 -0.001312 -0.001422 -0.001086 0.000000 0.023809 0.000000
# 6 0.000000 0.000000 0.000000 0.249790 0.000000 0.157377
#
#
# Mechanical properties :
#
#
# Convention : Reuss Voigt Hill
#
# Bulk Modulus (GPa) = 43.37333 57.33937 50.35635
# Shear Modulus (GPa) = 10.77235 22.96854 16.87044
#
# Velocity S-wave (km/s) = 2.06652 3.01753 2.58612
# Velocity P-wave (km/s) = 4.78420 5.90524 5.37403
#
# Compressibility (1/GPa) = 0.02305564
#
# Stress axis : x y z
#
# Youngs Moduli (GPa) = 90.94245 143.54055 60.05176
#
# Poissons Ratio (x) = 0.38658 0.03283
# Poissons Ratio (y) = 0.24492 0.15252
# Poissons Ratio (z) = 0.04972 0.36456
#
# Static dielectric constant tensor:
#      x y z
#    x 2.067060 0.000000 -0.017930 
#    y 0.000000 2.008440 0.000000 
#    z -0.017930 0.000000 1.951340 
# 
# From -- ./inp_files/119552.got.cif
#   From: 2010.05.17/outbox.cif.g08.bks.cpg/sg12_60_cif.got.tgz:119552.got - 2010.06.03 13:09:07.
