data_PCOD9217741
_publ_section_title
;
Structure prediction by ZEFSAII (Michael W. Deem and Ramdas Pophale) SiO2 
 PCOD9217741
Probable space group: C 2/M
;
_chemical_formula_sum "Si O2"
_cell_formula_units_Z 32
_cell_length_a 16.795930
_cell_length_b 19.287200
_cell_length_c 9.258369
_cell_angle_alpha 90.000000
_cell_angle_beta 155.462844
_cell_angle_gamma 90.000000
_cell_volume 1245.524146
_symmetry_space_group_name_H-M "C 2/M"
_symmetry_group_IT_number 12
_symmetry_cell_setting 'monoclinic'
loop_
_space_group_symop_operation_xyz
x,y,z
-x,y,-z
-x,-y,-z
x,-y,z
1/2+x,1/2+y,z
1/2-x,1/2+y,-z
1/2-x,1/2-y,-z
1/2+x,1/2-y,z
loop_
_atom_site_type_symbol
_atom_site_label
_atom_site_fract_x
_atom_site_fract_y
_atom_site_fract_z
Si Si1 0.300890 0.500000 0.471446
Si Si2 0.704001 0.861356 0.801929
Si Si3 0.754840 0.360089 0.802635
Si Si4 0.360764 0.769652 0.539108
Si Si5 0.757134 0.500000 0.292418
O O1 0.252726 0.430681 0.301643
O O2 0.208088 0.500000 0.478471
O O3 0.529145 0.500000 0.881667
O O4 0.500000 0.824816 0.500000
O O5 0.780388 0.814207 0.798534
O O6 0.662206 0.933252 0.653965
O O7 0.787116 0.873726 0.097443
O O8 0.613104 0.302308 0.503935
O O9 0.961378 0.320849 0.134213
O O10 0.250000 0.750000 0.500000
#
# Coordination Sequence:
#
# PCOD9217741 Si02
#       5
#     4   8   8   8   4
#     4  11  27  48  75 110 147 198 244 314 368 443
#     4  10  23  44  72 111 149 194 242 312 366 436
#     4  11  25  47  74 108 151 191 248 298 377 434
#     4  11  24  44  72 107 148 193 243 301 363 439
#     4  11  24  46  76 106 152 188 258 301 373 442
#
# _framework density 25.691994999999999
#
# number of rings (size 3 to 8) (size 9 to 14) (size 15 to 20)
#    0.000    1.250    0.000    4.125    3.500    7.000 
#    0.000    7.500    0.000    0.000    0.000    0.000 
#    0.000    0.000    0.000    0.000    0.000    0.000 
#
# Total GULP energy -89533.853364 kJ/mol
# GULP energy per Si atom -5595.865835 kJ/mol
# Density = 2.563352 g / cm^3
# Si number density = 25.691995 Si / 1000 Ang^3
#
#
#
# Elastic Constant Matrix: (Units=GPa)
#
#
# Indices 1 2 3 4 5 6 
#
# 1 189.7573 92.3788 52.0626 0.0000 -69.0071 0.0000
# 2 92.3788 250.9007 68.3624 0.0000 -52.9759 0.0000
# 3 52.0626 68.3624 162.6714 0.0000 -37.3372 0.0000
# 4 0.0000 0.0000 0.0000 40.5686 0.0000 -14.2235
# 5 -69.0071 -52.9759 -37.3372 0.0000 62.1868 0.0000
# 6 0.0000 0.0000 0.0000 -14.2235 0.0000 53.9121
#
#
#
# Elastic Compliance Matrix: (Units=1/GPa)
#
#
# Indices 1 2 3 4 5 6 
#
# 1 0.009299 -0.001461 -0.000324 0.000000 0.008880 0.000000
# 2 -0.001461 0.005325 -0.001277 0.000000 0.002149 0.000000
# 3 -0.000324 -0.001277 0.007487 0.000000 0.003048 0.000000
# 4 0.000000 0.000000 0.000000 0.027162 0.000000 0.007166
# 5 0.008880 0.002149 0.003048 0.000000 0.029595 0.000000
# 6 0.000000 0.000000 0.000000 0.007166 0.000000 0.020439
#
#
# Mechanical properties :
#
#
# Convention : Reuss Voigt Hill
#
# Bulk Modulus (GPa) = 62.54726 114.32632 88.43679
# Shear Modulus (GPa) = 45.14201 57.36852 51.25527
#
# Velocity S-wave (km/s) = 4.19626 4.73052 4.47138
# Velocity P-wave (km/s) = 6.91925 8.62743 7.82012
#
# Compressibility (1/GPa) = 0.01598791
#
# Stress axis : x y z
#
# Youngs Moduli (GPa) = 107.53527 187.78983 133.55797
#
# Poissons Ratio (x) = 0.27428 0.04329
# Poissons Ratio (y) = 0.15706 0.17058
# Poissons Ratio (z) = 0.03486 0.23985
#
# Static dielectric constant tensor:
#      x y z
#    x 2.056190 0.000000 0.106880 
#    y 0.000000 1.999040 0.000000 
#    z 0.106880 0.000000 2.249890 
# 
# From -- ./inp_files/77861.got.cif
#   From: 2010.05.17/outbox.cif.g08.bks.cpg/sg12_39_cif.got.tgz:77861.got - 2010.06.03 13:09:07.
