data_PCOD9217970
_publ_section_title
;
Structure prediction by ZEFSAII (Michael W. Deem and Ramdas Pophale) SiO2 
 PCOD9217970
Probable space group: C 2/M
;
_chemical_formula_sum "Si O2"
_cell_formula_units_Z 56
_cell_length_a 9.032447
_cell_length_b 14.849305
_cell_length_c 24.485215
_cell_angle_alpha 90.000000
_cell_angle_beta 122.364610
_cell_angle_gamma 90.000000
_cell_volume 2773.937976
_symmetry_space_group_name_H-M "C 2/M"
_symmetry_group_IT_number 12
_symmetry_cell_setting 'monoclinic'
loop_
_space_group_symop_operation_xyz
x,y,z
-x,y,-z
-x,-y,-z
x,-y,z
1/2+x,1/2+y,z
1/2-x,1/2+y,-z
1/2-x,1/2-y,-z
1/2+x,1/2-y,z
loop_
_atom_site_type_symbol
_atom_site_label
_atom_site_fract_x
_atom_site_fract_y
_atom_site_fract_z
Si Si1 0.661700 0.103930 0.455335
Si Si2 0.871931 0.500000 0.055582
Si Si3 0.242049 0.767466 0.745393
Si Si4 0.765298 0.000000 0.095046
Si Si5 0.294216 0.689126 0.955306
Si Si6 0.378475 0.318396 0.164639
Si Si7 0.250283 0.396006 0.594193
Si Si8 0.871514 0.288886 0.658246
O O1 0.454707 0.110150 0.429249
O O2 0.760520 0.125157 0.531365
O O3 0.697427 0.164774 0.410097
O O4 0.698781 0.000000 0.449239
O O5 0.807981 0.594465 0.067785
O O6 0.080967 0.500000 0.090988
O O7 0.788339 0.500000 0.978524
O O8 0.425361 0.718777 0.793088
O O9 0.195552 0.826667 0.788734
O O10 0.269450 0.816244 0.692698
O O11 0.079576 0.698295 0.706549
O O12 0.869926 0.088524 0.131294
O O13 0.242032 0.748483 0.892687
O O14 0.500000 0.670354 0.000000
O O15 0.250000 0.750000 0.000000
O O16 0.304425 0.500000 0.613576
O O17 0.348766 0.318791 0.646391
#
# Coordination Sequence:
#
# PCOD9217970 Si02
#       8
#     8   4   8   4   8   8   8   8
#     4   9  18  34  59  91 121 149 196 249 310 361
#     4  11  23  38  64 108 120 154 198 247 326 372
#     4  10  24  40  59  81 118 163 212 239 288 353
#     4  11  22  40  68  92 128 154 202 247 305 386
#     4  12  23  40  69  94 128 160 196 260 313 364
#     4  11  23  44  62  89 121 162 202 248 300 356
#     4   9  18  34  61  91 117 155 196 247 306 371
#     4  11  19  40  60  86 118 160 202 254 294 355
#
# _framework density 20.187905000000001
#
# number of rings (size 3 to 8) (size 9 to 14) (size 15 to 20)
#    0.000    1.571    2.857    4.071    0.000    0.000 
#    7.714    0.000    3.143    1.714    0.000    0.000 
#    0.000    0.000    0.000    0.000    0.000    0.000 
#
# Total GULP energy -156393.778026 kJ/mol
# GULP energy per Si atom -5585.492072 kJ/mol
# Density = 2.014196 g / cm^3
# Si number density = 20.187905 Si / 1000 Ang^3
#
#
#
# Elastic Constant Matrix: (Units=GPa)
#
#
# Indices 1 2 3 4 5 6 
#
# 1 42.5909 -13.6728 1.2396 0.0000 -10.6747 0.0000
# 2 -13.6728 68.4753 18.3977 0.0000 -6.1303 0.0000
# 3 1.2396 18.3977 65.8918 0.0000 -14.4261 0.0000
# 4 0.0000 0.0000 0.0000 -37.1274 0.0000 14.9015
# 5 -10.6747 -6.1303 -14.4261 0.0000 35.0930 0.0000
# 6 0.0000 0.0000 0.0000 14.9015 0.0000 9.6021
#
#
#
# Elastic Compliance Matrix: (Units=1/GPa)
#
#
# Indices 1 2 3 4 5 6 
#
# 1 0.027966 0.006506 -0.000254 0.000000 0.009539 0.000000
# 2 0.006506 0.017337 -0.004249 0.000000 0.003261 0.000000
# 3 -0.000254 -0.004249 0.017789 0.000000 0.006493 0.000000
# 4 0.000000 0.000000 0.000000 -0.016597 0.000000 0.025756
# 5 0.009539 0.003261 0.006493 0.000000 0.034636 0.000000
# 6 0.000000 0.000000 0.000000 0.025756 0.000000 0.064172
#
#
# Mechanical properties :
#
#
# Convention : Reuss Voigt Hill
#
# Bulk Modulus (GPa) = 14.90360 20.98743 17.94551
# Shear Modulus (GPa) = 30.55049 12.91312 21.73181
#
# Velocity S-wave (km/s) = 3.89434 2.53187 3.28453
# Velocity P-wave (km/s) = 5.25544 4.35497 4.82625
#
# Compressibility (1/GPa) = 0.06709790
#
# Stress axis : x y z
#
# Youngs Moduli (GPa) = 35.75758 57.68160 56.21408
#
# Poissons Ratio (x) = -0.37530 0.01430
# Poissons Ratio (y) = -0.23266 0.23885
# Poissons Ratio (z) = 0.00910 0.24509
#
# Static dielectric constant tensor:
#      x y z
#    x 1.734140 0.000000 -0.013440 
#    y 0.000000 1.919250 0.000000 
#    z -0.013440 0.000000 1.713040 
# 
# From -- ./inp_files/332885.got.cif
#   From: 2010.05.17/outbox.cif.g08.bks.cpg/sg12_167_cif.got.tgz:332885.got - 2010.06.03 13:09:07.
