data_PCOD9217630
_publ_section_title
;
Structure prediction by ZEFSAII (Michael W. Deem and Ramdas Pophale) SiO2 
 PCOD9217630
Probable space group: C 2/M
;
_chemical_formula_sum "Si O2"
_cell_formula_units_Z 34
_cell_length_a 22.466667
_cell_length_b 13.498168
_cell_length_c 11.876770
_cell_angle_alpha 90.000000
_cell_angle_beta 150.694560
_cell_angle_gamma 90.000000
_cell_volume 1762.924392
_symmetry_space_group_name_H-M "C 2/M"
_symmetry_group_IT_number 12
_symmetry_cell_setting 'monoclinic'
loop_
_space_group_symop_operation_xyz
x,y,z
-x,y,-z
-x,-y,-z
x,-y,z
1/2+x,1/2+y,z
1/2-x,1/2+y,-z
1/2-x,1/2-y,-z
1/2+x,1/2-y,z
loop_
_atom_site_type_symbol
_atom_site_label
_atom_site_fract_x
_atom_site_fract_y
_atom_site_fract_z
Si Si1 0.010835 0.390580 0.648171
Si Si2 0.000000 0.000000 0.500000
Si Si3 0.362244 0.615469 0.729017
Si Si4 0.277965 0.342069 0.129927
Si Si5 0.672081 0.252661 0.544126
O O1 0.952674 0.500000 0.558504
O O2 0.000000 0.357205 0.500000
O O3 0.944666 0.314154 0.620381
O O4 0.150783 0.398266 0.910501
O O5 0.105165 0.912094 0.699237
O O6 0.326194 0.500000 0.667426
O O7 0.354030 0.664019 0.591998
O O8 0.275351 0.680183 0.665442
O O9 0.500000 0.621673 0.000000
O O10 0.290902 0.301353 0.277517
O O11 0.250000 0.250000 0.000000
#
# Coordination Sequence:
#
# PCOD9217630 Si02
#       5
#     8   2   8   8   8
#     4  11  22  40  63  95 135 180 228 276 356 438
#     4  12  28  44  70 110 148 204 240 290 362 432
#     4  10  23  44  66  96 132 181 240 299 358 423
#     4  12  24  45  66 103 148 183 233 300 356 436
#     4  11  23  42  68  97 135 183 235 293 363 428
#
# _framework density 19.286137
#
# number of rings (size 3 to 8) (size 9 to 14) (size 15 to 20)
#    0.000    0.941    3.529    3.529    1.647    0.000 
#    6.353    0.000    0.000    7.765    0.000    0.000 
#    0.000    0.000    0.000    0.000    0.000    0.000 
#
# Total GULP energy -94634.711214 kJ/mol
# GULP energy per Si atom -5566.747718 kJ/mol
# Density = 1.924224 g / cm^3
# Si number density = 19.286137 Si / 1000 Ang^3
#
#
#
# Elastic Constant Matrix: (Units=GPa)
#
#
# Indices 1 2 3 4 5 6 
#
# 1 73.5405 57.5182 50.8638 0.0000 -13.5323 0.0000
# 2 57.5182 152.1791 62.1517 0.0000 -13.2202 0.0000
# 3 50.8638 62.1517 133.2489 0.0000 6.0027 0.0000
# 4 0.0000 0.0000 0.0000 40.1987 0.0000 2.9603
# 5 -13.5323 -13.2202 6.0027 0.0000 35.2725 0.0000
# 6 0.0000 0.0000 0.0000 2.9603 0.0000 22.8044
#
#
#
# Elastic Compliance Matrix: (Units=1/GPa)
#
#
# Indices 1 2 3 4 5 6 
#
# 1 0.024458 -0.005605 -0.007104 0.000000 0.008492 0.000000
# 2 -0.005605 0.009916 -0.002576 0.000000 0.002004 0.000000
# 3 -0.007104 -0.002576 0.011674 0.000000 -0.005678 0.000000
# 4 0.000000 0.000000 0.000000 0.025117 0.000000 -0.003260
# 5 0.008492 0.002004 -0.005678 0.000000 0.033326 0.000000
# 6 0.000000 0.000000 0.000000 -0.003260 0.000000 0.044274
#
#
# Mechanical properties :
#
#
# Convention : Reuss Voigt Hill
#
# Bulk Modulus (GPa) = 64.61049 77.78178 71.19613
# Shear Modulus (GPa) = 27.10115 32.21745 29.65930
#
# Velocity S-wave (km/s) = 3.75269 4.09161 3.92581
# Velocity P-wave (km/s) = 7.23537 7.92083 7.58585
#
# Compressibility (1/GPa) = 0.01547736
#
# Stress axis : x y z
#
# Youngs Moduli (GPa) = 40.88636 100.84866 85.66192
#
# Poissons Ratio (x) = 0.56527 0.60856
# Poissons Ratio (y) = 0.22917 0.22065
# Poissons Ratio (z) = 0.29047 0.25977
#
# Static dielectric constant tensor:
#      x y z
#    x 1.644140 0.000000 0.025720 
#    y 0.000000 1.789190 0.000000 
#    z 0.025720 0.000000 1.635490 
# 
# From -- ./inp_files/127780.got.cif
#   From: 2010.05.17/outbox.cif.g08.bks.cpg/sg12_64_cif.got.tgz:127780.got - 2010.06.03 13:09:07.
