data_PCOD9217245
_publ_section_title
;
Structure prediction by ZEFSAII (Michael W. Deem and Ramdas Pophale) SiO2 
 PCOD9217245
Probable space group: C 2/M
;
_chemical_formula_sum "Si O2"
_cell_formula_units_Z 48
_cell_length_a 14.468132
_cell_length_b 18.588412
_cell_length_c 7.860013
_cell_angle_alpha 90.000000
_cell_angle_beta 77.625096
_cell_angle_gamma 90.000000
_cell_volume 2064.755622
_symmetry_space_group_name_H-M "C 2/M"
_symmetry_group_IT_number 12
_symmetry_cell_setting 'monoclinic'
loop_
_space_group_symop_operation_xyz
x,y,z
-x,y,-z
-x,-y,-z
x,-y,z
1/2+x,1/2+y,z
1/2-x,1/2+y,-z
1/2-x,1/2-y,-z
1/2+x,1/2-y,z
loop_
_atom_site_type_symbol
_atom_site_label
_atom_site_fract_x
_atom_site_fract_y
_atom_site_fract_z
Si Si1 0.453649 0.322634 0.828493
Si Si2 0.028458 0.668584 0.796079
Si Si3 0.280819 0.829814 0.442721
Si Si4 0.120095 0.417733 0.301193
Si Si5 0.611128 0.417644 0.620320
Si Si6 0.700414 0.581501 0.969657
O O1 0.473536 0.241586 0.758729
O O2 0.513806 0.375589 0.686114
O O3 0.500000 0.323389 0.000000
O O4 0.350408 0.356197 0.902882
O O5 0.985367 0.603252 0.706693
O O6 0.140949 0.674840 0.734709
O O7 0.000000 0.657747 0.000000
O O8 0.250000 0.750000 0.500000
O O9 0.339280 0.864544 0.574586
O O10 0.186198 0.877468 0.470416
O O11 0.129746 0.500000 0.353912
O O12 0.188466 0.409261 0.109110
O O13 0.598590 0.500000 0.575779
O O14 0.656649 0.416916 0.794463
O O15 0.681790 0.500000 0.043062
#
# Coordination Sequence:
#
# PCOD9217245 Si02
#       6
#     8   8   8   8   8   8
#     4   9  16  29  50  84 122 151 191 244 308 367
#     4  11  24  39  59  92 127 166 206 261 317 365
#     4  11  21  39  61  90 124 159 207 259 311 371
#     4  10  23  42  65  91 120 165 219 260 304 373
#     4   9  16  29  54  83 111 153 200 247 301 365
#     4   8  15  29  52  83 116 149 194 248 300 359
#
# _framework density 23.247304
#
# number of rings (size 3 to 8) (size 9 to 14) (size 15 to 20)
#    0.000    2.333    1.667    2.500    2.333    5.000 
#    0.000    0.000    0.000    0.000    0.000    1.167 
#    0.000    0.000    0.000    0.000    0.000    0.000 
#
# Total GULP energy -134144.594937 kJ/mol
# GULP energy per Si atom -5589.358122 kJ/mol
# Density = 2.319439 g / cm^3
# Si number density = 23.247304 Si / 1000 Ang^3
#
#
#
# Elastic Constant Matrix: (Units=GPa)
#
#
# Indices 1 2 3 4 5 6 
#
# 1 64.2432 24.5311 33.2640 0.0000 -24.5314 0.0000
# 2 24.5311 116.6106 40.1475 0.0000 0.7193 0.0000
# 3 33.2640 40.1475 97.4360 0.0000 -25.1168 0.0000
# 4 0.0000 0.0000 0.0000 25.9144 0.0000 -14.0286
# 5 -24.5314 0.7193 -25.1168 0.0000 33.5687 0.0000
# 6 0.0000 0.0000 0.0000 -14.0286 0.0000 21.0239
#
#
#
# Elastic Compliance Matrix: (Units=1/GPa)
#
#
# Indices 1 2 3 4 5 6 
#
# 1 0.024788 -0.004500 -0.002372 0.000000 0.016437 0.000000
# 2 -0.004500 0.011283 -0.004984 0.000000 -0.007259 0.000000
# 3 -0.002372 -0.004984 0.015744 0.000000 0.010154 0.000000
# 4 0.000000 0.000000 0.000000 0.060410 0.000000 0.040310
# 5 0.016437 -0.007259 0.010154 0.000000 0.049554 0.000000
# 6 0.000000 0.000000 0.000000 0.040310 0.000000 0.074463
#
#
# Mechanical properties :
#
#
# Convention : Reuss Voigt Hill
#
# Bulk Modulus (GPa) = 35.58141 52.68611 44.13376
# Shear Modulus (GPa) = 18.56527 28.12456 23.34491
#
# Velocity S-wave (km/s) = 2.82902 3.48199 3.17235
# Velocity P-wave (km/s) = 5.09999 6.23524 5.69597
#
# Compressibility (1/GPa) = 0.02810456
#
# Stress axis : x y z
#
# Youngs Moduli (GPa) = 40.34154 88.63013 63.51725
#
# Poissons Ratio (x) = 0.39880 0.15063
# Poissons Ratio (y) = 0.18152 0.31658
# Poissons Ratio (z) = 0.09567 0.44174
#
# Static dielectric constant tensor:
#      x y z
#    x 1.891680 0.000000 0.014850 
#    y 0.000000 1.841070 0.000000 
#    z 0.014850 0.000000 1.913170 
# 
# From -- ./inp_files/75069.got.cif
#   From: 2010.05.17/outbox.cif.g08.bks.cpg/sg12_38_cif.got.tgz:75069.got - 2010.06.03 13:09:07.
