data_PCOD9217727
_publ_section_title
;
Structure prediction by ZEFSAII (Michael W. Deem and Ramdas Pophale) SiO2 
 PCOD9217727
Probable space group: C 2/M
;
_chemical_formula_sum "Si O2"
_cell_formula_units_Z 48
_cell_length_a 15.574281
_cell_length_b 15.927472
_cell_length_c 8.654992
_cell_angle_alpha 90.000000
_cell_angle_beta 93.939701
_cell_angle_gamma 90.000000
_cell_volume 2141.874577
_symmetry_space_group_name_H-M "C 2/M"
_symmetry_group_IT_number 12
_symmetry_cell_setting 'monoclinic'
loop_
_space_group_symop_operation_xyz
x,y,z
-x,y,-z
-x,-y,-z
x,-y,z
1/2+x,1/2+y,z
1/2-x,1/2+y,-z
1/2-x,1/2-y,-z
1/2+x,1/2-y,z
loop_
_atom_site_type_symbol
_atom_site_label
_atom_site_fract_x
_atom_site_fract_y
_atom_site_fract_z
Si Si1 0.168617 0.000000 0.144869
Si Si2 0.156025 0.500000 0.631919
Si Si3 0.645167 0.166587 0.424828
Si Si4 0.403861 0.000000 0.053136
Si Si5 0.094264 0.666589 0.086359
Si Si6 0.600866 0.658169 0.964753
Si Si7 0.843911 0.170201 0.380755
Si Si8 0.904081 0.000000 0.546623
O O1 0.255250 0.000000 0.257996
O O2 0.096508 0.000000 0.269266
O O3 0.154336 0.081257 0.039631
O O4 0.147775 0.583153 0.528402
O O5 0.088603 0.500000 0.762722
O O6 0.585896 0.157000 0.268230
O O7 0.740585 0.179961 0.364077
O O8 0.622815 0.248258 0.522814
O O9 0.500000 0.000000 0.000000
O O10 0.361432 0.915263 0.982127
O O11 0.134264 0.755501 0.045784
O O12 0.000000 0.671030 0.000000
O O13 0.613933 0.664112 0.782513
O O14 0.500000 0.647087 0.000000
O O15 0.860849 0.084508 0.476442
O O16 0.000000 0.000000 0.500000
#
# Coordination Sequence:
#
# PCOD9217727 Si02
#       8
#     4   4   8   4   8   8   8   4
#     4  12  24  40  67 103 138 184 236 275 351 413
#     4  12  25  44  69 102 135 183 233 292 348 411
#     4  11  24  44  68 100 144 178 237 291 343 424
#     4  10  23  45  66  97 130 170 228 280 348 410
#     4  10  23  44  70  99 132 177 228 282 351 411
#     4  11  24  43  65 101 141 181 231 284 344 418
#     4  11  24  42  67 102 140 190 230 284 357 407
#     4  12  23  43  69 102 146 187 235 288 349 424
#
# _framework density 22.410276
#
# number of rings (size 3 to 8) (size 9 to 14) (size 15 to 20)
#    0.000    1.000    1.667    4.250    4.667    2.000 
#    0.000   13.333    0.000    0.000    0.000    0.000 
#    0.000    0.000    0.000    0.000    0.000    0.000 
#
# Total GULP energy -134315.212766 kJ/mol
# GULP energy per Si atom -5596.467199 kJ/mol
# Density = 2.235927 g / cm^3
# Si number density = 22.410276 Si / 1000 Ang^3
#
#
#
# Elastic Constant Matrix: (Units=GPa)
#
#
# Indices 1 2 3 4 5 6 
#
# 1 71.3186 14.0476 45.1125 0.0000 -5.0696 0.0000
# 2 14.0476 238.3548 90.7273 0.0000 20.0907 0.0000
# 3 45.1125 90.7273 203.9586 0.0000 -1.1201 0.0000
# 4 0.0000 0.0000 0.0000 66.4835 0.0000 23.5447
# 5 -5.0696 20.0907 -1.1201 0.0000 43.9201 0.0000
# 6 0.0000 0.0000 0.0000 23.5447 0.0000 43.9368
#
#
#
# Elastic Compliance Matrix: (Units=1/GPa)
#
#
# Indices 1 2 3 4 5 6 
#
# 1 0.016465 0.000329 -0.003779 0.000000 0.001654 0.000000
# 2 0.000329 0.005316 -0.002451 0.000000 -0.002456 0.000000
# 3 -0.003779 -0.002451 0.006834 0.000000 0.000859 0.000000
# 4 0.000000 0.000000 0.000000 0.018564 0.000000 -0.009948
# 5 0.001654 -0.002456 0.000859 0.000000 0.024105 0.000000
# 6 0.000000 0.000000 0.000000 -0.009948 0.000000 0.028091
#
#
# Mechanical properties :
#
#
# Convention : Reuss Voigt Hill
#
# Bulk Modulus (GPa) = 59.48057 90.37855 74.92956
# Shear Modulus (GPa) = 42.81508 55.11772 48.96640
#
# Velocity S-wave (km/s) = 4.37568 4.96470 4.67947
# Velocity P-wave (km/s) = 7.21998 8.56043 7.91862
#
# Compressibility (1/GPa) = 0.01681221
#
# Stress axis : x y z
#
# Youngs Moduli (GPa) = 60.73593 188.11087 146.33276
#
# Poissons Ratio (x) = -0.06182 0.55297
# Poissons Ratio (y) = -0.01996 0.35865
# Poissons Ratio (z) = 0.22951 0.46104
#
# Static dielectric constant tensor:
#      x y z
#    x 1.876780 0.000000 0.013590 
#    y 0.000000 1.813640 0.000000 
#    z 0.013590 0.000000 1.782650 
# 
# From -- ./inp_files/73684.got.cif
#   From: 2010.05.17/outbox.cif.g08.bks.cpg/sg12_37_cif.got.tgz:73684.got - 2010.06.03 13:09:07.
