data_PCOD9217699
_publ_section_title
;
Structure prediction by ZEFSAII (Michael W. Deem and Ramdas Pophale) SiO2 
 PCOD9217699
Probable space group: C 2/M
;
_chemical_formula_sum "Si O2"
_cell_formula_units_Z 32
_cell_length_a 15.062385
_cell_length_b 18.608359
_cell_length_c 5.274232
_cell_angle_alpha 90.000000
_cell_angle_beta 61.870541
_cell_angle_gamma 90.000000
_cell_volume 1303.685383
_symmetry_space_group_name_H-M "C 2/M"
_symmetry_group_IT_number 12
_symmetry_cell_setting 'monoclinic'
loop_
_space_group_symop_operation_xyz
x,y,z
-x,y,-z
-x,-y,-z
x,-y,z
1/2+x,1/2+y,z
1/2-x,1/2+y,-z
1/2-x,1/2-y,-z
1/2+x,1/2-y,z
loop_
_atom_site_type_symbol
_atom_site_label
_atom_site_fract_x
_atom_site_fract_y
_atom_site_fract_z
Si Si1 0.244690 0.655025 0.176341
Si Si2 0.111597 0.774468 0.394411
Si Si3 0.064976 0.416208 0.152384
Si Si4 0.394971 0.577667 0.294057
O O1 0.176589 0.710517 0.427222
O O2 0.168246 0.625830 0.066439
O O3 0.297861 0.589802 0.247212
O O4 0.333841 0.702876 0.939054
O O5 0.104441 0.850138 0.544990
O O6 0.000000 0.747383 0.500000
O O7 0.089154 0.500000 0.068578
O O8 0.000000 0.414315 0.500000
O O9 0.000000 0.389749 0.000000
O O10 0.387818 0.500000 0.437339
O O11 0.500000 0.577246 0.000000
#
# Coordination Sequence:
#
# PCOD9217699 Si02
#       4
#     8   8   8   8
#     4  11  24  44  69  99 135 191 236 292 363 427
#     4  11  24  45  66 100 138 184 238 298 352 428
#     4  10  23  44  69 104 144 187 242 300 362 434
#     4  11  24  43  70 103 142 183 233 294 362 438
#
# _framework density 24.545798000000001
#
# number of rings (size 3 to 8) (size 9 to 14) (size 15 to 20)
#    0.000    1.250    2.500    2.250    3.500    2.500 
#    9.000    0.000    0.000    0.000    0.000    0.000 
#    0.000    0.000    0.000    0.000    0.000    0.000 
#
# Total GULP energy -89519.858893 kJ/mol
# GULP energy per Si atom -5594.991181 kJ/mol
# Density = 2.448993 g / cm^3
# Si number density = 24.545798 Si / 1000 Ang^3
#
#
#
# Elastic Constant Matrix: (Units=GPa)
#
#
# Indices 1 2 3 4 5 6 
#
# 1 166.4911 48.3050 33.4962 0.0000 -11.9893 0.0000
# 2 48.3050 158.5122 20.2854 0.0000 -12.3171 0.0000
# 3 33.4962 20.2854 61.9645 0.0000 -14.5823 0.0000
# 4 0.0000 0.0000 0.0000 23.5691 0.0000 4.3817
# 5 -11.9893 -12.3171 -14.5823 0.0000 38.3848 0.0000
# 6 0.0000 0.0000 0.0000 4.3817 0.0000 50.6716
#
#
#
# Elastic Compliance Matrix: (Units=1/GPa)
#
#
# Indices 1 2 3 4 5 6 
#
# 1 0.007191 -0.001745 -0.003206 0.000000 0.000468 0.000000
# 2 -0.001745 0.007079 -0.001063 0.000000 0.001323 0.000000
# 3 -0.003206 -0.001063 0.019661 0.000000 0.006127 0.000000
# 4 0.000000 0.000000 0.000000 0.043122 0.000000 -0.003729
# 5 0.000468 0.001323 0.006127 0.000000 0.028950 0.000000
# 6 0.000000 0.000000 0.000000 -0.003729 0.000000 0.020057
#
#
# Mechanical properties :
#
#
# Convention : Reuss Voigt Hill
#
# Bulk Modulus (GPa) = 45.65376 65.68234 55.66805
# Shear Modulus (GPa) = 34.39028 41.51718 37.95373
#
# Velocity S-wave (km/s) = 3.74714 4.11715 3.93649
# Velocity P-wave (km/s) = 6.11238 7.02982 6.58709
#
# Compressibility (1/GPa) = 0.02190400
#
# Stress axis : x y z
#
# Youngs Moduli (GPa) = 139.05702 141.25882 50.86165
#
# Poissons Ratio (x) = 0.24647 0.16306
# Poissons Ratio (y) = 0.24263 0.05407
# Poissons Ratio (z) = 0.44582 0.15016
#
# Static dielectric constant tensor:
#      x y z
#    x 1.976520 0.000000 0.046010 
#    y 0.000000 1.931420 0.000000 
#    z 0.046010 0.000000 1.975420 
# 
# From -- ./inp_files/10651.got.cif
#   From: 2010.05.17/outbox.cif.g08.bks.cpg/sg12_6_cif.got.tgz:10651.got - 2010.06.03 13:09:07.
