data_PCOD9217105
_publ_section_title
;
Structure prediction by ZEFSAII (Michael W. Deem and Ramdas Pophale) SiO2 
 PCOD9217105
Probable space group: C 2/M
;
_chemical_formula_sum "Si O2"
_cell_formula_units_Z 56
_cell_length_a 16.455610
_cell_length_b 13.957396
_cell_length_c 11.240408
_cell_angle_alpha 90.000000
_cell_angle_beta 110.393494
_cell_angle_gamma 90.000000
_cell_volume 2419.853479
_symmetry_space_group_name_H-M "C 2/M"
_symmetry_group_IT_number 12
_symmetry_cell_setting 'monoclinic'
loop_
_space_group_symop_operation_xyz
x,y,z
-x,y,-z
-x,-y,-z
x,-y,z
1/2+x,1/2+y,z
1/2-x,1/2+y,-z
1/2-x,1/2-y,-z
1/2+x,1/2-y,z
loop_
_atom_site_type_symbol
_atom_site_label
_atom_site_fract_x
_atom_site_fract_y
_atom_site_fract_z
Si Si1 0.751597 0.104135 0.225407
Si Si2 0.573705 0.893663 0.438080
Si Si3 0.604262 0.609559 0.073540
Si Si4 0.079998 0.192085 0.305997
Si Si5 0.585988 0.110174 0.971533
Si Si6 0.255532 0.636337 0.500734
Si Si7 0.613104 0.293144 0.837748
O O1 0.736950 0.102904 0.358130
O O2 0.817088 0.188405 0.226872
O O3 0.790749 0.000000 0.212168
O O4 0.665166 0.114139 0.104414
O O5 0.500000 0.878104 0.500000
O O6 0.399319 0.815808 0.127313
O O7 0.673421 0.896942 0.536382
O O8 0.557238 0.000000 0.376517
O O9 0.631650 0.500000 0.110859
O O10 0.617645 0.679247 0.192198
O O11 0.500000 0.608618 0.000000
O O12 0.643498 0.651420 0.972716
O O13 0.075496 0.300971 0.353000
O O14 0.144397 0.122848 0.412402
O O15 0.979307 0.163819 0.249242
O O16 0.576163 0.000000 0.927732
O O17 0.500000 0.139361 0.000000
O O18 0.250000 0.750000 0.500000
#
# Coordination Sequence:
#
# PCOD9217105 Si02
#       7
#     8   8   8   8   8   8   8
#     4  11  25  45  69 101 141 183 229 285 345 413
#     4  10  23  44  69  96 131 175 227 284 340 406
#     4   9  19  38  62  92 132 179 222 266 326 394
#     4  10  23  41  69 102 140 179 225 279 342 413
#     4  10  23  43  69 101 136 182 237 287 345 402
#     4  10  24  42  68  96 137 179 225 275 346 414
#     4  11  23  40  70 103 142 182 228 284 341 406
#
# _framework density 23.141897
#
# number of rings (size 3 to 8) (size 9 to 14) (size 15 to 20)
#    0.000    1.857    0.000    2.571   12.000    2.286 
#    0.000    0.714    0.000    0.429    0.000    0.000 
#    0.000    0.000    0.000    0.000    0.000    0.000 
#
# Total GULP energy -156371.169199 kJ/mol
# GULP energy per Si atom -5584.684614 kJ/mol
# Density = 2.308922 g / cm^3
# Si number density = 23.141897 Si / 1000 Ang^3
#
#
#
# Elastic Constant Matrix: (Units=GPa)
#
#
# Indices 1 2 3 4 5 6 
#
# 1 128.0143 39.0215 48.2917 0.0000 3.2362 0.0000
# 2 39.0215 129.1623 18.5393 0.0000 -16.2324 0.0000
# 3 48.2917 18.5393 70.3195 0.0000 12.9060 0.0000
# 4 0.0000 0.0000 0.0000 12.8180 0.0000 4.4220
# 5 3.2362 -16.2324 12.9060 0.0000 34.5500 0.0000
# 6 0.0000 0.0000 0.0000 4.4220 0.0000 5.8392
#
#
#
# Elastic Compliance Matrix: (Units=1/GPa)
#
#
# Indices 1 2 3 4 5 6 
#
# 1 0.011209 -0.002281 -0.007200 0.000000 0.000568 0.000000
# 2 -0.002281 0.009370 -0.001879 0.000000 0.005318 0.000000
# 3 -0.007200 -0.001879 0.021149 0.000000 -0.008109 0.000000
# 4 0.000000 0.000000 0.000000 0.105605 0.000000 -0.079975
# 5 0.000568 0.005318 -0.008109 0.000000 0.034418 0.000000
# 6 0.000000 0.000000 0.000000 -0.079975 0.000000 0.231820
#
#
# Mechanical properties :
#
#
# Convention : Reuss Voigt Hill
#
# Bulk Modulus (GPa) = 52.61707 59.91124 56.26415
# Shear Modulus (GPa) = 11.29616 25.41769 18.35693
#
# Velocity S-wave (km/s) = 2.21175 3.31772 2.81950
# Velocity P-wave (km/s) = 5.41374 6.37348 5.91311
#
# Compressibility (1/GPa) = 0.01900524
#
# Stress axis : x y z
#
# Youngs Moduli (GPa) = 89.21406 106.72889 47.28259
#
# Poissons Ratio (x) = 0.24350 0.34046
# Poissons Ratio (y) = 0.20354 0.08886
# Poissons Ratio (z) = 0.64238 0.20059
#
# Static dielectric constant tensor:
#      x y z
#    x 1.868540 0.000000 0.067370 
#    y 0.000000 1.903530 0.000000 
#    z 0.067370 0.000000 1.902740 
# 
# From -- ./inp_files/76010.got.cif
#   From: 2010.05.17/outbox.cif.g08.bks.cpg/sg12_39_cif.got.tgz:76010.got - 2010.06.03 13:09:07.
