data_PCOD9217298
_publ_section_title
;
Structure prediction by ZEFSAII (Michael W. Deem and Ramdas Pophale) SiO2 
 PCOD9217298
Probable space group: C 2/M
;
_chemical_formula_sum "Si O2"
_cell_formula_units_Z 40
_cell_length_a 29.949091
_cell_length_b 8.842468
_cell_length_c 8.019041
_cell_angle_alpha 90.000000
_cell_angle_beta 106.196142
_cell_angle_gamma 90.000000
_cell_volume 2039.351770
_symmetry_space_group_name_H-M "C 2/M"
_symmetry_group_IT_number 12
_symmetry_cell_setting 'monoclinic'
loop_
_space_group_symop_operation_xyz
x,y,z
-x,y,-z
-x,-y,-z
x,-y,z
1/2+x,1/2+y,z
1/2-x,1/2+y,-z
1/2-x,1/2-y,-z
1/2+x,1/2-y,z
loop_
_atom_site_type_symbol
_atom_site_label
_atom_site_fract_x
_atom_site_fract_y
_atom_site_fract_z
Si Si1 0.602434 0.679021 0.789369
Si Si2 0.701548 0.180460 0.388916
Si Si3 0.055340 0.322610 0.061585
Si Si4 0.703592 0.679567 0.028937
Si Si5 0.390969 0.681058 0.573968
O O1 0.593271 0.500000 0.802806
O O2 0.589050 0.722250 0.587155
O O3 0.577055 0.767022 0.910249
O O4 0.658019 0.700314 0.867861
O O5 0.750000 0.250000 0.500000
O O6 0.693453 0.239974 0.193398
O O7 0.658939 0.241126 0.453664
O O8 0.703618 0.000000 0.394772
O O9 0.065848 0.500000 0.095383
O O10 0.077507 0.232844 0.239141
O O11 0.000000 0.301800 0.000000
O O12 0.710025 0.500000 0.061828
O O13 0.750000 0.750000 0.000000
O O14 0.384901 0.500000 0.571340
#
# Coordination Sequence:
#
# PCOD9217298 Si02
#       5
#     8   8   8   8   8
#     4  10  23  42  66  94 128 170 216 267 323 389
#     4  12  24  39  61  92 130 173 219 266 323 386
#     4  11  25  44  67  96 130 171 219 271 330 393
#     4  11  22  38  61  92 130 172 218 266 321 386
#     4  11  23  42  67  97 131 168 217 270 327 391
#
# _framework density 19.614076000000001
#
# number of rings (size 3 to 8) (size 9 to 14) (size 15 to 20)
#    0.000    1.000    2.000    4.800    0.000    6.400 
#    0.000    4.000    0.000    0.000    0.000    0.000 
#    0.000    0.000    0.000    0.000    0.000    0.000 
#
# Total GULP energy -111887.251929 kJ/mol
# GULP energy per Si atom -5594.362596 kJ/mol
# Density = 1.956943 g / cm^3
# Si number density = 19.614076 Si / 1000 Ang^3
#
#
#
# Elastic Constant Matrix: (Units=GPa)
#
#
# Indices 1 2 3 4 5 6 
#
# 1 69.2846 53.7236 31.2262 0.0000 -15.2294 0.0000
# 2 53.7236 123.1069 62.5693 0.0000 -5.9181 0.0000
# 3 31.2262 62.5693 131.3302 0.0000 -19.8940 0.0000
# 4 0.0000 0.0000 0.0000 25.2860 0.0000 -2.7946
# 5 -15.2294 -5.9181 -19.8940 0.0000 24.5796 0.0000
# 6 0.0000 0.0000 0.0000 -2.7946 0.0000 33.5683
#
#
#
# Elastic Compliance Matrix: (Units=1/GPa)
#
#
# Indices 1 2 3 4 5 6 
#
# 1 0.025650 -0.011227 0.001423 0.000000 0.014341 0.000000
# 2 -0.011227 0.015701 -0.006031 0.000000 -0.008058 0.000000
# 3 0.001423 -0.006031 0.011469 0.000000 0.008712 0.000000
# 4 0.000000 0.000000 0.000000 0.039915 0.000000 0.003323
# 5 0.014341 -0.008058 0.008712 0.000000 0.054681 0.000000
# 6 0.000000 0.000000 0.000000 0.003323 0.000000 0.030067
#
#
# Mechanical properties :
#
#
# Convention : Reuss Voigt Hill
#
# Bulk Modulus (GPa) = 47.28576 68.75109 58.01843
# Shear Modulus (GPa) = 23.12638 28.43363 25.78000
#
# Velocity S-wave (km/s) = 3.43748 3.81156 3.62935
# Velocity P-wave (km/s) = 6.31787 7.38232 6.87074
#
# Compressibility (1/GPa) = 0.02114802
#
# Stress axis : x y z
#
# Youngs Moduli (GPa) = 38.98647 63.69191 87.18895
#
# Poissons Ratio (x) = 0.71508 -0.12403
# Poissons Ratio (y) = 0.43771 0.52586
# Poissons Ratio (z) = -0.05546 0.38414
#
# Static dielectric constant tensor:
#      x y z
#    x 1.646210 0.000000 -0.064620 
#    y 0.000000 1.655210 0.000000 
#    z -0.064620 0.000000 1.547950 
# 
# From -- ./inp_files/101194.got.cif
#   From: 2010.05.17/outbox.cif.g08.bks.cpg/sg12_51_cif.got.tgz:101194.got - 2010.06.03 13:09:07.
