data_PCOD9217622
_publ_section_title
;
Structure prediction by ZEFSAII (Michael W. Deem and Ramdas Pophale) SiO2 
 PCOD9217622
Probable space group: C 2/M
;
_chemical_formula_sum "Si O2"
_cell_formula_units_Z 64
_cell_length_a 9.632229
_cell_length_b 18.098638
_cell_length_c 31.106514
_cell_angle_alpha 90.000000
_cell_angle_beta 35.458927
_cell_angle_gamma 90.000000
_cell_volume 3145.873654
_symmetry_space_group_name_H-M "C 2/M"
_symmetry_group_IT_number 12
_symmetry_cell_setting 'monoclinic'
loop_
_space_group_symop_operation_xyz
x,y,z
-x,y,-z
-x,-y,-z
x,-y,z
1/2+x,1/2+y,z
1/2-x,1/2+y,-z
1/2-x,1/2-y,-z
1/2+x,1/2-y,z
loop_
_atom_site_type_symbol
_atom_site_label
_atom_site_fract_x
_atom_site_fract_y
_atom_site_fract_z
Si Si1 0.748535 0.306624 0.039731
Si Si2 0.523137 0.919417 0.275656
Si Si3 0.514072 0.743598 0.588656
Si Si4 0.288148 0.345251 0.714573
Si Si5 0.751052 0.154945 0.587885
Si Si6 0.430585 0.307320 0.199896
Si Si7 0.766253 0.089233 0.812598
Si Si8 0.713441 0.587612 0.976136
O O1 0.565230 0.284548 0.122576
O O2 0.750000 0.250000 0.000000
O O3 0.687023 0.382320 0.030979
O O4 0.000000 0.312638 0.000000
O O5 0.388228 0.900577 0.265766
O O6 0.329723 0.912752 0.362806
O O7 0.708002 0.855704 0.240364
O O8 0.634844 0.000000 0.246168
O O9 0.750000 0.750000 0.500000
O O10 0.497343 0.677605 0.628106
O O11 0.539377 0.818559 0.609656
O O12 0.304906 0.722147 0.608219
O O13 0.151870 0.267161 0.755799
O O14 0.347458 0.380754 0.745394
O O15 0.000000 0.142786 0.500000
O O16 0.595201 0.361019 0.187324
O O17 0.480803 0.103276 0.891042
O O18 0.805378 0.000000 0.806897
O O19 0.689899 0.500000 0.982693
O O20 0.500000 0.618677 0.000000
#
# Coordination Sequence:
#
# PCOD9217622 Si02
#       8
#     8   8   8   8   8   8   8   8
#     4  12  26  43  65  93 124 161 212 271 322 374
#     4  11  24  39  59  93 127 162 205 254 312 372
#     4   9  18  34  59  89 119 156 206 256 301 361
#     4  11  23  40  64  91 123 164 209 256 310 377
#     4   9  18  35  58  88 122 158 201 251 304 363
#     4  12  25  41  66  91 126 163 210 262 317 373
#     4  11  24  43  64  92 127 166 207 260 318 375
#     4  10  23  44  66  89 121 166 212 254 314 387
#
# _framework density 20.344111000000002
#
# number of rings (size 3 to 8) (size 9 to 14) (size 15 to 20)
#    0.000    1.375    2.500    2.625    5.250    1.500 
#    0.000    0.000    0.000    0.000    0.000    0.875 
#    0.000    0.000    0.000    0.000    0.000    0.000 
#
# Total GULP energy -178560.522306 kJ/mol
# GULP energy per Si atom -5580.016322 kJ/mol
# Density = 2.029781 g / cm^3
# Si number density = 20.344111 Si / 1000 Ang^3
#
#
#
# Elastic Constant Matrix: (Units=GPa)
#
#
# Indices 1 2 3 4 5 6 
#
# 1 105.1992 23.3434 20.4509 0.0184 11.9228 -0.0004
# 2 23.3434 81.7382 15.5881 0.0162 4.7282 -0.0024
# 3 20.4509 15.5881 70.7394 0.0811 17.9804 -0.0286
# 4 0.0184 0.0162 0.0811 17.3199 -0.0240 2.6723
# 5 11.9228 4.7282 17.9804 -0.0240 31.1725 -0.0028
# 6 -0.0004 -0.0024 -0.0286 2.6723 -0.0028 22.8291
#
#
#
# Elastic Compliance Matrix: (Units=1/GPa)
#
#
# Indices 1 2 3 4 5 6 
#
# 1 0.010736 -0.002557 -0.001869 -0.000004 -0.002640 -0.000002
# 2 -0.002557 0.013383 -0.002276 0.000001 0.000261 -0.000002
# 3 -0.001869 -0.002276 0.017470 -0.000095 -0.009017 0.000032
# 4 -0.000004 0.000001 -0.000095 0.058800 0.000101 -0.006883
# 5 -0.002640 0.000261 -0.009017 0.000101 0.038251 -0.000018
# 6 -0.000002 -0.000002 0.000032 -0.006883 -0.000018 0.044609
#
#
# Mechanical properties :
#
#
# Convention : Reuss Voigt Hill
#
# Bulk Modulus (GPa) = 35.48000 41.82682 38.65341
# Shear Modulus (GPa) = 24.26608 27.48394 25.87501
#
# Velocity S-wave (km/s) = 3.45741 3.67952 3.57019
# Velocity P-wave (km/s) = 5.78066 6.21740 6.00301
#
# Compressibility (1/GPa) = 0.02818490
#
# Stress axis : x y z
#
# Youngs Moduli (GPa) = 93.14696 74.71956 57.23961
#
# Poissons Ratio (x) = 0.19104 0.10699
# Poissons Ratio (y) = 0.23816 0.13029
# Poissons Ratio (z) = 0.17411 0.17008
#
# Static dielectric constant tensor:
#      x y z
#    x 1.724720 0.000010 0.004410 
#    y 0.000010 1.727950 -0.000050 
#    z 0.004410 -0.000050 1.802040 
# 
# From -- ./inp_files/372960.got.cif
#   From: 2010.05.17/outbox.cif.g08.bks.cpg/sg12_187_cif.got.tgz:372960.got - 2010.06.03 13:09:07.
