data_PCOD9217660
_publ_section_title
;
Structure prediction by ZEFSAII (Michael W. Deem and Ramdas Pophale) SiO2 
 PCOD9217660
Probable space group: C 2/M
;
_chemical_formula_sum "Si O2"
_cell_formula_units_Z 40
_cell_length_a 17.780652
_cell_length_b 9.717678
_cell_length_c 19.361277
_cell_angle_alpha 90.000000
_cell_angle_beta 140.328953
_cell_angle_gamma 90.000000
_cell_volume 2135.613884
_symmetry_space_group_name_H-M "C 2/M"
_symmetry_group_IT_number 12
_symmetry_cell_setting 'monoclinic'
loop_
_space_group_symop_operation_xyz
x,y,z
-x,y,-z
-x,-y,-z
x,-y,z
1/2+x,1/2+y,z
1/2-x,1/2+y,-z
1/2-x,1/2-y,-z
1/2+x,1/2-y,z
loop_
_atom_site_type_symbol
_atom_site_label
_atom_site_fract_x
_atom_site_fract_y
_atom_site_fract_z
Si Si1 0.702296 0.000000 0.928615
Si Si2 0.671569 0.500000 0.833099
Si Si3 0.020033 0.500000 0.398916
Si Si4 0.947131 0.000000 0.038845
Si Si5 0.526356 0.223369 0.748042
Si Si6 0.694795 0.000000 0.646539
Si Si7 0.891377 0.227838 0.784418
Si Si8 0.381577 0.000000 0.870469
O O1 0.621077 0.132045 0.857781
O O2 0.760744 0.000000 0.045240
O O3 0.807302 0.000000 0.946713
O O4 0.589320 0.365258 0.772514
O O5 0.769210 0.500000 0.841946
O O6 0.011921 0.632935 0.344197
O O7 0.906120 0.500000 0.367553
O O8 0.132497 0.500000 0.528050
O O9 0.998639 0.134895 0.112340
O O10 0.000000 0.000000 0.000000
O O11 0.417644 0.244630 0.722940
O O12 0.777633 0.867364 0.713391
O O13 0.882351 0.365325 0.822722
O O14 0.500000 0.000000 0.000000
#
# Coordination Sequence:
#
# PCOD9217660 Si02
#       8
#     4   4   4   4   8   4   8   4
#     4  11  23  37  59  86 126 171 204 238 283 366
#     4  12  22  37  57  88 123 162 194 247 297 353
#     4  10  23  44  68  91 109 159 204 258 312 363
#     4  11  24  35  61  87 124 171 214 237 285 356
#     4  11  23  39  62  87 123 157 205 247 303 359
#     4  10  23  45  69  85 117 154 213 253 300 372
#     4  11  23  42  58  91 123 160 202 252 296 360
#     4  12  25  34  57  90 132 158 194 243 303 350
#
# _framework density 18.729977000000002
#
# number of rings (size 3 to 8) (size 9 to 14) (size 15 to 20)
#    0.000    1.000    2.000    5.400   11.200    0.800 
#    0.000    1.000    0.000    3.600    0.000    0.000 
#    0.000    0.000    0.000    0.000    0.000    0.000 
#
# Total GULP energy -111869.224620 kJ/mol
# GULP energy per Si atom -5593.461231 kJ/mol
# Density = 1.868735 g / cm^3
# Si number density = 18.729977 Si / 1000 Ang^3
#
#
#
# Elastic Constant Matrix: (Units=GPa)
#
#
# Indices 1 2 3 4 5 6 
#
# 1 107.5779 44.4305 5.4944 0.0000 -5.8514 0.0000
# 2 44.4305 169.5424 40.6823 0.0000 -5.0052 0.0000
# 3 5.4944 40.6823 53.5052 0.0000 -6.7849 0.0000
# 4 0.0000 0.0000 0.0000 12.1045 0.0000 -13.7016
# 5 -5.8514 -5.0052 -6.7849 0.0000 32.0339 0.0000
# 6 0.0000 0.0000 0.0000 -13.7016 0.0000 27.3865
#
#
#
# Elastic Compliance Matrix: (Units=1/GPa)
#
#
# Indices 1 2 3 4 5 6 
#
# 1 0.010587 -0.003076 0.001476 0.000000 0.001766 0.000000
# 2 -0.003076 0.008109 -0.005919 0.000000 -0.000549 0.000000
# 3 0.001476 -0.005919 0.023589 0.000000 0.004341 0.000000
# 4 0.000000 0.000000 0.000000 0.190493 0.000000 0.095305
# 5 0.001766 -0.000549 0.004341 0.000000 0.032373 0.000000
# 6 0.000000 0.000000 0.000000 0.095305 0.000000 0.084196
#
#
# Mechanical properties :
#
#
# Convention : Reuss Voigt Hill
#
# Bulk Modulus (GPa) = 36.70321 56.87110 46.78715
# Shear Modulus (GPa) = 13.38805 30.30620 21.84712
#
# Velocity S-wave (km/s) = 2.67646 4.02687 3.41900
# Velocity P-wave (km/s) = 5.40276 7.21461 6.37339
#
# Compressibility (1/GPa) = 0.02724558
#
# Stress axis : x y z
#
# Youngs Moduli (GPa) = 94.45694 123.32732 42.39246
#
# Poissons Ratio (x) = 0.37941 -0.06257
# Poissons Ratio (y) = 0.29059 0.25092
# Poissons Ratio (z) = -0.13941 0.72996
#
# Static dielectric constant tensor:
#      x y z
#    x 1.650890 0.000000 -0.018240 
#    y 0.000000 1.627170 0.000000 
#    z -0.018240 0.000000 1.616450 
# 
# From -- ./inp_files/314569.got.cif
#   From: 2010.05.17/outbox.cif.g08.bks.cpg/sg12_158_cif.got.tgz:314569.got - 2010.06.03 13:09:07.
