data_PCOD9217288
_publ_section_title
;
Structure prediction by ZEFSAII (Michael W. Deem and Ramdas Pophale) SiO2 
 PCOD9217288
Probable space group: C 2/M
;
_chemical_formula_sum "Si O2"
_cell_formula_units_Z 44
_cell_length_a 20.078373
_cell_length_b 18.368348
_cell_length_c 5.553344
_cell_angle_alpha 90.000000
_cell_angle_beta 92.366282
_cell_angle_gamma 90.000000
_cell_volume 2046.363178
_symmetry_space_group_name_H-M "C 2/M"
_symmetry_group_IT_number 12
_symmetry_cell_setting 'monoclinic'
loop_
_space_group_symop_operation_xyz
x,y,z
-x,y,-z
-x,-y,-z
x,-y,z
1/2+x,1/2+y,z
1/2-x,1/2+y,-z
1/2-x,1/2-y,-z
1/2+x,1/2-y,z
loop_
_atom_site_type_symbol
_atom_site_label
_atom_site_fract_x
_atom_site_fract_y
_atom_site_fract_z
Si Si1 0.093705 0.190827 0.636319
Si Si2 0.000000 0.143882 0.000000
Si Si3 0.579404 0.149008 0.494354
Si Si4 0.621799 0.582716 0.265259
Si Si5 0.858726 0.587064 0.990536
Si Si6 0.721632 0.330758 0.984044
O O1 0.030001 0.196417 0.800474
O O2 0.097402 0.265098 0.487515
O O3 0.086010 0.116951 0.488350
O O4 0.162804 0.177837 0.783253
O O5 0.936669 0.093533 0.936948
O O6 0.500000 0.139460 0.500000
O O7 0.603695 0.112623 0.248160
O O8 0.612423 0.119385 0.750947
O O9 0.642956 0.500000 0.291434
O O10 0.683143 0.635289 0.207617
O O11 0.860900 0.500000 0.007448
O O12 0.783234 0.616026 0.944670
O O13 0.750000 0.250000 0.000000
#
# Coordination Sequence:
#
# PCOD9217288 Si02
#       6
#     8   4   8   8   8   8
#     4  11  25  42  72 102 138 186 244 294 357 430
#     4  10  23  42  66 100 141 182 238 288 355 420
#     4  12  27  47  78 106 145 189 248 302 365 435
#     4  11  24  41  66 101 143 185 233 292 359 429
#     4  12  28  48  74 109 148 191 241 304 368 432
#     4  11  24  46  70  98 138 186 241 293 355 430
#
# _framework density 21.501556999999998
#
# number of rings (size 3 to 8) (size 9 to 14) (size 15 to 20)
#    0.000    0.727    1.818    4.636    7.636    8.727 
#    0.000    0.000    0.000    0.000    0.000    0.000 
#    0.000    0.000    0.000    0.000    0.000    0.000 
#
# Total GULP energy -122835.709551 kJ/mol
# GULP energy per Si atom -5583.441343 kJ/mol
# Density = 2.145262 g / cm^3
# Si number density = 21.501557 Si / 1000 Ang^3
#
#
#
# Elastic Constant Matrix: (Units=GPa)
#
#
# Indices 1 2 3 4 5 6 
#
# 1 136.5365 25.7697 40.3344 0.0000 -2.8371 0.0000
# 2 25.7697 144.0459 41.9958 0.0000 3.5104 0.0000
# 3 40.3344 41.9958 95.3431 0.0000 -5.8339 0.0000
# 4 0.0000 0.0000 0.0000 12.9472 0.0000 27.8167
# 5 -2.8371 3.5104 -5.8339 0.0000 25.0813 0.0000
# 6 0.0000 0.0000 0.0000 27.8167 0.0000 -40.2570
#
#
#
# Elastic Compliance Matrix: (Units=1/GPa)
#
#
# Indices 1 2 3 4 5 6 
#
# 1 0.008408 -0.000549 -0.003299 0.000000 0.000260 0.000000
# 2 -0.000549 0.008097 -0.003457 0.000000 -0.001999 0.000000
# 3 -0.003299 -0.003457 0.013607 0.000000 0.003276 0.000000
# 4 0.000000 0.000000 0.000000 0.031087 0.000000 0.021480
# 5 0.000260 -0.001999 0.003276 0.000000 0.040942 0.000000
# 6 0.000000 0.000000 0.000000 0.021480 0.000000 -0.009998
#
#
# Mechanical properties :
#
#
# Convention : Reuss Voigt Hill
#
# Bulk Modulus (GPa) = 64.50514 65.79169 65.14842
# Shear Modulus (GPa) = 44.67526 17.40932 31.04229
#
# Velocity S-wave (km/s) = 4.56320 2.84857 3.80376
# Velocity P-wave (km/s) = 7.60454 6.44082 7.04674
#
# Compressibility (1/GPa) = 0.01550264
#
# Stress axis : x y z
#
# Youngs Moduli (GPa) = 118.93961 123.50432 73.49068
#
# Poissons Ratio (x) = 0.06775 0.24246
# Poissons Ratio (y) = 0.06525 0.25404
# Poissons Ratio (z) = 0.39241 0.42692
#
# Static dielectric constant tensor:
#      x y z
#    x 1.666080 0.000000 -0.092680 
#    y 0.000000 1.749250 0.000000 
#    z -0.092680 0.000000 1.807050 
# 
# From -- ./inp_files/20483.got.cif
#   From: 2010.05.17/outbox.cif.g08.bks.cpg/sg12_11_cif.got.tgz:20483.got - 2010.06.03 13:09:07.
