data_PCOD9217438
_publ_section_title
;
Structure prediction by ZEFSAII (Michael W. Deem and Ramdas Pophale) SiO2 
 PCOD9217438
Probable space group: C 2/M
;
_chemical_formula_sum "Si O2"
_cell_formula_units_Z 58
_cell_length_a 11.050433
_cell_length_b 20.594139
_cell_length_c 17.206195
_cell_angle_alpha 90.000000
_cell_angle_beta 130.147506
_cell_angle_gamma 90.000000
_cell_volume 2993.099188
_symmetry_space_group_name_H-M "C 2/M"
_symmetry_group_IT_number 12
_symmetry_cell_setting 'monoclinic'
loop_
_space_group_symop_operation_xyz
x,y,z
-x,y,-z
-x,-y,-z
x,-y,z
1/2+x,1/2+y,z
1/2-x,1/2+y,-z
1/2-x,1/2-y,-z
1/2+x,1/2-y,z
loop_
_atom_site_type_symbol
_atom_site_label
_atom_site_fract_x
_atom_site_fract_y
_atom_site_fract_z
Si Si1 0.951650 0.925391 0.571269
Si Si2 0.318902 0.317106 0.266594
Si Si3 0.966477 0.301395 0.136342
Si Si4 0.222357 0.379971 0.068591
Si Si5 0.076776 0.423382 0.446184
Si Si6 0.500000 0.000000 0.000000
Si Si7 0.006244 0.845809 0.095611
Si Si8 0.140622 0.671467 0.739087
O O1 0.766194 0.912785 0.514255
O O2 0.000000 0.921981 0.500000
O O3 0.060171 0.871760 0.656846
O O4 0.984943 0.000000 0.609988
O O5 0.146219 0.318994 0.234009
O O6 0.275179 0.332177 0.159222
O O7 0.381008 0.244062 0.303762
O O8 0.961951 0.227844 0.103263
O O9 0.868227 0.316562 0.172340
O O10 0.899538 0.344696 0.039545
O O11 0.137206 0.443398 0.064271
O O12 0.379045 0.392551 0.082548
O O13 0.050147 0.500000 0.419243
O O14 0.000000 0.410304 0.500000
O O15 0.985346 0.377936 0.347620
O O16 0.182552 0.854817 0.201497
O O17 0.000000 0.850703 0.000000
#
# Coordination Sequence:
#
# PCOD9217438 Si02
#       8
#     8   8   8   8   8   2   8   8
#     4  10  23  43  65  90 122 170 221 276 337 397
#     4  11  23  36  65  97 129 164 218 274 325 389
#     4  11  20  39  64  95 138 169 209 266 326 394
#     4  12  23  42  59  95 136 172 220 258 317 390
#     4  10  24  46  65  87 124 173 222 275 345 410
#     4  12  28  44  62  92 134 194 216 274 318 380
#     4  11  22  38  66  97 130 178 213 264 325 390
#     4  11  23  39  65  99 126 172 215 270 339 387
#
# _framework density 19.377908999999999
#
# number of rings (size 3 to 8) (size 9 to 14) (size 15 to 20)
#    0.000    1.103    4.138    2.897    2.897    1.103 
#    2.483    0.345    0.000    0.000    0.000    0.000 
#    0.000    0.000    0.000    0.000    0.000    0.000 
#
# Total GULP energy -161605.010374 kJ/mol
# GULP energy per Si atom -5572.586565 kJ/mol
# Density = 1.933380 g / cm^3
# Si number density = 19.377909 Si / 1000 Ang^3
#
#
#
# Elastic Constant Matrix: (Units=GPa)
#
#
# Indices 1 2 3 4 5 6 
#
# 1 92.9571 21.5154 12.5589 0.0000 13.8866 0.0000
# 2 21.5154 80.1827 56.2634 0.0000 21.5986 0.0000
# 3 12.5589 56.2634 70.9847 0.0000 15.4792 0.0000
# 4 0.0000 0.0000 0.0000 -84.1682 0.0000 36.3760
# 5 13.8866 21.5986 15.4792 0.0000 26.9022 0.0000
# 6 0.0000 0.0000 0.0000 36.3760 0.0000 13.6844
#
#
#
# Elastic Compliance Matrix: (Units=1/GPa)
#
#
# Indices 1 2 3 4 5 6 
#
# 1 0.011926 -0.002670 0.001008 0.000000 -0.004592 0.000000
# 2 -0.002670 0.031958 -0.022370 0.000000 -0.011408 0.000000
# 3 0.001008 -0.022370 0.031831 0.000000 -0.000875 0.000000
# 4 0.000000 0.000000 0.000000 -0.005529 0.000000 0.014697
# 5 -0.004592 -0.011408 -0.000875 0.000000 0.049204 0.000000
# 6 0.000000 0.000000 0.000000 0.014697 0.000000 0.034007
#
#
# Mechanical properties :
#
#
# Convention : Reuss Voigt Hill
#
# Bulk Modulus (GPa) = 36.16729 47.19999 41.68364
# Shear Modulus (GPa) = 23.73284 1.53612 12.63448
#
# Velocity S-wave (km/s) = 3.50342 0.89131 2.55621
# Velocity P-wave (km/s) = 5.92199 5.04676 5.50181
#
# Compressibility (1/GPa) = 0.02764929
#
# Stress axis : x y z
#
# Youngs Moduli (GPa) = 83.85389 31.29123 31.41592
#
# Poissons Ratio (x) = 0.08356 -0.03167
# Poissons Ratio (y) = 0.22392 0.70278
# Poissons Ratio (z) = -0.08452 0.69999
#
# Static dielectric constant tensor:
#      x y z
#    x 1.762110 0.000000 0.010770 
#    y 0.000000 1.621700 0.000000 
#    z 0.010770 0.000000 1.652120 
# 
# From -- ./inp_files/265265.got.cif
#   From: 2010.05.17/outbox.cif.g08.bks.cpg/sg12_133_cif.got.tgz:265265.got - 2010.06.03 13:09:07.
