data_PCOD9217432
_publ_section_title
;
Structure prediction by ZEFSAII (Michael W. Deem and Ramdas Pophale) SiO2 
 PCOD9217432
Probable space group: C 2/M
;
_chemical_formula_sum "Si O2"
_cell_formula_units_Z 48
_cell_length_a 21.839062
_cell_length_b 16.411670
_cell_length_c 16.477381
_cell_angle_alpha 90.000000
_cell_angle_beta 153.954428
_cell_angle_gamma 90.000000
_cell_volume 2593.130804
_symmetry_space_group_name_H-M "C 2/M"
_symmetry_group_IT_number 12
_symmetry_cell_setting 'monoclinic'
loop_
_space_group_symop_operation_xyz
x,y,z
-x,y,-z
-x,-y,-z
x,-y,z
1/2+x,1/2+y,z
1/2-x,1/2+y,-z
1/2-x,1/2-y,-z
1/2+x,1/2-y,z
loop_
_atom_site_type_symbol
_atom_site_label
_atom_site_fract_x
_atom_site_fract_y
_atom_site_fract_z
Si Si1 0.393022 0.402113 0.488593
Si Si2 0.863346 0.902161 0.789162
Si Si3 0.129802 0.185574 0.372365
Si Si4 0.115895 0.300827 0.868050
Si Si5 0.549444 0.098393 0.466468
Si Si6 0.795344 0.902226 0.199162
O O1 0.385862 0.500000 0.484940
O O2 0.345056 0.363041 0.514683
O O3 0.307021 0.375659 0.306779
O O4 0.555189 0.381045 0.663746
O O5 0.874997 0.872546 0.710873
O O6 0.712481 0.878829 0.646951
O O7 0.866451 0.000000 0.794951
O O8 0.000000 0.871818 0.000000
O O9 0.250000 0.250000 0.500000
O O10 0.990356 0.237120 0.219559
O O11 0.042065 0.350097 0.706646
O O12 0.250000 0.250000 0.000000
O O13 0.171241 0.363394 0.001378
O O14 0.500000 0.114193 0.500000
O O15 0.534863 0.000000 0.434975
O O16 0.785562 0.000000 0.186339
#
# Coordination Sequence:
#
# PCOD9217432 Si02
#       6
#     8   8   8   8   8   8
#     4   9  19  38  63  87 116 156 201 246 290 350
#     4  10  23  43  65  88 119 163 209 251 302 365
#     4  12  24  40  58  88 128 162 194 244 307 360
#     4  12  24  38  60  92 126 161 195 246 306 360
#     4  10  23  43  65  89 120 160 208 257 300 355
#     4   9  19  38  63  89 115 152 203 249 291 347
#
# _framework density 18.510442000000001
#
# number of rings (size 3 to 8) (size 9 to 14) (size 15 to 20)
#    0.000    1.667    3.333    2.000    2.333    2.667 
#    0.000    0.000    0.000    2.000    0.000    0.000 
#    0.000    0.000    0.000    0.000    0.000    0.000 
#
# Total GULP energy -134002.352826 kJ/mol
# GULP energy per Si atom -5583.431368 kJ/mol
# Density = 1.846831 g / cm^3
# Si number density = 18.510442 Si / 1000 Ang^3
#
#
#
# Elastic Constant Matrix: (Units=GPa)
#
#
# Indices 1 2 3 4 5 6 
#
# 1 162.7330 40.9305 79.9661 0.0000 -7.9865 0.0000
# 2 40.9305 29.0627 43.6386 0.0000 -2.4374 0.0000
# 3 79.9661 43.6386 141.3355 0.0000 -4.8851 0.0000
# 4 0.0000 0.0000 0.0000 -45.5232 0.0000 132.0295
# 5 -7.9865 -2.4374 -4.8851 0.0000 37.1273 0.0000
# 6 0.0000 0.0000 0.0000 132.0295 0.0000 -187.5759
#
#
#
# Elastic Compliance Matrix: (Units=1/GPa)
#
#
# Indices 1 2 3 4 5 6 
#
# 1 0.009992 -0.010341 -0.002421 0.000000 0.001152 0.000000
# 2 -0.010341 0.074947 -0.017275 0.000000 0.000423 0.000000
# 3 -0.002421 -0.017275 0.013784 0.000000 0.000159 0.000000
# 4 0.000000 0.000000 0.000000 0.021093 0.000000 0.014847
# 5 0.001152 0.000423 0.000159 0.000000 0.027231 0.000000
# 6 0.000000 0.000000 0.000000 0.014847 0.000000 0.005119
#
#
# Mechanical properties :
#
#
# Convention : Reuss Voigt Hill
#
# Bulk Modulus (GPa) = 25.87353 73.57794 49.72573
# Shear Modulus (GPa) = 22.21014 -27.95464 -2.87225
#
# Velocity S-wave (km/s) = 3.46767 -3.89036 -1.24702
# Velocity P-wave (km/s) = 5.48098 4.43350 4.98483
#
# Compressibility (1/GPa) = 0.03864955
#
# Stress axis : x y z
#
# Youngs Moduli (GPa) = 100.07962 13.34285 72.54641
#
# Poissons Ratio (x) = 0.13798 0.17561
# Poissons Ratio (y) = 1.03492 1.25324
# Poissons Ratio (z) = 0.24226 0.23050
#
# Static dielectric constant tensor:
#      x y z
#    x 1.581730 0.000000 -0.006960 
#    y 0.000000 1.636620 0.000000 
#    z -0.006960 0.000000 1.630920 
# 
# From -- ./inp_files/226940.got.cif
#   From: 2010.05.17/outbox.cif.g08.bks.cpg/sg12_114_cif.got.tgz:226940.got - 2010.06.03 13:09:07.
