data_PCOD9217761
_publ_section_title
;
Structure prediction by ZEFSAII (Michael W. Deem and Ramdas Pophale) SiO2 
 PCOD9217761
Probable space group: C 2/M
;
_chemical_formula_sum "Si O2"
_cell_formula_units_Z 36
_cell_length_a 12.622771
_cell_length_b 25.042434
_cell_length_c 5.120156
_cell_angle_alpha 90.000000
_cell_angle_beta 65.324186
_cell_angle_gamma 90.000000
_cell_volume 1470.711706
_symmetry_space_group_name_H-M "C 2/M"
_symmetry_group_IT_number 12
_symmetry_cell_setting 'monoclinic'
loop_
_space_group_symop_operation_xyz
x,y,z
-x,y,-z
-x,-y,-z
x,-y,z
1/2+x,1/2+y,z
1/2-x,1/2+y,-z
1/2-x,1/2-y,-z
1/2+x,1/2-y,z
loop_
_atom_site_type_symbol
_atom_site_label
_atom_site_fract_x
_atom_site_fract_y
_atom_site_fract_z
Si Si1 0.000000 0.904112 0.000000
Si Si2 0.250832 0.000000 0.538731
Si Si3 0.870370 0.700240 0.251467
Si Si4 0.378637 0.318209 0.466121
Si Si5 0.615899 0.500000 0.178257
Si Si6 0.075913 0.592861 0.659430
O O1 0.095193 0.866342 0.761271
O O2 0.057171 0.944444 0.148883
O O3 0.319633 0.053037 0.399755
O O4 0.227057 0.000000 0.870911
O O5 0.141254 0.000000 0.457432
O O6 0.746090 0.681403 0.250283
O O7 0.864130 0.761940 0.333465
O O8 0.880938 0.652838 0.454603
O O9 0.000000 0.697858 0.000000
O O10 0.500000 0.315139 0.500000
O O11 0.000000 0.571948 0.500000
O O12 0.000000 0.593247 0.000000
#
# Coordination Sequence:
#
# PCOD9217761 Si02
#       6
#     4   4   8   8   4   8
#     4  11  26  46  68 104 142 193 244 310 364 449
#     4  12  24  46  70 105 142 199 243 314 363 449
#     4  10  23  45  67 110 143 193 241 305 366 442
#     4  11  24  44  73 101 147 189 248 299 370 441
#     4  11  28  43  72 103 145 188 256 301 380 427
#     4  11  23  41  69 102 148 192 248 300 369 442
#
# _framework density 24.477947
#
# number of rings (size 3 to 8) (size 9 to 14) (size 15 to 20)
#    0.000    1.111    1.111    4.000    6.222    1.778 
#    4.000    0.000    0.000    0.000    0.000    0.000 
#    0.000    0.000    0.000    0.000    0.000    0.000 
#
# Total GULP energy -100399.292000 kJ/mol
# GULP energy per Si atom -5577.738444 kJ/mol
# Density = 2.442223 g / cm^3
# Si number density = 24.477947 Si / 1000 Ang^3
#
#
#
# Elastic Constant Matrix: (Units=GPa)
#
#
# Indices 1 2 3 4 5 6 
#
# 1 148.9823 34.1308 21.7326 0.0000 -19.7337 0.0000
# 2 34.1308 183.6349 24.1142 0.0000 -18.6283 0.0000
# 3 21.7326 24.1142 62.9810 0.0000 -25.5275 0.0000
# 4 0.0000 0.0000 0.0000 18.2024 0.0000 -6.0418
# 5 -19.7337 -18.6283 -25.5275 0.0000 50.4730 0.0000
# 6 0.0000 0.0000 0.0000 -6.0418 0.0000 3.1711
#
#
#
# Elastic Compliance Matrix: (Units=1/GPa)
#
#
# Indices 1 2 3 4 5 6 
#
# 1 0.007389 -0.001003 -0.001440 0.000000 0.001791 0.000000
# 2 -0.001003 0.005935 -0.001506 0.000000 0.001037 0.000000
# 3 -0.001440 -0.001506 0.020752 0.000000 0.009377 0.000000
# 4 0.000000 0.000000 0.000000 0.149452 0.000000 0.284748
# 5 0.001791 0.001037 0.009377 0.000000 0.025638 0.000000
# 6 0.000000 0.000000 0.000000 0.284748 0.000000 0.857877
#
#
# Mechanical properties :
#
#
# Convention : Reuss Voigt Hill
#
# Bulk Modulus (GPa) = 38.19982 61.72819 49.96400
# Shear Modulus (GPa) = 4.61397 35.41065 20.01231
#
# Velocity S-wave (km/s) = 1.37442 3.80759 2.86241
# Velocity P-wave (km/s) = 4.26127 6.67854 5.60185
#
# Compressibility (1/GPa) = 0.02617813
#
# Stress axis : x y z
#
# Youngs Moduli (GPa) = 135.33365 168.49525 48.18813
#
# Poissons Ratio (x) = 0.16894 0.06940
# Poissons Ratio (y) = 0.13569 0.07258
# Poissons Ratio (z) = 0.19490 0.25379
#
# Static dielectric constant tensor:
#      x y z
#    x 2.037210 0.000000 -0.063390 
#    y 0.000000 1.919580 0.000000 
#    z -0.063390 0.000000 1.977980 
# 
# From -- ./inp_files/7529.got.cif
#   From: 2010.05.17/outbox.cif.g08.bks.cpg/sg12_4_cif.got.tgz:7529.got - 2010.06.03 13:09:07.
