data_PCOD9217949
_publ_section_title
;
Structure prediction by ZEFSAII (Michael W. Deem and Ramdas Pophale) SiO2 
 PCOD9217949
Probable space group: C 2/M
;
_chemical_formula_sum "Si O2"
_cell_formula_units_Z 40
_cell_length_a 14.960308
_cell_length_b 21.040528
_cell_length_c 9.056397
_cell_angle_alpha 90.000000
_cell_angle_beta 137.453181
_cell_angle_gamma 90.000000
_cell_volume 1927.626709
_symmetry_space_group_name_H-M "C 2/M"
_symmetry_group_IT_number 12
_symmetry_cell_setting 'monoclinic'
loop_
_space_group_symop_operation_xyz
x,y,z
-x,y,-z
-x,-y,-z
x,-y,z
1/2+x,1/2+y,z
1/2-x,1/2+y,-z
1/2-x,1/2-y,-z
1/2+x,1/2-y,z
loop_
_atom_site_type_symbol
_atom_site_label
_atom_site_fract_x
_atom_site_fract_y
_atom_site_fract_z
Si Si1 0.169703 0.276974 0.542617
Si Si2 0.877112 0.868611 0.959900
Si Si3 0.684641 0.308198 0.831641
Si Si4 0.535155 0.860165 0.880607
Si Si5 0.016188 0.500000 0.278350
Si Si6 0.772985 0.500000 0.210980
O O1 0.250000 0.250000 0.500000
O O2 0.264885 0.325464 0.746009
O O3 0.138670 0.220922 0.620719
O O4 0.042688 0.316358 0.331726
O O5 0.816246 0.937922 0.906515
O O6 0.909004 0.840540 0.160876
O O7 0.000000 0.868940 0.000000
O O8 0.750000 0.250000 0.000000
O O9 0.808349 0.355009 0.952067
O O10 0.488441 0.933042 0.811730
O O11 0.500000 0.834563 0.000000
O O12 0.146109 0.500000 0.537653
O O13 0.886809 0.500000 0.225605
#
# Coordination Sequence:
#
# PCOD9217949 Si02
#       6
#     8   8   8   8   4   4
#     4  11  24  41  65  97 135 167 218 274 329 405
#     4  11  24  43  63  92 131 180 222 266 329 390
#     4  10  24  39  62  98 130 170 218 267 331 395
#     4  12  23  43  69  97 133 176 218 278 340 394
#     4  11  23  40  66 100 131 169 225 284 331 387
#     4  11  21  40  68  94 125 171 228 278 326 387
#
# _framework density 20.750906000000001
#
# number of rings (size 3 to 8) (size 9 to 14) (size 15 to 20)
#    0.000    1.000    6.000    0.600    5.600    3.200 
#    0.000    0.000    0.000    0.000    0.000    5.600 
#    0.000    0.000    0.000    0.000    0.000    0.000 
#
# Total GULP energy -111842.091238 kJ/mol
# GULP energy per Si atom -5592.104562 kJ/mol
# Density = 2.070368 g / cm^3
# Si number density = 20.750906 Si / 1000 Ang^3
#
#
#
# Elastic Constant Matrix: (Units=GPa)
#
#
# Indices 1 2 3 4 5 6 
#
# 1 125.6328 34.5479 46.8214 0.0000 -17.4788 0.0000
# 2 34.5479 123.9180 61.3855 0.0000 -11.3964 0.0000
# 3 46.8214 61.3855 118.6808 0.0000 -18.8047 0.0000
# 4 0.0000 0.0000 0.0000 32.6224 0.0000 -4.9007
# 5 -17.4788 -11.3964 -18.8047 0.0000 36.2734 0.0000
# 6 0.0000 0.0000 0.0000 -4.9007 0.0000 30.1424
#
#
#
# Elastic Compliance Matrix: (Units=1/GPa)
#
#
# Indices 1 2 3 4 5 6 
#
# 1 0.009702 -0.001035 -0.002836 0.000000 0.002880 0.000000
# 2 -0.001035 0.010970 -0.005228 0.000000 0.000237 0.000000
# 3 -0.002836 -0.005228 0.012826 0.000000 0.003640 0.000000
# 4 0.000000 0.000000 0.000000 0.031421 0.000000 0.005109
# 5 0.002880 0.000237 0.003640 0.000000 0.030918 0.000000
# 6 0.000000 0.000000 0.000000 0.005109 0.000000 0.034006
#
#
# Mechanical properties :
#
#
# Convention : Reuss Voigt Hill
#
# Bulk Modulus (GPa) = 65.36212 72.63791 69.00002
# Shear Modulus (GPa) = 32.64965 34.83942 33.74453
#
# Velocity S-wave (km/s) = 3.97092 4.10193 4.03696
# Velocity P-wave (km/s) = 7.25198 7.58387 7.41978
#
# Compressibility (1/GPa) = 0.01529938
#
# Stress axis : x y z
#
# Youngs Moduli (GPa) = 103.07280 91.15650 77.96898
#
# Poissons Ratio (x) = 0.09437 0.22111
# Poissons Ratio (y) = 0.10670 0.40763
# Poissons Ratio (z) = 0.29230 0.47657
#
# Static dielectric constant tensor:
#      x y z
#    x 1.761360 0.000000 -0.005240 
#    y 0.000000 1.717480 0.000000 
#    z -0.005240 0.000000 1.755900 
# 
# From -- ./inp_files/63820.got.cif
#   From: 2010.05.17/outbox.cif.g08.bks.cpg/sg12_32_cif.got.tgz:63820.got - 2010.06.03 13:09:07.
