data_PCOD9217169
_publ_section_title
;
Structure prediction by ZEFSAII (Michael W. Deem and Ramdas Pophale) SiO2 
 PCOD9217169
Probable space group: C 2/M
;
_chemical_formula_sum "Si O2"
_cell_formula_units_Z 34
_cell_length_a 24.297129
_cell_length_b 7.305754
_cell_length_c 20.578441
_cell_angle_alpha 90.000000
_cell_angle_beta 24.980138
_cell_angle_gamma 90.000000
_cell_volume 1542.615635
_symmetry_space_group_name_H-M "C 2/M"
_symmetry_group_IT_number 12
_symmetry_cell_setting 'monoclinic'
loop_
_space_group_symop_operation_xyz
x,y,z
-x,y,-z
-x,-y,-z
x,-y,z
1/2+x,1/2+y,z
1/2-x,1/2+y,-z
1/2-x,1/2-y,-z
1/2+x,1/2-y,z
loop_
_atom_site_type_symbol
_atom_site_label
_atom_site_fract_x
_atom_site_fract_y
_atom_site_fract_z
Si Si1 0.500000 0.500000 0.000000
Si Si2 0.355509 0.779770 0.080971
Si Si3 0.412726 0.219324 0.262253
Si Si4 0.622259 0.283929 0.551387
Si Si5 0.437376 0.722392 0.635019
O O1 0.611432 0.662172 0.891418
O O2 0.215003 0.731793 0.202221
O O3 0.360473 0.000000 0.086754
O O4 0.469791 0.718772 0.909025
O O5 0.430951 0.263059 0.318547
O O6 0.270055 0.290265 0.394388
O O7 0.410882 0.000000 0.259114
O O8 0.635361 0.500000 0.524510
O O9 0.523533 0.211316 0.603158
O O10 0.500000 0.780741 0.500000
O O11 0.441188 0.500000 0.632105
#
# Coordination Sequence:
#
# PCOD9217169 Si02
#       5
#     2   8   8   8   8
#     4  12  26  40  62  98 120 160 206 256 296 374
#     4  10  23  42  63  88 124 163 203 250 305 362
#     4   9  19  36  58  87 117 158 203 245 305 355
#     4   9  18  34  59  86 117 157 203 252 296 361
#     4   9  19  37  60  87 119 162 204 246 311 366
#
# _framework density 22.040488
#
# number of rings (size 3 to 8) (size 9 to 14) (size 15 to 20)
#    0.000    2.588    0.000    0.353    4.941    0.941 
#    2.118    0.588    0.000    0.000    0.000    0.000 
#    0.000    0.000    0.000    0.000    0.000    0.000 
#
# Total GULP energy -94697.414258 kJ/mol
# GULP energy per Si atom -5570.436133 kJ/mol
# Density = 2.199032 g / cm^3
# Si number density = 22.040488 Si / 1000 Ang^3
#
#
#
# Elastic Constant Matrix: (Units=GPa)
#
#
# Indices 1 2 3 4 5 6 
#
# 1 103.3944 23.2823 69.7232 0.0201 -6.6812 -0.0135
# 2 23.2823 112.1975 9.2709 -0.0218 -15.4465 0.0178
# 3 69.7232 9.2709 130.5432 -0.0579 -10.1215 0.0479
# 4 0.0201 -0.0218 -0.0579 46.6184 0.0091 -36.6873
# 5 -6.6812 -15.4465 -10.1215 0.0091 19.8607 -0.0083
# 6 -0.0135 0.0178 0.0479 -36.6873 -0.0083 51.7738
#
#
#
# Elastic Compliance Matrix: (Units=1/GPa)
#
#
# Indices 1 2 3 4 5 6 
#
# 1 0.015856 -0.002746 -0.008356 -0.000019 -0.001060 -0.000001
# 2 -0.002746 0.010459 0.001336 0.000006 0.007891 0.000000
# 3 -0.008356 0.001336 0.012380 0.000018 0.004537 0.000000
# 4 -0.000019 0.000006 0.000018 0.048493 0.000000 0.034362
# 5 -0.001060 0.007891 0.004537 0.000000 0.058443 0.000002
# 6 -0.000001 0.000000 0.000000 0.034362 0.000002 0.043664
#
#
# Mechanical properties :
#
#
# Convention : Reuss Voigt Hill
#
# Bulk Modulus (GPa) = 52.18476 61.18756 56.68616
# Shear Modulus (GPa) = 23.23246 39.90784 31.57015
#
# Velocity S-wave (km/s) = 3.25018 4.25980 3.78877
# Velocity P-wave (km/s) = 6.14924 7.21223 6.70184
#
# Compressibility (1/GPa) = 0.01916268
#
# Stress axis : x y z
#
# Youngs Moduli (GPa) = 63.06609 95.61443 80.77405
#
# Poissons Ratio (x) = 0.26254 0.67495
# Poissons Ratio (y) = 0.17317 -0.10788
# Poissons Ratio (z) = 0.52699 -0.12771
#
# Static dielectric constant tensor:
#      x y z
#    x 1.835600 0.000000 0.022140 
#    y 0.000000 1.845340 0.000000 
#    z 0.022140 0.000000 1.800320 
# 
# From -- ./inp_files/92405.got.cif
#   From: 2010.05.17/outbox.cif.g08.bks.cpg/sg12_47_cif.got.tgz:92405.got - 2010.06.03 13:09:07.
