data_PCOD9217248
_publ_section_title
;
Structure prediction by ZEFSAII (Michael W. Deem and Ramdas Pophale) SiO2 
 PCOD9217248
Probable space group: C 2/M
;
_chemical_formula_sum "Si O2"
_cell_formula_units_Z 46
_cell_length_a 27.037093
_cell_length_b 14.562584
_cell_length_c 9.228027
_cell_angle_alpha 90.000000
_cell_angle_beta 36.908636
_cell_angle_gamma 90.000000
_cell_volume 2181.975041
_symmetry_space_group_name_H-M "C 2/M"
_symmetry_group_IT_number 12
_symmetry_cell_setting 'monoclinic'
loop_
_space_group_symop_operation_xyz
x,y,z
-x,y,-z
-x,-y,-z
x,-y,z
1/2+x,1/2+y,z
1/2-x,1/2+y,-z
1/2-x,1/2-y,-z
1/2+x,1/2-y,z
loop_
_atom_site_type_symbol
_atom_site_label
_atom_site_fract_x
_atom_site_fract_y
_atom_site_fract_z
Si Si1 0.694120 0.710265 0.449987
Si Si2 0.000000 0.679722 0.500000
Si Si3 0.000000 0.000000 0.500000
Si Si4 0.732407 0.895097 0.233029
Si Si5 0.459384 0.658973 0.378729
Si Si6 0.320358 0.106455 0.969787
Si Si7 0.632697 0.606019 0.861102
O O1 0.687000 0.818415 0.434624
O O2 0.621811 0.663809 0.525952
O O3 0.680156 0.674626 0.644294
O O4 0.779146 0.673241 0.183181
O O5 0.023636 0.745692 0.578630
O O6 0.082046 0.622959 0.271721
O O7 0.955517 0.079803 0.506372
O O8 0.720311 0.873228 0.092592
O O9 0.825452 0.892055 0.077431
O O10 0.703167 0.000000 0.323272
O O11 0.538604 0.634295 0.096152
O O12 0.303536 0.000000 0.044240
O O13 0.639679 0.500000 0.794772
#
# Coordination Sequence:
#
# PCOD9217248 Si02
#       7
#     8   4   2   8   8   8   8
#     4  12  24  41  67  98 131 169 216 264 327 392
#     4  11  23  43  63  94 124 168 222 268 320 368
#     4  10  24  36  60 100 134 178 206 260 314 390
#     4  10  23  42  65  91 126 169 218 267 320 380
#     4  11  24  38  66  94 137 171 211 262 323 384
#     4  11  24  41  68  95 127 167 216 273 321 382
#     4  11  24  41  64  96 135 169 206 263 329 393
#
# _framework density 21.081817000000001
#
# number of rings (size 3 to 8) (size 9 to 14) (size 15 to 20)
#    0.000    1.043    2.609    3.391    7.304    0.696 
#    0.000    0.000    0.000    3.130    0.000    0.000 
#    0.000    0.000    0.000    0.000    0.000    0.000 
#
# Total GULP energy -128375.089507 kJ/mol
# GULP energy per Si atom -5581.525631 kJ/mol
# Density = 2.103383 g / cm^3
# Si number density = 21.081817 Si / 1000 Ang^3
#
#
#
# Elastic Constant Matrix: (Units=GPa)
#
#
# Indices 1 2 3 4 5 6 
#
# 1 75.0772 0.0682 23.0643 0.0000 -2.2350 0.0000
# 2 0.0682 100.5552 33.8191 0.0000 10.6853 0.0000
# 3 23.0643 33.8191 98.0634 0.0000 -3.5813 0.0000
# 4 0.0000 0.0000 0.0000 -8.7814 0.0000 -26.6891
# 5 -2.2350 10.6853 -3.5813 0.0000 31.0913 0.0000
# 6 0.0000 0.0000 0.0000 -26.6891 0.0000 -42.1177
#
#
#
# Elastic Compliance Matrix: (Units=1/GPa)
#
#
# Indices 1 2 3 4 5 6 
#
# 1 0.014503 0.001264 -0.003841 0.000000 0.000166 0.000000
# 2 0.001264 0.011972 -0.004593 0.000000 -0.004553 0.000000
# 3 -0.003841 -0.004593 0.012786 0.000000 0.002775 0.000000
# 4 0.000000 0.000000 0.000000 0.122988 0.000000 -0.077935
# 5 0.000166 -0.004553 0.002775 0.000000 0.034060 0.000000
# 6 0.000000 0.000000 0.000000 -0.077935 0.000000 0.025643
#
#
# Mechanical properties :
#
#
# Convention : Reuss Voigt Hill
#
# Bulk Modulus (GPa) = 40.12320 43.06659 41.59490
# Shear Modulus (GPa) = 20.44167 10.48803 15.46485
#
# Velocity S-wave (km/s) = 3.11727 2.23287 2.71138
# Velocity P-wave (km/s) = 5.65950 5.20771 5.43830
#
# Compressibility (1/GPa) = 0.02492324
#
# Stress axis : x y z
#
# Youngs Moduli (GPa) = 68.94911 83.52621 78.20986
#
# Poissons Ratio (x) = -0.10562 0.30042
# Poissons Ratio (y) = -0.08718 0.35918
# Poissons Ratio (z) = 0.26485 0.38360
#
# Static dielectric constant tensor:
#      x y z
#    x 1.780270 0.000000 0.011610 
#    y 0.000000 1.752750 0.000000 
#    z 0.011610 0.000000 1.754130 
# 
# From -- ./inp_files/104996.got.cif
#   From: 2010.05.17/outbox.cif.g08.bks.cpg/sg12_53_cif.got.tgz:104996.got - 2010.06.03 13:09:07.
