data_PCOD9217746
_publ_section_title
;
Structure prediction by ZEFSAII (Michael W. Deem and Ramdas Pophale) SiO2 
 PCOD9217746
Probable space group: C 2/M
;
_chemical_formula_sum "Si O2"
_cell_formula_units_Z 42
_cell_length_a 27.016706
_cell_length_b 10.686359
_cell_length_c 26.999197
_cell_angle_alpha 90.000000
_cell_angle_beta 164.840034
_cell_angle_gamma 90.000000
_cell_volume 2038.493505
_symmetry_space_group_name_H-M "C 2/M"
_symmetry_group_IT_number 12
_symmetry_cell_setting 'monoclinic'
loop_
_space_group_symop_operation_xyz
x,y,z
-x,y,-z
-x,-y,-z
x,-y,z
1/2+x,1/2+y,z
1/2-x,1/2+y,-z
1/2-x,1/2-y,-z
1/2+x,1/2-y,z
loop_
_atom_site_type_symbol
_atom_site_label
_atom_site_fract_x
_atom_site_fract_y
_atom_site_fract_z
Si Si1 0.757791 0.144649 0.435134
Si Si2 0.000000 0.783537 0.000000
Si Si3 0.682231 0.278021 0.619226
Si Si4 0.546404 0.000000 0.711017
Si Si5 0.368997 0.500000 0.939600
Si Si6 0.457731 0.761347 0.222723
Si Si7 0.308490 0.000000 0.389811
Si Si8 0.000000 0.000000 0.500000
O O1 0.771687 0.201604 0.393891
O O2 0.602207 0.217379 0.317123
O O3 0.952579 0.156665 0.654677
O O4 0.703204 0.000000 0.378554
O O5 0.133116 0.708537 0.166528
O O6 0.865503 0.876592 0.901924
O O7 0.620348 0.132082 0.563763
O O8 0.541402 0.387535 0.499124
O O9 0.546444 0.118810 0.745876
O O10 0.362513 0.000000 0.499203
O O11 0.717715 0.000000 0.836915
O O12 0.583084 0.500000 0.166537
O O13 0.250000 0.750000 0.000000
#
# Coordination Sequence:
#
# PCOD9217746 Si02
#       8
#     8   4   8   4   4   8   4   2
#     4  11  24  48  68  96 146 182 221 289 356 416
#     4   9  22  43  66  96 134 180 216 280 348 400
#     4  11  24  46  68 101 137 183 229 285 344 406
#     4  12  23  40  70 106 126 172 232 281 339 403
#     4   9  22  40  67 105 135 162 229 289 340 393
#     4  11  27  43  70 104 133 181 233 282 350 422
#     4  10  23  44  73  98 136 177 221 290 345 397
#     4  12  28  42  66 102 142 182 242 274 344 426
#
# _framework density 20.603451
#
# number of rings (size 3 to 8) (size 9 to 14) (size 15 to 20)
#    0.000    1.333    3.810    0.571    9.333    0.762 
#    0.000    0.000    0.000    0.000    0.000    0.000 
#    0.000    0.000    0.000    0.000    0.000    0.000 
#
# Total GULP energy -117001.941787 kJ/mol
# GULP energy per Si atom -5571.521037 kJ/mol
# Density = 2.055656 g / cm^3
# Si number density = 20.603451 Si / 1000 Ang^3
#
#
#
# Elastic Constant Matrix: (Units=GPa)
#
#
# Indices 1 2 3 4 5 6 
#
# 1 165.9759 32.0574 37.5382 0.0210 -6.8344 -0.0027
# 2 32.0574 110.1194 4.1261 0.0098 -9.3040 0.0373
# 3 37.5382 4.1261 107.0937 0.0094 -34.5421 0.0443
# 4 0.0210 0.0098 0.0094 -8.2321 -0.0043 18.5632
# 5 -6.8344 -9.3040 -34.5421 -0.0043 38.8908 0.0211
# 6 -0.0027 0.0373 0.0443 18.5632 0.0211 -10.6089
#
#
#
# Elastic Compliance Matrix: (Units=1/GPa)
#
#
# Indices 1 2 3 4 5 6 
#
# 1 0.007031 -0.002098 -0.003009 0.000015 -0.001939 0.000001
# 2 -0.002098 0.009914 0.001401 -0.000039 0.003247 -0.000020
# 3 -0.003009 0.001401 0.014402 -0.000071 0.012598 -0.000033
# 4 0.000015 -0.000039 -0.000071 0.041239 -0.000104 0.072158
# 5 -0.001939 0.003247 0.012598 -0.000104 0.037338 -0.000044
# 6 0.000001 -0.000020 -0.000033 0.072158 -0.000044 0.031999
#
#
# Mechanical properties :
#
#
# Convention : Reuss Voigt Hill
#
# Bulk Modulus (GPa) = 41.78175 58.95918 50.37047
# Shear Modulus (GPa) = 31.78391 24.64112 28.21251
#
# Velocity S-wave (km/s) = 3.93192 3.46203 3.70443
# Velocity P-wave (km/s) = 6.39815 6.68275 6.54200
#
# Compressibility (1/GPa) = 0.02393389
#
# Stress axis : x y z
#
# Youngs Moduli (GPa) = 142.23030 100.87107 69.43680
#
# Poissons Ratio (x) = 0.21161 0.20893
# Poissons Ratio (y) = 0.29838 -0.09726
# Poissons Ratio (z) = 0.42797 -0.14129
#
# Static dielectric constant tensor:
#      x y z
#    x 1.717710 -0.000030 -0.045500 
#    y -0.000030 1.755360 0.000040 
#    z -0.045500 0.000040 1.907980 
# 
# From -- ./inp_files/349462.got.cif
#   From: 2010.05.17/outbox.cif.g08.bks.cpg/sg12_175_cif.got.tgz:349462.got - 2010.06.03 13:09:07.
