data_PCOD9217602
_publ_section_title
;
Structure prediction by ZEFSAII (Michael W. Deem and Ramdas Pophale) SiO2 
 PCOD9217602
Probable space group: C 2/M
;
_chemical_formula_sum "Si O2"
_cell_formula_units_Z 64
_cell_length_a 18.330429
_cell_length_b 13.315128
_cell_length_c 17.455528
_cell_angle_alpha 90.000000
_cell_angle_beta 38.502850
_cell_angle_gamma 90.000000
_cell_volume 2652.330802
_symmetry_space_group_name_H-M "C 2/M"
_symmetry_group_IT_number 12
_symmetry_cell_setting 'monoclinic'
loop_
_space_group_symop_operation_xyz
x,y,z
-x,y,-z
-x,-y,-z
x,-y,z
1/2+x,1/2+y,z
1/2-x,1/2+y,-z
1/2-x,1/2-y,-z
1/2+x,1/2-y,z
loop_
_atom_site_type_symbol
_atom_site_label
_atom_site_fract_x
_atom_site_fract_y
_atom_site_fract_z
Si Si1 0.632068 0.112209 0.826486
Si Si2 0.122444 0.169192 0.422959
Si Si3 0.724946 0.617987 0.564199
Si Si4 0.234687 0.686895 0.896636
Si Si5 0.073808 0.377472 0.713469
Si Si6 0.140733 0.389765 0.384492
Si Si7 0.505928 0.620628 0.668269
Si Si8 0.181528 0.384808 0.109642
O O1 0.763890 0.106095 0.684511
O O2 0.650878 0.161136 0.894114
O O3 0.568986 0.161970 0.805007
O O4 0.587532 0.000000 0.873244
O O5 0.148426 0.272299 0.354137
O O6 0.087519 0.179112 0.540056
O O7 0.000000 0.120968 0.500000
O O8 0.723400 0.500000 0.545684
O O9 0.813289 0.658843 0.426134
O O10 0.791015 0.621073 0.590994
O O11 0.585633 0.642456 0.678340
O O12 0.370655 0.652029 0.775012
O O13 0.239284 0.805198 0.911328
O O14 0.197529 0.631377 0.005535
O O15 0.077347 0.500000 0.717392
O O16 0.955042 0.358802 0.764107
O O17 0.179991 0.500000 0.319641
O O18 0.000000 0.398905 0.500000
O O19 0.505873 0.500000 0.655104
O O20 0.203955 0.500000 0.110711
#
# Coordination Sequence:
#
# PCOD9217602 Si02
#       8
#     8   8   8   8   8   8   8   8
#     4  11  21  36  58  90 125 151 191 248 303 361
#     4  11  21  31  51  83 115 155 194 225 296 362
#     4   9  18  33  55  84 115 156 197 236 301 356
#     4  11  24  39  62  91 115 158 204 236 305 358
#     4   9  19  35  60  89 118 155 194 246 308 353
#     4   9  20  36  50  71 113 159 203 248 278 339
#     4  11  21  34  54  84 122 153 187 239 294 360
#     4  10  23  44  63  86 119 155 205 255 290 348
#
# _framework density 24.129721
#
# number of rings (size 3 to 8) (size 9 to 14) (size 15 to 20)
#    0.000    1.875    2.500    1.500    1.750    2.500 
#    0.000    2.500    0.000    0.000    0.000    8.750 
#    0.000    0.000    0.000    0.000    0.000    0.000 
#
# Total GULP energy -178329.854253 kJ/mol
# GULP energy per Si atom -5572.807945 kJ/mol
# Density = 2.407480 g / cm^3
# Si number density = 24.129721 Si / 1000 Ang^3
#
#
#
# Elastic Constant Matrix: (Units=GPa)
#
#
# Indices 1 2 3 4 5 6 
#
# 1 98.0816 13.6539 -14.4508 0.0000 11.8737 0.0000
# 2 13.6539 119.7148 -5.1049 0.0000 1.1622 0.0000
# 3 -14.4508 -5.1049 63.3881 0.0000 4.1181 0.0000
# 4 0.0000 0.0000 0.0000 5.5900 0.0000 -8.7150
# 5 11.8737 1.1622 4.1181 0.0000 22.9898 0.0000
# 6 0.0000 0.0000 0.0000 -8.7150 0.0000 20.3657
#
#
#
# Elastic Compliance Matrix: (Units=1/GPa)
#
#
# Indices 1 2 3 4 5 6 
#
# 1 0.011571 -0.001131 0.002966 0.000000 -0.006450 0.000000
# 2 -0.001131 0.008499 0.000422 0.000000 0.000079 0.000000
# 3 0.002966 0.000422 0.016782 0.000000 -0.004559 0.000000
# 4 0.000000 0.000000 0.000000 0.537435 0.000000 0.229982
# 5 -0.006450 0.000079 -0.004559 0.000000 0.047642 0.000000
# 6 0.000000 0.000000 0.000000 0.229982 0.000000 0.147517
#
#
# Mechanical properties :
#
#
# Convention : Reuss Voigt Hill
#
# Bulk Modulus (GPa) = 24.17447 29.93123 27.05285
# Shear Modulus (GPa) = 6.42078 28.92819 17.67448
#
# Velocity S-wave (km/s) = 1.63301 3.46621 2.70937
# Velocity P-wave (km/s) = 3.68726 5.33392 4.58512
#
# Compressibility (1/GPa) = 0.04136595
#
# Stress axis : x y z
#
# Youngs Moduli (GPa) = 86.42442 117.65604 59.58723
#
# Poissons Ratio (x) = 0.13302 -0.17673
# Poissons Ratio (y) = 0.09771 -0.02512
# Poissons Ratio (z) = -0.25632 -0.04961
#
# Static dielectric constant tensor:
#      x y z
#    x 2.057420 0.000000 0.072210 
#    y 0.000000 2.007780 0.000000 
#    z 0.072210 0.000000 1.929230 
# 
# From -- ./inp_files/278149.got.cif
#   From: 2010.05.17/outbox.cif.g08.bks.cpg/sg12_140_cif.got.tgz:278149.got - 2010.06.03 13:09:07.
