data_PCOD9217770
_publ_section_title
;
Structure prediction by ZEFSAII (Michael W. Deem and Ramdas Pophale) SiO2 
 PCOD9217770
Probable space group: C 2/M
;
_chemical_formula_sum "Si O2"
_cell_formula_units_Z 40
_cell_length_a 8.409570
_cell_length_b 17.284285
_cell_length_c 17.762521
_cell_angle_alpha 90.000000
_cell_angle_beta 139.762417
_cell_angle_gamma 90.000000
_cell_volume 1667.763519
_symmetry_space_group_name_H-M "C 2/M"
_symmetry_group_IT_number 12
_symmetry_cell_setting 'monoclinic'
loop_
_space_group_symop_operation_xyz
x,y,z
-x,y,-z
-x,-y,-z
x,-y,z
1/2+x,1/2+y,z
1/2-x,1/2+y,-z
1/2-x,1/2-y,-z
1/2+x,1/2-y,z
loop_
_atom_site_type_symbol
_atom_site_label
_atom_site_fract_x
_atom_site_fract_y
_atom_site_fract_z
Si Si1 0.006451 0.802652 0.417646
Si Si2 0.690850 0.136050 0.016364
Si Si3 0.962461 0.281828 0.186766
Si Si4 0.227522 0.089387 0.379902
Si Si5 0.714028 0.585387 0.194432
O O1 0.250000 0.750000 0.500000
O O2 0.035890 0.862813 0.360125
O O3 0.000000 0.836939 0.500000
O O4 0.740949 0.762795 0.310811
O O5 0.800997 0.206731 0.107263
O O6 0.926358 0.091808 0.070051
O O7 0.500000 0.091829 0.000000
O O8 0.547943 0.171060 0.894453
O O9 0.848984 0.340982 0.206816
O O10 0.500000 0.117748 0.500000
O O11 0.212199 0.090140 0.284441
O O12 0.208685 0.000000 0.397001
O O13 0.813026 0.500000 0.208935
#
# Coordination Sequence:
#
# PCOD9217770 Si02
#       5
#     8   8   8   8   8
#     4  12  28  43  71 106 139 183 241 301 345 425
#     4  11  24  43  70 100 144 192 232 297 354 428
#     4  11  25  43  69 104 144 187 238 293 360 423
#     4  10  23  45  68  97 143 188 230 289 362 421
#     4  11  25  46  74 108 147 189 240 299 358 430
#
# _framework density 23.984217999999998
#
# number of rings (size 3 to 8) (size 9 to 14) (size 15 to 20)
#    0.000    1.000    0.000    6.000   11.200    3.200 
#    0.000    0.000    0.000    0.000    0.000    0.000 
#    0.000    0.000    0.000    0.000    0.000    0.000 
#
# Total GULP energy -111955.463667 kJ/mol
# GULP energy per Si atom -5597.773183 kJ/mol
# Density = 2.392963 g / cm^3
# Si number density = 23.984218 Si / 1000 Ang^3
#
#
#
# Elastic Constant Matrix: (Units=GPa)
#
#
# Indices 1 2 3 4 5 6 
#
# 1 132.0689 46.0159 27.7170 0.0000 -1.3850 0.0000
# 2 46.0159 108.9158 10.6249 0.0001 0.7290 -0.0003
# 3 27.7170 10.6249 127.5174 0.0003 3.2633 -0.0004
# 4 0.0000 0.0001 0.0003 1.6477 0.0002 27.4946
# 5 -1.3850 0.7290 3.2633 0.0002 44.2121 -0.0003
# 6 0.0000 -0.0003 -0.0004 27.4946 -0.0003 -15.8531
#
#
#
# Elastic Compliance Matrix: (Units=1/GPa)
#
#
# Indices 1 2 3 4 5 6 
#
# 1 0.009238 -0.003740 -0.001709 0.000000 0.000477 0.000000
# 2 -0.003740 0.010771 -0.000077 0.000000 -0.000289 0.000000
# 3 -0.001709 -0.000077 0.008237 0.000000 -0.000660 0.000000
# 4 0.000000 0.000000 0.000000 0.020271 0.000000 0.035156
# 5 0.000477 -0.000289 -0.000660 0.000000 0.022687 0.000000
# 6 0.000000 0.000000 0.000000 0.035156 0.000000 -0.002107
#
#
# Mechanical properties :
#
#
# Convention : Reuss Voigt Hill
#
# Bulk Modulus (GPa) = 58.15644 59.69085 58.92364
# Shear Modulus (GPa) = 58.22145 24.94431 41.58288
#
# Velocity S-wave (km/s) = 4.93230 3.22845 4.16836
# Velocity P-wave (km/s) = 7.53241 6.23207 6.91289
#
# Compressibility (1/GPa) = 0.01719500
#
# Stress axis : x y z
#
# Youngs Moduli (GPa) = 108.24415 92.84338 121.40662
#
# Poissons Ratio (x) = 0.34720 0.20744
# Poissons Ratio (y) = 0.40479 0.00937
# Poissons Ratio (z) = 0.18495 0.00717
#
# Static dielectric constant tensor:
#      x y z
#    x 1.919560 0.000000 -0.005040 
#    y 0.000000 1.931380 0.000000 
#    z -0.005040 0.000000 1.940390 
# 
# From -- ./inp_files/300977.got.cif
#   From: 2010.05.17/outbox.cif.g08.bks.cpg/sg12_151_cif.got.tgz:300977.got - 2010.06.03 13:09:07.
