data_PCOD9217944
_publ_section_title
;
Structure prediction by ZEFSAII (Michael W. Deem and Ramdas Pophale) SiO2 
 PCOD9217944
Probable space group: C 2/M
;
_chemical_formula_sum "Si O2"
_cell_formula_units_Z 52
_cell_length_a 21.366745
_cell_length_b 14.766512
_cell_length_c 8.297731
_cell_angle_alpha 90.000000
_cell_angle_beta 96.105284
_cell_angle_gamma 90.000000
_cell_volume 2603.187028
_symmetry_space_group_name_H-M "C 2/M"
_symmetry_group_IT_number 12
_symmetry_cell_setting 'monoclinic'
loop_
_space_group_symop_operation_xyz
x,y,z
-x,y,-z
-x,-y,-z
x,-y,z
1/2+x,1/2+y,z
1/2-x,1/2+y,-z
1/2-x,1/2-y,-z
1/2+x,1/2-y,z
loop_
_atom_site_type_symbol
_atom_site_label
_atom_site_fract_x
_atom_site_fract_y
_atom_site_fract_z
Si Si1 0.040600 0.894522 0.852060
Si Si2 0.921135 0.898842 0.605503
Si Si3 0.749945 0.500000 0.959326
Si Si4 0.783909 0.336668 0.760858
Si Si5 0.637354 0.284883 0.693894
Si Si6 0.811808 0.864403 0.813943
Si Si7 0.683839 0.894590 0.586584
O O1 0.097229 0.826431 0.829317
O O2 0.991493 0.887913 0.689748
O O3 0.061361 0.000000 0.867944
O O4 0.000000 0.873984 0.000000
O O5 0.896079 0.825403 0.474080
O O6 0.876395 0.893253 0.749757
O O7 0.913517 0.000000 0.532437
O O8 0.790380 0.420542 0.879876
O O9 0.707799 0.421708 0.038654
O O10 0.708935 0.321319 0.711925
O O11 0.810041 0.243106 0.837688
O O12 0.814329 0.360039 0.596402
O O13 0.643320 0.176551 0.679731
O O14 0.755326 0.886231 0.671767
O O15 0.665617 0.000000 0.595340
#
# Coordination Sequence:
#
# PCOD9217944 Si02
#       7
#     8   8   4   8   8   8   8
#     4  10  24  39  57  85 120 152 188 230 295 358
#     4  11  20  35  60  82 114 152 190 234 285 344
#     4  12  24  32  56  83 130 160 184 234 289 356
#     4  11  23  36  58  88 118 159 193 234 292 347
#     4  11  22  37  60  85 114 152 197 243 281 336
#     4  11  21  38  55  87 121 154 192 234 289 343
#     4  11  20  40  62  85 115 154 198 246 281 335
#
# _framework density 19.975514
#
# number of rings (size 3 to 8) (size 9 to 14) (size 15 to 20)
#    0.000    1.077    5.385    2.308    4.308    1.231 
#    0.000    0.000    0.000    2.308    0.000    0.000 
#    0.000    0.000    0.000    0.000    0.000    0.000 
#
# Total GULP energy -144867.901053 kJ/mol
# GULP energy per Si atom -5571.842348 kJ/mol
# Density = 1.993005 g / cm^3
# Si number density = 19.975514 Si / 1000 Ang^3
#
#
#
# Elastic Constant Matrix: (Units=GPa)
#
#
# Indices 1 2 3 4 5 6 
#
# 1 69.3286 35.5224 13.3321 0.0000 -16.6573 0.0000
# 2 35.5224 179.7375 22.5463 0.0000 -18.3385 0.0000
# 3 13.3321 22.5463 44.3657 0.0000 -19.6155 0.0000
# 4 0.0000 0.0000 0.0000 67.7592 0.0000 -6.2853
# 5 -16.6573 -18.3385 -19.6155 0.0000 39.5048 0.0000
# 6 0.0000 0.0000 0.0000 -6.2853 0.0000 25.3413
#
#
#
# Elastic Compliance Matrix: (Units=1/GPa)
#
#
# Indices 1 2 3 4 5 6 
#
# 1 0.017377 -0.002703 -0.001491 0.000000 0.005332 0.000000
# 2 -0.002703 0.006444 -0.002106 0.000000 0.000806 0.000000
# 3 -0.001491 -0.002106 0.029916 0.000000 0.013248 0.000000
# 4 0.000000 0.000000 0.000000 0.015106 0.000000 0.003747
# 5 0.005332 0.000806 0.013248 0.000000 0.034514 0.000000
# 6 0.000000 0.000000 0.000000 0.003747 0.000000 0.040391
#
#
# Mechanical properties :
#
#
# Convention : Reuss Voigt Hill
#
# Bulk Modulus (GPa) = 24.30940 48.47037 36.38988
# Shear Modulus (GPa) = 29.40149 41.32313 35.36231
#
# Velocity S-wave (km/s) = 3.84067 4.55322 4.21204
# Velocity P-wave (km/s) = 5.64479 7.20833 6.47393
#
# Compressibility (1/GPa) = 0.04113636
#
# Stress axis : x y z
#
# Youngs Moduli (GPa) = 57.54766 155.17424 33.42739
#
# Poissons Ratio (x) = 0.41948 0.04983
# Poissons Ratio (y) = 0.15557 0.07041
# Poissons Ratio (z) = 0.08578 0.32685
#
# Static dielectric constant tensor:
#      x y z
#    x 1.690820 0.000000 0.014000 
#    y 0.000000 1.693620 0.000000 
#    z 0.014000 0.000000 1.789800 
# 
# From -- ./inp_files/85843.got.cif
#   From: 2010.05.17/outbox.cif.g08.bks.cpg/sg12_43_cif.got.tgz:85843.got - 2010.06.03 13:09:07.
