data_PCOD9217331
_publ_section_title
;
Structure prediction by ZEFSAII (Michael W. Deem and Ramdas Pophale) SiO2 
 PCOD9217331
Probable space group: C 2/M
;
_chemical_formula_sum "Si O2"
_cell_formula_units_Z 40
_cell_length_a 11.248415
_cell_length_b 30.597769
_cell_length_c 6.368191
_cell_angle_alpha 90.000000
_cell_angle_beta 112.114738
_cell_angle_gamma 90.000000
_cell_volume 2030.535744
_symmetry_space_group_name_H-M "C 2/M"
_symmetry_group_IT_number 12
_symmetry_cell_setting 'monoclinic'
loop_
_space_group_symop_operation_xyz
x,y,z
-x,y,-z
-x,-y,-z
x,-y,z
1/2+x,1/2+y,z
1/2-x,1/2+y,-z
1/2-x,1/2-y,-z
1/2+x,1/2-y,z
loop_
_atom_site_type_symbol
_atom_site_label
_atom_site_fract_x
_atom_site_fract_y
_atom_site_fract_z
Si Si1 0.792860 0.715900 0.845372
Si Si2 0.421753 0.278648 0.633905
Si Si3 0.637447 0.951568 0.206422
Si Si4 0.000000 0.148111 0.000000
Si Si5 0.719091 0.877223 0.952123
Si Si6 0.000000 0.588673 0.500000
O O1 0.700557 0.706706 0.582562
O O2 0.898965 0.743038 0.793637
O O3 0.811055 0.669760 0.966172
O O4 0.750000 0.750000 0.000000
O O5 0.500000 0.256770 0.500000
O O6 0.484863 0.320290 0.786875
O O7 0.714051 0.914463 0.129797
O O8 0.595102 0.938777 0.412773
O O9 0.696819 0.000000 0.237626
O O10 0.500000 0.953641 0.000000
O O11 0.862119 0.124464 0.942850
O O12 0.601270 0.885684 0.713665
#
# Coordination Sequence:
#
# PCOD9217331 Si02
#       6
#     8   8   8   4   8   4
#     4  11  23  42  59  91 129 173 222 262 317 378
#     4  11  22  41  62  85 127 180 219 264 315 379
#     4   9  20  43  68  94 128 166 213 268 328 390
#     4  12  24  44  65  94 134 182 215 256 336 388
#     4  11  24  43  64  99 130 171 216 267 324 392
#     4  10  23  42  68 100 128 162 212 274 329 384
#
# _framework density 19.699235999999999
#
# number of rings (size 3 to 8) (size 9 to 14) (size 15 to 20)
#    0.000    1.400    4.000    0.300    2.800    0.800 
#   23.400    0.500    0.000    1.200    0.000    0.000 
#    0.000    0.000    0.000    0.000    0.000    0.000 
#
# Total GULP energy -111395.207349 kJ/mol
# GULP energy per Si atom -5569.760367 kJ/mol
# Density = 1.965440 g / cm^3
# Si number density = 19.699236 Si / 1000 Ang^3
#
#
#
# Elastic Constant Matrix: (Units=GPa)
#
#
# Indices 1 2 3 4 5 6 
#
# 1 113.1732 54.8846 35.4278 0.0000 -30.5952 0.0000
# 2 54.8846 156.8302 55.5979 0.0000 -23.2937 0.0000
# 3 35.4278 55.5979 122.7754 0.0000 -7.2489 0.0000
# 4 0.0000 0.0000 0.0000 6.8768 0.0000 -3.8263
# 5 -30.5952 -23.2937 -7.2489 0.0000 49.9441 0.0000
# 6 0.0000 0.0000 0.0000 -3.8263 0.0000 27.5455
#
#
#
# Elastic Compliance Matrix: (Units=1/GPa)
#
#
# Indices 1 2 3 4 5 6 
#
# 1 0.012422 -0.002747 -0.001984 0.000000 0.006041 0.000000
# 2 -0.002747 0.008700 -0.003033 0.000000 0.001935 0.000000
# 3 -0.001984 -0.003033 0.010022 0.000000 -0.001175 0.000000
# 4 0.000000 0.000000 0.000000 0.157596 0.000000 0.021892
# 5 0.006041 0.001935 -0.001175 0.000000 0.024455 0.000000
# 6 0.000000 0.000000 0.000000 0.021892 0.000000 0.039345
#
#
# Mechanical properties :
#
#
# Convention : Reuss Voigt Hill
#
# Bulk Modulus (GPa) = 64.03517 76.06658 70.05088
# Shear Modulus (GPa) = 18.29675 33.33117 25.81396
#
# Velocity S-wave (km/s) = 3.05094 4.11786 3.62388
# Velocity P-wave (km/s) = 6.70731 7.82987 7.29023
#
# Compressibility (1/GPa) = 0.01561642
#
# Stress axis : x y z
#
# Youngs Moduli (GPa) = 80.50112 114.94016 99.78520
#
# Poissons Ratio (x) = 0.31571 0.19798
# Poissons Ratio (y) = 0.22111 0.30265
# Poissons Ratio (z) = 0.15972 0.34861
#
# Static dielectric constant tensor:
#      x y z
#    x 1.929620 0.000000 0.099250 
#    y 0.000000 1.677390 0.000000 
#    z 0.099250 0.000000 1.746060 
# 
# From -- ./inp_files/8563.got.cif
#   From: 2010.05.17/outbox.cif.g08.bks.cpg/sg12_5_cif.got.tgz:8563.got - 2010.06.03 13:09:07.
