data_PCOD9217022
_publ_section_title
;
Structure prediction by ZEFSAII (Michael W. Deem and Ramdas Pophale) SiO2 
 PCOD9217022
Probable space group: C 2/M
;
_chemical_formula_sum "Si O2"
_cell_formula_units_Z 56
_cell_length_a 8.410994
_cell_length_b 31.147213
_cell_length_c 20.130317
_cell_angle_alpha 90.000000
_cell_angle_beta 29.193897
_cell_angle_gamma 90.000000
_cell_volume 2572.345236
_symmetry_space_group_name_H-M "C 2/M"
_symmetry_group_IT_number 12
_symmetry_cell_setting 'monoclinic'
loop_
_space_group_symop_operation_xyz
x,y,z
-x,y,-z
-x,-y,-z
x,-y,z
1/2+x,1/2+y,z
1/2-x,1/2+y,-z
1/2-x,1/2-y,-z
1/2+x,1/2-y,z
loop_
_atom_site_type_symbol
_atom_site_label
_atom_site_fract_x
_atom_site_fract_y
_atom_site_fract_z
Si Si1 0.623079 0.698473 0.775433
Si Si2 0.853779 0.647767 0.480370
Si Si3 0.269757 0.663057 0.025468
Si Si4 0.618778 0.708390 0.284832
Si Si5 0.378787 0.428614 0.615385
Si Si6 0.113459 0.000000 0.133216
Si Si7 0.389403 0.500000 0.366297
Si Si8 0.399720 0.570653 0.106963
O O1 0.493367 0.705357 0.749526
O O2 0.781313 0.743208 0.738432
O O3 0.874486 0.658851 0.673719
O O4 0.348583 0.687188 0.928715
O O5 0.666442 0.692135 0.563579
O O6 0.595317 0.613643 0.548681
O O7 0.000000 0.634626 0.500000
O O8 0.911358 0.673816 0.181451
O O9 0.500000 0.680277 0.000000
O O10 0.381981 0.614063 0.972469
O O11 0.500000 0.446720 0.500000
O O12 0.473079 0.459920 0.641607
O O13 0.989568 0.421201 0.753692
O O14 0.998484 0.000000 0.250603
O O15 0.987733 0.040900 0.137043
O O16 0.500000 0.000000 0.000000
O O17 0.000000 0.500000 0.500000
O O18 0.500000 0.549497 0.000000
#
# Coordination Sequence:
#
# PCOD9217022 Si02
#       8
#     8   8   8   8   8   4   4   8
#     4  11  23  40  62  90 125 166 211 262 321 385
#     4  10  23  41  64  94 127 165 213 267 325 385
#     4  11  23  40  62  90 123 164 211 263 321 382
#     4  11  23  40  62  90 125 165 209 265 321 386
#     4  12  24  43  68  96 132 174 220 275 327 390
#     4  12  26  44  70 100 134 178 218 272 330 392
#     4  12  26  44  68 100 136 178 220 270 328 394
#     4  11  24  44  68  98 131 172 221 273 329 393
#
# _framework density 21.770015999999998
#
# number of rings (size 3 to 8) (size 9 to 14) (size 15 to 20)
#    0.000    0.857    0.000    7.714    0.000    4.571 
#    0.000    0.000    0.000    0.000    0.000    0.000 
#    0.000    0.000    0.000    0.000    0.000    0.000 
#
# Total GULP energy -156578.329566 kJ/mol
# GULP energy per Si atom -5592.083199 kJ/mol
# Density = 2.172047 g / cm^3
# Si number density = 21.770016 Si / 1000 Ang^3
#
#
#
# Elastic Constant Matrix: (Units=GPa)
#
#
# Indices 1 2 3 4 5 6 
#
# 1 103.0448 51.0058 41.1061 -0.0004 -2.2309 0.0002
# 2 51.0058 72.9606 2.3705 -0.0004 -9.7350 0.0001
# 3 41.1061 2.3705 113.6822 0.0037 1.5629 0.0008
# 4 -0.0004 -0.0004 0.0037 16.1356 0.0001 -3.1718
# 5 -2.2309 -9.7350 1.5629 0.0001 48.5483 0.0002
# 6 0.0002 0.0001 0.0008 -3.1718 0.0002 37.5578
#
#
#
# Elastic Compliance Matrix: (Units=1/GPa)
#
#
# Indices 1 2 3 4 5 6 
#
# 1 0.018740 -0.013098 -0.006481 0.000002 -0.001557 0.000000
# 2 -0.013098 0.023250 0.004197 -0.000001 0.003925 0.000000
# 3 -0.006481 0.004197 0.011050 -0.000003 0.000188 0.000000
# 4 0.000002 -0.000001 -0.000003 0.063021 0.000000 0.005322
# 5 -0.001557 0.003925 0.000188 0.000000 0.021308 0.000000
# 6 0.000000 0.000000 0.000000 0.005322 0.000000 0.027075
#
#
# Mechanical properties :
#
#
# Convention : Reuss Voigt Hill
#
# Bulk Modulus (GPa) = 44.89262 53.18361 49.03811
# Shear Modulus (GPa) = 24.67531 33.46204 29.06867
#
# Velocity S-wave (km/s) = 3.37033 3.92480 3.65809
# Velocity P-wave (km/s) = 5.98428 6.70981 6.35740
#
# Compressibility (1/GPa) = 0.02227538
#
# Stress axis : x y z
#
# Youngs Moduli (GPa) = 53.36310 43.01119 90.49796
#
# Poissons Ratio (x) = 0.56335 0.58656
# Poissons Ratio (y) = 0.69893 -0.37984
# Poissons Ratio (z) = 0.34587 -0.18053
#
# Static dielectric constant tensor:
#      x y z
#    x 1.772560 0.000000 -0.040010 
#    y 0.000000 1.807820 0.000000 
#    z -0.040010 0.000000 1.838100 
# 
# From -- ./inp_files/303032.got.cif
#   From: 2010.05.17/outbox.cif.g08.bks.cpg/sg12_152_cif.got.tgz:303032.got - 2010.06.03 13:09:07.
