data_PCOD9217792
_publ_section_title
;
Structure prediction by ZEFSAII (Michael W. Deem and Ramdas Pophale) SiO2 
 PCOD9217792
Probable space group: C 2/M
;
_chemical_formula_sum "Si O2"
_cell_formula_units_Z 48
_cell_length_a 9.791005
_cell_length_b 28.211993
_cell_length_c 8.690572
_cell_angle_alpha 90.000000
_cell_angle_beta 95.721925
_cell_angle_gamma 90.000000
_cell_volume 2388.581789
_symmetry_space_group_name_H-M "C 2/M"
_symmetry_group_IT_number 12
_symmetry_cell_setting 'monoclinic'
loop_
_space_group_symop_operation_xyz
x,y,z
-x,y,-z
-x,-y,-z
x,-y,z
1/2+x,1/2+y,z
1/2-x,1/2+y,-z
1/2-x,1/2-y,-z
1/2+x,1/2-y,z
loop_
_atom_site_type_symbol
_atom_site_label
_atom_site_fract_x
_atom_site_fract_y
_atom_site_fract_z
Si Si1 0.139659 0.377369 0.603689
Si Si2 0.218380 0.698988 0.190674
Si Si3 0.559967 0.771812 0.666750
Si Si4 0.344850 0.119998 0.037422
Si Si5 0.132329 0.118807 0.595962
Si Si6 0.110394 0.943631 0.879742
O O1 0.134591 0.319716 0.614691
O O2 0.152812 0.390097 0.782384
O O3 0.265445 0.398720 0.524017
O O4 0.000000 0.390887 0.500000
O O5 0.331011 0.739832 0.229254
O O6 0.275803 0.657009 0.304782
O O7 0.069484 0.714869 0.238299
O O8 0.207531 0.672372 0.024282
O O9 0.500000 0.750201 0.500000
O O10 0.500000 0.117755 0.000000
O O11 0.251856 0.080594 0.947144
O O12 0.080348 0.080171 0.711982
O O13 0.000000 0.140460 0.500000
O O14 0.118549 0.000000 0.869441
O O15 0.000000 0.931175 0.000000
#
# Coordination Sequence:
#
# PCOD9217792 Si02
#       6
#     8   8   8   8   8   8
#     4  11  21  40  62  87 125 171 209 265 316 370
#     4  11  23  38  59  91 125 174 217 269 311 367
#     4  11  21  37  60  88 128 175 220 268 313 364
#     4  11  22  43  65  91 128 166 216 262 323 376
#     4  11  22  38  64  96 125 167 213 254 321 381
#     4  10  23  45  70  98 129 161 202 258 324 394
#
# _framework density 20.095606
#
# number of rings (size 3 to 8) (size 9 to 14) (size 15 to 20)
#    0.000    1.167    5.000    3.000    2.333    1.333 
#    0.000    0.833    0.000    2.000    0.000    0.000 
#    0.000    0.000    0.000    0.000    0.000    0.000 
#
# Total GULP energy -133960.733731 kJ/mol
# GULP energy per Si atom -5581.697239 kJ/mol
# Density = 2.004987 g / cm^3
# Si number density = 20.095606 Si / 1000 Ang^3
#
#
#
# Elastic Constant Matrix: (Units=GPa)
#
#
# Indices 1 2 3 4 5 6 
#
# 1 103.8725 29.5870 28.7069 0.0000 -4.9842 0.0000
# 2 29.5870 59.3939 15.0805 0.0000 -9.1133 0.0000
# 3 28.7069 15.0805 108.2577 0.0000 -8.6141 0.0000
# 4 0.0000 0.0000 0.0000 6.9257 0.0000 -4.7787
# 5 -4.9842 -9.1133 -8.6141 0.0000 29.4781 0.0000
# 6 0.0000 0.0000 0.0000 -4.7787 0.0000 22.0702
#
#
#
# Elastic Compliance Matrix: (Units=1/GPa)
#
#
# Indices 1 2 3 4 5 6 
#
# 1 0.011791 -0.005315 -0.002415 0.000000 -0.000355 0.000000
# 2 -0.005315 0.020539 -0.001042 0.000000 0.005146 0.000000
# 3 -0.002415 -0.001042 0.010202 0.000000 0.002251 0.000000
# 4 0.000000 0.000000 0.000000 0.169750 0.000000 0.036755
# 5 -0.000355 0.005146 0.002251 0.000000 0.036112 0.000000
# 6 0.000000 0.000000 0.000000 0.036755 0.000000 0.053268
#
#
# Mechanical properties :
#
#
# Convention : Reuss Voigt Hill
#
# Bulk Modulus (GPa) = 40.01918 46.47476 43.24697
# Shear Modulus (GPa) = 15.26552 24.90479 20.08516
#
# Velocity S-wave (km/s) = 2.75916 3.52421 3.16489
# Velocity P-wave (km/s) = 5.48710 6.30374 5.90954
#
# Compressibility (1/GPa) = 0.02498802
#
# Stress axis : x y z
#
# Youngs Moduli (GPa) = 84.80708 48.68823 98.02229
#
# Poissons Ratio (x) = 0.25879 0.23668
# Poissons Ratio (y) = 0.45078 0.10215
# Poissons Ratio (z) = 0.20477 0.05074
#
# Static dielectric constant tensor:
#      x y z
#    x 1.700270 0.000000 -0.002530 
#    y 0.000000 1.697740 0.000000 
#    z -0.002530 0.000000 1.779150 
# 
# From -- ./inp_files/42172.got.cif
#   From: 2010.05.17/outbox.cif.g08.bks.cpg/sg12_22_cif.got.tgz:42172.got - 2010.06.03 13:09:07.
