data_PCOD9217048
_publ_section_title
;
Structure prediction by ZEFSAII (Michael W. Deem and Ramdas Pophale) SiO2 
 PCOD9217048
Probable space group: C 2/M
;
_chemical_formula_sum "Si O2"
_cell_formula_units_Z 40
_cell_length_a 15.919394
_cell_length_b 20.657862
_cell_length_c 7.551252
_cell_angle_alpha 90.000000
_cell_angle_beta 49.253830
_cell_angle_gamma 90.000000
_cell_volume 1881.376751
_symmetry_space_group_name_H-M "C 2/M"
_symmetry_group_IT_number 12
_symmetry_cell_setting 'monoclinic'
loop_
_space_group_symop_operation_xyz
x,y,z
-x,y,-z
-x,-y,-z
x,-y,z
1/2+x,1/2+y,z
1/2-x,1/2+y,-z
1/2-x,1/2-y,-z
1/2+x,1/2-y,z
loop_
_atom_site_type_symbol
_atom_site_label
_atom_site_fract_x
_atom_site_fract_y
_atom_site_fract_z
Si Si1 0.951167 0.000000 0.874979
Si Si2 0.410630 0.609965 0.501335
Si Si3 0.232550 0.000000 0.106885
Si Si4 0.000000 0.730135 0.000000
Si Si5 0.927041 0.360083 0.429591
Si Si6 0.493954 0.000000 0.796171
Si Si7 0.302954 0.310931 0.329230
O O1 0.821182 0.000000 0.015212
O O2 0.003690 0.939455 0.704694
O O3 0.000000 0.000000 0.000000
O O4 0.500000 0.649300 0.500000
O O5 0.318240 0.564182 0.725110
O O6 0.353284 0.647379 0.420394
O O7 0.363887 0.000000 0.925784
O O8 0.965504 0.684005 0.209995
O O9 0.901052 0.778943 0.081308
O O10 0.795821 0.347302 0.634941
O O11 0.000000 0.343156 0.500000
O O12 0.949733 0.434867 0.352487
O O13 0.500000 0.000000 0.000000
O O14 0.250000 0.250000 0.500000
#
# Coordination Sequence:
#
# PCOD9217048 Si02
#       7
#     4   8   4   4   8   4   8
#     4   9  19  34  58  89 131 159 206 263 331 395
#     4   9  19  38  61  89 130 165 212 273 324 381
#     4   9  20  36  61  98 122 172 213 256 338 401
#     4  10  24  47  68  95 128 182 228 264 328 380
#     4  11  25  45  68 101 135 171 220 274 328 395
#     4  12  22  40  72  95 131 172 214 268 340 398
#     4  10  23  41  65  94 130 168 225 268 313 387
#
# _framework density 21.261025
#
# number of rings (size 3 to 8) (size 9 to 14) (size 15 to 20)
#    0.000    2.000    1.000    2.700    4.200    6.400 
#    3.600    0.000    0.000    0.000    0.000    0.000 
#    0.000    0.000    0.000    0.000    0.000    0.000 
#
# Total GULP energy -111603.800576 kJ/mol
# GULP energy per Si atom -5580.190029 kJ/mol
# Density = 2.121263 g / cm^3
# Si number density = 21.261025 Si / 1000 Ang^3
#
#
#
# Elastic Constant Matrix: (Units=GPa)
#
#
# Indices 1 2 3 4 5 6 
#
# 1 163.6458 58.3558 27.4967 0.0000 -21.3306 0.0000
# 2 58.3558 105.1577 35.6358 0.0000 -24.7644 0.0000
# 3 27.4967 35.6358 57.9601 0.0000 -20.4289 0.0000
# 4 0.0000 0.0000 0.0000 -7.4398 0.0000 19.0462
# 5 -21.3306 -24.7644 -20.4289 0.0000 44.9181 0.0000
# 6 0.0000 0.0000 0.0000 19.0462 0.0000 -80.1844
#
#
#
# Elastic Compliance Matrix: (Units=1/GPa)
#
#
# Indices 1 2 3 4 5 6 
#
# 1 0.007746 -0.003681 -0.000989 0.000000 0.001199 0.000000
# 2 -0.003681 0.014360 -0.005845 0.000000 0.003510 0.000000
# 3 -0.000989 -0.005845 0.023836 0.000000 0.007148 0.000000
# 4 0.000000 0.000000 0.000000 -0.342961 0.000000 -0.081464
# 5 0.001199 0.003510 0.007148 0.000000 0.028019 0.000000
# 6 0.000000 0.000000 0.000000 -0.081464 0.000000 -0.031821
#
#
# Mechanical properties :
#
#
# Convention : Reuss Voigt Hill
#
# Bulk Modulus (GPa) = 40.14252 63.30446 51.72349
# Shear Modulus (GPa) = -18.41698 5.14378 -6.63660
#
# Velocity S-wave (km/s) = -2.94637 1.55711 -1.76869
# Velocity P-wave (km/s) = 2.71053 5.75085 4.49551
#
# Compressibility (1/GPa) = 0.02491124
#
# Stress axis : x y z
#
# Youngs Moduli (GPa) = 129.10157 69.63898 41.95370
#
# Poissons Ratio (x) = 0.25634 0.04149
# Poissons Ratio (y) = 0.47522 0.24523
# Poissons Ratio (z) = 0.12766 0.40706
#
# Static dielectric constant tensor:
#      x y z
#    x 1.668480 0.000000 0.001960 
#    y 0.000000 1.750340 0.000000 
#    z 0.001960 0.000000 1.786750 
# 
# From -- ./inp_files/63233.got.cif
#   From: 2010.05.17/outbox.cif.g08.bks.cpg/sg12_32_cif.got.tgz:63233.got - 2010.06.03 13:09:07.
