data_PCOD9217051
_publ_section_title
;
Structure prediction by ZEFSAII (Michael W. Deem and Ramdas Pophale) SiO2 
 PCOD9217051
Probable space group: C 2/M
;
_chemical_formula_sum "Si O2"
_cell_formula_units_Z 56
_cell_length_a 17.925085
_cell_length_b 17.812556
_cell_length_c 9.354749
_cell_angle_alpha 90.000000
_cell_angle_beta 67.016760
_cell_angle_gamma 90.000000
_cell_volume 2749.790399
_symmetry_space_group_name_H-M "C 2/M"
_symmetry_group_IT_number 12
_symmetry_cell_setting 'monoclinic'
loop_
_space_group_symop_operation_xyz
x,y,z
-x,y,-z
-x,-y,-z
x,-y,z
1/2+x,1/2+y,z
1/2-x,1/2+y,-z
1/2-x,1/2-y,-z
1/2+x,1/2-y,z
loop_
_atom_site_type_symbol
_atom_site_label
_atom_site_fract_x
_atom_site_fract_y
_atom_site_fract_z
Si Si1 0.996686 0.088773 0.674200
Si Si2 0.407473 0.082524 0.621051
Si Si3 0.804694 0.277500 0.661852
Si Si4 0.091802 0.698084 0.907416
Si Si5 0.813696 0.412996 0.984402
Si Si6 0.654440 0.317952 0.091792
Si Si7 0.641125 0.306578 0.646628
O O1 0.075819 0.127869 0.683944
O O2 0.000000 0.099745 0.500000
O O3 0.917402 0.130389 0.793004
O O4 0.994479 0.000000 0.704972
O O5 0.500000 0.082891 0.500000
O O6 0.367468 0.156272 0.588444
O O7 0.382492 0.089899 0.808023
O O8 0.374255 0.000000 0.603392
O O9 0.815145 0.239625 0.808017
O O10 0.718440 0.314564 0.691326
O O11 0.822567 0.212014 0.535148
O O12 0.099363 0.732496 0.744372
O O13 0.151800 0.631095 0.904373
O O14 0.115731 0.766107 0.997443
O O15 0.000000 0.674347 0.000000
O O16 0.796874 0.500000 0.026388
O O17 0.731252 0.370904 0.998631
#
# Coordination Sequence:
#
# PCOD9217051 Si02
#       7
#     8   8   8   8   8   8   8
#     4  11  24  42  67  99 135 176 219 269 335 401
#     4  10  23  41  65  96 127 170 223 273 331 393
#     4  11  23  40  70  93 130 173 226 269 328 391
#     4  12  24  39  66  97 131 170 224 272 327 395
#     4  11  24  43  67  96 132 175 222 278 335 394
#     4  12  22  43  70  98 130 178 224 271 331 401
#     4  11  24  42  61 102 130 169 220 273 326 389
#
# _framework density 20.365189000000001
#
# number of rings (size 3 to 8) (size 9 to 14) (size 15 to 20)
#    0.000    0.857    5.714    1.714    4.000    0.857 
#    0.000    2.857    0.000    0.000    0.000    0.000 
#    0.000    0.000    0.000    0.000    0.000    0.000 
#
# Total GULP energy -156329.641946 kJ/mol
# GULP energy per Si atom -5583.201498 kJ/mol
# Density = 2.031884 g / cm^3
# Si number density = 20.365189 Si / 1000 Ang^3
#
#
#
# Elastic Constant Matrix: (Units=GPa)
#
#
# Indices 1 2 3 4 5 6 
#
# 1 100.3837 56.2606 19.8946 0.0000 -19.3543 0.0000
# 2 56.2606 139.3210 31.4887 0.0000 -8.3144 0.0000
# 3 19.8946 31.4887 74.2359 0.0000 -5.4719 0.0000
# 4 0.0000 0.0000 0.0000 -34.0295 0.0000 0.0153
# 5 -19.3543 -8.3144 -5.4719 0.0000 29.5152 0.0000
# 6 0.0000 0.0000 0.0000 0.0153 0.0000 29.1438
#
#
#
# Elastic Compliance Matrix: (Units=1/GPa)
#
#
# Indices 1 2 3 4 5 6 
#
# 1 0.014611 -0.005171 -0.001139 0.000000 0.007913 0.000000
# 2 -0.005171 0.009847 -0.002876 0.000000 -0.001150 0.000000
# 3 -0.001139 -0.002876 0.015087 0.000000 0.001240 0.000000
# 4 0.000000 0.000000 0.000000 -0.029386 0.000000 0.000015
# 5 0.007913 -0.001150 0.001240 0.000000 0.038976 0.000000
# 6 0.000000 0.000000 0.000000 0.000015 0.000000 0.034313
#
#
# Mechanical properties :
#
#
# Convention : Reuss Voigt Hill
#
# Bulk Modulus (GPa) = 47.22765 58.80313 53.01539
# Shear Modulus (GPa) = 45.92346 18.67901 32.30124
#
# Velocity S-wave (km/s) = 4.75383 3.03182 3.98691
# Velocity P-wave (km/s) = 7.30566 6.41817 6.87625
#
# Compressibility (1/GPa) = 0.02117404
#
# Stress axis : x y z
#
# Youngs Moduli (GPa) = 68.44102 101.55367 66.28165
#
# Poissons Ratio (x) = 0.52509 0.07551
# Poissons Ratio (y) = 0.35388 0.19062
# Poissons Ratio (z) = 0.07797 0.29206
#
# Static dielectric constant tensor:
#      x y z
#    x 1.719720 0.000000 -0.029010 
#    y 0.000000 1.694120 0.000000 
#    z -0.029010 0.000000 1.807670 
# 
# From -- ./inp_files/75830.got.cif
#   From: 2010.05.17/outbox.cif.g08.bks.cpg/sg12_38_cif.got.tgz:75830.got - 2010.06.03 13:09:07.
