data_PCOD9217888
_publ_section_title
;
Structure prediction by ZEFSAII (Michael W. Deem and Ramdas Pophale) SiO2 
 PCOD9217888
Probable space group: C 2/M
;
_chemical_formula_sum "Si O2"
_cell_formula_units_Z 48
_cell_length_a 8.408904
_cell_length_b 30.664352
_cell_length_c 17.901547
_cell_angle_alpha 90.000000
_cell_angle_beta 150.382520
_cell_angle_gamma 90.000000
_cell_volume 2281.249256
_symmetry_space_group_name_H-M "C 2/M"
_symmetry_group_IT_number 12
_symmetry_cell_setting 'monoclinic'
loop_
_space_group_symop_operation_xyz
x,y,z
-x,y,-z
-x,-y,-z
x,-y,z
1/2+x,1/2+y,z
1/2-x,1/2+y,-z
1/2-x,1/2-y,-z
1/2+x,1/2-y,z
loop_
_atom_site_type_symbol
_atom_site_label
_atom_site_fract_x
_atom_site_fract_y
_atom_site_fract_z
Si Si1 0.650061 0.627313 0.379322
Si Si2 0.726304 0.797071 0.452325
Si Si3 0.625785 0.589479 0.863257
Si Si4 0.765903 0.409916 0.672636
Si Si5 0.369495 0.500000 0.680763
Si Si6 0.809966 0.153162 0.851723
Si Si7 0.741871 0.500000 0.671852
O O1 0.691670 0.668338 0.449244
O O2 0.460122 0.630489 0.225863
O O3 0.448229 0.592395 0.341898
O O4 0.000000 0.611220 0.500000
O O5 0.750000 0.750000 0.500000
O O6 0.374714 0.811731 0.276719
O O7 0.000000 0.799547 0.500000
O O8 0.447372 0.544191 0.762978
O O9 0.509190 0.613272 0.892445
O O10 0.000000 0.580436 0.000000
O O11 0.500000 0.406641 0.500000
O O12 0.938481 0.456053 0.742181
O O13 0.007155 0.371234 0.764336
O O14 0.577562 0.500000 0.687382
O O15 0.000000 0.500000 0.500000
O O16 0.000000 0.172526 0.000000
O O17 0.500000 0.500000 0.500000
#
# Coordination Sequence:
#
# PCOD9217888 Si02
#       7
#     8   8   8   8   4   8   4
#     4  12  20  41  72 101 136 183 241 287 347 419
#     4  12  26  47  77 108 138 178 234 295 356 436
#     4  12  27  44  69 102 150 194 241 296 363 413
#     4  11  20  40  64  99 137 185 235 291 338 410
#     4  12  27  43  68 105 146 192 255 309 342 406
#     4  12  26  47  72 102 143 187 233 290 363 432
#     4  10  24  33  64  98 141 176 245 293 338 387
#
# _framework density 21.041104000000001
#
# number of rings (size 3 to 8) (size 9 to 14) (size 15 to 20)
#    0.000    0.333    6.667    2.250    4.667    0.000 
#    0.000    2.500    0.000    0.000    0.000    0.000 
#    0.000    0.000    0.000    0.000    0.000    0.000 
#
# Total GULP energy -133614.830177 kJ/mol
# GULP energy per Si atom -5567.284591 kJ/mol
# Density = 2.099321 g / cm^3
# Si number density = 21.041104 Si / 1000 Ang^3
#
#
#
# Elastic Constant Matrix: (Units=GPa)
#
#
# Indices 1 2 3 4 5 6 
#
# 1 86.2396 12.1690 21.0437 0.0000 0.6371 0.0000
# 2 12.1690 124.8020 57.8958 0.0000 -6.2947 0.0000
# 3 21.0437 57.8958 107.5059 0.0001 1.3729 0.0001
# 4 0.0000 0.0000 0.0001 -2.1109 0.0000 -30.8406
# 5 0.6371 -6.2947 1.3729 0.0000 38.0517 0.0000
# 6 0.0000 0.0000 0.0001 -30.8406 0.0000 0.7769
#
#
#
# Elastic Compliance Matrix: (Units=1/GPa)
#
#
# Indices 1 2 3 4 5 6 
#
# 1 0.012179 -0.000119 -0.002318 0.000000 -0.000140 0.000000
# 2 -0.000119 0.010833 -0.005836 0.000000 0.002005 0.000000
# 3 -0.002318 -0.005836 0.012916 0.000000 -0.001393 0.000000
# 4 0.000000 0.000000 0.000000 -0.000815 0.000000 -0.032369
# 5 -0.000140 0.002005 -0.001393 0.000000 0.026664 0.000000
# 6 0.000000 0.000000 0.000000 -0.032369 0.000000 0.002215
#
#
# Mechanical properties :
#
#
# Convention : Reuss Voigt Hill
#
# Bulk Modulus (GPa) = 51.59573 55.64052 53.61812
# Shear Modulus (GPa) = 57.47147 22.50614 39.98881
#
# Velocity S-wave (km/s) = 5.23194 3.27406 4.36421
# Velocity P-wave (km/s) = 7.81487 6.38700 7.13674
#
# Compressibility (1/GPa) = 0.01938145
#
# Stress axis : x y z
#
# Youngs Moduli (GPa) = 82.10798 92.31219 77.42170
#
# Poissons Ratio (x) = 0.01101 0.17946
# Poissons Ratio (y) = 0.00980 0.45184
# Poissons Ratio (z) = 0.19032 0.53874
#
# Static dielectric constant tensor:
#      x y z
#    x 1.720980 0.000000 -0.101900 
#    y 0.000000 1.774260 0.000000 
#    z -0.101900 0.000000 1.841400 
# 
# From -- ./inp_files/260464.got.cif
#   From: 2010.05.17/outbox.cif.g08.bks.cpg/sg12_131_cif.got.tgz:260464.got - 2010.06.03 13:09:07.
