data_PCOD9217966
_publ_section_title
;
Structure prediction by ZEFSAII (Michael W. Deem and Ramdas Pophale) SiO2 
 PCOD9217966
Probable space group: C 2/M
;
_chemical_formula_sum "Si O2"
_cell_formula_units_Z 52
_cell_length_a 16.595958
_cell_length_b 16.953536
_cell_length_c 9.686833
_cell_angle_alpha 90.000000
_cell_angle_beta 98.106716
_cell_angle_gamma 90.000000
_cell_volume 2698.253550
_symmetry_space_group_name_H-M "C 2/M"
_symmetry_group_IT_number 12
_symmetry_cell_setting 'monoclinic'
loop_
_space_group_symop_operation_xyz
x,y,z
-x,y,-z
-x,-y,-z
x,-y,z
1/2+x,1/2+y,z
1/2-x,1/2+y,-z
1/2-x,1/2-y,-z
1/2+x,1/2-y,z
loop_
_atom_site_type_symbol
_atom_site_label
_atom_site_fract_x
_atom_site_fract_y
_atom_site_fract_z
Si Si1 0.925135 0.500000 0.086973
Si Si2 0.847764 0.093031 0.125055
Si Si3 0.626939 0.236619 0.204932
Si Si4 0.500000 0.339668 0.000000
Si Si5 0.187809 0.352491 0.955377
Si Si6 0.588814 0.000000 0.586447
Si Si7 0.407493 0.163253 0.528031
Si Si8 0.693705 0.257596 0.700413
O O1 0.929457 0.500000 0.254941
O O2 0.873054 0.423588 0.042929
O O3 0.000000 0.500000 0.000000
O O4 0.778910 0.114679 0.994011
O O5 0.826608 0.154397 0.245287
O O6 0.841790 0.000000 0.159572
O O7 0.934471 0.112240 0.075541
O O8 0.554102 0.289640 0.124774
O O9 0.668846 0.203176 0.078366
O O10 0.593226 0.173346 0.306869
O O11 0.710970 0.263391 0.300098
O O12 0.169433 0.302829 0.815868
O O13 0.500000 0.000000 0.500000
O O14 0.628464 0.919582 0.538132
O O15 0.500000 0.167552 0.500000
O O16 0.359554 0.234084 0.443213
#
# Coordination Sequence:
#
# PCOD9217966 Si02
#       8
#     4   8   8   4   8   4   8   8
#     4  12  26  36  66  95 129 165 207 267 323 385
#     4  11  22  39  62  95 126 162 206 272 319 372
#     4  11  24  37  66  93 117 169 215 260 309 388
#     4  12  21  38  66  95 126 158 226 255 320 382
#     4  11  22  41  64  93 129 162 209 267 323 375
#     4  10  24  40  54  88 135 159 200 256 317 374
#     4  11  24  40  62  90 128 169 208 258 317 385
#     4  11  21  45  64  88 128 167 212 260 323 382
#
# _framework density 19.271726000000001
#
# number of rings (size 3 to 8) (size 9 to 14) (size 15 to 20)
#    0.000    0.923    5.385    2.538    5.385    0.000 
#    1.385    0.000    0.000    5.077    0.000    0.000 
#    0.000    0.000    0.000    0.000    0.000    0.000 
#
# Total GULP energy -144841.671292 kJ/mol
# GULP energy per Si atom -5570.833511 kJ/mol
# Density = 1.922786 g / cm^3
# Si number density = 19.271726 Si / 1000 Ang^3
#
#
#
# Elastic Constant Matrix: (Units=GPa)
#
#
# Indices 1 2 3 4 5 6 
#
# 1 103.5941 31.2395 12.2198 0.0000 1.8686 0.0000
# 2 31.2395 115.1021 15.1062 0.0000 4.7607 0.0000
# 3 12.2198 15.1062 57.3994 0.0000 -5.8509 0.0000
# 4 0.0000 0.0000 0.0000 72.3508 0.0000 -7.2142
# 5 1.8686 4.7607 -5.8509 0.0000 30.0009 0.0000
# 6 0.0000 0.0000 0.0000 -7.2142 0.0000 34.5469
#
#
#
# Elastic Compliance Matrix: (Units=1/GPa)
#
#
# Indices 1 2 3 4 5 6 
#
# 1 0.010656 -0.002655 -0.001627 0.000000 -0.000560 0.000000
# 2 -0.002655 0.009771 -0.002191 0.000000 -0.001812 0.000000
# 3 -0.001627 -0.002191 0.018763 0.000000 0.004108 0.000000
# 4 0.000000 0.000000 0.000000 0.014115 0.000000 0.002948
# 5 -0.000560 -0.001812 0.004108 0.000000 0.034456 0.000000
# 6 0.000000 0.000000 0.000000 0.002948 0.000000 0.029562
#
#
# Mechanical properties :
#
#
# Convention : Reuss Voigt Hill
#
# Bulk Modulus (GPa) = 38.10364 43.69184 40.89774
# Shear Modulus (GPa) = 35.96660 41.88174 38.92417
#
# Velocity S-wave (km/s) = 4.32474 4.66684 4.49904
# Velocity P-wave (km/s) = 6.68974 7.19443 6.94667
#
# Compressibility (1/GPa) = 0.02624421
#
# Stress axis : x y z
#
# Youngs Moduli (GPa) = 93.84566 102.34212 53.29499
#
# Poissons Ratio (x) = 0.27176 0.08670
# Poissons Ratio (y) = 0.24920 0.11677
# Poissons Ratio (z) = 0.15266 0.22423
#
# Static dielectric constant tensor:
#      x y z
#    x 1.731810 0.000000 0.026940 
#    y 0.000000 1.662920 0.000000 
#    z 0.026940 0.000000 1.661100 
# 
# From -- ./inp_files/75352.got.cif
#   From: 2010.05.17/outbox.cif.g08.bks.cpg/sg12_38_cif.got.tgz:75352.got - 2010.06.03 13:09:07.
