data_PCOD9217643
_publ_section_title
;
Structure prediction by ZEFSAII (Michael W. Deem and Ramdas Pophale) SiO2 
 PCOD9217643
Probable space group: C 2/M
;
_chemical_formula_sum "Si O2"
_cell_formula_units_Z 40
_cell_length_a 22.551326
_cell_length_b 8.580351
_cell_length_c 14.842143
_cell_angle_alpha 90.000000
_cell_angle_beta 41.506192
_cell_angle_gamma 90.000000
_cell_volume 1903.230394
_symmetry_space_group_name_H-M "C 2/M"
_symmetry_group_IT_number 12
_symmetry_cell_setting 'monoclinic'
loop_
_space_group_symop_operation_xyz
x,y,z
-x,y,-z
-x,-y,-z
x,-y,z
1/2+x,1/2+y,z
1/2-x,1/2+y,-z
1/2-x,1/2-y,-z
1/2+x,1/2-y,z
loop_
_atom_site_type_symbol
_atom_site_label
_atom_site_fract_x
_atom_site_fract_y
_atom_site_fract_z
Si Si1 0.841194 0.182408 0.936040
Si Si2 0.094605 0.686886 0.437848
Si Si3 0.582576 0.684824 0.839820
Si Si4 0.469271 0.816002 0.293530
Si Si5 0.283964 0.181402 0.182339
O O1 0.928200 0.271231 0.802057
O O2 0.848924 0.000000 0.908692
O O3 0.750000 0.250000 0.000000
O O4 0.833750 0.214789 0.051023
O O5 0.106757 0.500000 0.411684
O O6 0.087088 0.719715 0.552992
O O7 0.179825 0.774764 0.301356
O O8 0.000000 0.729036 0.500000
O O9 0.597016 0.500000 0.831595
O O10 0.559656 0.726791 0.763379
O O11 0.669290 0.775785 0.776833
O O12 0.500000 0.728342 0.000000
O O13 0.463929 0.000000 0.282146
O O14 0.296454 0.000000 0.146593
#
# Coordination Sequence:
#
# PCOD9217643 Si02
#       5
#     8   8   8   8   8
#     4  12  24  40  63  93 128 167 214 266 319 380
#     4  10  23  44  67  93 131 173 212 261 322 387
#     4  11  23  41  66  94 128 172 215 267 323 381
#     4  11  23  40  66  97 128 168 214 266 324 382
#     4  12  25  41  66  96 128 169 215 267 321 382
#
# _framework density 21.016897
#
# number of rings (size 3 to 8) (size 9 to 14) (size 15 to 20)
#    0.000    0.800    2.000    6.000    0.000    5.200 
#    0.000    0.000    0.000    0.000    0.000    0.000 
#    0.000    0.000    0.000    0.000    0.000    0.000 
#
# Total GULP energy -111964.707648 kJ/mol
# GULP energy per Si atom -5598.235382 kJ/mol
# Density = 2.096906 g / cm^3
# Si number density = 21.016897 Si / 1000 Ang^3
#
#
#
# Elastic Constant Matrix: (Units=GPa)
#
#
# Indices 1 2 3 4 5 6 
#
# 1 75.0912 -0.8912 -16.9315 0.0005 -2.1893 -0.0001
# 2 -0.8912 39.8089 12.9363 0.0004 4.2120 0.0005
# 3 -16.9315 12.9363 45.8452 0.0008 -2.8726 0.0002
# 4 0.0005 0.0004 0.0008 25.6629 -0.0003 -3.5088
# 5 -2.1893 4.2120 -2.8726 -0.0003 32.5074 -0.0001
# 6 -0.0001 0.0005 0.0002 -3.5088 -0.0001 36.1084
#
#
#
# Elastic Compliance Matrix: (Units=1/GPa)
#
#
# Indices 1 2 3 4 5 6 
#
# 1 0.014713 -0.001826 0.006060 0.000000 0.001763 0.000000
# 2 -0.001826 0.028493 -0.009003 0.000000 -0.004610 0.000000
# 3 0.006060 -0.009003 0.026838 -0.000001 0.003946 0.000000
# 4 0.000000 0.000000 -0.000001 0.039491 0.000000 0.003838
# 5 0.001763 -0.004610 0.003946 0.000000 0.031827 0.000000
# 6 0.000000 0.000000 0.000000 0.003838 0.000000 0.028067
#
#
# Mechanical properties :
#
#
# Convention : Reuss Voigt Hill
#
# Bulk Modulus (GPa) = 16.52775 16.77473 16.65124
# Shear Modulus (GPa) = 25.10823 29.89785 27.50304
#
# Velocity S-wave (km/s) = 3.46015 3.77578 3.62140
# Velocity P-wave (km/s) = 4.88309 5.19688 5.04243
#
# Compressibility (1/GPa) = 0.06050429
#
# Stress axis : x y z
#
# Youngs Moduli (GPa) = 67.96617 35.09674 37.26024
#
# Poissons Ratio (x) = 0.06410 -0.22579
# Poissons Ratio (y) = 0.12413 0.33546
# Poissons Ratio (z) = -0.41185 0.31599
#
# Static dielectric constant tensor:
#      x y z
#    x 1.818520 0.000000 0.029570 
#    y 0.000000 1.692300 0.000000 
#    z 0.029570 0.000000 1.738640 
# 
# From -- ./inp_files/230624.got.cif
#   From: 2010.05.17/outbox.cif.g08.bks.cpg/sg12_116_cif.got.tgz:230624.got - 2010.06.03 13:09:07.
