data_PCOD9217373
_publ_section_title
;
Structure prediction by ZEFSAII (Michael W. Deem and Ramdas Pophale) SiO2 
 PCOD9217373
Probable space group: C 2/M
;
_chemical_formula_sum "Si O2"
_cell_formula_units_Z 60
_cell_length_a 18.174213
_cell_length_b 15.434931
_cell_length_c 16.944114
_cell_angle_alpha 90.000000
_cell_angle_beta 148.277869
_cell_angle_gamma 90.000000
_cell_volume 2499.193916
_symmetry_space_group_name_H-M "C 2/M"
_symmetry_group_IT_number 12
_symmetry_cell_setting 'monoclinic'
loop_
_space_group_symop_operation_xyz
x,y,z
-x,y,-z
-x,-y,-z
x,-y,z
1/2+x,1/2+y,z
1/2-x,1/2+y,-z
1/2-x,1/2-y,-z
1/2+x,1/2-y,z
loop_
_atom_site_type_symbol
_atom_site_label
_atom_site_fract_x
_atom_site_fract_y
_atom_site_fract_z
Si Si1 0.450503 0.000000 0.664498
Si Si2 0.090021 0.352656 0.871411
Si Si3 0.866183 0.097641 0.701380
Si Si4 0.907145 0.648192 0.492225
Si Si5 0.186385 0.904548 0.049645
Si Si6 0.473635 0.301805 0.663795
Si Si7 0.128649 0.097539 0.677973
Si Si8 0.852403 0.728501 0.907104
O O1 0.467415 0.077734 0.747091
O O2 0.455729 0.076522 0.600104
O O3 0.219402 0.396107 0.942588
O O4 0.059982 0.262456 0.799065
O O5 0.119368 0.326149 0.987245
O O6 0.860207 0.155157 0.617562
O O7 0.824667 0.000000 0.639386
O O8 0.000000 0.257424 0.000000
O O9 0.023271 0.098333 0.876584
O O10 0.742558 0.628951 0.332846
O O11 0.000000 0.643187 0.500000
O O12 0.919638 0.740999 0.545036
O O13 0.212686 0.820709 0.126815
O O14 0.214331 0.000000 0.110430
O O15 0.566067 0.374973 0.706092
O O16 0.242520 0.169864 0.759874
O O17 0.000000 0.098675 0.500000
O O18 0.186182 0.000000 0.733123
#
# Coordination Sequence:
#
# PCOD9217373 Si02
#       8
#     4   8   8   8   8   8   8   8
#     4  10  23  42  71 101 137 196 251 310 355 458
#     4  11  22  46  73 104 136 189 261 299 371 442
#     4  11  23  41  66 105 142 189 245 304 366 437
#     4  11  24  44  69 103 151 196 243 304 385 452
#     4  11  23  45  76 105 140 189 248 317 362 448
#     4  11  22  43  74 102 138 193 248 307 361 441
#     4  11  26  49  73 109 149 198 247 305 383 450
#     4  12  27  48  74 108 154 197 247 315 380 443
#
# _framework density 24.007739999999998
#
# number of rings (size 3 to 8) (size 9 to 14) (size 15 to 20)
#    0.000    0.933    4.000    2.600    0.933    3.733 
#    4.800    0.000    0.000    0.400    0.000    0.000 
#    0.000    0.000    0.000    0.000    0.000    0.000 
#
# Total GULP energy -167580.869787 kJ/mol
# GULP energy per Si atom -5586.028993 kJ/mol
# Density = 2.395310 g / cm^3
# Si number density = 24.007740 Si / 1000 Ang^3
#
#
#
# Elastic Constant Matrix: (Units=GPa)
#
#
# Indices 1 2 3 4 5 6 
#
# 1 94.2841 28.8783 3.7361 0.0001 10.0972 0.0000
# 2 28.8783 178.9044 22.1981 0.0000 -8.8960 0.0000
# 3 3.7361 22.1981 47.1684 0.0000 -18.5482 0.0000
# 4 0.0001 0.0000 0.0000 -11.5674 -0.0001 -24.5903
# 5 10.0972 -8.8960 -18.5482 -0.0001 20.5790 -0.0003
# 6 0.0000 0.0000 0.0000 -24.5903 -0.0003 -18.3324
#
#
#
# Elastic Compliance Matrix: (Units=1/GPa)
#
#
# Indices 1 2 3 4 5 6 
#
# 1 0.012578 -0.002036 -0.004354 0.000000 -0.010976 0.000000
# 2 -0.002036 0.006266 -0.002060 0.000000 0.001851 0.000000
# 3 -0.004354 -0.002060 0.035635 0.000000 0.033364 0.000000
# 4 0.000000 0.000000 0.000000 0.046692 -0.000001 -0.062630
# 5 -0.010976 0.001851 0.033364 -0.000001 0.084851 0.000000
# 6 0.000000 0.000000 0.000000 -0.062630 0.000000 0.029462
#
#
# Mechanical properties :
#
#
# Convention : Reuss Voigt Hill
#
# Bulk Modulus (GPa) = 26.61061 47.77575 37.19318
# Shear Modulus (GPa) = 20.41582 15.83882 18.12732
#
# Velocity S-wave (km/s) = 2.91930 2.57132 2.75082
# Velocity P-wave (km/s) = 4.74039 5.36274 5.06114
#
# Compressibility (1/GPa) = 0.03757900
#
# Stress axis : x y z
#
# Youngs Moduli (GPa) = 79.50523 159.59696 28.06244
#
# Poissons Ratio (x) = 0.32490 0.12219
# Poissons Ratio (y) = 0.16186 0.05780
# Poissons Ratio (z) = 0.34619 0.32870
#
# Static dielectric constant tensor:
#      x y z
#    x 1.910750 0.000000 0.095070 
#    y 0.000000 1.920300 0.000000 
#    z 0.095070 0.000000 2.059700 
# 
# From -- ./inp_files/233904.got.cif
#   From: 2010.05.17/outbox.cif.g08.bks.cpg/sg12_117_cif.got.tgz:233904.got - 2010.06.03 13:09:07.
