data_PCOD9217780
_publ_section_title
;
Structure prediction by ZEFSAII (Michael W. Deem and Ramdas Pophale) SiO2 
 PCOD9217780
Probable space group: C 2/M
;
_chemical_formula_sum "Si O2"
_cell_formula_units_Z 48
_cell_length_a 12.223200
_cell_length_b 19.328266
_cell_length_c 25.484060
_cell_angle_alpha 90.000000
_cell_angle_beta 158.002397
_cell_angle_gamma 90.000000
_cell_volume 2255.157484
_symmetry_space_group_name_H-M "C 2/M"
_symmetry_group_IT_number 12
_symmetry_cell_setting 'monoclinic'
loop_
_space_group_symop_operation_xyz
x,y,z
-x,y,-z
-x,-y,-z
x,-y,z
1/2+x,1/2+y,z
1/2-x,1/2+y,-z
1/2-x,1/2-y,-z
1/2+x,1/2-y,z
loop_
_atom_site_type_symbol
_atom_site_label
_atom_site_fract_x
_atom_site_fract_y
_atom_site_fract_z
Si Si1 0.639752 0.625345 0.222693
Si Si2 0.254168 0.157465 0.155615
Si Si3 0.695450 0.079993 0.280982
Si Si4 0.727551 0.332323 0.474846
Si Si5 0.026175 0.425239 0.935001
Si Si6 0.560359 0.686107 0.761887
O O1 0.628680 0.641426 0.156570
O O2 0.557291 0.679230 0.231624
O O3 0.986717 0.620984 0.386773
O O4 0.361236 0.574868 0.102884
O O5 0.502279 0.106508 0.243641
O O6 0.374667 0.234094 0.215912
O O7 0.000000 0.157507 0.000000
O O8 0.506926 0.081761 0.142892
O O9 0.961827 0.132197 0.388239
O O10 0.786865 0.000000 0.329075
O O11 0.750000 0.250000 0.500000
O O12 0.657399 0.335733 0.381619
O O13 0.891733 0.500000 0.888821
O O14 0.843552 0.362068 0.878017
#
# Coordination Sequence:
#
# PCOD9217780 Si02
#       6
#     8   8   8   8   8   8
#     4  12  24  40  66 101 130 178 225 274 339 398
#     4  12  24  40  70 100 137 176 227 284 332 406
#     4  10  24  45  69  99 140 183 225 279 343 400
#     4  11  23  45  70  97 138 184 228 280 335 403
#     4  10  23  45  69  98 137 180 226 281 340 403
#     4  11  25  42  69 101 139 177 225 283 341 403
#
# _framework density 21.284545000000001
#
# number of rings (size 3 to 8) (size 9 to 14) (size 15 to 20)
#    0.000    1.000    3.333    3.000    2.333    5.000 
#    0.000    0.833    0.000    5.000    0.000    0.000 
#    0.000    0.000    0.000    0.000    0.000    0.000 
#
# Total GULP energy -133823.288847 kJ/mol
# GULP energy per Si atom -5575.970369 kJ/mol
# Density = 2.123610 g / cm^3
# Si number density = 21.284545 Si / 1000 Ang^3
#
#
#
# Elastic Constant Matrix: (Units=GPa)
#
#
# Indices 1 2 3 4 5 6 
#
# 1 125.6882 20.0109 20.3644 1.2112 -0.0464 -0.9440
# 2 20.0109 108.0305 38.8986 1.1343 15.9958 -0.8914
# 3 20.3644 38.8986 132.8672 3.5198 -1.8875 -2.7434
# 4 1.2112 1.1343 3.5198 -279.3898 -1.2166 243.2993
# 5 -0.0464 15.9958 -1.8875 -1.2166 40.0076 0.9537
# 6 -0.9440 -0.8914 -2.7434 243.2993 0.9537 -169.1917
#
#
#
# Elastic Compliance Matrix: (Units=1/GPa)
#
#
# Indices 1 2 3 4 5 6 
#
# 1 0.008306 -0.001290 -0.000889 0.000008 0.000484 -0.000011
# 2 -0.001290 0.011337 -0.003188 0.000012 -0.004684 -0.000010
# 3 -0.000889 -0.003188 0.008618 0.000040 0.001683 -0.000051
# 4 0.000008 0.000012 0.000040 0.014189 -0.000058 0.020403
# 5 0.000484 -0.004684 0.001683 -0.000058 0.026945 0.000063
# 6 -0.000011 -0.000010 -0.000051 0.020403 0.000063 0.023431
#
#
# Mechanical properties :
#
#
# Convention : Reuss Voigt Hill
#
# Bulk Modulus (GPa) = 57.05969 58.34818 57.70393
# Shear Modulus (GPa) = 45.70273 -62.56066 -8.42896
#
# Velocity S-wave (km/s) = 4.63884 -5.42737 -1.99217
# Velocity P-wave (km/s) = 7.45373 3.43543 4.67739
#
# Compressibility (1/GPa) = 0.01752551
#
# Stress axis : x y z
#
# Youngs Moduli (GPa) = 120.39999 88.20644 116.03940
#
# Poissons Ratio (x) = 0.11381 0.10314
# Poissons Ratio (y) = 0.15535 0.36998
# Poissons Ratio (z) = 0.10701 0.28123
#
# Static dielectric constant tensor:
#      x y z
#    x 1.823320 0.000000 0.045920 
#    y 0.000000 1.720400 -0.000020 
#    z 0.045920 -0.000020 1.858770 
# 
# From -- ./inp_files/359067.got.cif
#   From: 2010.05.17/outbox.cif.g08.bks.cpg/sg12_180_cif.got.tgz:359067.got - 2010.06.03 13:09:07.
