data_PCOD9217855
_publ_section_title
;
Structure prediction by ZEFSAII (Michael W. Deem and Ramdas Pophale) SiO2 
 PCOD9217855
Probable space group: C 2/M
;
_chemical_formula_sum "Si O2"
_cell_formula_units_Z 58
_cell_length_a 12.925743
_cell_length_b 18.303152
_cell_length_c 16.532020
_cell_angle_alpha 90.000000
_cell_angle_beta 138.696418
_cell_angle_gamma 90.000000
_cell_volume 2581.566172
_symmetry_space_group_name_H-M "C 2/M"
_symmetry_group_IT_number 12
_symmetry_cell_setting 'monoclinic'
loop_
_space_group_symop_operation_xyz
x,y,z
-x,y,-z
-x,-y,-z
x,-y,z
1/2+x,1/2+y,z
1/2-x,1/2+y,-z
1/2-x,1/2-y,-z
1/2+x,1/2-y,z
loop_
_atom_site_type_symbol
_atom_site_label
_atom_site_fract_x
_atom_site_fract_y
_atom_site_fract_z
Si Si1 0.492316 0.743256 0.105986
Si Si2 0.791660 0.581847 0.572379
Si Si3 0.905041 0.921029 0.782914
Si Si4 0.179017 0.264823 0.830740
Si Si5 0.014972 0.119738 0.673371
Si Si6 0.568830 0.869813 0.623018
Si Si7 0.333624 0.111512 0.780557
Si Si8 0.500000 0.000000 0.000000
O O1 0.535880 0.657861 0.148159
O O2 0.638179 0.741229 0.040713
O O3 0.399254 0.779039 0.127947
O O4 0.633471 0.802131 0.185640
O O5 0.726227 0.500000 0.530151
O O6 0.643806 0.633813 0.469015
O O7 0.856195 0.594965 0.699596
O O8 0.924776 0.590736 0.583111
O O9 0.717091 0.916863 0.680745
O O10 0.961463 0.921738 0.722984
O O11 0.957481 0.000000 0.850007
O O12 0.092532 0.191883 0.753774
O O13 0.138125 0.320553 0.735755
O O14 0.156218 0.089209 0.702041
O O15 0.500000 0.833823 0.500000
O O16 0.446867 0.064031 0.903427
#
# Coordination Sequence:
#
# PCOD9217855 Si02
#       8
#     8   8   8   8   8   8   8   2
#     4  10  23  49  78 106 154 198 249 318 380 445
#     4  12  26  46  71 105 151 196 252 314 371 454
#     4  11  25  45  74 113 148 200 254 307 377 452
#     4  10  23  46  75 109 142 199 250 314 374 448
#     4  11  25  42  72 105 150 195 244 308 377 448
#     4  12  25  45  74 106 152 198 252 313 379 446
#     4  12  25  47  74 112 148 196 251 308 385 447
#     4  12  28  44  78 112 146 198 244 310 378 442
#
# _framework density 22.466982000000002
#
# number of rings (size 3 to 8) (size 9 to 14) (size 15 to 20)
#    0.000    0.828    3.448    2.897    1.931    5.517 
#    0.000    2.069    0.000    0.000    0.000    0.000 
#    0.000    0.000    0.000    0.000    0.000    0.000 
#
# Total GULP energy -161554.073124 kJ/mol
# GULP energy per Si atom -5570.830108 kJ/mol
# Density = 2.241585 g / cm^3
# Si number density = 22.466982 Si / 1000 Ang^3
#
#
#
# Elastic Constant Matrix: (Units=GPa)
#
#
# Indices 1 2 3 4 5 6 
#
# 1 130.4044 33.4226 57.6561 0.0000 3.9637 0.0000
# 2 33.4226 107.9225 43.1784 0.0000 4.0491 0.0000
# 3 57.6561 43.1784 138.2611 -0.0001 -12.6939 -0.0001
# 4 0.0000 0.0000 -0.0001 59.1967 0.0000 -40.4099
# 5 3.9637 4.0491 -12.6939 0.0000 42.5925 0.0000
# 6 0.0000 0.0000 -0.0001 -40.4099 0.0000 -1.1409
#
#
#
# Elastic Compliance Matrix: (Units=1/GPa)
#
#
# Indices 1 2 3 4 5 6 
#
# 1 0.009776 -0.001434 -0.003804 0.000000 -0.001907 0.000000
# 2 -0.001434 0.010976 -0.002995 0.000000 -0.001803 0.000000
# 3 -0.003804 -0.002995 0.010089 0.000000 0.003646 0.000000
# 4 0.000000 0.000000 0.000000 0.000671 0.000000 -0.023764
# 5 -0.001907 -0.001803 0.003646 0.000000 0.024914 0.000000
# 6 0.000000 0.000000 0.000000 -0.023764 0.000000 -0.034812
#
#
# Mechanical properties :
#
#
# Convention : Reuss Voigt Hill
#
# Bulk Modulus (GPa) = 69.56744 71.67804 70.62274
# Shear Modulus (GPa) = 116.62720 36.28506 76.45613
#
# Velocity S-wave (km/s) = 7.21271 4.02311 5.83989
# Velocity P-wave (km/s) = 10.01977 7.31803 8.77352
#
# Compressibility (1/GPa) = 0.01437454
#
# Stress axis : x y z
#
# Youngs Moduli (GPa) = 102.29374 91.10773 99.11749
#
# Poissons Ratio (x) = 0.13065 0.37703
# Poissons Ratio (y) = 0.14670 0.29688
# Poissons Ratio (z) = 0.38911 0.27289
#
# Static dielectric constant tensor:
#      x y z
#    x 1.934290 0.000000 0.016490 
#    y 0.000000 1.850550 0.000000 
#    z 0.016490 0.000000 1.808060 
# 
# From -- ./inp_files/265282.got.cif
#   From: 2010.05.17/outbox.cif.g08.bks.cpg/sg12_133_cif.got.tgz:265282.got - 2010.06.03 13:09:07.
