data_PCOD9217258
_publ_section_title
;
Structure prediction by ZEFSAII (Michael W. Deem and Ramdas Pophale) SiO2 
 PCOD9217258
Probable space group: C 2/M
;
_chemical_formula_sum "Si O2"
_cell_formula_units_Z 64
_cell_length_a 9.647497
_cell_length_b 26.369802
_cell_length_c 14.572865
_cell_angle_alpha 90.000000
_cell_angle_beta 53.441591
_cell_angle_gamma 90.000000
_cell_volume 2977.948831
_symmetry_space_group_name_H-M "C 2/M"
_symmetry_group_IT_number 12
_symmetry_cell_setting 'monoclinic'
loop_
_space_group_symop_operation_xyz
x,y,z
-x,y,-z
-x,-y,-z
x,-y,z
1/2+x,1/2+y,z
1/2-x,1/2+y,-z
1/2-x,1/2-y,-z
1/2+x,1/2-y,z
loop_
_atom_site_type_symbol
_atom_site_label
_atom_site_fract_x
_atom_site_fract_y
_atom_site_fract_z
Si Si1 0.806335 0.711363 0.753194
Si Si2 0.303140 0.360643 0.048204
Si Si3 0.847562 0.441209 0.495960
Si Si4 0.964352 0.559720 0.905680
Si Si5 0.330404 0.804324 0.451043
Si Si6 0.057499 0.119271 0.647667
Si Si7 0.779977 0.384392 0.331583
Si Si8 0.574377 0.697697 0.165787
O O1 0.794847 0.663303 0.826299
O O2 0.615384 0.716465 0.788234
O O3 0.848643 0.761654 0.794762
O O4 0.962758 0.700699 0.621278
O O5 0.212128 0.411115 0.048612
O O6 0.500000 0.369793 0.000000
O O7 0.311034 0.316654 0.967243
O O8 0.880849 0.500000 0.469284
O O9 0.666474 0.431353 0.618901
O O10 0.829186 0.416504 0.402884
O O11 0.000000 0.420012 0.500000
O O12 0.966404 0.500000 0.878495
O O13 0.105646 0.592751 0.794821
O O14 0.000000 0.562548 0.000000
O O15 0.250000 0.750000 0.500000
O O16 0.209319 0.841402 0.558702
O O17 0.307243 0.826796 0.356511
O O18 0.916506 0.111832 0.624473
O O19 0.959095 0.144253 0.770427
#
# Coordination Sequence:
#
# PCOD9217258 Si02
#       8
#     8   8   8   8   8   8   8   8
#     4  11  24  41  64  93 132 182 227 279 338 407
#     4  10  23  45  66  94 133 174 227 283 346 412
#     4  10  23  42  65  93 128 173 224 275 343 420
#     4  11  24  43  72 104 133 175 233 296 355 412
#     4  11  22  39  63  95 134 171 224 271 330 404
#     4  11  25  39  63  96 132 175 222 276 335 403
#     4  11  24  44  67  97 137 182 225 280 349 410
#     4  11  25  40  64  95 132 176 228 277 338 406
#
# _framework density 21.491302000000001
#
# number of rings (size 3 to 8) (size 9 to 14) (size 15 to 20)
#    0.000    1.250    2.500    3.000    5.250    3.750 
#    0.000    0.625    0.000    0.000    0.000    0.000 
#    0.000    0.000    0.000    0.000    0.000    0.000 
#
# Total GULP energy -178760.107833 kJ/mol
# GULP energy per Si atom -5586.253370 kJ/mol
# Density = 2.144239 g / cm^3
# Si number density = 21.491302 Si / 1000 Ang^3
#
#
#
# Elastic Constant Matrix: (Units=GPa)
#
#
# Indices 1 2 3 4 5 6 
#
# 1 124.3025 32.6991 20.7773 0.0000 -3.1755 0.0000
# 2 32.6991 82.9122 41.7233 0.0000 5.7063 0.0000
# 3 20.7773 41.7233 83.1329 0.0000 -6.1261 0.0000
# 4 0.0000 0.0000 0.0000 33.2807 0.0000 7.4246
# 5 -3.1755 5.7063 -6.1261 0.0000 29.1438 0.0000
# 6 0.0000 0.0000 0.0000 7.4246 0.0000 29.5657
#
#
#
# Elastic Compliance Matrix: (Units=1/GPa)
#
#
# Indices 1 2 3 4 5 6 
#
# 1 0.009069 -0.003484 -0.000401 0.000000 0.001586 0.000000
# 2 -0.003484 0.018206 -0.008692 0.000000 -0.005771 0.000000
# 3 -0.000401 -0.008692 0.016875 0.000000 0.005205 0.000000
# 4 0.000000 0.000000 0.000000 0.031831 0.000000 -0.007993
# 5 0.001586 -0.005771 0.005205 0.000000 0.036710 0.000000
# 6 0.000000 0.000000 0.000000 -0.007993 0.000000 0.035830
#
#
# Mechanical properties :
#
#
# Convention : Reuss Voigt Hill
#
# Bulk Modulus (GPa) = 52.64239 53.41634 53.02936
# Shear Modulus (GPa) = 27.77668 31.40791 29.59229
#
# Velocity S-wave (km/s) = 3.59898 3.82700 3.71474
# Velocity P-wave (km/s) = 6.46670 6.66609 6.56715
#
# Compressibility (1/GPa) = 0.01899610
#
# Stress axis : x y z
#
# Youngs Moduli (GPa) = 110.26646 54.92639 59.25856
#
# Poissons Ratio (x) = 0.19136 0.02377
# Poissons Ratio (y) = 0.38416 0.51508
# Poissons Ratio (z) = 0.04424 0.47742
#
# Static dielectric constant tensor:
#      x y z
#    x 1.793460 0.000000 0.007430 
#    y 0.000000 1.808060 0.000000 
#    z 0.007430 0.000000 1.821440 
# 
# From -- ./inp_files/201291.got.cif
#   From: 2010.05.17/outbox.cif.g08.bks.cpg/sg12_101_cif.got.tgz:201291.got - 2010.06.03 13:09:07.
