data_PCOD9217097
_publ_section_title
;
Structure prediction by ZEFSAII (Michael W. Deem and Ramdas Pophale) SiO2 
 PCOD9217097
Probable space group: C 2/M
;
_chemical_formula_sum "Si O2"
_cell_formula_units_Z 50
_cell_length_a 12.491608
_cell_length_b 26.056848
_cell_length_c 9.757889
_cell_angle_alpha 90.000000
_cell_angle_beta 49.448512
_cell_angle_gamma 90.000000
_cell_volume 2413.281525
_symmetry_space_group_name_H-M "C 2/M"
_symmetry_group_IT_number 12
_symmetry_cell_setting 'monoclinic'
loop_
_space_group_symop_operation_xyz
x,y,z
-x,y,-z
-x,-y,-z
x,-y,z
1/2+x,1/2+y,z
1/2-x,1/2+y,-z
1/2-x,1/2-y,-z
1/2+x,1/2-y,z
loop_
_atom_site_type_symbol
_atom_site_label
_atom_site_fract_x
_atom_site_fract_y
_atom_site_fract_z
Si Si1 0.773384 0.153871 0.805955
Si Si2 0.000000 0.725444 0.000000
Si Si3 0.709630 0.058182 0.318227
Si Si4 0.789719 0.364744 0.428259
Si Si5 0.035280 0.811650 0.745518
Si Si6 0.500000 0.600074 0.000000
Si Si7 0.075508 0.591938 0.154142
Si Si8 0.000000 0.500000 0.000000
O O1 0.645420 0.193868 0.889884
O O2 0.783957 0.122385 0.655194
O O3 0.916457 0.182229 0.728292
O O4 0.715344 0.116182 0.971526
O O5 0.011778 0.762134 0.857507
O O6 0.714252 0.092871 0.449603
O O7 0.862232 0.065453 0.121522
O O8 0.604025 0.075121 0.285876
O O9 0.683095 0.000000 0.379325
O O10 0.696023 0.317361 0.559471
O O11 0.955664 0.363825 0.257636
O O12 0.008210 0.861204 0.864825
O O13 0.025509 0.545622 0.097452
#
# Coordination Sequence:
#
# PCOD9217097 Si02
#       8
#     8   4   8   8   8   4   8   2
#     4  12  22  45  68  93 132 173 214 266 338 395
#     4  11  23  44  73  99 119 169 224 273 321 416
#     4  11  23  38  65  96 132 177 227 266 316 381
#     4  11  24  41  61  97 132 168 207 278 324 378
#     4  10  23  41  68  94 130 168 213 266 334 393
#     4   9  19  40  62  90 136 170 214 263 327 382
#     4  12  23  41  68  93 134 181 220 266 325 383
#     4  12  22  40  68 100 132 176 236 274 300 388
#
# _framework density 20.718675999999999
#
# number of rings (size 3 to 8) (size 9 to 14) (size 15 to 20)
#    0.000    0.960    5.600    1.680    1.120    1.280 
#    0.000    0.000    0.000    2.880    0.000    0.000 
#    0.000    0.000    0.000    0.000    0.000    0.000 
#
# Total GULP energy -139235.222021 kJ/mol
# GULP energy per Si atom -5569.408881 kJ/mol
# Density = 2.067152 g / cm^3
# Si number density = 20.718676 Si / 1000 Ang^3
#
#
#
# Elastic Constant Matrix: (Units=GPa)
#
#
# Indices 1 2 3 4 5 6 
#
# 1 133.5100 47.9413 37.4172 0.0000 14.4651 0.0000
# 2 47.9413 83.2579 25.9688 0.0000 10.4203 0.0000
# 3 37.4172 25.9688 90.8759 0.0000 15.4635 0.0000
# 4 0.0000 0.0000 0.0000 19.5028 0.0000 4.2015
# 5 14.4651 10.4203 15.4635 0.0000 44.7917 0.0000
# 6 0.0000 0.0000 0.0000 4.2015 0.0000 22.7434
#
#
#
# Elastic Compliance Matrix: (Units=1/GPa)
#
#
# Indices 1 2 3 4 5 6 
#
# 1 0.010084 -0.004854 -0.002553 0.000000 -0.001246 0.000000
# 2 -0.004854 0.015673 -0.002259 0.000000 -0.001299 0.000000
# 3 -0.002553 -0.002259 0.013249 0.000000 -0.003224 0.000000
# 4 0.000000 0.000000 0.000000 0.053400 0.000000 -0.009865
# 5 -0.001246 -0.001299 -0.003224 0.000000 0.024143 0.000000
# 6 0.000000 0.000000 0.000000 -0.009865 0.000000 0.045791
#
#
# Mechanical properties :
#
#
# Convention : Reuss Voigt Hill
#
# Bulk Modulus (GPa) = 50.82850 58.92204 54.87527
# Shear Modulus (GPa) = 26.56324 30.49534 28.52929
#
# Velocity S-wave (km/s) = 3.58452 3.84067 3.71480
# Velocity P-wave (km/s) = 6.45892 6.94035 6.70396
#
# Compressibility (1/GPa) = 0.01967400
#
# Stress axis : x y z
#
# Youngs Moduli (GPa) = 99.17187 63.80342 75.47598
#
# Poissons Ratio (x) = 0.30971 0.19266
# Poissons Ratio (y) = 0.48139 0.17051
# Poissons Ratio (z) = 0.25315 0.14414
#
# Static dielectric constant tensor:
#      x y z
#    x 1.752240 0.000000 -0.002890 
#    y 0.000000 1.693900 0.000000 
#    z -0.002890 0.000000 1.826870 
# 
# From -- ./inp_files/53127.got.cif
#   From: 2010.05.17/outbox.cif.g08.bks.cpg/sg12_27_cif.got.tgz:53127.got - 2010.06.03 13:09:07.
