data_PCOD9217074
_publ_section_title
;
Structure prediction by ZEFSAII (Michael W. Deem and Ramdas Pophale) SiO2 
 PCOD9217074
Probable space group: C 2/M
;
_chemical_formula_sum "Si O2"
_cell_formula_units_Z 48
_cell_length_a 9.170931
_cell_length_b 21.290767
_cell_length_c 13.055762
_cell_angle_alpha 90.000000
_cell_angle_beta 116.402978
_cell_angle_gamma 90.000000
_cell_volume 2283.305527
_symmetry_space_group_name_H-M "C 2/M"
_symmetry_group_IT_number 12
_symmetry_cell_setting 'monoclinic'
loop_
_space_group_symop_operation_xyz
x,y,z
-x,y,-z
-x,-y,-z
x,-y,z
1/2+x,1/2+y,z
1/2-x,1/2+y,-z
1/2-x,1/2-y,-z
1/2+x,1/2-y,z
loop_
_atom_site_type_symbol
_atom_site_label
_atom_site_fract_x
_atom_site_fract_y
_atom_site_fract_z
Si Si1 0.433740 0.429064 0.595873
Si Si2 0.257431 0.429845 0.157672
Si Si3 0.532539 0.874856 0.250689
Si Si4 0.153459 0.646721 0.620367
Si Si5 0.687124 0.720958 0.585992
Si Si6 0.339393 0.815136 0.014757
O O1 0.500000 0.422080 0.500000
O O2 0.366388 0.500000 0.578542
O O3 0.582939 0.424283 0.721812
O O4 0.297419 0.383110 0.598778
O O5 0.252514 0.500000 0.110058
O O6 0.110058 0.422698 0.193474
O O7 0.247363 0.373011 0.072914
O O8 0.423187 0.895210 0.312911
O O9 0.687021 0.832265 0.336774
O O10 0.403719 0.836257 0.144410
O O11 0.192819 0.718976 0.664737
O O12 0.000000 0.655812 0.500000
O O13 0.500000 0.703052 0.500000
O O14 0.750000 0.750000 0.500000
O O15 0.500000 0.802539 0.000000
O O16 0.250000 0.750000 0.000000
#
# Coordination Sequence:
#
# PCOD9217074 Si02
#       6
#     8   8   8   8   8   8
#     4  10  23  41  66  96 130 178 221 270 338 408
#     4  10  24  46  69  94 132 180 229 278 339 408
#     4  11  24  39  63  97 125 177 223 276 332 397
#     4  11  23  37  60  94 132 172 219 271 343 397
#     4  11  23  37  58  93 136 178 212 268 345 408
#     4  10  25  42  65  97 131 175 224 280 338 387
#
# _framework density 21.022154
#
# number of rings (size 3 to 8) (size 9 to 14) (size 15 to 20)
#    0.000    1.500    3.333    1.000    9.333    4.000 
#    0.000    0.000    0.000    2.500    0.000    0.000 
#    0.000    0.000    0.000    0.000    0.000    0.000 
#
# Total GULP energy -133835.174112 kJ/mol
# GULP energy per Si atom -5576.465588 kJ/mol
# Density = 2.097431 g / cm^3
# Si number density = 21.022154 Si / 1000 Ang^3
#
#
#
# Elastic Constant Matrix: (Units=GPa)
#
#
# Indices 1 2 3 4 5 6 
#
# 1 94.5785 47.2363 30.8483 0.0000 0.7121 0.0000
# 2 47.2363 145.6984 42.9820 0.0000 11.4237 0.0000
# 3 30.8483 42.9820 88.2214 0.0000 2.7390 0.0000
# 4 0.0000 0.0000 0.0000 173.5705 0.0000 -98.0185
# 5 0.7121 11.4237 2.7390 0.0000 31.4914 0.0000
# 6 0.0000 0.0000 0.0000 -98.0185 0.0000 88.1710
#
#
#
# Elastic Compliance Matrix: (Units=1/GPa)
#
#
# Indices 1 2 3 4 5 6 
#
# 1 0.013296 -0.003533 -0.002966 0.000000 0.001239 0.000000
# 2 -0.003533 0.009168 -0.003139 0.000000 -0.002973 0.000000
# 3 -0.002966 -0.003139 0.013902 0.000000 -0.000003 0.000000
# 4 0.000000 0.000000 0.000000 0.015479 0.000000 0.017208
# 5 0.001239 -0.002973 -0.000003 0.000000 0.032805 0.000000
# 6 0.000000 0.000000 0.000000 0.017208 0.000000 0.030471
#
#
# Mechanical properties :
#
#
# Convention : Reuss Voigt Hill
#
# Bulk Modulus (GPa) = 58.51644 63.40349 60.95997
# Shear Modulus (GPa) = 35.69044 72.47537 54.08291
#
# Velocity S-wave (km/s) = 4.12485 5.87797 5.07764
# Velocity P-wave (km/s) = 7.11210 8.73460 7.96477
#
# Compressibility (1/GPa) = 0.01708921
#
# Stress axis : x y z
#
# Youngs Moduli (GPa) = 75.21187 109.07593 71.93252
#
# Poissons Ratio (x) = 0.38532 0.21339
# Poissons Ratio (y) = 0.26569 0.22581
# Poissons Ratio (z) = 0.22312 0.34240
#
# Static dielectric constant tensor:
#      x y z
#    x 1.804390 0.000000 -0.037130 
#    y 0.000000 1.853380 0.000000 
#    z -0.037130 0.000000 1.779860 
# 
# From -- ./inp_files/122580.got.cif
#   From: 2010.05.17/outbox.cif.g08.bks.cpg/sg12_62_cif.got.tgz:122580.got - 2010.06.03 13:09:07.
