data_PCOD9217943
_publ_section_title
;
Structure prediction by ZEFSAII (Michael W. Deem and Ramdas Pophale) SiO2 
 PCOD9217943
Probable space group: C 2/M
;
_chemical_formula_sum "Si O2"
_cell_formula_units_Z 38
_cell_length_a 16.584477
_cell_length_b 14.020901
_cell_length_c 9.065696
_cell_angle_alpha 90.000000
_cell_angle_beta 115.997101
_cell_angle_gamma 90.000000
_cell_volume 1894.740589
_symmetry_space_group_name_H-M "C 2/M"
_symmetry_group_IT_number 12
_symmetry_cell_setting 'monoclinic'
loop_
_space_group_symop_operation_xyz
x,y,z
-x,y,-z
-x,-y,-z
x,-y,z
1/2+x,1/2+y,z
1/2-x,1/2+y,-z
1/2-x,1/2-y,-z
1/2+x,1/2-y,z
loop_
_atom_site_type_symbol
_atom_site_label
_atom_site_fract_x
_atom_site_fract_y
_atom_site_fract_z
Si Si1 0.203572 0.000000 0.505072
Si Si2 0.740783 0.212174 0.828218
Si Si3 0.094222 0.189835 0.501081
Si Si4 0.500000 0.000000 0.500000
Si Si5 0.076891 0.716040 0.170871
Si Si6 0.207946 0.500000 0.747252
Si Si7 0.405015 0.000000 0.750405
O O1 0.147692 0.095027 0.496327
O O2 0.240062 0.000000 0.367629
O O3 0.296699 0.000000 0.666696
O O4 0.655313 0.249640 0.664825
O O5 0.827623 0.246546 0.808542
O O6 0.736340 0.098835 0.840972
O O7 0.750000 0.250000 0.000000
O O8 0.071560 0.251265 0.336907
O O9 0.000000 0.164628 0.500000
O O10 0.600390 0.000000 0.654015
O O11 0.450012 0.000000 0.624572
O O12 0.071497 0.601780 0.162213
O O13 0.000000 0.754991 0.000000
#
# Coordination Sequence:
#
# PCOD9217943 Si02
#       7
#     4   8   8   2   8   4   4
#     4  11  21  47  72 103 141 189 235 291 356 412
#     4  12  27  47  73 104 144 188 235 295 352 424
#     4  12  25  45  74 105 142 190 239 287 353 420
#     4  10  24  38  72 106 138 180 228 292 356 422
#     4  12  26  46  71 104 140 186 235 295 353 422
#     4  11  25  45  70 107 143 181 234 296 361 409
#     4  11  24  42  70 102 143 179 234 299 354 412
#
# _framework density 20.055515
#
# number of rings (size 3 to 8) (size 9 to 14) (size 15 to 20)
#    0.000    0.421    4.211    5.053    8.842    1.684 
#    0.000    4.211    0.000    0.000    0.000    0.000 
#    0.000    0.000    0.000    0.000    0.000    0.000 
#
# Total GULP energy -105931.501192 kJ/mol
# GULP energy per Si atom -5575.342168 kJ/mol
# Density = 2.000987 g / cm^3
# Si number density = 20.055515 Si / 1000 Ang^3
#
#
#
# Elastic Constant Matrix: (Units=GPa)
#
#
# Indices 1 2 3 4 5 6 
#
# 1 146.0982 30.9235 34.7957 0.0000 9.0397 0.0000
# 2 30.9235 155.8507 48.1476 0.0000 0.7724 0.0000
# 3 34.7957 48.1476 132.0328 0.0000 14.2782 0.0000
# 4 0.0000 0.0000 0.0000 -4.0964 0.0000 -18.0003
# 5 9.0397 0.7724 14.2782 0.0000 21.8508 0.0000
# 6 0.0000 0.0000 0.0000 -18.0003 0.0000 6.3548
#
#
#
# Elastic Compliance Matrix: (Units=1/GPa)
#
#
# Indices 1 2 3 4 5 6 
#
# 1 0.007529 -0.001063 -0.001360 0.000000 -0.002189 0.000000
# 2 -0.001063 0.007432 -0.002635 0.000000 0.001899 0.000000
# 3 -0.001360 -0.002635 0.009493 0.000000 -0.005548 0.000000
# 4 0.000000 0.000000 0.000000 -0.018154 0.000000 -0.051423
# 5 -0.002189 0.001899 -0.005548 0.000000 0.050228 0.000000
# 6 0.000000 0.000000 0.000000 -0.051423 0.000000 0.011703
#
#
# Mechanical properties :
#
#
# Convention : Reuss Voigt Hill
#
# Bulk Modulus (GPa) = 69.74597 73.52390 71.63494
# Shear Modulus (GPa) = 60.14923 26.16283 43.15603
#
# Velocity S-wave (km/s) = 5.48238 3.61573 4.64381
# Velocity P-wave (km/s) = 8.65605 7.36010 8.03425
#
# Compressibility (1/GPa) = 0.01433774
#
# Stress axis : x y z
#
# Youngs Moduli (GPa) = 132.82003 134.55201 105.33817
#
# Poissons Ratio (x) = 0.14302 0.14325
# Poissons Ratio (y) = 0.14118 0.27761
# Poissons Ratio (z) = 0.18062 0.35461
#
# Static dielectric constant tensor:
#      x y z
#    x 1.688170 0.000000 -0.018460 
#    y 0.000000 1.730270 0.000000 
#    z -0.018460 0.000000 1.765430 
# 
# From -- ./inp_files/59290.got.cif
#   From: 2010.05.17/outbox.cif.g08.bks.cpg/sg12_30_cif.got.tgz:59290.got - 2010.06.03 13:09:07.
