data_PCOD9217775
_publ_section_title
;
Structure prediction by ZEFSAII (Michael W. Deem and Ramdas Pophale) SiO2 
 PCOD9217775
Probable space group: C 2/M
;
_chemical_formula_sum "Si O2"
_cell_formula_units_Z 60
_cell_length_a 27.145560
_cell_length_b 20.014395
_cell_length_c 8.313633
_cell_angle_alpha 90.000000
_cell_angle_beta 137.479390
_cell_angle_gamma 90.000000
_cell_volume 3052.712401
_symmetry_space_group_name_H-M "C 2/M"
_symmetry_group_IT_number 12
_symmetry_cell_setting 'monoclinic'
loop_
_space_group_symop_operation_xyz
x,y,z
-x,y,-z
-x,-y,-z
x,-y,z
1/2+x,1/2+y,z
1/2-x,1/2+y,-z
1/2-x,1/2-y,-z
1/2+x,1/2-y,z
loop_
_atom_site_type_symbol
_atom_site_label
_atom_site_fract_x
_atom_site_fract_y
_atom_site_fract_z
Si Si1 0.816552 0.626550 0.958042
Si Si2 0.299425 0.120674 0.293884
Si Si3 0.528878 0.805817 0.741001
Si Si4 0.241298 0.500000 0.373920
Si Si5 0.934677 0.183092 0.945943
Si Si6 0.207368 0.235043 0.564254
Si Si7 0.549525 0.925766 0.278288
Si Si8 0.160426 0.928445 0.131608
O O1 0.802746 0.559243 0.826849
O O2 0.752461 0.679446 0.767606
O O3 0.816941 0.612568 0.149161
O O4 0.891647 0.661569 0.087206
O O5 0.298131 0.197286 0.346949
O O6 0.364470 0.084094 0.548420
O O7 0.220796 0.090612 0.145579
O O8 0.500000 0.780995 0.500000
O O9 0.475883 0.864814 0.672851
O O10 0.534518 0.745938 0.880924
O O11 0.290961 0.442977 0.592065
O O12 0.872127 0.209904 0.676708
O O13 0.896016 0.129894 0.969136
O O14 0.000000 0.152258 0.000000
O O15 0.250000 0.250000 0.500000
O O16 0.539130 0.000000 0.323964
O O17 0.500000 0.922117 0.000000
O O18 0.125333 0.000000 0.006275
#
# Coordination Sequence:
#
# PCOD9217775 Si02
#       8
#     8   8   8   4   8   8   8   8
#     4  12  25  39  68 101 136 175 220 281 337 404
#     4  12  23  40  65  96 134 172 221 281 336 393
#     4  12  25  43  61  99 144 182 216 270 338 397
#     4  10  24  42  68 101 129 173 227 281 332 410
#     4  12  25  44  72  98 131 175 230 284 334 400
#     4  12  21  43  68  98 126 175 230 272 330 398
#     4  11  26  40  61  93 131 180 225 263 321 407
#     4  10  23  45  69  96 125 171 226 284 342 399
#
# _framework density 19.654651999999999
#
# number of rings (size 3 to 8) (size 9 to 14) (size 15 to 20)
#    0.400    0.133    5.333    2.800    4.667    0.533 
#    0.000    0.000    0.000    0.400    0.000    0.000 
#    0.000    0.000    0.000    0.000    0.000    0.000 
#
# Total GULP energy -167188.570453 kJ/mol
# GULP energy per Si atom -5572.952348 kJ/mol
# Density = 1.960992 g / cm^3
# Si number density = 19.654652 Si / 1000 Ang^3
#
#
#
# Elastic Constant Matrix: (Units=GPa)
#
#
# Indices 1 2 3 4 5 6 
#
# 1 70.6179 4.4506 3.4150 0.0000 18.1720 0.0000
# 2 4.4506 93.6450 11.3587 0.0000 6.2735 0.0000
# 3 3.4150 11.3587 64.6946 0.0000 7.5070 0.0000
# 4 0.0000 0.0000 0.0000 4.5494 0.0000 -10.3988
# 5 18.1720 6.2735 7.5070 0.0000 23.4852 0.0000
# 6 0.0000 0.0000 0.0000 -10.3988 0.0000 -3.7290
#
#
#
# Elastic Compliance Matrix: (Units=1/GPa)
#
#
# Indices 1 2 3 4 5 6 
#
# 1 0.017710 0.000009 0.000679 0.000000 -0.013923 0.000000
# 2 0.000009 0.011042 -0.001658 0.000000 -0.002426 0.000000
# 3 0.000679 -0.001658 0.016328 0.000000 -0.005302 0.000000
# 4 0.000000 0.000000 0.000000 0.029808 0.000000 -0.083124
# 5 -0.013923 -0.002426 -0.005302 0.000000 0.055696 0.000000
# 6 0.000000 0.000000 0.000000 -0.083124 0.000000 -0.036366
#
#
# Mechanical properties :
#
#
# Convention : Reuss Voigt Hill
#
# Bulk Modulus (GPa) = 23.18028 29.71179 26.44603
# Shear Modulus (GPa) = 45.23372 18.84333 32.03853
#
# Velocity S-wave (km/s) = 4.80252 3.09968 4.04180
# Velocity P-wave (km/s) = 6.52470 5.28776 5.93852
#
# Compressibility (1/GPa) = 0.04314012
#
# Stress axis : x y z
#
# Youngs Moduli (GPa) = 56.46508 90.56474 61.24584
#
# Poissons Ratio (x) = -0.00078 -0.04160
# Poissons Ratio (y) = -0.00049 0.10152
# Poissons Ratio (z) = -0.03835 0.15012
#
# Static dielectric constant tensor:
#      x y z
#    x 1.720290 0.000000 -0.000500 
#    y 0.000000 1.682950 0.000000 
#    z -0.000500 0.000000 1.669900 
# 
# From -- ./inp_files/106571.got.cif
#   From: 2010.05.17/outbox.cif.g08.bks.cpg/sg12_54_cif.got.tgz:106571.got - 2010.06.03 13:09:07.
