data_PCOD9217935
_publ_section_title
;
Structure prediction by ZEFSAII (Michael W. Deem and Ramdas Pophale) SiO2 
 PCOD9217935
Probable space group: C 2/M
;
_chemical_formula_sum "Si O2"
_cell_formula_units_Z 64
_cell_length_a 8.936482
_cell_length_b 15.087690
_cell_length_c 30.840830
_cell_angle_alpha 90.000000
_cell_angle_beta 48.086373
_cell_angle_gamma 90.000000
_cell_volume 3094.407115
_symmetry_space_group_name_H-M "C 2/M"
_symmetry_group_IT_number 12
_symmetry_cell_setting 'monoclinic'
loop_
_space_group_symop_operation_xyz
x,y,z
-x,y,-z
-x,-y,-z
x,-y,z
1/2+x,1/2+y,z
1/2-x,1/2+y,-z
1/2-x,1/2-y,-z
1/2+x,1/2-y,z
loop_
_atom_site_type_symbol
_atom_site_label
_atom_site_fract_x
_atom_site_fract_y
_atom_site_fract_z
Si Si1 0.555596 0.902872 0.400024
Si Si2 0.905334 0.255438 0.778406
Si Si3 0.468112 0.396548 0.370330
Si Si4 0.967492 0.287314 0.859139
Si Si5 0.634681 0.898180 0.040938
Si Si6 0.351708 0.345511 0.487570
Si Si7 0.350373 0.218311 0.695611
Si Si8 0.811826 0.897807 0.914737
O O1 0.741260 0.881164 0.395886
O O2 0.344525 0.904060 0.465316
O O3 0.543926 0.832998 0.363527
O O4 0.597949 0.000000 0.373302
O O5 0.705481 0.195972 0.815792
O O6 0.916000 0.307269 0.731098
O O7 0.895199 0.310043 0.824956
O O8 0.112787 0.202101 0.739370
O O9 0.519568 0.500000 0.352889
O O10 0.463907 0.376288 0.422408
O O11 0.604587 0.322860 0.320395
O O12 0.852472 0.335072 0.920243
O O13 0.940676 0.181314 0.869985
O O14 0.409057 0.891740 0.064728
O O15 0.666150 0.000000 0.048130
O O16 0.780195 0.879647 0.972202
O O17 0.500000 0.345155 0.500000
O O18 0.250000 0.250000 0.500000
O O19 0.879991 0.000000 0.896224
#
# Coordination Sequence:
#
# PCOD9217935 Si02
#       8
#     8   8   8   8   8   8   8   8
#     4  11  24  43  68  94 124 161 203 248 306 372
#     4  10  24  38  63  83 122 156 212 252 302 350
#     4  11  24  43  68  94 124 161 203 248 306 372
#     4  11  19  40  59  91 116 163 195 256 302 352
#     4   9  18  34  59  90 122 158 198 239 295 370
#     4  12  25  40  65 100 130 164 193 245 310 373
#     4  11  22  45  61  89 117 164 201 262 300 352
#     4   9  18  34  59  90 122 158 198 239 295 370
#
# _framework density 20.682476000000001
#
# number of rings (size 3 to 8) (size 9 to 14) (size 15 to 20)
#    0.000    1.500    3.750    2.625    1.750    2.000 
#    0.000    8.125    0.000    1.500    0.000    0.000 
#    0.000    0.000    0.000    0.000    0.000    0.000 
#
# Total GULP energy -178631.568406 kJ/mol
# GULP energy per Si atom -5582.236513 kJ/mol
# Density = 2.063540 g / cm^3
# Si number density = 20.682476 Si / 1000 Ang^3
#
#
#
# Elastic Constant Matrix: (Units=GPa)
#
#
# Indices 1 2 3 4 5 6 
#
# 1 93.3028 19.6741 24.9979 -0.0007 23.1047 0.0005
# 2 19.6741 92.0086 36.7549 -0.0002 12.0685 0.0001
# 3 24.9979 36.7549 81.2653 -0.0005 23.1393 0.0006
# 4 -0.0007 -0.0002 -0.0005 1.8802 0.0005 -3.1181
# 5 23.1047 12.0685 23.1393 0.0005 44.1189 -0.0005
# 6 0.0005 0.0001 0.0006 -3.1181 -0.0005 9.9525
#
#
#
# Elastic Compliance Matrix: (Units=1/GPa)
#
#
# Indices 1 2 3 4 5 6 
#
# 1 0.012817 -0.001308 -0.001812 0.000009 -0.005404 0.000002
# 2 -0.001308 0.013411 -0.005659 -0.000001 -0.000016 0.000000
# 3 -0.001812 -0.005659 0.017294 0.000006 -0.006573 0.000001
# 4 0.000009 -0.000001 0.000006 1.107108 -0.000017 0.346857
# 5 -0.005404 -0.000016 -0.006573 -0.000017 0.028948 -0.000003
# 6 0.000002 0.000000 0.000001 0.346857 -0.000003 0.209147
#
#
# Mechanical properties :
#
#
# Convention : Reuss Voigt Hill
#
# Bulk Modulus (GPa) = 38.51494 47.71449 43.11471
# Shear Modulus (GPa) = 3.53372 23.53362 13.53367
#
# Velocity S-wave (km/s) = 1.30854 3.37687 2.56081
# Velocity P-wave (km/s) = 4.57662 6.19067 5.44380
#
# Compressibility (1/GPa) = 0.02596395
#
# Stress axis : x y z
#
# Youngs Moduli (GPa) = 78.01908 74.56699 57.82396
#
# Poissons Ratio (x) = 0.09752 0.10481
# Poissons Ratio (y) = 0.10204 0.32721
# Poissons Ratio (z) = 0.14141 0.42195
#
# Static dielectric constant tensor:
#      x y z
#    x 1.759060 0.000000 0.015150 
#    y 0.000000 1.868950 0.000000 
#    z 0.015150 0.000000 1.730310 
# 
# From -- ./inp_files/372539.got.cif
#   From: 2010.05.17/outbox.cif.g08.bks.cpg/sg12_187_cif.got.tgz:372539.got - 2010.06.03 13:09:07.
