data_PCOD9217459
_publ_section_title
;
Structure prediction by ZEFSAII (Michael W. Deem and Ramdas Pophale) SiO2 
 PCOD9217459
Probable space group: C 2/M
;
_chemical_formula_sum "Si O2"
_cell_formula_units_Z 38
_cell_length_a 12.783565
_cell_length_b 12.077611
_cell_length_c 13.447731
_cell_angle_alpha 90.000000
_cell_angle_beta 131.878123
_cell_angle_gamma 90.000000
_cell_volume 1545.914675
_symmetry_space_group_name_H-M "C 2/M"
_symmetry_group_IT_number 12
_symmetry_cell_setting 'monoclinic'
loop_
_space_group_symop_operation_xyz
x,y,z
-x,y,-z
-x,-y,-z
x,-y,z
1/2+x,1/2+y,z
1/2-x,1/2+y,-z
1/2-x,1/2-y,-z
1/2+x,1/2-y,z
loop_
_atom_site_type_symbol
_atom_site_label
_atom_site_fract_x
_atom_site_fract_y
_atom_site_fract_z
Si Si1 0.500000 0.500000 0.000000
Si Si2 0.500000 0.195617 0.500000
Si Si3 0.022272 0.379106 0.132207
Si Si4 0.061936 0.153834 0.855442
Si Si5 0.264501 0.624299 0.556931
Si Si6 0.163451 0.876940 0.716640
O O1 0.438116 0.595173 0.038319
O O2 0.629215 0.125666 0.542221
O O3 0.558664 0.280210 0.620224
O O4 0.991017 0.500000 0.153325
O O5 0.936426 0.284461 0.129629
O O6 0.189572 0.357203 0.245046
O O7 0.000000 0.379430 0.000000
O O8 0.910153 0.124585 0.710315
O O9 0.174527 0.122385 0.843231
O O10 0.262513 0.500000 0.503754
O O11 0.250000 0.750000 0.500000
O O12 0.113826 0.000000 0.657711
#
# Coordination Sequence:
#
# PCOD9217459 Si02
#       6
#     2   4   8   8   8   8
#     4  12  24  44  74  96 142 180 236 292 336 432
#     4  12  24  42  68 102 141 190 225 308 351 426
#     4  10  23  43  65  95 136 179 229 295 350 418
#     4  12  23  44  70 101 135 186 238 286 353 421
#     4  12  26  45  71 105 148 187 239 296 364 426
#     4  11  23  41  68 101 138 182 242 282 356 435
#
# _framework density 24.580918
#
# number of rings (size 3 to 8) (size 9 to 14) (size 15 to 20)
#    0.000    0.632    7.368    0.632    0.000    2.526 
#    0.000    0.000    0.000    0.000    0.000    0.000 
#    0.000    0.000    0.000    0.000    0.000    0.000 
#
# Total GULP energy -105943.705930 kJ/mol
# GULP energy per Si atom -5575.984523 kJ/mol
# Density = 2.452497 g / cm^3
# Si number density = 24.580918 Si / 1000 Ang^3
#
#
#
# Elastic Constant Matrix: (Units=GPa)
#
#
# Indices 1 2 3 4 5 6 
#
# 1 74.7329 35.5677 0.8087 0.0000 -11.0162 0.0000
# 2 35.5677 198.5744 14.4304 0.0000 -11.2780 0.0000
# 3 0.8087 14.4304 42.3633 0.0000 -0.4045 0.0000
# 4 0.0000 0.0000 0.0000 15.3524 0.0000 -41.0536
# 5 -11.0162 -11.2780 -0.4045 0.0000 40.6495 0.0000
# 6 0.0000 0.0000 0.0000 -41.0536 0.0000 -44.4421
#
#
#
# Elastic Compliance Matrix: (Units=1/GPa)
#
#
# Indices 1 2 3 4 5 6 
#
# 1 0.015090 -0.002555 0.000615 0.000000 0.003387 0.000000
# 2 -0.002555 0.005679 -0.001877 0.000000 0.000865 0.000000
# 3 0.000615 -0.001877 0.024232 0.000000 -0.000113 0.000000
# 4 0.000000 0.000000 0.000000 0.018770 0.000000 -0.017339
# 5 0.003387 0.000865 -0.000113 0.000000 0.025757 0.000000
# 6 0.000000 0.000000 0.000000 -0.017339 0.000000 -0.006484
#
#
# Mechanical properties :
#
#
# Convention : Reuss Voigt Hill
#
# Bulk Modulus (GPa) = 26.76310 46.36491 36.56401
# Shear Modulus (GPa) = 48.48029 19.96955 34.22492
#
# Velocity S-wave (km/s) = 4.44585 2.85336 3.73545
# Velocity P-wave (km/s) = 6.10454 5.45515 5.78896
#
# Compressibility (1/GPa) = 0.03736488
#
# Stress axis : x y z
#
# Youngs Moduli (GPa) = 66.27086 176.08465 41.26766
#
# Poissons Ratio (x) = 0.44991 -0.02536
# Poissons Ratio (y) = 0.16933 0.07748
# Poissons Ratio (z) = -0.04073 0.33059
#
# Static dielectric constant tensor:
#      x y z
#    x 1.897130 0.000000 0.011850 
#    y 0.000000 1.967440 0.000000 
#    z 0.011850 0.000000 2.039260 
# 
# From -- ./inp_files/165415.got.cif
#   From: 2010.05.17/outbox.cif.g08.bks.cpg/sg12_83_cif.got.tgz:165415.got - 2010.06.03 13:09:07.
