data_PCOD9217376
_publ_section_title
;
Structure prediction by ZEFSAII (Michael W. Deem and Ramdas Pophale) SiO2 
 PCOD9217376
Probable space group: C 2/M
;
_chemical_formula_sum "Si O2"
_cell_formula_units_Z 44
_cell_length_a 9.046433
_cell_length_b 20.626268
_cell_length_c 11.975868
_cell_angle_alpha 90.000000
_cell_angle_beta 73.311062
_cell_angle_gamma 90.000000
_cell_volume 2140.499877
_symmetry_space_group_name_H-M "C 2/M"
_symmetry_group_IT_number 12
_symmetry_cell_setting 'monoclinic'
loop_
_space_group_symop_operation_xyz
x,y,z
-x,y,-z
-x,-y,-z
x,-y,z
1/2+x,1/2+y,z
1/2-x,1/2+y,-z
1/2-x,1/2-y,-z
1/2+x,1/2-y,z
loop_
_atom_site_type_symbol
_atom_site_label
_atom_site_fract_x
_atom_site_fract_y
_atom_site_fract_z
Si Si1 0.979101 0.372647 0.632166
Si Si2 0.500000 0.898714 0.000000
Si Si3 0.078808 0.000000 0.229141
Si Si4 0.265255 0.131275 0.243342
Si Si5 0.770310 0.500000 0.704026
Si Si6 0.500000 0.733214 0.000000
Si Si7 0.809064 0.272678 0.826638
Si Si8 0.242426 0.500000 0.034631
O O1 0.878463 0.438438 0.655899
O O2 0.885340 0.320919 0.724317
O O3 0.000000 0.352777 0.500000
O O4 0.143334 0.376798 0.660329
O O5 0.604960 0.868826 0.881590
O O6 0.371869 0.940275 0.963117
O O7 0.159675 0.932638 0.251152
O O8 0.901894 0.000000 0.309536
O O9 0.122158 0.000000 0.086294
O O10 0.191670 0.201670 0.232843
O O11 0.722249 0.500000 0.844268
O O12 0.638571 0.701663 0.898851
O O13 0.402212 0.767994 0.923117
#
# Coordination Sequence:
#
# PCOD9217376 Si02
#       8
#     8   4   4   8   4   4   8   4
#     4  12  28  48  70  95 133 191 239 274 331 409
#     4   9  17  34  65  98 129 177 211 260 337 423
#     4  10  25  38  70 107 140 170 218 287 360 402
#     4  11  22  44  67  98 141 184 220 278 345 405
#     4  12  24  45  68  98 134 174 233 290 332 405
#     4  10  23  42  71 112 139 174 217 284 355 410
#     4  11  24  44  73 101 142 178 226 278 343 412
#     4   9  17  35  63  99 137 163 212 270 343 407
#
# _framework density 20.555947
#
# number of rings (size 3 to 8) (size 9 to 14) (size 15 to 20)
#    0.000    1.273    3.636    2.182    5.091    0.727 
#    0.000    1.818    0.000    0.000    0.000    0.000 
#    0.000    0.000    0.000    0.000    0.000    0.000 
#
# Total GULP energy -122649.218225 kJ/mol
# GULP energy per Si atom -5574.964465 kJ/mol
# Density = 2.050916 g / cm^3
# Si number density = 20.555947 Si / 1000 Ang^3
#
#
#
# Elastic Constant Matrix: (Units=GPa)
#
#
# Indices 1 2 3 4 5 6 
#
# 1 96.7381 25.2978 36.9432 0.0000 8.4349 0.0000
# 2 25.2978 101.1267 29.8279 0.0000 -0.6334 0.0000
# 3 36.9432 29.8279 117.9545 0.0000 11.4469 0.0000
# 4 0.0000 0.0000 0.0000 42.1701 0.0000 -22.0781
# 5 8.4349 -0.6334 11.4469 0.0000 22.0745 0.0000
# 6 0.0000 0.0000 0.0000 -22.0781 0.0000 49.3564
#
#
#
# Elastic Compliance Matrix: (Units=1/GPa)
#
#
# Indices 1 2 3 4 5 6 
#
# 1 0.012343 -0.002226 -0.002989 0.000000 -0.003230 0.000000
# 2 -0.002226 0.011155 -0.002356 0.000000 0.002392 0.000000
# 3 -0.002989 -0.002356 0.010430 0.000000 -0.004334 0.000000
# 4 0.000000 0.000000 0.000000 0.030965 0.000000 0.013851
# 5 -0.003230 0.002392 -0.004334 0.000000 0.048852 0.000000
# 6 0.000000 0.000000 0.000000 0.013851 0.000000 0.026457
#
#
# Mechanical properties :
#
#
# Convention : Reuss Voigt Hill
#
# Bulk Modulus (GPa) = 53.23181 55.55080 54.39131
# Shear Modulus (GPa) = 30.93933 37.63688 34.28810
#
# Velocity S-wave (km/s) = 3.88381 4.28360 4.08859
# Velocity P-wave (km/s) = 6.78706 7.17973 6.98616
#
# Compressibility (1/GPa) = 0.01878576
#
# Stress axis : x y z
#
# Youngs Moduli (GPa) = 81.02059 89.64326 95.87325
#
# Poissons Ratio (x) = 0.19956 0.28659
# Poissons Ratio (y) = 0.18036 0.22586
# Poissons Ratio (z) = 0.24219 0.21119
#
# Static dielectric constant tensor:
#      x y z
#    x 1.777500 0.000000 0.025470 
#    y 0.000000 1.829820 0.000000 
#    z 0.025470 0.000000 1.685760 
# 
# From -- ./inp_files/120799.got.cif
#   From: 2010.05.17/outbox.cif.g08.bks.cpg/sg12_61_cif.got.tgz:120799.got - 2010.06.03 13:09:07.
