data_PCOD9217177
_publ_section_title
;
Structure prediction by ZEFSAII (Michael W. Deem and Ramdas Pophale) SiO2 
 PCOD9217177
Probable space group: C 2/M
;
_chemical_formula_sum "Si O2"
_cell_formula_units_Z 40
_cell_length_a 10.063436
_cell_length_b 9.768858
_cell_length_c 24.151522
_cell_angle_alpha 90.000000
_cell_angle_beta 65.538462
_cell_angle_gamma 90.000000
_cell_volume 2161.176527
_symmetry_space_group_name_H-M "C 2/M"
_symmetry_group_IT_number 12
_symmetry_cell_setting 'monoclinic'
loop_
_space_group_symop_operation_xyz
x,y,z
-x,y,-z
-x,-y,-z
x,-y,z
1/2+x,1/2+y,z
1/2-x,1/2+y,-z
1/2-x,1/2-y,-z
1/2+x,1/2-y,z
loop_
_atom_site_type_symbol
_atom_site_label
_atom_site_fract_x
_atom_site_fract_y
_atom_site_fract_z
Si Si1 0.732905 0.000000 0.428019
Si Si2 0.729237 0.166059 0.271151
Si Si3 0.876197 0.158577 0.126543
Si Si4 0.223341 0.838110 0.059868
Si Si5 0.909564 0.500000 0.428229
Si Si6 0.597119 0.749902 0.652394
O O1 0.578409 0.000000 0.420903
O O2 0.688000 0.000000 0.499887
O O3 0.833716 0.874300 0.393431
O O4 0.799220 0.182872 0.198716
O O5 0.572889 0.237488 0.303688
O O6 0.824816 0.237418 0.301951
O O7 0.719008 0.000000 0.282202
O O8 0.815401 0.265112 0.092289
O O9 0.050535 0.170502 0.102591
O O10 0.845464 0.000000 0.114616
O O11 0.259833 0.000000 0.047222
O O12 0.250000 0.750000 0.000000
O O13 0.877587 0.374290 0.393638
#
# Coordination Sequence:
#
# PCOD9217177 Si02
#       6
#     4   8   8   8   4   8
#     4  11  24  43  65  89 129 161 204 262 313 372
#     4  11  23  42  64  89 130 162 207 258 310 371
#     4  10  23  42  63  91 124 170 208 253 311 366
#     4  11  23  41  65  95 128 164 210 257 309 365
#     4  11  24  43  63  93 125 161 206 260 313 372
#     4  12  20  44  63  91 121 168 203 256 317 366
#
# _framework density 18.508438000000002
#
# number of rings (size 3 to 8) (size 9 to 14) (size 15 to 20)
#    0.000    1.000    4.000    3.000    0.000    4.800 
#    3.600    1.000    0.000    0.000    0.000    0.000 
#    0.000    0.000    0.000    0.000    0.000    0.000 
#
# Total GULP energy -111611.672085 kJ/mol
# GULP energy per Si atom -5580.583604 kJ/mol
# Density = 1.846631 g / cm^3
# Si number density = 18.508438 Si / 1000 Ang^3
#
#
#
# Elastic Constant Matrix: (Units=GPa)
#
#
# Indices 1 2 3 4 5 6 
#
# 1 91.5607 39.1325 -2.4035 0.0000 5.3631 0.0000
# 2 39.1325 125.6956 20.4576 0.0000 5.8983 0.0000
# 3 -2.4035 20.4576 61.7133 0.0000 -4.0299 0.0000
# 4 0.0000 0.0000 0.0000 17.1788 0.0000 7.1794
# 5 5.3631 5.8983 -4.0299 0.0000 32.6024 0.0000
# 6 0.0000 0.0000 0.0000 7.1794 0.0000 32.5738
#
#
#
# Elastic Compliance Matrix: (Units=1/GPa)
#
#
# Indices 1 2 3 4 5 6 
#
# 1 0.012851 -0.004247 0.001835 0.000000 -0.001119 0.000000
# 2 -0.004247 0.009929 -0.003557 0.000000 -0.001537 0.000000
# 3 0.001835 -0.003557 0.017619 0.000000 0.002520 0.000000
# 4 0.000000 0.000000 0.000000 0.064117 0.000000 -0.014132
# 5 -0.001119 -0.001537 0.002520 0.000000 0.031446 0.000000
# 6 0.000000 0.000000 0.000000 -0.014132 0.000000 0.033814
#
#
# Mechanical properties :
#
#
# Convention : Reuss Voigt Hill
#
# Bulk Modulus (GPa) = 35.13584 43.70473 39.42029
# Shear Modulus (GPa) = 26.15050 31.25652 28.70351
#
# Velocity S-wave (km/s) = 3.76293 4.11392 3.94233
# Velocity P-wave (km/s) = 6.15666 6.79930 6.48594
#
# Compressibility (1/GPa) = 0.02846096
#
# Stress axis : x y z
#
# Youngs Moduli (GPa) = 77.81778 100.71501 56.75638
#
# Poissons Ratio (x) = 0.42773 -0.10416
# Poissons Ratio (y) = 0.33049 0.20189
# Poissons Ratio (z) = -0.14281 0.35826
#
# Static dielectric constant tensor:
#      x y z
#    x 1.607460 0.000000 -0.007260 
#    y 0.000000 1.546630 0.000000 
#    z -0.007260 0.000000 1.620640 
# 
# From -- ./inp_files/331757.got.cif
#   From: 2010.05.17/outbox.cif.g08.bks.cpg/sg12_166_cif.got.tgz:331757.got - 2010.06.03 13:09:07.
