data_PCOD9217174
_publ_section_title
;
Structure prediction by ZEFSAII (Michael W. Deem and Ramdas Pophale) SiO2 
 PCOD9217174
Probable space group: C 2/M
;
_chemical_formula_sum "Si O2"
_cell_formula_units_Z 56
_cell_length_a 11.271680
_cell_length_b 16.094401
_cell_length_c 14.691219
_cell_angle_alpha 90.000000
_cell_angle_beta 65.810710
_cell_angle_gamma 90.000000
_cell_volume 2431.139110
_symmetry_space_group_name_H-M "C 2/M"
_symmetry_group_IT_number 12
_symmetry_cell_setting 'monoclinic'
loop_
_space_group_symop_operation_xyz
x,y,z
-x,y,-z
-x,-y,-z
x,-y,z
1/2+x,1/2+y,z
1/2-x,1/2+y,-z
1/2-x,1/2-y,-z
1/2+x,1/2-y,z
loop_
_atom_site_type_symbol
_atom_site_label
_atom_site_fract_x
_atom_site_fract_y
_atom_site_fract_z
Si Si1 0.619712 0.095046 0.521190
Si Si2 0.960657 0.639602 0.256294
Si Si3 0.912362 0.901397 0.444683
Si Si4 0.363439 0.842400 0.094187
Si Si5 0.130726 0.908138 0.057886
Si Si6 0.560253 0.667304 0.747668
Si Si7 0.263902 0.344879 0.157059
O O1 0.500000 0.133003 0.500000
O O2 0.578809 0.094079 0.639717
O O3 0.765502 0.133261 0.476954
O O4 0.634227 0.000000 0.482346
O O5 0.888187 0.618053 0.185438
O O6 0.931035 0.737132 0.281867
O O7 0.114345 0.633662 0.191761
O O8 0.980819 0.884379 0.326885
O O9 0.000000 0.867716 0.500000
O O10 0.898261 0.000000 0.464984
O O11 0.270725 0.896937 0.060740
O O12 0.294717 0.752700 0.130733
O O13 0.500000 0.829214 0.000000
O O14 0.041047 0.842236 0.137844
O O15 0.078725 0.000000 0.091260
O O16 0.152239 0.892087 0.945055
O O17 0.692166 0.636283 0.753873
#
# Coordination Sequence:
#
# PCOD9217174 Si02
#       7
#     8   8   8   8   8   8   8
#     4  10  23  43  65  92 126 166 212 267 325 380
#     4  11  23  39  67  94 123 166 210 259 321 376
#     4  10  23  42  63  89 127 170 210 263 325 380
#     4  11  22  41  64  89 129 170 208 256 314 373
#     4  12  25  40  63  93 128 169 214 259 311 378
#     4  11  24  40  65  93 125 164 213 264 313 375
#     4  11  22  42  64  91 128 168 206 258 316 373
#
# _framework density 23.034468
#
# number of rings (size 3 to 8) (size 9 to 14) (size 15 to 20)
#    0.000    1.143    2.857    3.857    2.000    4.286 
#    0.000    0.000    0.000    0.000    0.000    0.000 
#    0.000    0.000    0.000    0.000    0.000    0.000 
#
# Total GULP energy -156540.962155 kJ/mol
# GULP energy per Si atom -5590.748648 kJ/mol
# Density = 2.298204 g / cm^3
# Si number density = 23.034468 Si / 1000 Ang^3
#
#
#
# Elastic Constant Matrix: (Units=GPa)
#
#
# Indices 1 2 3 4 5 6 
#
# 1 121.0353 6.3384 26.9917 0.0000 22.9507 0.0000
# 2 6.3384 38.1567 -5.5454 0.0000 9.1128 0.0000
# 3 26.9917 -5.5454 85.6495 0.0000 21.5624 0.0000
# 4 0.0000 0.0000 0.0000 25.7130 0.0000 1.3519
# 5 22.9507 9.1128 21.5624 0.0000 43.3516 0.0000
# 6 0.0000 0.0000 0.0000 1.3519 0.0000 15.9132
#
#
#
# Elastic Compliance Matrix: (Units=1/GPa)
#
#
# Indices 1 2 3 4 5 6 
#
# 1 0.009499 -0.000983 -0.002107 0.000000 -0.003774 0.000000
# 2 -0.000983 0.028767 0.004074 0.000000 -0.007553 0.000000
# 3 -0.002107 0.004074 0.014333 0.000000 -0.006870 0.000000
# 4 0.000000 0.000000 0.000000 0.039065 0.000000 -0.003319
# 5 -0.003774 -0.007553 -0.006870 0.000000 0.030070 0.000000
# 6 0.000000 0.000000 0.000000 -0.003319 0.000000 0.063123
#
#
# Mechanical properties :
#
#
# Convention : Reuss Voigt Hill
#
# Bulk Modulus (GPa) = 18.32629 33.37898 25.85264
# Shear Modulus (GPa) = 24.86601 31.46602 28.16602
#
# Velocity S-wave (km/s) = 3.28916 3.70001 3.50062
# Velocity P-wave (km/s) = 4.73266 5.72501 5.25232
#
# Compressibility (1/GPa) = 0.05456643
#
# Stress axis : x y z
#
# Youngs Moduli (GPa) = 105.27339 34.76231 69.77056
#
# Poissons Ratio (x) = 0.03416 0.14701
# Poissons Ratio (y) = 0.10346 -0.28422
# Poissons Ratio (z) = 0.22181 -0.14161
#
# Static dielectric constant tensor:
#      x y z
#    x 1.919650 0.000000 -0.013900 
#    y 0.000000 1.836460 0.000000 
#    z -0.013900 0.000000 1.825660 
# 
# From -- ./inp_files/206571.got.cif
#   From: 2010.05.17/outbox.cif.g08.bks.cpg/sg12_104_cif.got.tgz:206571.got - 2010.06.03 13:09:07.
