data_PCOD9217663
_publ_section_title
;
Structure prediction by ZEFSAII (Michael W. Deem and Ramdas Pophale) SiO2 
 PCOD9217663
Probable space group: C 2/M
;
_chemical_formula_sum "Si O2"
_cell_formula_units_Z 48
_cell_length_a 20.339699
_cell_length_b 8.863975
_cell_length_c 13.887125
_cell_angle_alpha 90.000000
_cell_angle_beta 89.860538
_cell_angle_gamma 90.000000
_cell_volume 2503.710452
_symmetry_space_group_name_H-M "C 2/M"
_symmetry_group_IT_number 12
_symmetry_cell_setting 'monoclinic'
loop_
_space_group_symop_operation_xyz
x,y,z
-x,y,-z
-x,-y,-z
x,-y,z
1/2+x,1/2+y,z
1/2-x,1/2+y,-z
1/2-x,1/2-y,-z
1/2+x,1/2-y,z
loop_
_atom_site_type_symbol
_atom_site_label
_atom_site_fract_x
_atom_site_fract_y
_atom_site_fract_z
Si Si1 0.002043 0.321004 0.283777
Si Si2 0.949914 0.819355 0.915419
Si Si3 0.202035 0.819568 0.079344
Si Si4 0.626609 0.680173 0.642070
Si Si5 0.390133 0.319222 0.582676
Si Si6 0.725943 0.180796 0.289164
O O1 0.006874 0.500000 0.289677
O O2 0.927305 0.266472 0.295320
O O3 0.031926 0.263137 0.183320
O O4 0.044492 0.246635 0.369144
O O5 0.874524 0.787727 0.943341
O O6 0.955642 0.000000 0.899245
O O7 0.000000 0.777173 0.000000
O O8 0.216874 0.748934 0.183325
O O9 0.210230 0.000000 0.083066
O O10 0.250000 0.750000 0.000000
O O11 0.616463 0.500000 0.653600
O O12 0.615891 0.717946 0.529895
O O13 0.700966 0.714397 0.672680
O O14 0.390341 0.500000 0.592750
O O15 0.328584 0.251491 0.640779
O O16 0.717576 0.000000 0.286258
#
# Coordination Sequence:
#
# PCOD9217663 Si02
#       6
#     8   8   8   8   8   8
#     4  12  25  40  63  95 129 164 207 262 313 365
#     4  10  23  44  68  91 121 165 209 252 310 374
#     4  11  24  42  66  94 126 165 205 256 312 371
#     4  10  24  42  63  91 127 170 212 254 308 372
#     4  11  22  41  66  91 124 169 213 256 310 371
#     4  11  23  41  65  94 128 165 207 260 314 370
#
# _framework density 19.171545999999999
#
# number of rings (size 3 to 8) (size 9 to 14) (size 15 to 20)
#    0.000    1.167    1.667    4.000    2.333    5.667 
#    0.000    0.000    0.000    0.000    0.000    0.000 
#    0.000    0.000    0.000    0.000    0.000    0.000 
#
# Total GULP energy -134283.910555 kJ/mol
# GULP energy per Si atom -5595.162940 kJ/mol
# Density = 1.912791 g / cm^3
# Si number density = 19.171546 Si / 1000 Ang^3
#
#
#
# Elastic Constant Matrix: (Units=GPa)
#
#
# Indices 1 2 3 4 5 6 
#
# 1 76.5464 31.2453 27.2850 0.0000 -2.7497 0.0000
# 2 31.2453 46.9905 30.8139 0.0000 -2.9665 0.0000
# 3 27.2850 30.8139 74.4782 0.0000 0.0960 0.0000
# 4 0.0000 0.0000 0.0000 16.9373 0.0000 -6.0810
# 5 -2.7497 -2.9665 0.0960 0.0000 42.8034 0.0000
# 6 0.0000 0.0000 0.0000 -6.0810 0.0000 36.6502
#
#
#
# Elastic Compliance Matrix: (Units=1/GPa)
#
#
# Indices 1 2 3 4 5 6 
#
# 1 0.018217 -0.010578 -0.002298 0.000000 0.000442 0.000000
# 2 -0.010578 0.035528 -0.010826 0.000000 0.001807 0.000000
# 3 -0.002298 -0.010826 0.018749 0.000000 -0.000940 0.000000
# 4 0.000000 0.000000 0.000000 0.062781 0.000000 0.010417
# 5 0.000442 0.001807 -0.000940 0.000000 0.023518 0.000000
# 6 0.000000 0.000000 0.000000 0.010417 0.000000 0.029013
#
#
# Mechanical properties :
#
#
# Convention : Reuss Voigt Hill
#
# Bulk Modulus (GPa) = 39.85720 41.85594 40.85657
# Shear Modulus (GPa) = 20.52768 26.52289 23.52529
#
# Velocity S-wave (km/s) = 3.27576 3.72351 3.50679
# Velocity P-wave (km/s) = 5.92810 6.35341 6.14444
#
# Compressibility (1/GPa) = 0.02508957
#
# Stress axis : x y z
#
# Youngs Moduli (GPa) = 54.89446 28.14694 53.33680
#
# Poissons Ratio (x) = 0.29774 0.12255
# Poissons Ratio (y) = 0.58068 0.57742
# Poissons Ratio (z) = 0.12613 0.30472
#
# Static dielectric constant tensor:
#      x y z
#    x 1.648470 0.000000 0.008480 
#    y 0.000000 1.640880 0.000000 
#    z 0.008480 0.000000 1.628620 
# 
# From -- ./inp_files/221585.got.cif
#   From: 2010.05.17/outbox.cif.g08.bks.cpg/sg12_111_cif.got.tgz:221585.got - 2010.06.03 13:09:07.
