data_PCOD9217520
_publ_section_title
;
Structure prediction by ZEFSAII (Michael W. Deem and Ramdas Pophale) SiO2 
 PCOD9217520
Probable space group: C 2/M
;
_chemical_formula_sum "Si O2"
_cell_formula_units_Z 56
_cell_length_a 11.726590
_cell_length_b 15.616496
_cell_length_c 12.717059
_cell_angle_alpha 90.000000
_cell_angle_beta 75.642173
_cell_angle_gamma 90.000000
_cell_volume 2256.113202
_symmetry_space_group_name_H-M "C 2/M"
_symmetry_group_IT_number 12
_symmetry_cell_setting 'monoclinic'
loop_
_space_group_symop_operation_xyz
x,y,z
-x,y,-z
-x,-y,-z
x,-y,z
1/2+x,1/2+y,z
1/2-x,1/2+y,-z
1/2-x,1/2-y,-z
1/2+x,1/2-y,z
loop_
_atom_site_type_symbol
_atom_site_label
_atom_site_fract_x
_atom_site_fract_y
_atom_site_fract_z
Si Si1 0.796324 0.099855 0.547365
Si Si2 0.265542 0.603625 0.783935
Si Si3 0.549219 0.811861 0.595545
Si Si4 0.000415 0.395910 0.118257
Si Si5 0.603632 0.647397 0.692143
Si Si6 0.435530 0.597842 0.912644
Si Si7 0.660150 0.900129 0.261791
O O1 0.829602 0.126007 0.659284
O O2 0.680449 0.154725 0.548590
O O3 0.881535 0.108389 0.428121
O O4 0.763003 0.000000 0.561651
O O5 0.273162 0.500000 0.791608
O O6 0.127908 0.624870 0.805344
O O7 0.323080 0.637717 0.878487
O O8 0.500000 0.772113 0.500000
O O9 0.549884 0.740102 0.684264
O O10 0.458825 0.887286 0.643982
O O11 0.005494 0.500000 0.116273
O O12 0.115140 0.370872 0.157998
O O13 0.000000 0.364275 0.000000
O O14 0.527533 0.597331 0.794858
O O15 0.733843 0.652112 0.712661
O O16 0.404089 0.500000 0.951683
O O17 0.500000 0.636972 0.000000
O O18 0.694566 0.000000 0.253488
#
# Coordination Sequence:
#
# PCOD9217520 Si02
#       7
#     8   8   8   8   8   8   8
#     4  11  22  41  70 101 134 175 235 293 341 410
#     4   9  19  35  60  95 131 170 216 282 348 397
#     4  12  26  42  65  98 143 189 220 279 365 425
#     4   9  18  34  63 100 131 167 225 294 347 392
#     4  12  27  41  65 103 141 180 227 288 353 423
#     4  10  23  43  67  95 136 189 240 289 346 417
#     4  11  23  43  72 102 134 179 242 295 341 414
#
# _framework density 24.821449000000001
#
# number of rings (size 3 to 8) (size 9 to 14) (size 15 to 20)
#    0.000    1.429    2.857    2.143    4.000    0.571 
#    0.000    2.857    0.000    2.571    0.000    0.000 
#    0.000    0.000    0.000    0.000    0.000    0.000 
#
# Total GULP energy -156528.803714 kJ/mol
# GULP energy per Si atom -5590.314418 kJ/mol
# Density = 2.476495 g / cm^3
# Si number density = 24.821449 Si / 1000 Ang^3
#
#
#
# Elastic Constant Matrix: (Units=GPa)
#
#
# Indices 1 2 3 4 5 6 
#
# 1 81.2166 20.3764 20.7362 0.0000 36.1675 0.0000
# 2 20.3764 61.9395 10.4677 0.0000 14.1659 0.0000
# 3 20.7362 10.4677 119.7533 0.0000 37.0962 0.0000
# 4 0.0000 0.0000 0.0000 12.0993 0.0000 5.3213
# 5 36.1675 14.1659 37.0962 0.0000 57.5332 0.0000
# 6 0.0000 0.0000 0.0000 5.3213 0.0000 19.2088
#
#
#
# Elastic Compliance Matrix: (Units=1/GPa)
#
#
# Indices 1 2 3 4 5 6 
#
# 1 0.017811 -0.003508 0.000529 0.000000 -0.010674 0.000000
# 2 -0.003508 0.017804 -0.000342 0.000000 -0.001958 0.000000
# 3 0.000529 -0.000342 0.010454 0.000000 -0.006989 0.000000
# 4 0.000000 0.000000 0.000000 0.094116 0.000000 -0.026073
# 5 -0.010674 -0.001958 -0.006989 0.000000 0.029080 0.000000
# 6 0.000000 0.000000 0.000000 -0.026073 0.000000 0.059282
#
#
# Mechanical properties :
#
#
# Convention : Reuss Voigt Hill
#
# Bulk Modulus (GPa) = 25.36305 40.67446 33.01876
# Shear Modulus (GPa) = 20.13439 31.85687 25.99563
#
# Velocity S-wave (km/s) = 2.85119 3.58640 3.23972
# Velocity P-wave (km/s) = 4.59124 5.79414 5.22741
#
# Compressibility (1/GPa) = 0.03942743
#
# Stress axis : x y z
#
# Youngs Moduli (GPa) = 56.14463 56.16608 95.66009
#
# Poissons Ratio (x) = 0.19700 -0.05061
# Poissons Ratio (y) = 0.19693 0.03275
# Poissons Ratio (z) = -0.02970 0.01923
#
# Static dielectric constant tensor:
#      x y z
#    x 1.966480 0.000000 0.022690 
#    y 0.000000 1.935030 0.000000 
#    z 0.022690 0.000000 2.015750 
# 
# From -- ./inp_files/133131.got.cif
#   From: 2010.05.17/outbox.cif.g08.bks.cpg/sg12_67_cif.got.tgz:133131.got - 2010.06.03 13:09:07.
