data_PCOD9217591
_publ_section_title
;
Structure prediction by ZEFSAII (Michael W. Deem and Ramdas Pophale) SiO2 
 PCOD9217591
Probable space group: C 2/M
;
_chemical_formula_sum "Si O2"
_cell_formula_units_Z 58
_cell_length_a 18.357971
_cell_length_b 24.666428
_cell_length_c 6.428653
_cell_angle_alpha 90.000000
_cell_angle_beta 76.758876
_cell_angle_gamma 90.000000
_cell_volume 2833.667252
_symmetry_space_group_name_H-M "C 2/M"
_symmetry_group_IT_number 12
_symmetry_cell_setting 'monoclinic'
loop_
_space_group_symop_operation_xyz
x,y,z
-x,y,-z
-x,-y,-z
x,-y,z
1/2+x,1/2+y,z
1/2-x,1/2+y,-z
1/2-x,1/2-y,-z
1/2+x,1/2-y,z
loop_
_atom_site_type_symbol
_atom_site_label
_atom_site_fract_x
_atom_site_fract_y
_atom_site_fract_z
Si Si1 0.642356 0.158818 0.899955
Si Si2 0.916850 0.865067 0.474360
Si Si3 0.809582 0.846353 0.930401
Si Si4 0.583861 0.726605 0.856167
Si Si5 0.000000 0.500000 0.000000
Si Si6 0.441351 0.091889 0.712310
Si Si7 0.334229 0.940908 0.423083
Si Si8 0.677579 0.561523 0.742223
O O1 0.726943 0.171460 0.916750
O O2 0.606327 0.211084 0.817873
O O3 0.646121 0.107597 0.742862
O O4 0.593120 0.139891 0.128100
O O5 0.858659 0.862682 0.700279
O O6 0.912803 0.808063 0.355917
O O7 0.892063 0.911337 0.329008
O O8 0.000000 0.874147 0.500000
O O9 0.856693 0.801483 0.026032
O O10 0.801518 0.898824 0.083329
O O11 0.500000 0.721807 0.000000
O O12 0.977557 0.547737 0.841383
O O13 0.500000 0.111002 0.500000
O O14 0.376216 0.065252 0.614713
O O15 0.246864 0.939160 0.535845
O O16 0.355005 0.000000 0.314435
O O17 0.664019 0.500000 0.818858
#
# Coordination Sequence:
#
# PCOD9217591 Si02
#       8
#     8   8   8   8   2   8   8   8
#     4  12  27  44  71 103 134 184 239 288 343 412
#     4  11  23  46  73  99 141 183 222 286 362 415
#     4  11  23  47  70 100 138 183 227 286 353 409
#     4  11  26  46  68 101 135 181 236 289 348 418
#     4  12  26  48  64  94 140 200 224 278 346 406
#     4  12  27  44  64  96 139 182 231 284 340 404
#     4  11  24  44  68 102 142 182 230 289 343 408
#     4  10  23  43  71 109 141 175 231 282 341 428
#
# _framework density 20.468174999999999
#
# number of rings (size 3 to 8) (size 9 to 14) (size 15 to 20)
#    0.000    0.828    4.828    1.448    5.793    3.034 
#    0.000    0.690    0.000    0.000    0.000    0.000 
#    0.000    0.000    0.000    0.000    0.000    0.000 
#
# Total GULP energy -162035.292677 kJ/mol
# GULP energy per Si atom -5587.423885 kJ/mol
# Density = 2.042159 g / cm^3
# Si number density = 20.468175 Si / 1000 Ang^3
#
#
#
# Elastic Constant Matrix: (Units=GPa)
#
#
# Indices 1 2 3 4 5 6 
#
# 1 115.7399 31.1276 27.4021 0.0000 6.4653 0.0000
# 2 31.1276 126.1014 23.5336 0.0000 -5.1804 0.0000
# 3 27.4021 23.5336 71.1016 0.0000 -1.8824 0.0000
# 4 0.0000 0.0000 0.0000 3.2256 0.0000 -18.3933
# 5 6.4653 -5.1804 -1.8824 0.0000 36.0938 0.0000
# 6 0.0000 0.0000 0.0000 -18.3933 0.0000 12.9441
#
#
#
# Elastic Compliance Matrix: (Units=1/GPa)
#
#
# Indices 1 2 3 4 5 6 
#
# 1 0.010074 -0.001965 -0.003292 0.000000 -0.002258 0.000000
# 2 -0.001965 0.008877 -0.002141 0.000000 0.001514 0.000000
# 3 -0.003292 -0.002141 0.016071 0.000000 0.001121 0.000000
# 4 0.000000 0.000000 0.000000 -0.043647 0.000000 -0.062022
# 5 -0.002258 0.001514 0.001121 0.000000 0.028386 0.000000
# 6 0.000000 0.000000 0.000000 -0.062022 0.000000 -0.010877
#
#
# Mechanical properties :
#
#
# Convention : Reuss Voigt Hill
#
# Bulk Modulus (GPa) = 49.43915 53.00773 51.22344
# Shear Modulus (GPa) = 164.35533 25.84467 95.10000
#
# Velocity S-wave (km/s) = 8.97064 3.55727 6.82373
# Velocity P-wave (km/s) = 11.46748 6.54416 9.33620
#
# Compressibility (1/GPa) = 0.02022689
#
# Stress axis : x y z
#
# Youngs Moduli (GPa) = 99.26454 112.65147 62.22298
#
# Poissons Ratio (x) = 0.22138 0.20483
# Poissons Ratio (y) = 0.19507 0.13320
# Poissons Ratio (z) = 0.32676 0.24115
#
# Static dielectric constant tensor:
#      x y z
#    x 1.929110 0.000000 -0.134640 
#    y 0.000000 1.707580 0.000000 
#    z -0.134640 0.000000 1.803180 
# 
# From -- ./inp_files/17689.got.cif
#   From: 2010.05.17/outbox.cif.g08.bks.cpg/sg12_9_cif.got.tgz:17689.got - 2010.06.03 13:09:07.
