data_PCOD9217281
_publ_section_title
;
Structure prediction by ZEFSAII (Michael W. Deem and Ramdas Pophale) SiO2 
 PCOD9217281
Probable space group: C 2/M
;
_chemical_formula_sum "Si O2"
_cell_formula_units_Z 40
_cell_length_a 12.258983
_cell_length_b 19.057984
_cell_length_c 8.946768
_cell_angle_alpha 90.000000
_cell_angle_beta 101.496667
_cell_angle_gamma 90.000000
_cell_volume 2048.308760
_symmetry_space_group_name_H-M "C 2/M"
_symmetry_group_IT_number 12
_symmetry_cell_setting 'monoclinic'
loop_
_space_group_symop_operation_xyz
x,y,z
-x,y,-z
-x,-y,-z
x,-y,z
1/2+x,1/2+y,z
1/2-x,1/2+y,-z
1/2-x,1/2-y,-z
1/2+x,1/2-y,z
loop_
_atom_site_type_symbol
_atom_site_label
_atom_site_fract_x
_atom_site_fract_y
_atom_site_fract_z
Si Si1 0.068428 0.582811 0.666999
Si Si2 0.788265 0.175494 0.080266
Si Si3 0.563239 0.815375 0.163642
Si Si4 0.322004 0.416721 0.795958
Si Si5 0.514216 0.682606 0.326706
O O1 0.053407 0.500000 0.689697
O O2 0.199963 0.595914 0.690718
O O3 0.000000 0.601827 0.500000
O O4 0.017536 0.627341 0.787064
O O5 0.680297 0.152469 0.145202
O O6 0.893492 0.184353 0.216072
O O7 0.750000 0.250000 0.000000
O O8 0.818791 0.123087 0.954222
O O9 0.577037 0.752270 0.284321
O O10 0.500000 0.786185 0.000000
O O11 0.337420 0.500000 0.819129
O O12 0.416205 0.382653 0.718476
O O13 0.500000 0.681755 0.500000
#
# Coordination Sequence:
#
# PCOD9217281 Si02
#       5
#     8   8   8   8   8
#     4  10  23  42  65  97 134 170 211 267 329 382
#     4  12  23  43  67  96 129 169 214 265 320 386
#     4  12  22  40  69  95 129 165 219 269 319 383
#     4  11  24  45  69  94 131 175 217 263 319 385
#     4  12  27  42  64  97 133 172 216 266 324 382
#
# _framework density 19.528306000000001
#
# number of rings (size 3 to 8) (size 9 to 14) (size 15 to 20)
#    0.000    0.600    6.000    1.200    2.800    4.000 
#    0.000    0.000    0.000    0.000    0.000    0.000 
#    0.000    0.000    0.000    0.000    0.000    0.000 
#
# Total GULP energy -111848.071937 kJ/mol
# GULP energy per Si atom -5592.403597 kJ/mol
# Density = 1.948386 g / cm^3
# Si number density = 19.528306 Si / 1000 Ang^3
#
#
#
# Elastic Constant Matrix: (Units=GPa)
#
#
# Indices 1 2 3 4 5 6 
#
# 1 108.8912 42.3949 70.4653 0.0000 -10.5071 0.0000
# 2 42.3949 68.6041 63.7393 0.0000 -10.0919 0.0000
# 3 70.4653 63.7393 151.4998 0.0000 -2.6464 0.0000
# 4 0.0000 0.0000 0.0000 23.7041 0.0000 -4.5342
# 5 -10.5071 -10.0919 -2.6464 0.0000 38.4657 0.0000
# 6 0.0000 0.0000 0.0000 -4.5342 0.0000 36.6105
#
#
#
# Elastic Compliance Matrix: (Units=1/GPa)
#
#
# Indices 1 2 3 4 5 6 
#
# 1 0.014073 -0.003752 -0.004923 0.000000 0.002521 0.000000
# 2 -0.003752 0.026196 -0.009185 0.000000 0.005216 0.000000
# 3 -0.004923 -0.009185 0.012705 0.000000 -0.002881 0.000000
# 4 0.000000 0.000000 0.000000 0.043210 0.000000 0.005352
# 5 0.002521 0.005216 -0.002881 0.000000 0.027856 0.000000
# 6 0.000000 0.000000 0.000000 0.005352 0.000000 0.027977
#
#
# Mechanical properties :
#
#
# Convention : Reuss Voigt Hill
#
# Bulk Modulus (GPa) = 57.95884 75.79932 66.87908
# Shear Modulus (GPa) = 25.84123 29.91578 27.87850
#
# Velocity S-wave (km/s) = 3.64162 3.91822 3.78245
# Velocity P-wave (km/s) = 6.88663 7.70515 7.30736
#
# Compressibility (1/GPa) = 0.01725362
#
# Stress axis : x y z
#
# Youngs Moduli (GPa) = 71.05605 38.17395 78.71162
#
# Poissons Ratio (x) = 0.14322 0.38752
# Poissons Ratio (y) = 0.26659 0.72297
# Poissons Ratio (z) = 0.34983 0.35063
#
# Static dielectric constant tensor:
#      x y z
#    x 1.698260 0.000000 0.006230 
#    y 0.000000 1.666040 0.000000 
#    z 0.006230 0.000000 1.679870 
# 
# From -- ./inp_files/46905.got.cif
#   From: 2010.05.17/outbox.cif.g08.bks.cpg/sg12_24_cif.got.tgz:46905.got - 2010.06.03 13:09:07.
