data_PCOD9217758
_publ_section_title
;
Structure prediction by ZEFSAII (Michael W. Deem and Ramdas Pophale) SiO2 
 PCOD9217758
Probable space group: C 2/M
;
_chemical_formula_sum "Si O2"
_cell_formula_units_Z 40
_cell_length_a 15.409227
_cell_length_b 17.876372
_cell_length_c 9.812123
_cell_angle_alpha 90.000000
_cell_angle_beta 48.954773
_cell_angle_gamma 90.000000
_cell_volume 2038.472426
_symmetry_space_group_name_H-M "C 2/M"
_symmetry_group_IT_number 12
_symmetry_cell_setting 'monoclinic'
loop_
_space_group_symop_operation_xyz
x,y,z
-x,y,-z
-x,-y,-z
x,-y,z
1/2+x,1/2+y,z
1/2-x,1/2+y,-z
1/2-x,1/2-y,-z
1/2+x,1/2-y,z
loop_
_atom_site_type_symbol
_atom_site_label
_atom_site_fract_x
_atom_site_fract_y
_atom_site_fract_z
Si Si1 0.318363 0.083169 0.215301
Si Si2 0.162309 0.315414 0.554674
Si Si3 0.116338 0.000000 0.298576
Si Si4 0.405135 0.797224 0.920071
Si Si5 0.740938 0.342121 0.839445
Si Si6 0.611895 0.500000 0.982821
O O1 0.306295 0.115420 0.378912
O O2 0.368758 0.000000 0.168772
O O3 0.196021 0.069809 0.264460
O O4 0.389760 0.140280 0.051412
O O5 0.250000 0.250000 0.500000
O O6 0.966966 0.292252 0.271589
O O7 0.184235 0.330939 0.373877
O O8 0.086634 0.000000 0.170682
O O9 0.000000 0.000000 0.500000
O O10 0.323459 0.826198 0.882433
O O11 0.358866 0.720235 0.034487
O O12 0.685513 0.424257 0.887079
O O13 0.500000 0.500000 0.000000
#
# Coordination Sequence:
#
# PCOD9217758 Si02
#       6
#     8   8   4   8   8   4
#     4  10  23  45  67 101 136 177 233 284 346 416
#     4  12  26  41  70 105 134 184 237 285 350 420
#     4  10  24  46  67 101 140 186 235 277 350 424
#     4  11  24  49  71  92 144 188 230 295 338 428
#     4  11  26  48  67 103 137 184 234 284 366 408
#     4  12  28  44  73 103 146 180 229 304 347 414
#
# _framework density 19.622537000000001
#
# number of rings (size 3 to 8) (size 9 to 14) (size 15 to 20)
#    0.600    0.400    4.000    1.200    7.000    1.600 
#    0.000    1.000    0.000    0.000    0.000    0.000 
#    0.000    0.000    0.000    0.000    0.000    0.000 
#
# Total GULP energy -111652.467182 kJ/mol
# GULP energy per Si atom -5582.623359 kJ/mol
# Density = 1.957788 g / cm^3
# Si number density = 19.622537 Si / 1000 Ang^3
#
#
#
# Elastic Constant Matrix: (Units=GPa)
#
#
# Indices 1 2 3 4 5 6 
#
# 1 126.4470 56.3079 56.5065 0.0000 -17.9124 0.0000
# 2 56.3079 163.2282 59.9904 0.0000 -14.9049 0.0000
# 3 56.5065 59.9904 167.8836 0.0000 -6.7915 0.0000
# 4 0.0000 0.0000 0.0000 25.5288 0.0000 12.6203
# 5 -17.9124 -14.9049 -6.7915 0.0000 46.6624 0.0000
# 6 0.0000 0.0000 0.0000 12.6203 0.0000 9.9365
#
#
#
# Elastic Compliance Matrix: (Units=1/GPa)
#
#
# Indices 1 2 3 4 5 6 
#
# 1 0.010548 -0.002432 -0.002564 0.000000 0.002899 0.000000
# 2 -0.002432 0.007784 -0.001912 0.000000 0.001275 0.000000
# 3 -0.002564 -0.001912 0.007482 0.000000 -0.000506 0.000000
# 4 0.000000 0.000000 0.000000 0.105266 0.000000 -0.133699
# 5 0.002899 0.001275 -0.000506 0.000000 0.022877 0.000000
# 6 0.000000 0.000000 0.000000 -0.133699 0.000000 0.270450
#
#
# Mechanical properties :
#
#
# Convention : Reuss Voigt Hill
#
# Bulk Modulus (GPa) = 83.33497 89.24094 86.28796
# Shear Modulus (GPa) = 11.30655 35.40913 23.35784
#
# Velocity S-wave (km/s) = 2.40302 4.25256 3.45390
# Velocity P-wave (km/s) = 7.08947 8.34805 7.74437
#
# Compressibility (1/GPa) = 0.01199976
#
# Stress axis : x y z
#
# Youngs Moduli (GPa) = 94.80719 128.46658 133.65211
#
# Poissons Ratio (x) = 0.31237 0.34269
# Poissons Ratio (y) = 0.23052 0.25548
# Poissons Ratio (z) = 0.24309 0.24557
#
# Static dielectric constant tensor:
#      x y z
#    x 1.693830 0.000000 0.040890 
#    y 0.000000 1.688950 0.000000 
#    z 0.040890 0.000000 1.661530 
# 
# From -- ./inp_files/73986.got.cif
#   From: 2010.05.17/outbox.cif.g08.bks.cpg/sg12_37_cif.got.tgz:73986.got - 2010.06.03 13:09:07.
