data_PCOD9217639
_publ_section_title
;
Structure prediction by ZEFSAII (Michael W. Deem and Ramdas Pophale) SiO2 
 PCOD9217639
Probable space group: C 2/M
;
_chemical_formula_sum "Si O2"
_cell_formula_units_Z 38
_cell_length_a 27.453740
_cell_length_b 13.899232
_cell_length_c 14.521602
_cell_angle_alpha 90.000000
_cell_angle_beta 160.365034
_cell_angle_gamma 90.000000
_cell_volume 1862.002557
_symmetry_space_group_name_H-M "C 2/M"
_symmetry_group_IT_number 12
_symmetry_cell_setting 'monoclinic'
loop_
_space_group_symop_operation_xyz
x,y,z
-x,y,-z
-x,-y,-z
x,-y,z
1/2+x,1/2+y,z
1/2-x,1/2+y,-z
1/2-x,1/2-y,-z
1/2+x,1/2-y,z
loop_
_atom_site_type_symbol
_atom_site_label
_atom_site_fract_x
_atom_site_fract_y
_atom_site_fract_z
Si Si1 0.112882 0.301792 0.129352
Si Si2 0.118863 0.500000 0.495102
Si Si3 0.598145 0.208930 0.402440
Si Si4 0.829391 0.000000 0.043672
Si Si5 0.216730 0.500000 0.047455
Si Si6 0.000000 0.500000 0.000000
Si Si7 0.943707 0.162224 0.501644
O O1 0.275524 0.266446 0.423727
O O2 0.000000 0.253964 0.000000
O O3 0.050685 0.280303 0.917528
O O4 0.096110 0.414320 0.121378
O O5 0.140887 0.597048 0.477246
O O6 0.226035 0.500000 0.772368
O O7 0.950575 0.500000 0.225158
O O8 0.584065 0.249008 0.480636
O O9 0.738425 0.000000 0.976187
O O10 0.934031 0.907009 0.235872
O O11 0.303218 0.593724 0.238519
O O12 0.000000 0.189829 0.500000
#
# Coordination Sequence:
#
# PCOD9217639 Si02
#       7
#     8   4   8   4   4   2   8
#     4  10  23  44  67  92 119 156 201 258 309 372
#     4  12  24  34  53  92 125 159 205 251 303 350
#     4  12  23  40  64  91 128 162 204 250 307 360
#     4   9  19  37  56  85 124 162 210 258 293 342
#     4   9  19  38  59  83 122 170 210 249 292 352
#     4   8  22  42  72  88 118 142 206 242 322 362
#     4   9  20  39  63  88 123 170 211 242 296 367
#
# _framework density 20.408135000000001
#
# number of rings (size 3 to 8) (size 9 to 14) (size 15 to 20)
#    0.632    1.263    0.000    5.368    0.000    3.368 
#    0.000    6.842    0.000    0.000    0.000    0.000 
#    0.000    0.000    0.000    0.000    0.000    0.000 
#
# Total GULP energy -105868.065543 kJ/mol
# GULP energy per Si atom -5572.003450 kJ/mol
# Density = 2.036168 g / cm^3
# Si number density = 20.408135 Si / 1000 Ang^3
#
#
#
# Elastic Constant Matrix: (Units=GPa)
#
#
# Indices 1 2 3 4 5 6 
#
# 1 44.8771 20.1495 10.5100 0.0000 8.0322 0.0000
# 2 20.1495 86.8455 4.2261 0.0000 15.4066 0.0000
# 3 10.5100 4.2261 84.0415 0.0000 6.0156 0.0000
# 4 0.0000 0.0000 0.0000 -0.5917 0.0000 -2.9605
# 5 8.0322 15.4066 6.0156 0.0000 33.0145 0.0000
# 6 0.0000 0.0000 0.0000 -2.9605 0.0000 20.0746
#
#
#
# Elastic Compliance Matrix: (Units=1/GPa)
#
#
# Indices 1 2 3 4 5 6 
#
# 1 0.025892 -0.005283 -0.002734 0.000000 -0.003336 0.000000
# 2 -0.005283 0.013636 0.000343 0.000000 -0.005140 0.000000
# 3 -0.002734 0.000343 0.012348 0.000000 -0.001745 0.000000
# 4 0.000000 0.000000 0.000000 -0.972473 0.000000 -0.143417
# 5 -0.003336 -0.005140 -0.001745 0.000000 0.033818 0.000000
# 6 0.000000 0.000000 0.000000 -0.143417 0.000000 0.028664
#
#
# Mechanical properties :
#
#
# Convention : Reuss Voigt Hill
#
# Bulk Modulus (GPa) = 27.37495 31.72616 29.55055
# Shear Modulus (GPa) = -6.01981 22.55805 8.26912
#
# Velocity S-wave (km/s) = -1.71933 3.32828 2.01511
# Velocity P-wave (km/s) = 3.08243 5.50904 4.46379
#
# Compressibility (1/GPa) = 0.03652975
#
# Stress axis : x y z
#
# Youngs Moduli (GPa) = 38.62169 73.33753 80.98218
#
# Poissons Ratio (x) = 0.38741 0.22137
# Poissons Ratio (y) = 0.20402 -0.02777
# Poissons Ratio (z) = 0.10558 -0.02515
#
# Static dielectric constant tensor:
#      x y z
#    x 1.735500 0.000000 -0.013570 
#    y 0.000000 1.711760 0.000000 
#    z -0.013570 0.000000 1.702180 
# 
# From -- ./inp_files/246501.got.cif
#   From: 2010.05.17/outbox.cif.g08.bks.cpg/sg12_124_cif.got.tgz:246501.got - 2010.06.03 13:09:07.
