data_PCOD9217774
_publ_section_title
;
Structure prediction by ZEFSAII (Michael W. Deem and Ramdas Pophale) SiO2 
 PCOD9217774
Probable space group: C 2/M
;
_chemical_formula_sum "Si O2"
_cell_formula_units_Z 56
_cell_length_a 28.536727
_cell_length_b 8.474796
_cell_length_c 12.159823
_cell_angle_alpha 90.000000
_cell_angle_beta 70.089915
_cell_angle_gamma 90.000000
_cell_volume 2764.992385
_symmetry_space_group_name_H-M "C 2/M"
_symmetry_group_IT_number 12
_symmetry_cell_setting 'monoclinic'
loop_
_space_group_symop_operation_xyz
x,y,z
-x,y,-z
-x,-y,-z
x,-y,z
1/2+x,1/2+y,z
1/2-x,1/2+y,-z
1/2-x,1/2-y,-z
1/2+x,1/2-y,z
loop_
_atom_site_type_symbol
_atom_site_label
_atom_site_fract_x
_atom_site_fract_y
_atom_site_fract_z
Si Si1 0.244986 0.310015 0.630419
Si Si2 0.907748 0.682319 0.436172
Si Si3 0.491165 0.317198 0.634846
Si Si4 0.400133 0.183811 0.833829
Si Si5 0.140516 0.813233 0.727253
Si Si6 0.441310 0.191845 0.037732
Si Si7 0.154883 0.187449 0.319395
O O1 0.242119 0.500000 0.629716
O O2 0.250000 0.250000 0.500000
O O3 0.195060 0.238268 0.723831
O O4 0.292497 0.266415 0.668329
O O5 0.922129 0.500000 0.424284
O O6 0.865432 0.719287 0.382063
O O7 0.887019 0.732452 0.570677
O O8 0.954383 0.786661 0.360391
O O9 0.500000 0.279740 0.500000
O O10 0.476014 0.500000 0.656755
O O11 0.450612 0.209732 0.723991
O O12 0.357060 0.266828 0.796723
O O13 0.387848 0.000000 0.851351
O O14 0.415980 0.240931 0.942246
O O15 0.094847 0.761103 0.840573
O O16 0.139496 0.000000 0.708739
O O17 0.440459 0.000000 0.045063
O O18 0.500000 0.238425 0.000000
O O19 0.149548 0.000000 0.335507
#
# Coordination Sequence:
#
# PCOD9217774 Si02
#       7
#     8   8   8   8   8   8   8
#     4  11  23  40  65  94 129 169 213 267 322 381
#     4  12  23  36  59  88 124 164 207 258 314 378
#     4  11  22  35  55  85 124 162 202 255 312 376
#     4  11  23  39  63  92 125 167 212 262 321 383
#     4  12  25  41  65  95 128 166 213 263 322 385
#     4  10  23  45  69  94 126 167 217 267 315 376
#     4  11  23  39  60  90 127 164 206 257 318 380
#
# _framework density 20.253221
#
# number of rings (size 3 to 8) (size 9 to 14) (size 15 to 20)
#    0.000    0.857    2.857    5.143    0.000    4.857 
#    0.000    0.714    0.000    0.000    0.000    0.000 
#    0.000    0.000    0.000    0.000    0.000    0.000 
#
# Total GULP energy -156447.577485 kJ/mol
# GULP energy per Si atom -5587.413482 kJ/mol
# Density = 2.020712 g / cm^3
# Si number density = 20.253221 Si / 1000 Ang^3
#
#
#
# Elastic Constant Matrix: (Units=GPa)
#
#
# Indices 1 2 3 4 5 6 
#
# 1 113.1578 -0.1473 35.9985 0.0000 3.5822 0.0000
# 2 -0.1473 24.8762 20.9190 0.0000 4.4081 0.0000
# 3 35.9985 20.9190 76.4021 0.0000 9.9872 0.0000
# 4 0.0000 0.0000 0.0000 27.8865 0.0000 -6.5586
# 5 3.5822 4.4081 9.9872 0.0000 38.2811 0.0000
# 6 0.0000 0.0000 0.0000 -6.5586 0.0000 45.9310
#
#
#
# Elastic Compliance Matrix: (Units=1/GPa)
#
#
# Indices 1 2 3 4 5 6 
#
# 1 0.010993 0.005736 -0.006760 0.000000 0.000074 0.000000
# 2 0.005736 0.055424 -0.017573 0.000000 -0.002334 0.000000
# 3 -0.006760 -0.017573 0.021470 0.000000 -0.002945 0.000000
# 4 0.000000 0.000000 0.000000 0.037106 0.000000 0.005298
# 5 0.000074 -0.002334 -0.002945 0.000000 0.027153 0.000000
# 6 0.000000 0.000000 0.000000 0.005298 0.000000 0.022528
#
#
# Mechanical properties :
#
#
# Convention : Reuss Voigt Hill
#
# Bulk Modulus (GPa) = 19.72604 36.44183 28.08393
# Shear Modulus (GPa) = 21.85653 32.93079 27.39366
#
# Velocity S-wave (km/s) = 3.28863 4.03669 3.68170
# Velocity P-wave (km/s) = 4.91741 6.30544 5.65418
#
# Compressibility (1/GPa) = 0.05069442
#
# Stress axis : x y z
#
# Youngs Moduli (GPa) = 90.96847 18.04272 46.57629
#
# Poissons Ratio (x) = -0.10350 0.31485
# Poissons Ratio (y) = -0.52183 0.81848
# Poissons Ratio (z) = 0.61493 0.31706
#
# Static dielectric constant tensor:
#      x y z
#    x 1.795250 0.000000 0.043570 
#    y 0.000000 1.674070 0.000000 
#    z 0.043570 0.000000 1.706060 
# 
# From -- ./inp_files/187140.got.cif
#   From: 2010.05.17/outbox.cif.g08.bks.cpg/sg12_94_cif.got.tgz:187140.got - 2010.06.03 13:09:07.
