data_PCOD9217449
_publ_section_title
;
Structure prediction by ZEFSAII (Michael W. Deem and Ramdas Pophale) SiO2 
 PCOD9217449
Probable space group: C 2/M
;
_chemical_formula_sum "Si O2"
_cell_formula_units_Z 48
_cell_length_a 11.194404
_cell_length_b 24.891574
_cell_length_c 13.756833
_cell_angle_alpha 90.000000
_cell_angle_beta 34.872658
_cell_angle_gamma 90.000000
_cell_volume 2191.701152
_symmetry_space_group_name_H-M "C 2/M"
_symmetry_group_IT_number 12
_symmetry_cell_setting 'monoclinic'
loop_
_space_group_symop_operation_xyz
x,y,z
-x,y,-z
-x,-y,-z
x,-y,z
1/2+x,1/2+y,z
1/2-x,1/2+y,-z
1/2-x,1/2-y,-z
1/2+x,1/2-y,z
loop_
_atom_site_type_symbol
_atom_site_label
_atom_site_fract_x
_atom_site_fract_y
_atom_site_fract_z
Si Si1 0.145731 0.559846 0.494503
Si Si2 0.399397 0.061993 0.845816
Si Si3 0.205379 0.908302 0.303597
Si Si4 0.518118 0.260043 0.698993
Si Si5 0.430206 0.383149 0.812250
Si Si6 0.339291 0.212061 0.195526
O O1 0.216778 0.500000 0.477681
O O2 0.339455 0.594381 0.333462
O O3 0.000000 0.555101 0.500000
O O4 0.012519 0.582048 0.672740
O O5 0.585801 0.063915 0.799425
O O6 0.327488 0.000000 0.880828
O O7 0.215263 0.101287 0.001157
O O8 0.168728 0.913828 0.214096
O O9 0.237195 0.844128 0.297109
O O10 0.000000 0.925538 0.500000
O O11 0.459089 0.321265 0.765977
O O12 0.533770 0.232168 0.794617
O O13 0.341412 0.249762 0.732577
O O14 0.750000 0.250000 0.500000
O O15 0.500000 0.201205 0.000000
#
# Coordination Sequence:
#
# PCOD9217449 Si02
#       6
#     8   8   8   8   8   8
#     4  10  23  43  65  92 129 174 220 271 327 389
#     4  11  24  41  68  99 130 170 217 270 329 395
#     4  11  21  40  66  94 133 171 207 267 333 388
#     4  11  24  43  66  96 130 178 221 271 334 391
#     4  11  23  43  65  97 131 172 213 274 330 390
#     4  11  23  42  65  94 132 173 218 271 332 392
#
# _framework density 21.900797000000001
#
# number of rings (size 3 to 8) (size 9 to 14) (size 15 to 20)
#    0.000    1.167    1.667    6.000    0.000    4.333 
#    3.000    2.500    0.000    0.000    0.000    0.000 
#    0.000    0.000    0.000    0.000    0.000    0.000 
#
# Total GULP energy -134052.082650 kJ/mol
# GULP energy per Si atom -5585.503444 kJ/mol
# Density = 2.185095 g / cm^3
# Si number density = 21.900797 Si / 1000 Ang^3
#
#
#
# Elastic Constant Matrix: (Units=GPa)
#
#
# Indices 1 2 3 4 5 6 
#
# 1 70.4590 -4.2083 -29.1061 -0.0001 -46.3462 -0.0001
# 2 -4.2083 12.0227 -9.9298 -0.0001 -61.6970 -0.0001
# 3 -29.1061 -9.9298 47.1758 -0.0002 -110.1950 -0.0003
# 4 -0.0001 -0.0001 -0.0002 30.8335 -0.0004 1.8394
# 5 -46.3462 -61.6970 -110.1950 -0.0004 -104.4944 -0.0001
# 6 -0.0001 -0.0001 -0.0003 1.8394 -0.0001 15.7332
#
#
#
# Elastic Compliance Matrix: (Units=1/GPa)
#
#
# Indices 1 2 3 4 5 6 
#
# 1 0.012576 -0.006946 0.000822 0.000000 -0.002344 0.000000
# 2 -0.006946 0.037342 -0.011760 0.000000 -0.006565 0.000000
# 3 0.000822 -0.011760 0.009990 0.000000 -0.003956 0.000000
# 4 0.000000 0.000000 0.000000 0.032660 0.000000 -0.003818
# 5 -0.002344 -0.006565 -0.003956 0.000000 -0.000483 0.000000
# 6 0.000000 0.000000 0.000000 -0.003818 0.000000 0.064006
#
#
# Mechanical properties :
#
#
# Convention : Reuss Voigt Hill
#
# Bulk Modulus (GPa) = 41.42716 4.79659 23.11188
# Shear Modulus (GPa) = 25.01180 -0.05875 12.47652
#
# Velocity S-wave (km/s) = 3.38309 -0.16397 2.38939
# Velocity P-wave (km/s) = 5.84955 1.46937 4.26476
#
# Compressibility (1/GPa) = 0.02413875
#
# Stress axis : x y z
#
# Youngs Moduli (GPa) = 79.51745 26.77966 100.10360
#
# Poissons Ratio (x) = 0.18602 -0.08232
# Poissons Ratio (y) = 0.55234 1.17726
# Poissons Ratio (z) = -0.06539 0.31494
#
# Static dielectric constant tensor:
#      x y z
#    x 1.868360 0.000000 0.062790 
#    y 0.000000 1.942310 0.000000 
#    z 0.062790 0.000000 1.882830 
# 
# From -- ./inp_files/209279.got.cif
#   From: 2010.05.17/outbox.cif.g08.bks.cpg/sg12_105_cif.got.tgz:209279.got - 2010.06.03 13:09:07.
