data_PCOD9217593
_publ_section_title
;
Structure prediction by ZEFSAII (Michael W. Deem and Ramdas Pophale) SiO2 
 PCOD9217593
Probable space group: C 2/M
;
_chemical_formula_sum "Si O2"
_cell_formula_units_Z 32
_cell_length_a 17.200958
_cell_length_b 10.595255
_cell_length_c 20.009853
_cell_angle_alpha 90.000000
_cell_angle_beta 155.351460
_cell_angle_gamma 90.000000
_cell_volume 1520.887334
_symmetry_space_group_name_H-M "C 2/M"
_symmetry_group_IT_number 12
_symmetry_cell_setting 'monoclinic'
loop_
_space_group_symop_operation_xyz
x,y,z
-x,y,-z
-x,-y,-z
x,-y,z
1/2+x,1/2+y,z
1/2-x,1/2+y,-z
1/2-x,1/2-y,-z
1/2+x,1/2-y,z
loop_
_atom_site_type_symbol
_atom_site_label
_atom_site_fract_x
_atom_site_fract_y
_atom_site_fract_z
Si Si1 0.608171 0.500000 0.808208
Si Si2 0.348987 0.500000 0.318158
Si Si3 0.049898 0.000000 0.115797
Si Si4 0.404881 0.761230 0.677329
Si Si5 0.339197 0.000000 0.109499
Si Si6 0.721274 0.749697 0.674698
O O1 0.596575 0.500000 0.717981
O O2 0.509635 0.627346 0.757272
O O3 0.804758 0.500000 0.002056
O O4 0.500000 0.500000 0.500000
O O5 0.245510 0.631892 0.250159
O O6 0.170215 0.124260 0.222968
O O7 0.000000 0.000000 0.000000
O O8 0.861932 0.000000 0.012517
O O9 0.250000 0.750000 0.500000
O O10 0.548693 0.875707 0.780873
O O11 0.295573 0.787764 0.660136
O O12 0.500000 0.774931 0.500000
#
# Coordination Sequence:
#
# PCOD9217593 Si02
#       6
#     4   4   4   8   4   8
#     4  12  25  46  74 107 147 191 241 308 365 429
#     4  10  23  43  72 105 146 188 242 294 353 438
#     4  12  29  43  70 103 149 192 236 302 367 437
#     4  12  25  46  77 103 142 195 245 308 364 446
#     4  12  28  48  71 110 147 187 257 306 379 433
#     4  11  24  47  71 107 144 188 245 293 363 439
#
# _framework density 21.040347000000001
#
# number of rings (size 3 to 8) (size 9 to 14) (size 15 to 20)
#    0.000    0.500    2.500    5.625    7.000    0.000 
#    0.000    1.875    0.000    0.000    0.000    0.000 
#    0.000    0.000    0.000    0.000    0.000    0.000 
#
# Total GULP energy -89438.986651 kJ/mol
# GULP energy per Si atom -5589.936666 kJ/mol
# Density = 2.099246 g / cm^3
# Si number density = 21.040347 Si / 1000 Ang^3
#
#
#
# Elastic Constant Matrix: (Units=GPa)
#
#
# Indices 1 2 3 4 5 6 
#
# 1 139.7337 49.0613 38.6880 -0.0034 12.7643 -0.0004
# 2 49.0613 182.5809 85.0831 0.0049 35.6624 -0.0016
# 3 38.6880 85.0831 122.1241 -0.0028 6.0001 -0.0013
# 4 -0.0034 0.0049 -0.0028 203.2758 -0.0005 18.6039
# 5 12.7643 35.6624 6.0001 -0.0005 36.9844 -0.0002
# 6 -0.0004 -0.0016 -0.0013 18.6039 -0.0002 40.6940
#
#
#
# Elastic Compliance Matrix: (Units=1/GPa)
#
#
# Indices 1 2 3 4 5 6 
#
# 1 0.008159 -0.001083 -0.001757 0.000000 -0.001486 0.000000
# 2 -0.001083 0.010529 -0.006564 0.000000 -0.008714 0.000000
# 3 -0.001757 -0.006564 0.013082 0.000000 0.004814 0.000000
# 4 0.000000 0.000000 0.000000 0.005134 0.000000 -0.002347
# 5 -0.001486 -0.008714 0.004814 0.000000 0.035173 0.000000
# 6 0.000000 0.000000 0.000000 -0.002347 0.000000 0.025647
#
#
# Mechanical properties :
#
#
# Convention : Reuss Voigt Hill
#
# Bulk Modulus (GPa) = 77.15565 87.78927 82.47246
# Shear Modulus (GPa) = 41.37254 74.29793 57.83523
#
# Velocity S-wave (km/s) = 4.43916 5.94885 5.24857
# Velocity P-wave (km/s) = 7.93881 9.43397 8.71850
#
# Compressibility (1/GPa) = 0.01296081
#
# Stress axis : x y z
#
# Youngs Moduli (GPa) = 122.56329 94.97462 76.44251
#
# Poissons Ratio (x) = 0.10290 0.13430
# Poissons Ratio (y) = 0.13279 0.50179
# Poissons Ratio (z) = 0.21533 0.62344
#
# Static dielectric constant tensor:
#      x y z
#    x 1.678150 0.000000 0.056070 
#    y 0.000000 1.773720 0.000000 
#    z 0.056070 0.000000 1.716750 
# 
# From -- ./inp_files/269441.got.cif
#   From: 2010.05.17/outbox.cif.g08.bks.cpg/sg12_135_cif.got.tgz:269441.got - 2010.06.03 13:09:07.
