data_PCOD9217721
_publ_section_title
;
Structure prediction by ZEFSAII (Michael W. Deem and Ramdas Pophale) SiO2 
 PCOD9217721
Probable space group: C 2/M
;
_chemical_formula_sum "Si O2"
_cell_formula_units_Z 34
_cell_length_a 11.239261
_cell_length_b 14.118669
_cell_length_c 13.127588
_cell_angle_alpha 90.000000
_cell_angle_beta 45.660638
_cell_angle_gamma 90.000000
_cell_volume 1489.881416
_symmetry_space_group_name_H-M "C 2/M"
_symmetry_group_IT_number 12
_symmetry_cell_setting 'monoclinic'
loop_
_space_group_symop_operation_xyz
x,y,z
-x,y,-z
-x,-y,-z
x,-y,z
1/2+x,1/2+y,z
1/2-x,1/2+y,-z
1/2-x,1/2-y,-z
1/2+x,1/2-y,z
loop_
_atom_site_type_symbol
_atom_site_label
_atom_site_fract_x
_atom_site_fract_y
_atom_site_fract_z
Si Si1 0.610079 0.801450 0.711970
Si Si2 0.500000 0.500000 0.000000
Si Si3 0.764394 0.359010 0.954267
Si Si4 0.267741 0.900017 0.184699
Si Si5 0.118511 0.107829 0.596866
O O1 0.435937 0.851313 0.788327
O O2 0.639854 0.816645 0.813542
O O3 0.754395 0.856024 0.564430
O O4 0.619885 0.690644 0.680201
O O5 0.378281 0.416240 0.019498
O O6 0.750000 0.250000 0.000000
O O7 0.785197 0.403348 0.053883
O O8 0.071906 0.892689 0.325832
O O9 0.330142 0.000000 0.190793
O O10 0.155999 0.000000 0.608707
#
# Coordination Sequence:
#
# PCOD9217721 Si02
#       5
#     8   2   8   8   8
#     4  11  24  42  75 109 146 195 258 312 385 470
#     4  12  32  52  74 112 172 192 264 332 382 468
#     4  12  27  48  75 112 148 205 254 323 397 459
#     4  11  23  44  73 105 143 192 248 314 382 458
#     4  10  23  44  70 107 152 195 249 315 387 456
#
# _framework density 22.820608
#
# number of rings (size 3 to 8) (size 9 to 14) (size 15 to 20)
#    0.000    0.941    3.529    2.118    6.588    2.824 
#    0.000    0.000    0.000    5.647    0.000    0.000 
#    0.000    0.000    0.000    0.000    0.000    0.000 
#
# Total GULP energy -94647.331853 kJ/mol
# GULP energy per Si atom -5567.490109 kJ/mol
# Density = 2.276867 g / cm^3
# Si number density = 22.820608 Si / 1000 Ang^3
#
#
#
# Elastic Constant Matrix: (Units=GPa)
#
#
# Indices 1 2 3 4 5 6 
#
# 1 112.7055 95.2657 44.0694 -0.0001 3.7478 0.0000
# 2 95.2657 222.1607 43.6044 -0.0001 -0.9698 0.0000
# 3 44.0694 43.6044 120.8766 -0.0002 -24.7671 0.0000
# 4 -0.0001 -0.0001 -0.0002 -10.5480 0.0001 -55.1985
# 5 3.7478 -0.9698 -24.7671 0.0001 28.6952 0.0000
# 6 0.0000 0.0000 0.0000 -55.1985 0.0000 -30.4247
#
#
#
# Elastic Compliance Matrix: (Units=1/GPa)
#
#
# Indices 1 2 3 4 5 6 
#
# 1 0.016110 -0.005935 -0.005108 0.000000 -0.006713 0.000000
# 2 -0.005935 0.007094 -0.000228 0.000000 0.000818 0.000000
# 3 -0.005108 -0.000228 0.012577 0.000000 0.011514 0.000000
# 4 0.000000 0.000000 0.000000 0.011161 0.000000 -0.020249
# 5 -0.006713 0.000818 0.011514 0.000000 0.045692 0.000000
# 6 0.000000 0.000000 0.000000 -0.020249 0.000000 0.003869
#
#
# Mechanical properties :
#
#
# Convention : Reuss Voigt Hill
#
# Bulk Modulus (GPa) = 75.53108 91.29129 83.41118
# Shear Modulus (GPa) = 40.49979 15.73139 28.11559
#
# Velocity S-wave (km/s) = 4.21729 2.62840 3.51383
# Velocity P-wave (km/s) = 7.54213 7.02154 7.28648
#
# Compressibility (1/GPa) = 0.01323958
#
# Stress axis : x y z
#
# Youngs Moduli (GPa) = 62.07459 140.95495 79.51266
#
# Poissons Ratio (x) = 0.83654 0.40614
# Poissons Ratio (y) = 0.36840 0.01812
# Poissons Ratio (z) = 0.31707 0.03212
#
# Static dielectric constant tensor:
#      x y z
#    x 1.848710 0.000000 -0.011720 
#    y 0.000000 1.924980 0.000000 
#    z -0.011720 0.000000 1.936590 
# 
# From -- ./inp_files/204784.got.cif
#   From: 2010.05.17/outbox.cif.g08.bks.cpg/sg12_103_cif.got.tgz:204784.got - 2010.06.03 13:09:07.
