data_PCOD9217462
_publ_section_title
;
Structure prediction by ZEFSAII (Michael W. Deem and Ramdas Pophale) SiO2 
 PCOD9217462
Probable space group: C 2/M
;
_chemical_formula_sum "Si O2"
_cell_formula_units_Z 42
_cell_length_a 20.626806
_cell_length_b 9.443151
_cell_length_c 12.366853
_cell_angle_alpha 90.000000
_cell_angle_beta 117.653917
_cell_angle_gamma 90.000000
_cell_volume 2133.672289
_symmetry_space_group_name_H-M "C 2/M"
_symmetry_group_IT_number 12
_symmetry_cell_setting 'monoclinic'
loop_
_space_group_symop_operation_xyz
x,y,z
-x,y,-z
-x,-y,-z
x,-y,z
1/2+x,1/2+y,z
1/2-x,1/2+y,-z
1/2-x,1/2-y,-z
1/2+x,1/2-y,z
loop_
_atom_site_type_symbol
_atom_site_label
_atom_site_fract_x
_atom_site_fract_y
_atom_site_fract_z
Si Si1 0.091302 0.831812 0.348093
Si Si2 0.500000 0.000000 0.500000
Si Si3 0.567589 0.234649 0.711584
Si Si4 0.176797 0.162465 0.627733
Si Si5 0.321362 0.834637 0.014093
Si Si6 0.822516 0.828488 0.799522
O O1 0.137956 0.781565 0.488133
O O2 0.126445 0.786652 0.262146
O O3 0.006536 0.796201 0.295421
O O4 0.098358 0.000000 0.357177
O O5 0.459870 0.879564 0.394927
O O6 0.617617 0.337966 0.678222
O O7 0.618242 0.174486 0.845688
O O8 0.242026 0.267229 0.710693
O O9 0.202927 0.000000 0.631566
O O10 0.304447 0.000000 0.978203
O O11 0.250000 0.750000 0.000000
O O12 0.346867 0.750968 0.927071
O O13 0.821321 0.000000 0.810995
#
# Coordination Sequence:
#
# PCOD9217462 Si02
#       6
#     8   2   8   8   8   8
#     4  10  23  43  65  97 132 176 226 278 338 396
#     4  12  24  44  66 110 132 176 224 284 354 388
#     4  12  24  42  70  98 133 172 225 279 337 402
#     4  11  22  40  68 100 131 175 227 284 334 395
#     4  12  26  44  67  99 134 176 224 273 335 406
#     4  11  25  43  66  95 137 180 223 274 337 403
#
# _framework density 19.684372
#
# number of rings (size 3 to 8) (size 9 to 14) (size 15 to 20)
#    0.000    0.762    4.762    2.286    1.333    4.571 
#    3.429    2.857    0.000    0.000    0.000    0.000 
#    0.000    0.000    0.000    0.000    0.000    0.000 
#
# Total GULP energy -117038.200715 kJ/mol
# GULP energy per Si atom -5573.247653 kJ/mol
# Density = 1.963957 g / cm^3
# Si number density = 19.684372 Si / 1000 Ang^3
#
#
#
# Elastic Constant Matrix: (Units=GPa)
#
#
# Indices 1 2 3 4 5 6 
#
# 1 91.0900 25.5361 58.4988 0.0000 -15.6127 0.0000
# 2 25.5361 76.3529 53.3831 0.0000 -19.8107 0.0000
# 3 58.4988 53.3831 156.0384 0.0000 2.5494 0.0000
# 4 0.0000 0.0000 0.0000 11.7308 0.0000 58.4697
# 5 -15.6127 -19.8107 2.5494 0.0000 31.7617 0.0000
# 6 0.0000 0.0000 0.0000 58.4697 0.0000 -84.7301
#
#
#
# Elastic Compliance Matrix: (Units=1/GPa)
#
#
# Indices 1 2 3 4 5 6 
#
# 1 0.016700 0.001977 -0.007101 0.000000 0.010012 0.000000
# 2 0.001977 0.022654 -0.008750 0.000000 0.015804 0.000000
# 3 -0.007101 -0.008750 0.012226 0.000000 -0.009929 0.000000
# 4 0.000000 0.000000 0.000000 0.019202 0.000000 0.013250
# 5 0.010012 0.015804 -0.009929 0.000000 0.047061 0.000000
# 6 0.000000 0.000000 0.000000 0.013250 0.000000 -0.002658
#
#
# Mechanical properties :
#
#
# Convention : Reuss Voigt Hill
#
# Bulk Modulus (GPa) = 41.95754 66.47969 54.21862
# Shear Modulus (GPa) = 33.13991 4.15670 18.64830
#
# Velocity S-wave (km/s) = 4.10758 1.45474 3.08127
# Velocity P-wave (km/s) = 6.62251 6.05540 6.34529
#
# Compressibility (1/GPa) = 0.02383362
#
# Stress axis : x y z
#
# Youngs Moduli (GPa) = 59.87934 44.14276 81.79015
#
# Poissons Ratio (x) = -0.08728 0.58078
# Poissons Ratio (y) = -0.11839 0.71563
# Poissons Ratio (z) = 0.42520 0.38623
#
# Static dielectric constant tensor:
#      x y z
#    x 1.719110 0.000000 -0.028130 
#    y 0.000000 1.680890 0.000000 
#    z -0.028130 0.000000 1.703510 
# 
# From -- ./inp_files/163035.got.cif
#   From: 2010.05.17/outbox.cif.g08.bks.cpg/sg12_82_cif.got.tgz:163035.got - 2010.06.03 13:09:07.
