data_PCOD9217442
_publ_section_title
;
Structure prediction by ZEFSAII (Michael W. Deem and Ramdas Pophale) SiO2 
 PCOD9217442
Probable space group: C 2/M
;
_chemical_formula_sum "Si O2"
_cell_formula_units_Z 24
_cell_length_a 20.816907
_cell_length_b 8.777611
_cell_length_c 19.354253
_cell_angle_alpha 90.000000
_cell_angle_beta 158.370218
_cell_angle_gamma 90.000000
_cell_volume 1303.567311
_symmetry_space_group_name_H-M "C 2/M"
_symmetry_group_IT_number 12
_symmetry_cell_setting 'monoclinic'
loop_
_space_group_symop_operation_xyz
x,y,z
-x,y,-z
-x,-y,-z
x,-y,z
1/2+x,1/2+y,z
1/2-x,1/2+y,-z
1/2-x,1/2-y,-z
1/2+x,1/2-y,z
loop_
_atom_site_type_symbol
_atom_site_label
_atom_site_fract_x
_atom_site_fract_y
_atom_site_fract_z
Si Si1 0.685622 0.817703 0.508434
Si Si2 0.808500 0.818477 0.132231
Si Si3 0.487295 0.682669 0.067652
O O1 0.750000 0.750000 0.500000
O O2 0.499435 0.746105 0.339750
O O3 0.832809 0.784305 0.712534
O O4 0.668529 0.000000 0.485048
O O5 0.814414 0.000000 0.132620
O O6 0.750000 0.750000 0.000000
O O7 0.668522 0.766354 0.048854
O O8 0.457440 0.500000 0.042603
O O9 0.500000 0.723783 0.000000
#
# Coordination Sequence:
#
# PCOD9217442 Si02
#       3
#     8   8   8
#     4  11  22  38  64  93 124 162 207 256 305 364
#     4  12  24  39  63  92 125 163 208 258 308 368
#     4  10  23  43  65  91 125 164 206 254 309 368
#
# _framework density 18.411017999999999
#
# number of rings (size 3 to 8) (size 9 to 14) (size 15 to 20)
#    0.000    1.000    3.333    4.000    0.000    3.333 
#    0.000    6.667    0.000    0.000    0.000    0.000 
#    0.000    0.000    0.000    0.000    0.000    0.000 
#
# Total GULP energy -67126.988839 kJ/mol
# GULP energy per Si atom -5593.915737 kJ/mol
# Density = 1.836911 g / cm^3
# Si number density = 18.411018 Si / 1000 Ang^3
#
#
#
# Elastic Constant Matrix: (Units=GPa)
#
#
# Indices 1 2 3 4 5 6 
#
# 1 166.6515 88.2978 107.4494 -0.0001 -2.9407 0.0000
# 2 88.2978 113.6952 106.0015 -0.0001 5.5182 0.0000
# 3 107.4494 106.0015 192.4467 -0.0002 13.6708 -0.0001
# 4 -0.0001 -0.0001 -0.0002 34.0684 0.0000 8.3464
# 5 -2.9407 5.5182 13.6708 0.0000 36.0106 0.0000
# 6 0.0000 0.0000 -0.0001 8.3464 0.0000 32.0257
#
#
#
# Elastic Compliance Matrix: (Units=1/GPa)
#
#
# Indices 1 2 3 4 5 6 
#
# 1 0.011268 -0.005820 -0.003304 0.000000 0.003066 0.000000
# 2 -0.005820 0.021124 -0.008347 0.000000 -0.000543 0.000000
# 3 -0.003304 -0.008347 0.011887 0.000000 -0.003503 0.000000
# 4 0.000000 0.000000 0.000000 0.031355 0.000000 -0.008171
# 5 0.003066 -0.000543 -0.003503 0.000000 0.029433 0.000000
# 6 0.000000 0.000000 0.000000 -0.008171 0.000000 0.033355
#
#
# Mechanical properties :
#
#
# Convention : Reuss Voigt Hill
#
# Bulk Modulus (GPa) = 107.08766 119.58787 113.33776
# Shear Modulus (GPa) = 28.33236 31.82392 30.07814
#
# Velocity S-wave (km/s) = 3.92711 4.16206 4.04629
# Velocity P-wave (km/s) = 8.87999 9.39109 9.13911
#
# Compressibility (1/GPa) = 0.00933814
#
# Stress axis : x y z
#
# Youngs Moduli (GPa) = 88.74495 47.33918 84.12270
#
# Poissons Ratio (x) = 0.27551 0.27791
# Poissons Ratio (y) = 0.51649 0.70220
# Poissons Ratio (z) = 0.29318 0.39516
#
# Static dielectric constant tensor:
#      x y z
#    x 1.598680 0.000000 -0.004260 
#    y 0.000000 1.620370 0.000000 
#    z -0.004260 0.000000 1.617200 
# 
# From -- ./inp_files/23007.got.cif
#   From: 2010.05.17/outbox.cif.g08.bks.cpg/sg12_12_cif.got.tgz:23007.got - 2010.06.03 13:09:07.
