data_PCOD9217482
_publ_section_title
;
Structure prediction by ZEFSAII (Michael W. Deem and Ramdas Pophale) SiO2 
 PCOD9217482
Probable space group: C 2/M
;
_chemical_formula_sum "Si O2"
_cell_formula_units_Z 44
_cell_length_a 12.877875
_cell_length_b 20.856454
_cell_length_c 9.688743
_cell_angle_alpha 90.000000
_cell_angle_beta 52.981695
_cell_angle_gamma 90.000000
_cell_volume 2077.763629
_symmetry_space_group_name_H-M "C 2/M"
_symmetry_group_IT_number 12
_symmetry_cell_setting 'monoclinic'
loop_
_space_group_symop_operation_xyz
x,y,z
-x,y,-z
-x,-y,-z
x,-y,z
1/2+x,1/2+y,z
1/2-x,1/2+y,-z
1/2-x,1/2-y,-z
1/2+x,1/2-y,z
loop_
_atom_site_type_symbol
_atom_site_label
_atom_site_fract_x
_atom_site_fract_y
_atom_site_fract_z
Si Si1 0.862808 0.179017 0.610754
Si Si2 0.500000 0.617399 0.000000
Si Si3 0.633444 0.700083 0.093727
Si Si4 0.630061 0.429910 0.621289
Si Si5 0.934092 0.693851 0.202869
Si Si6 0.937212 0.426552 0.401236
O O1 0.847144 0.159110 0.783704
O O2 0.886789 0.122190 0.484153
O O3 0.721050 0.206109 0.684527
O O4 0.000000 0.217980 0.500000
O O5 0.617411 0.660385 0.966972
O O6 0.450485 0.581483 0.174760
O O7 0.502675 0.742574 0.205411
O O8 0.750000 0.750000 0.000000
O O9 0.599243 0.500000 0.590070
O O10 0.781569 0.427488 0.540575
O O11 0.963292 0.631040 0.272415
O O12 0.000000 0.683917 0.000000
O O13 0.976003 0.500000 0.326969
O O14 0.000000 0.413929 0.500000
#
# Coordination Sequence:
#
# PCOD9217482 Si02
#       6
#     8   4   8   8   8   8
#     4  11  23  44  64  94 131 173 214 264 327 387
#     4  12  23  42  64  96 131 168 216 274 318 390
#     4  12  24  43  64  94 135 170 215 271 321 389
#     4  10  23  43  66  95 128 167 218 270 323 389
#     4  11  23  41  66  95 131 171 216 265 320 391
#     4   9  21  42  65  94 128 163 214 269 320 384
#
# _framework density 21.176615000000002
#
# number of rings (size 3 to 8) (size 9 to 14) (size 15 to 20)
#    0.000    1.273    4.545    0.273    2.545    2.182 
#    3.273    0.000    0.000    0.000    0.000    0.000 
#    0.000    0.000    0.000    0.000    0.000    0.000 
#
# Total GULP energy -122716.084359 kJ/mol
# GULP energy per Si atom -5578.003834 kJ/mol
# Density = 2.112842 g / cm^3
# Si number density = 21.176615 Si / 1000 Ang^3
#
#
#
# Elastic Constant Matrix: (Units=GPa)
#
#
# Indices 1 2 3 4 5 6 
#
# 1 124.9538 27.1877 29.2137 0.0000 1.1740 0.0000
# 2 27.1877 66.6882 35.5734 0.0000 7.6201 0.0000
# 3 29.2137 35.5734 101.4089 0.0000 15.6505 0.0000
# 4 0.0000 0.0000 0.0000 27.4606 0.0000 -1.7525
# 5 1.1740 7.6201 15.6505 0.0000 44.2878 0.0000
# 6 0.0000 0.0000 0.0000 -1.7525 0.0000 10.5803
#
#
#
# Elastic Compliance Matrix: (Units=1/GPa)
#
#
# Indices 1 2 3 4 5 6 
#
# 1 0.009020 -0.002853 -0.001731 0.000000 0.000863 0.000000
# 2 -0.002853 0.019386 -0.005791 0.000000 -0.001213 0.000000
# 3 -0.001731 -0.005791 0.012936 0.000000 -0.003529 0.000000
# 4 0.000000 0.000000 0.000000 0.036805 0.000000 0.006096
# 5 0.000863 -0.001213 -0.003529 0.000000 0.024013 0.000000
# 6 0.000000 0.000000 0.000000 0.006096 0.000000 0.095525
#
#
# Mechanical properties :
#
#
# Convention : Reuss Voigt Hill
#
# Bulk Modulus (GPa) = 48.56268 53.00004 50.78136
# Shear Modulus (GPa) = 22.19272 29.87082 26.03177
#
# Velocity S-wave (km/s) = 3.24077 3.75981 3.50990
# Velocity P-wave (km/s) = 6.08157 6.62799 6.36065
#
# Compressibility (1/GPa) = 0.02059194
#
# Stress axis : x y z
#
# Youngs Moduli (GPa) = 110.86158 51.58338 77.30379
#
# Poissons Ratio (x) = 0.14715 0.13382
# Poissons Ratio (y) = 0.31625 0.44770
# Poissons Ratio (z) = 0.19191 0.29874
#
# Static dielectric constant tensor:
#      x y z
#    x 1.812190 0.000000 -0.021860 
#    y 0.000000 1.808150 0.000000 
#    z -0.021860 0.000000 1.773270 
# 
# From -- ./inp_files/51223.got.cif
#   From: 2010.05.17/outbox.cif.g08.bks.cpg/sg12_26_cif.got.tgz:51223.got - 2010.06.03 13:09:07.
