data_PCOD9217045
_publ_section_title
;
Structure prediction by ZEFSAII (Michael W. Deem and Ramdas Pophale) SiO2 
 PCOD9217045
Probable space group: C 2/M
;
_chemical_formula_sum "Si O2"
_cell_formula_units_Z 40
_cell_length_a 15.816842
_cell_length_b 18.037795
_cell_length_c 9.044463
_cell_angle_alpha 90.000000
_cell_angle_beta 130.012560
_cell_angle_gamma 90.000000
_cell_volume 1976.332777
_symmetry_space_group_name_H-M "C 2/M"
_symmetry_group_IT_number 12
_symmetry_cell_setting 'monoclinic'
loop_
_space_group_symop_operation_xyz
x,y,z
-x,y,-z
-x,-y,-z
x,-y,z
1/2+x,1/2+y,z
1/2-x,1/2+y,-z
1/2-x,1/2-y,-z
1/2+x,1/2-y,z
loop_
_atom_site_type_symbol
_atom_site_label
_atom_site_fract_x
_atom_site_fract_y
_atom_site_fract_z
Si Si1 0.787840 0.164652 0.032072
Si Si2 0.033281 0.820314 0.366570
Si Si3 0.236120 0.911744 0.674045
Si Si4 0.441718 0.821672 0.783851
Si Si5 0.911336 0.585730 0.269919
O O1 0.918666 0.162256 0.154581
O O2 0.768877 0.122023 0.166053
O O3 0.750000 0.250000 0.000000
O O4 0.705012 0.124698 0.825949
O O5 0.120743 0.886430 0.470960
O O6 0.085321 0.748203 0.349326
O O7 0.000000 0.802708 0.500000
O O8 0.336780 0.871760 0.704400
O O9 0.248830 0.000000 0.690922
O O10 0.532029 0.870975 0.800606
O O11 0.500000 0.795593 0.000000
O O12 0.892894 0.500000 0.212948
O O13 0.000000 0.590436 0.500000
#
# Coordination Sequence:
#
# PCOD9217045 Si02
#       5
#     8   8   8   8   8
#     4  11  21  39  64  92 126 164 209 261 309 372
#     4  10  23  41  65  94 126 168 210 259 310 382
#     4  11  24  40  65  97 129 166 210 263 321 375
#     4  12  22  40  65  94 127 165 211 264 318 370
#     4  11  24  40  64  92 125 168 212 262 318 370
#
# _framework density 20.239508000000001
#
# number of rings (size 3 to 8) (size 9 to 14) (size 15 to 20)
#    0.000    1.000    4.000    2.400    2.800    5.200 
#    3.600    0.000    0.000    0.600    0.000    0.000 
#    0.000    0.000    0.000    0.000    0.000    0.000 
#
# Total GULP energy -111793.690010 kJ/mol
# GULP energy per Si atom -5589.684500 kJ/mol
# Density = 2.019344 g / cm^3
# Si number density = 20.239508 Si / 1000 Ang^3
#
#
#
# Elastic Constant Matrix: (Units=GPa)
#
#
# Indices 1 2 3 4 5 6 
#
# 1 75.6565 44.1153 22.4089 0.0000 17.4424 0.0000
# 2 44.1153 129.8492 34.0891 0.0000 6.4564 0.0000
# 3 22.4089 34.0891 71.3409 0.0000 26.0068 0.0000
# 4 0.0000 0.0000 0.0000 21.1161 0.0000 12.8341
# 5 17.4424 6.4564 26.0068 0.0000 40.5923 0.0000
# 6 0.0000 0.0000 0.0000 12.8341 0.0000 23.8858
#
#
#
# Elastic Compliance Matrix: (Units=1/GPa)
#
#
# Indices 1 2 3 4 5 6 
#
# 1 0.018235 -0.005708 -0.000620 0.000000 -0.006531 0.000000
# 2 -0.005708 0.010682 -0.004679 0.000000 0.003751 0.000000
# 3 -0.000620 -0.004679 0.020979 0.000000 -0.012430 0.000000
# 4 0.000000 0.000000 0.000000 0.070322 0.000000 -0.037785
# 5 -0.006531 0.003751 -0.012430 0.000000 0.034809 0.000000
# 6 0.000000 0.000000 0.000000 -0.037785 0.000000 0.062168
#
#
# Mechanical properties :
#
#
# Convention : Reuss Voigt Hill
#
# Bulk Modulus (GPa) = 35.86370 53.11923 44.49147
# Shear Modulus (GPa) = 20.12051 28.86773 24.49412
#
# Velocity S-wave (km/s) = 3.15639 3.78074 3.48259
# Velocity P-wave (km/s) = 5.57152 6.73506 6.18073
#
# Compressibility (1/GPa) = 0.02788334
#
# Stress axis : x y z
#
# Youngs Moduli (GPa) = 54.83954 93.61315 47.66658
#
# Poissons Ratio (x) = 0.53432 0.02954
# Poissons Ratio (y) = 0.31301 0.22303
# Poissons Ratio (z) = 0.03399 0.43801
#
# Static dielectric constant tensor:
#      x y z
#    x 1.709990 0.000000 0.014210 
#    y 0.000000 1.681140 0.000000 
#    z 0.014210 0.000000 1.793520 
# 
# From -- ./inp_files/75524.got.cif
#   From: 2010.05.17/outbox.cif.g08.bks.cpg/sg12_38_cif.got.tgz:75524.got - 2010.06.03 13:09:07.
