data_PCOD9217205
_publ_section_title
;
Structure prediction by ZEFSAII (Michael W. Deem and Ramdas Pophale) SiO2 
 PCOD9217205
Probable space group: C 2/M
;
_chemical_formula_sum "Si O2"
_cell_formula_units_Z 56
_cell_length_a 15.598668
_cell_length_b 8.595928
_cell_length_c 25.095213
_cell_angle_alpha 90.000000
_cell_angle_beta 59.645803
_cell_angle_gamma 90.000000
_cell_volume 2903.625888
_symmetry_space_group_name_H-M "C 2/M"
_symmetry_group_IT_number 12
_symmetry_cell_setting 'monoclinic'
loop_
_space_group_symop_operation_xyz
x,y,z
-x,y,-z
-x,-y,-z
x,-y,z
1/2+x,1/2+y,z
1/2-x,1/2+y,-z
1/2-x,1/2-y,-z
1/2+x,1/2-y,z
loop_
_atom_site_type_symbol
_atom_site_label
_atom_site_fract_x
_atom_site_fract_y
_atom_site_fract_z
Si Si1 0.918366 0.314349 0.789878
Si Si2 0.584464 0.689359 0.431344
Si Si3 0.307986 0.312659 0.116505
Si Si4 0.022578 0.185202 0.858720
Si Si5 0.854293 0.314867 0.989231
Si Si6 0.997946 0.186534 0.345791
Si Si7 0.221402 0.312898 0.567265
O O1 0.918252 0.500000 0.784954
O O2 0.806987 0.266146 0.842190
O O3 0.994154 0.264704 0.812320
O O4 0.948252 0.241234 0.724456
O O5 0.500000 0.739520 0.500000
O O6 0.583472 0.500000 0.431672
O O7 0.555054 0.740317 0.381375
O O8 0.692052 0.737638 0.419013
O O9 0.312407 0.500000 0.106901
O O10 0.370416 0.275807 0.149870
O O11 0.357275 0.231206 0.050202
O O12 0.016607 0.000000 0.853707
O O13 0.941746 0.238055 0.927767
O O14 0.857934 0.500000 0.981318
O O15 0.750000 0.250000 0.000000
O O16 0.886340 0.251487 0.382979
O O17 0.993415 0.000000 0.348376
O O18 0.220255 0.500000 0.565939
O O19 0.250000 0.250000 0.500000
#
# Coordination Sequence:
#
# PCOD9217205 Si02
#       7
#     8   8   8   8   8   8   8
#     4  11  24  43  63  87 123 165 206 253 305 368
#     4   9  18  36  61  88 120 157 194 239 296 359
#     4  10  23  42  64  90 125 163 205 259 313 364
#     4  11  23  41  65  93 125 164 206 256 312 368
#     4  12  23  37  62  94 126 163 207 258 312 367
#     4  11  23  41  63  88 121 161 204 251 302 362
#     4  11  21  37  62  92 123 156 196 244 300 360
#
# _framework density 19.28623
#
# number of rings (size 3 to 8) (size 9 to 14) (size 15 to 20)
#    0.000    1.286    2.857    3.429    0.000    4.571 
#    0.000    6.429    0.000    0.000    0.000    0.000 
#    0.000    0.000    0.000    0.000    0.000    0.000 
#
# Total GULP energy -156552.337635 kJ/mol
# GULP energy per Si atom -5591.154916 kJ/mol
# Density = 1.924233 g / cm^3
# Si number density = 19.286230 Si / 1000 Ang^3
#
#
#
# Elastic Constant Matrix: (Units=GPa)
#
#
# Indices 1 2 3 4 5 6 
#
# 1 123.5917 21.6509 26.1306 0.0000 27.1554 0.0000
# 2 21.6509 40.7427 12.0090 0.0000 4.1994 0.0000
# 3 26.1306 12.0090 90.7072 0.0000 24.3241 0.0000
# 4 0.0000 0.0000 0.0000 34.6776 0.0000 0.2798
# 5 27.1554 4.1994 24.3241 0.0000 25.4609 0.0000
# 6 0.0000 0.0000 0.0000 0.2798 0.0000 24.6303
#
#
#
# Elastic Compliance Matrix: (Units=1/GPa)
#
#
# Indices 1 2 3 4 5 6 
#
# 1 0.011480 -0.005035 0.000565 0.000000 -0.011953 0.000000
# 2 -0.005035 0.027782 -0.003279 0.000000 0.003921 0.000000
# 3 0.000565 -0.003279 0.015209 0.000000 -0.014591 0.000000
# 4 0.000000 0.000000 0.000000 0.028840 0.000000 -0.000328
# 5 -0.011953 0.003921 -0.014591 0.000000 0.065318 0.000000
# 6 0.000000 0.000000 0.000000 -0.000328 0.000000 0.040604
#
#
# Mechanical properties :
#
#
# Convention : Reuss Voigt Hill
#
# Bulk Modulus (GPa) = 25.65899 41.62476 33.64188
# Shear Modulus (GPa) = 22.96503 29.97049 26.46776
#
# Velocity S-wave (km/s) = 3.45446 3.94634 3.70856
# Velocity P-wave (km/s) = 5.40780 6.51109 5.98492
#
# Compressibility (1/GPa) = 0.03897269
#
# Stress axis : x y z
#
# Youngs Moduli (GPa) = 87.10679 35.99408 65.75197
#
# Poissons Ratio (x) = 0.18123 -0.03714
# Poissons Ratio (y) = 0.43859 0.21560
# Poissons Ratio (z) = -0.04920 0.11803
#
# Static dielectric constant tensor:
#      x y z
#    x 1.676910 0.000000 0.009890 
#    y 0.000000 1.651580 0.000000 
#    z 0.009890 0.000000 1.634970 
# 
# From -- ./inp_files/338513.got.cif
#   From: 2010.05.17/outbox.cif.g08.bks.cpg/sg12_170_cif.got.tgz:338513.got - 2010.06.03 13:09:07.
