data_PCOD9217489
_publ_section_title
;
Structure prediction by ZEFSAII (Michael W. Deem and Ramdas Pophale) SiO2 
 PCOD9217489
Probable space group: C 2/M
;
_chemical_formula_sum "Si O2"
_cell_formula_units_Z 64
_cell_length_a 16.519330
_cell_length_b 21.746212
_cell_length_c 9.472165
_cell_angle_alpha 90.000000
_cell_angle_beta 89.512537
_cell_angle_gamma 90.000000
_cell_volume 3402.589701
_symmetry_space_group_name_H-M "C 2/M"
_symmetry_group_IT_number 12
_symmetry_cell_setting 'monoclinic'
loop_
_space_group_symop_operation_xyz
x,y,z
-x,y,-z
-x,-y,-z
x,-y,z
1/2+x,1/2+y,z
1/2-x,1/2+y,-z
1/2-x,1/2-y,-z
1/2+x,1/2-y,z
loop_
_atom_site_type_symbol
_atom_site_label
_atom_site_fract_x
_atom_site_fract_y
_atom_site_fract_z
Si Si1 0.509387 0.928266 0.335987
Si Si2 0.435814 0.571194 0.876086
Si Si3 0.746158 0.926742 0.937725
Si Si4 0.279460 0.432860 0.496270
Si Si5 0.687424 0.109232 0.244749
Si Si6 0.150574 0.625361 0.686720
Si Si7 0.423031 0.652907 0.602096
Si Si8 0.334353 0.777276 0.552397
O O1 0.500000 0.908493 0.500000
O O2 0.598152 0.916806 0.276518
O O3 0.437122 0.894157 0.258116
O O4 0.491868 0.000000 0.331208
O O5 0.447891 0.500000 0.826174
O O6 0.343505 0.575277 0.932663
O O7 0.443219 0.620654 0.750566
O O8 0.500000 0.582191 0.000000
O O9 0.711984 0.881963 0.815625
O O10 0.723811 0.000000 0.917323
O O11 0.710591 0.900734 0.083453
O O12 0.310683 0.500000 0.531953
O O13 0.255727 0.426080 0.334282
O O14 0.193975 0.421678 0.576529
O O15 0.344843 0.383415 0.542766
O O16 0.683291 0.176525 0.317424
O O17 0.138895 0.684922 0.588112
O O18 0.500000 0.645687 0.500000
O O19 0.395138 0.724045 0.600968
O O20 0.250000 0.750000 0.500000
#
# Coordination Sequence:
#
# PCOD9217489 Si02
#       8
#     8   8   8   8   8   8   8   8
#     4  11  20  34  60  95 125 156 204 270 324 370
#     4  10  23  43  66  96 133 170 210 267 336 390
#     4  11  22  41  65  95 136 170 205 259 329 400
#     4  11  20  38  64  94 125 162 217 269 330 385
#     4  11  24  38  62  96 127 169 214 263 319 385
#     4  11  22  38  65  92 124 173 210 257 322 385
#     4  12  26  41  67  97 127 171 222 275 317 376
#     4  11  22  44  64  89 124 169 224 265 304 374
#
# _framework density 18.809203
#
# number of rings (size 3 to 8) (size 9 to 14) (size 15 to 20)
#    0.000    1.000    6.250    2.625    3.500    1.500 
#    0.000    5.000    0.000    0.000    0.000    0.000 
#    0.000    0.000    0.000    0.000    0.000    0.000 
#
# Total GULP energy -178469.071554 kJ/mol
# GULP energy per Si atom -5577.158486 kJ/mol
# Density = 1.876639 g / cm^3
# Si number density = 18.809203 Si / 1000 Ang^3
#
#
#
# Elastic Constant Matrix: (Units=GPa)
#
#
# Indices 1 2 3 4 5 6 
#
# 1 87.8946 36.4561 38.0359 0.0000 9.2575 0.0000
# 2 36.4561 102.0734 54.1248 0.0000 7.5063 0.0000
# 3 38.0359 54.1248 118.0124 0.0000 -3.4674 0.0000
# 4 0.0000 0.0000 0.0000 20.5750 0.0000 10.6841
# 5 9.2575 7.5063 -3.4674 0.0000 30.4687 0.0000
# 6 0.0000 0.0000 0.0000 10.6841 0.0000 18.8506
#
#
#
# Elastic Compliance Matrix: (Units=1/GPa)
#
#
# Indices 1 2 3 4 5 6 
#
# 1 0.014557 -0.003106 -0.003386 0.000000 -0.004043 0.000000
# 2 -0.003106 0.014081 -0.005550 0.000000 -0.003157 0.000000
# 3 -0.003386 -0.005550 0.012222 0.000000 0.003787 0.000000
# 4 0.000000 0.000000 0.000000 0.068873 0.000000 -0.039036
# 5 -0.004043 -0.003157 0.003787 0.000000 0.035258 0.000000
# 6 0.000000 0.000000 0.000000 -0.039036 0.000000 0.075173
#
#
# Mechanical properties :
#
#
# Convention : Reuss Voigt Hill
#
# Bulk Modulus (GPa) = 59.61009 62.80153 61.20581
# Shear Modulus (GPa) = 20.01289 25.93644 22.97466
#
# Velocity S-wave (km/s) = 3.26543 3.71741 3.49873
# Velocity P-wave (km/s) = 6.78072 7.20325 6.99517
#
# Compressibility (1/GPa) = 0.01677568
#
# Stress axis : x y z
#
# Youngs Moduli (GPa) = 68.69702 71.01648 81.82301
#
# Poissons Ratio (x) = 0.22060 0.27703
# Poissons Ratio (y) = 0.21340 0.45410
# Poissons Ratio (z) = 0.23259 0.39412
#
# Static dielectric constant tensor:
#      x y z
#    x 1.651100 0.000000 0.022680 
#    y 0.000000 1.685650 0.000000 
#    z 0.022680 0.000000 1.665340 
# 
# From -- ./inp_files/77510.got.cif
#   From: 2010.05.17/outbox.cif.g08.bks.cpg/sg12_39_cif.got.tgz:77510.got - 2010.06.03 13:09:07.
