data_PCOD9217790
_publ_section_title
;
Structure prediction by ZEFSAII (Michael W. Deem and Ramdas Pophale) SiO2 
 PCOD9217790
Probable space group: C 2/M
;
_chemical_formula_sum "Si O2"
_cell_formula_units_Z 64
_cell_length_a 30.925794
_cell_length_b 15.052641
_cell_length_c 22.423749
_cell_angle_alpha 90.000000
_cell_angle_beta 165.104921
_cell_angle_gamma 90.000000
_cell_volume 2683.237060
_symmetry_space_group_name_H-M "C 2/M"
_symmetry_group_IT_number 12
_symmetry_cell_setting 'monoclinic'
loop_
_space_group_symop_operation_xyz
x,y,z
-x,y,-z
-x,-y,-z
x,-y,z
1/2+x,1/2+y,z
1/2-x,1/2+y,-z
1/2-x,1/2-y,-z
1/2+x,1/2-y,z
loop_
_atom_site_type_symbol
_atom_site_label
_atom_site_fract_x
_atom_site_fract_y
_atom_site_fract_z
Si Si1 0.438529 0.596861 0.350158
Si Si2 0.851747 0.636275 0.379647
Si Si3 0.837751 0.268094 0.054773
Si Si4 0.256839 0.903518 0.123279
Si Si5 0.888273 0.700314 0.761349
Si Si6 0.851639 0.894317 0.653981
Si Si7 0.385198 0.908218 0.550284
Si Si8 0.754189 0.322398 0.717213
O O1 0.500000 0.596907 0.500000
O O2 0.365665 0.500000 0.239507
O O3 0.296542 0.671799 0.158199
O O4 0.597043 0.611981 0.516881
O O5 0.766688 0.597684 0.207855
O O6 0.794038 0.597489 0.365380
O O7 0.816109 0.739114 0.338933
O O8 0.052092 0.619332 0.641745
O O9 0.865210 0.173969 0.060158
O O10 0.750000 0.250000 0.000000
O O11 0.000154 0.324150 0.285224
O O12 0.215976 0.000000 0.044870
O O13 0.927709 0.796575 0.781200
O O14 0.766948 0.640998 0.557908
O O15 0.801134 0.704735 0.711442
O O16 0.068698 0.654164 0.015322
O O17 0.740138 0.911319 0.563058
O O18 0.916333 0.000000 0.726894
O O19 0.487523 0.000000 0.685170
#
# Coordination Sequence:
#
# PCOD9217790 Si02
#       8
#     8   8   8   8   8   8   8   8
#     4  11  25  44  67  98 135 173 221 275 324 388
#     4  11  20  39  63  88 129 166 213 267 323 380
#     4  12  24  38  62  93 136 174 216 266 326 388
#     4  11  23  38  61  94 131 173 219 263 320 394
#     4  10  24  44  71  95 133 169 223 274 330 391
#     4  10  23  45  70  97 129 168 218 276 333 394
#     4  11  22  39  66  95 126 171 221 268 331 395
#     4  11  22  43  69  97 128 177 218 273 330 392
#
# _framework density 23.851786000000001
#
# number of rings (size 3 to 8) (size 9 to 14) (size 15 to 20)
#    0.000    1.125    3.750    2.625    3.500    1.500 
#    0.000    4.375    0.000    0.000    0.000    0.000 
#    0.000    0.000    0.000    0.000    0.000    0.000 
#
# Total GULP energy -178595.858894 kJ/mol
# GULP energy per Si atom -5581.120590 kJ/mol
# Density = 2.379750 g / cm^3
# Si number density = 23.851786 Si / 1000 Ang^3
#
#
#
# Elastic Constant Matrix: (Units=GPa)
#
#
# Indices 1 2 3 4 5 6 
#
# 1 93.4902 0.9510 11.2632 -0.0025 -12.3704 0.0065
# 2 0.9510 133.8711 9.8523 -0.0026 -14.0694 0.0020
# 3 11.2632 9.8523 40.7756 -0.0129 -13.1628 0.0194
# 4 -0.0025 -0.0026 -0.0129 63.7655 -0.0020 -83.6739
# 5 -12.3704 -14.0694 -13.1628 -0.0020 35.1531 0.0043
# 6 0.0065 0.0020 0.0194 -83.6739 0.0043 109.1611
#
#
#
# Elastic Compliance Matrix: (Units=1/GPa)
#
#
# Indices 1 2 3 4 5 6 
#
# 1 0.011399 0.000433 -0.002164 0.000075 0.003374 0.000057
# 2 0.000433 0.007850 -0.001084 -0.000015 0.002888 -0.000011
# 3 -0.002164 -0.001084 0.028435 0.000176 0.009452 0.000129
# 4 0.000075 -0.000015 0.000176 -2.687793 0.000183 -2.060240
# 5 0.003374 0.002888 0.009452 0.000183 0.034330 0.000137
# 6 0.000057 -0.000011 0.000129 -2.060240 0.000137 -1.570049
#
#
# Mechanical properties :
#
#
# Convention : Reuss Voigt Hill
#
# Bulk Modulus (GPa) = 23.77870 34.69663 29.23767
# Shear Modulus (GPa) = -1.20303 58.02063 28.40880
#
# Velocity S-wave (km/s) = -0.71097 4.93744 3.45491
# Velocity P-wave (km/s) = 3.05238 6.86169 5.31036
#
# Compressibility (1/GPa) = 0.04205444
#
# Stress axis : x y z
#
# Youngs Moduli (GPa) = 87.72626 127.38649 35.16748
#
# Poissons Ratio (x) = -0.05515 0.07610
# Poissons Ratio (y) = -0.03798 0.03812
# Poissons Ratio (z) = 0.18984 0.13808
#
# Static dielectric constant tensor:
#      x y z
#    x 1.885530 0.000000 0.038540 
#    y 0.000000 2.157310 -0.000010 
#    z 0.038540 -0.000010 1.864260 
# 
# From -- ./inp_files/330412.got.cif
#   From: 2010.05.17/outbox.cif.g08.bks.cpg/sg12_166_cif.got.tgz:330412.got - 2010.06.03 13:09:07.
