data_PCOD9217126
_publ_section_title
;
Structure prediction by ZEFSAII (Michael W. Deem and Ramdas Pophale) SiO2 
 PCOD9217126
Probable space group: C 2/M
;
_chemical_formula_sum "Si O2"
_cell_formula_units_Z 40
_cell_length_a 9.068536
_cell_length_b 20.855412
_cell_length_c 9.799464
_cell_angle_alpha 90.000000
_cell_angle_beta 88.069269
_cell_angle_gamma 90.000000
_cell_volume 1852.301393
_symmetry_space_group_name_H-M "C 2/M"
_symmetry_group_IT_number 12
_symmetry_cell_setting 'monoclinic'
loop_
_space_group_symop_operation_xyz
x,y,z
-x,y,-z
-x,-y,-z
x,-y,z
1/2+x,1/2+y,z
1/2-x,1/2+y,-z
1/2-x,1/2-y,-z
1/2+x,1/2-y,z
loop_
_atom_site_type_symbol
_atom_site_label
_atom_site_fract_x
_atom_site_fract_y
_atom_site_fract_z
Si Si1 0.670948 0.189145 0.717246
Si Si2 0.165317 0.318082 0.314660
Si Si3 0.877428 0.073641 0.384930
Si Si4 0.647299 0.573852 0.204963
Si Si5 0.336542 0.860602 0.996155
O O1 0.761395 0.249394 0.662467
O O2 0.509548 0.185382 0.659593
O O3 0.758450 0.122447 0.704536
O O4 0.655559 0.193427 0.884452
O O5 0.250151 0.373931 0.391365
O O6 0.185397 0.334917 0.153472
O O7 0.000000 0.079632 0.500000
O O8 0.976621 0.084232 0.245343
O O9 0.823302 0.000000 0.388064
O O10 0.679778 0.500000 0.233370
O O11 0.707195 0.593039 0.053969
O O12 0.500000 0.892428 0.000000
#
# Coordination Sequence:
#
# PCOD9217126 Si02
#       5
#     8   8   8   8   8
#     4   9  20  34  57  90 116 152 183 229 288 339
#     4  11  19  37  58  85 117 153 189 231 285 338
#     4  10  23  42  60  80 111 151 195 242 283 328
#     4   9  19  37  57  81 116 149 185 234 285 335
#     4   8  18  33  55  87 118 150 179 227 282 341
#
# _framework density 21.594760000000001
#
# number of rings (size 3 to 8) (size 9 to 14) (size 15 to 20)
#    1.200    1.400    0.000    1.800    0.000    2.800 
#    0.000    7.000    0.000    3.600    0.000    0.000 
#    0.000    0.000    0.000    0.000    0.000    0.000 
#
# Total GULP energy -111521.463307 kJ/mol
# GULP energy per Si atom -5576.073165 kJ/mol
# Density = 2.154561 g / cm^3
# Si number density = 21.594760 Si / 1000 Ang^3
#
#
#
# Elastic Constant Matrix: (Units=GPa)
#
#
# Indices 1 2 3 4 5 6 
#
# 1 85.3450 78.1520 -0.8126 0.0000 24.2282 0.0000
# 2 78.1520 141.1823 5.2440 0.0000 29.9490 0.0000
# 3 -0.8126 5.2440 89.3221 0.0000 8.0938 0.0000
# 4 0.0000 0.0000 0.0000 -0.4916 0.0000 26.3339
# 5 24.2282 29.9490 8.0938 0.0000 25.3144 0.0000
# 6 0.0000 0.0000 0.0000 26.3339 0.0000 9.1548
#
#
#
# Elastic Compliance Matrix: (Units=1/GPa)
#
#
# Indices 1 2 3 4 5 6 
#
# 1 0.025971 -0.012073 0.001960 0.000000 -0.011200 0.000000
# 2 -0.012073 0.015088 -0.000438 0.000000 -0.006155 0.000000
# 3 0.001960 -0.000438 0.011701 0.000000 -0.005099 0.000000
# 4 0.000000 0.000000 0.000000 -0.013116 0.000000 0.037729
# 5 -0.011200 -0.006155 -0.005099 0.000000 0.059135 0.000000
# 6 0.000000 0.000000 0.000000 0.037729 0.000000 0.000704
#
#
# Mechanical properties :
#
#
# Convention : Reuss Voigt Hill
#
# Bulk Modulus (GPa) = 31.58804 53.44625 42.51714
# Shear Modulus (GPa) = 38.12762 22.34659 30.23710
#
# Velocity S-wave (km/s) = 4.20646 3.22034 3.74599
# Velocity P-wave (km/s) = 6.18480 6.21537 6.20011
#
# Compressibility (1/GPa) = 0.03165756
#
# Stress axis : x y z
#
# Youngs Moduli (GPa) = 38.50442 66.27643 85.46279
#
# Poissons Ratio (x) = 0.80018 -0.16750
# Poissons Ratio (y) = 0.46488 0.03742
# Poissons Ratio (z) = -0.07546 0.02902
#
# Static dielectric constant tensor:
#      x y z
#    x 1.763580 0.000000 -0.044380 
#    y 0.000000 1.729940 0.000000 
#    z -0.044380 0.000000 1.873790 
# 
# From -- ./inp_files/120314.got.cif
#   From: 2010.05.17/outbox.cif.g08.bks.cpg/sg12_61_cif.got.tgz:120314.got - 2010.06.03 13:09:07.
