data_PCOD9217295
_publ_section_title
;
Structure prediction by ZEFSAII (Michael W. Deem and Ramdas Pophale) SiO2 
 PCOD9217295
Probable space group: C 2/M
;
_chemical_formula_sum "Si O2"
_cell_formula_units_Z 48
_cell_length_a 17.093560
_cell_length_b 18.432938
_cell_length_c 13.931690
_cell_angle_alpha 90.000000
_cell_angle_beta 150.476263
_cell_angle_gamma 90.000000
_cell_volume 2163.154646
_symmetry_space_group_name_H-M "C 2/M"
_symmetry_group_IT_number 12
_symmetry_cell_setting 'monoclinic'
loop_
_space_group_symop_operation_xyz
x,y,z
-x,y,-z
-x,-y,-z
x,-y,z
1/2+x,1/2+y,z
1/2-x,1/2+y,-z
1/2-x,1/2-y,-z
1/2+x,1/2-y,z
loop_
_atom_site_type_symbol
_atom_site_label
_atom_site_fract_x
_atom_site_fract_y
_atom_site_fract_z
Si Si1 0.193772 0.415838 0.133862
Si Si2 0.356064 0.151572 0.725643
Si Si3 0.754945 0.699611 0.308914
Si Si4 0.859718 0.135484 0.133097
Si Si5 0.335973 0.584847 0.652896
Si Si6 0.615732 0.793223 0.756821
O O1 0.150427 0.500000 0.088207
O O2 0.234315 0.390311 0.284262
O O3 0.331550 0.401810 0.204962
O O4 0.039199 0.370299 0.935453
O O5 0.325275 0.235542 0.716487
O O6 0.286055 0.125050 0.550463
O O7 0.673004 0.625789 0.255000
O O8 0.766045 0.718192 0.207942
O O9 0.939256 0.691884 0.533896
O O10 0.898971 0.219697 0.197189
O O11 0.993358 0.098085 0.213248
O O12 0.693700 0.141795 0.899446
O O13 0.300156 0.500000 0.621039
#
# Coordination Sequence:
#
# PCOD9217295 Si02
#       6
#     8   8   8   8   8   8
#     4  11  23  39  61  95 136 172 209 258 329 387
#     4  11  22  39  64  96 127 172 215 265 310 383
#     4  11  23  44  67  97 123 171 220 264 316 380
#     4  11  23  40  64  94 130 166 211 266 326 375
#     4  12  26  42  65  97 133 169 213 268 326 380
#     4  10  23  42  66  93 124 166 219 269 310 375
#
# _framework density 22.189813999999998
#
# number of rings (size 3 to 8) (size 9 to 14) (size 15 to 20)
#    0.000    1.000    3.333    4.000    4.667    1.333 
#    0.000    6.667    0.000    0.000    0.000    0.000 
#    0.000    0.000    0.000    0.000    0.000    0.000 
#
# Total GULP energy -134274.723515 kJ/mol
# GULP energy per Si atom -5594.780146 kJ/mol
# Density = 2.213931 g / cm^3
# Si number density = 22.189814 Si / 1000 Ang^3
#
#
#
# Elastic Constant Matrix: (Units=GPa)
#
#
# Indices 1 2 3 4 5 6 
#
# 1 66.2613 42.4048 -3.2768 0.0000 10.5496 0.0000
# 2 42.4048 99.3144 -5.1973 0.0000 0.1874 0.0000
# 3 -3.2768 -5.1973 32.1063 0.0000 -6.0789 0.0000
# 4 0.0000 0.0000 0.0000 13.5024 0.0000 4.6244
# 5 10.5496 0.1874 -6.0789 0.0000 20.8029 0.0000
# 6 0.0000 0.0000 0.0000 4.6244 0.0000 16.5949
#
#
#
# Elastic Compliance Matrix: (Units=1/GPa)
#
#
# Indices 1 2 3 4 5 6 
#
# 1 0.023390 -0.010045 -0.001554 0.000000 -0.012225 0.000000
# 2 -0.010045 0.014472 0.002390 0.000000 0.005662 0.000000
# 3 -0.001554 0.002390 0.033366 0.000000 0.010516 0.000000
# 4 0.000000 0.000000 0.000000 0.081875 0.000000 -0.022816
# 5 -0.012225 0.005662 0.010516 0.000000 0.057292 0.000000
# 6 0.000000 0.000000 0.000000 -0.022816 0.000000 0.066618
#
#
# Mechanical properties :
#
#
# Convention : Reuss Voigt Hill
#
# Bulk Modulus (GPa) = 18.93582 29.50484 24.22033
# Shear Modulus (GPa) = 15.97272 21.09680 18.53476
#
# Velocity S-wave (km/s) = 2.68586 3.08676 2.89326
# Velocity P-wave (km/s) = 4.26269 5.10191 4.70107
#
# Compressibility (1/GPa) = 0.05280996
#
# Stress axis : x y z
#
# Youngs Moduli (GPa) = 42.75367 69.09697 29.97072
#
# Poissons Ratio (x) = 0.69409 0.04656
# Poissons Ratio (y) = 0.42947 -0.07162
# Poissons Ratio (z) = 0.06642 -0.16511
#
# Static dielectric constant tensor:
#      x y z
#    x 1.880320 0.000000 -0.017730 
#    y 0.000000 1.770100 0.000000 
#    z -0.017730 0.000000 1.839260 
# 
# From -- ./inp_files/226917.got.cif
#   From: 2010.05.17/outbox.cif.g08.bks.cpg/sg12_114_cif.got.tgz:226917.got - 2010.06.03 13:09:07.
