data_PCOD9217577
_publ_section_title
;
Structure prediction by ZEFSAII (Michael W. Deem and Ramdas Pophale) SiO2 
 PCOD9217577
Probable space group: C 2/M
;
_chemical_formula_sum "Si O2"
_cell_formula_units_Z 40
_cell_length_a 17.245984
_cell_length_b 12.844794
_cell_length_c 11.611513
_cell_angle_alpha 90.000000
_cell_angle_beta 140.917368
_cell_angle_gamma 90.000000
_cell_volume 1621.616166
_symmetry_space_group_name_H-M "C 2/M"
_symmetry_group_IT_number 12
_symmetry_cell_setting 'monoclinic'
loop_
_space_group_symop_operation_xyz
x,y,z
-x,y,-z
-x,-y,-z
x,-y,z
1/2+x,1/2+y,z
1/2-x,1/2+y,-z
1/2-x,1/2-y,-z
1/2+x,1/2-y,z
loop_
_atom_site_type_symbol
_atom_site_label
_atom_site_fract_x
_atom_site_fract_y
_atom_site_fract_z
Si Si1 0.009910 0.816742 0.385875
Si Si2 0.361755 0.682966 0.674874
Si Si3 0.820504 0.617995 0.348195
Si Si4 0.258809 0.617339 0.008841
Si Si5 0.517789 0.112191 0.884890
O O1 0.088344 0.876690 0.379261
O O2 0.082479 0.706265 0.496437
O O3 0.000000 0.866942 0.500000
O O4 0.872052 0.810997 0.177058
O O5 0.250000 0.750000 0.500000
O O6 0.305818 0.629041 0.722624
O O7 0.461466 0.773475 0.805446
O O8 0.868074 0.500000 0.417525
O O9 0.787785 0.631032 0.176102
O O10 0.310340 0.500000 0.070104
O O11 0.151769 0.618079 0.981702
O O12 0.464519 0.000000 0.776488
O O13 0.500000 0.100936 0.000000
#
# Coordination Sequence:
#
# PCOD9217577 Si02
#       5
#     8   8   8   8   8
#     4  11  25  42  73 108 143 185 235 298 355 423
#     4  10  24  41  67 105 141 184 234 291 353 416
#     4  10  24  48  74 102 142 193 244 290 348 425
#     4  10  24  47  75 106 141 187 238 294 358 425
#     4  10  23  43  70 100 137 181 230 286 353 428
#
# _framework density 24.66675
#
# number of rings (size 3 to 8) (size 9 to 14) (size 15 to 20)
#    0.000    1.800    0.000    1.200    8.400    6.400 
#    0.000    5.000    0.000    2.400    0.000    0.000 
#    0.000    0.000    0.000    0.000    0.000    0.000 
#
# Total GULP energy -111504.654112 kJ/mol
# GULP energy per Si atom -5575.232706 kJ/mol
# Density = 2.461061 g / cm^3
# Si number density = 24.666750 Si / 1000 Ang^3
#
#
#
# Elastic Constant Matrix: (Units=GPa)
#
#
# Indices 1 2 3 4 5 6 
#
# 1 244.9840 44.8201 79.6824 0.0000 -38.7654 0.0000
# 2 44.8201 137.9985 33.0684 0.0000 -0.2426 0.0000
# 3 79.6824 33.0684 136.9197 0.0000 -19.9586 0.0000
# 4 0.0000 0.0000 0.0000 8.0544 0.0000 2.2972
# 5 -38.7654 -0.2426 -19.9586 0.0000 40.7551 0.0000
# 6 0.0000 0.0000 0.0000 2.2972 0.0000 76.5249
#
#
#
# Elastic Compliance Matrix: (Units=1/GPa)
#
#
# Indices 1 2 3 4 5 6 
#
# 1 0.005790 -0.001291 -0.002430 0.000000 0.004310 0.000000
# 2 -0.001291 0.008012 -0.001460 0.000000 -0.001895 0.000000
# 3 -0.002430 -0.001460 0.009403 0.000000 0.002285 0.000000
# 4 0.000000 0.000000 0.000000 0.125228 0.000000 -0.003759
# 5 0.004310 -0.001895 0.002285 0.000000 0.029744 0.000000
# 6 0.000000 0.000000 0.000000 -0.003759 0.000000 0.013180
#
#
# Mechanical properties :
#
#
# Convention : Reuss Voigt Hill
#
# Bulk Modulus (GPa) = 77.85415 92.78265 85.31840
# Shear Modulus (GPa) = 24.27163 49.22230 36.74696
#
# Velocity S-wave (km/s) = 3.14025 4.47194 3.86390
# Velocity P-wave (km/s) = 6.69172 8.02250 7.38714
#
# Compressibility (1/GPa) = 0.01284453
#
# Stress axis : x y z
#
# Youngs Moduli (GPa) = 172.70095 124.80880 106.34524
#
# Poissons Ratio (x) = 0.16111 0.25839
# Poissons Ratio (y) = 0.22293 0.15528
# Poissons Ratio (z) = 0.41962 0.18224
#
# Static dielectric constant tensor:
#      x y z
#    x 2.023350 0.000000 -0.061050 
#    y 0.000000 2.058440 0.000000 
#    z -0.061050 0.000000 1.991330 
# 
# From -- ./inp_files/153880.got.cif
#   From: 2010.05.17/outbox.cif.g08.bks.cpg/sg12_77_cif.got.tgz:153880.got - 2010.06.03 13:09:07.
