data_PCOD9217853
_publ_section_title
;
Structure prediction by ZEFSAII (Michael W. Deem and Ramdas Pophale) SiO2 
 PCOD9217853
Probable space group: C 2/M
;
_chemical_formula_sum "Si O2"
_cell_formula_units_Z 54
_cell_length_a 30.520840
_cell_length_b 13.592294
_cell_length_c 5.458254
_cell_angle_alpha 90.000000
_cell_angle_beta 89.912816
_cell_angle_gamma 90.000000
_cell_volume 2264.344392
_symmetry_space_group_name_H-M "C 2/M"
_symmetry_group_IT_number 12
_symmetry_cell_setting 'monoclinic'
loop_
_space_group_symop_operation_xyz
x,y,z
-x,y,-z
-x,-y,-z
x,-y,z
1/2+x,1/2+y,z
1/2-x,1/2+y,-z
1/2-x,1/2-y,-z
1/2+x,1/2-y,z
loop_
_atom_site_type_symbol
_atom_site_label
_atom_site_fract_x
_atom_site_fract_y
_atom_site_fract_z
Si Si1 0.463302 0.393548 0.214470
Si Si2 0.144103 0.389021 0.550483
Si Si3 0.791656 0.120083 0.909219
Si Si4 0.500000 0.211017 0.500000
Si Si5 0.882251 0.790967 0.087335
Si Si6 0.429459 0.138136 0.819159
Si Si7 0.500000 0.000000 0.000000
Si Si8 0.243761 0.618222 0.410624
O O1 0.466754 0.500000 0.340770
O O2 0.475853 0.289366 0.330342
O O3 0.410782 0.380598 0.186225
O O4 0.500000 0.399345 0.000000
O O5 0.143800 0.500000 0.665362
O O6 0.127227 0.301587 0.729419
O O7 0.115278 0.397431 0.303332
O O8 0.193215 0.362537 0.470821
O O9 0.837804 0.171339 0.966905
O O10 0.760468 0.147141 0.140729
O O11 0.796015 0.000000 0.906406
O O12 0.772460 0.151538 0.644830
O O13 0.463600 0.139053 0.600230
O O14 0.916902 0.747261 0.893424
O O15 0.459957 0.083473 0.014358
O O16 0.247761 0.500000 0.410720
#
# Coordination Sequence:
#
# PCOD9217853 Si02
#       8
#     8   8   8   4   8   8   2   8
#     4  11  23  43  67  97 135 180 227 288 365 432
#     4  11  26  46  70 101 142 187 243 300 369 438
#     4  10  23  46  74 109 151 195 241 298 378 441
#     4  12  23  45  68  96 140 180 235 298 369 440
#     4  12  26  43  69 105 141 181 243 303 362 447
#     4  12  27  44  69 102 138 187 246 309 363 450
#     4  12  28  50  72  96 144 200 244 310 384 428
#     4   9  22  45  73 106 149 199 242 301 367 455
#
# _framework density 23.847961000000002
#
# number of rings (size 3 to 8) (size 9 to 14) (size 15 to 20)
#    0.000    1.037    3.704    1.556    5.185    1.481 
#    0.000    0.000    0.000    0.000    0.000    0.000 
#    0.000    0.000    0.000    0.000    0.000    0.000 
#
# Total GULP energy -150314.445354 kJ/mol
# GULP energy per Si atom -5567.201680 kJ/mol
# Density = 2.379368 g / cm^3
# Si number density = 23.847961 Si / 1000 Ang^3
#
#
#
# Elastic Constant Matrix: (Units=GPa)
#
#
# Indices 1 2 3 4 5 6 
#
# 1 168.4748 22.2226 38.8802 0.0000 24.4846 0.0000
# 2 22.2226 96.3502 11.2521 0.0000 7.5049 0.0000
# 3 38.8802 11.2521 76.6732 0.0000 12.7499 0.0000
# 4 0.0000 0.0000 0.0000 -223.8648 0.0000 33.7704
# 5 24.4846 7.5049 12.7499 0.0000 35.2277 0.0000
# 6 0.0000 0.0000 0.0000 33.7704 0.0000 33.7846
#
#
#
# Elastic Compliance Matrix: (Units=1/GPa)
#
#
# Indices 1 2 3 4 5 6 
#
# 1 0.007298 -0.001047 -0.002916 0.000000 -0.003794 0.000000
# 2 -0.001047 0.010818 -0.000845 0.000000 -0.001271 0.000000
# 3 -0.002916 -0.000845 0.015193 0.000000 -0.003292 0.000000
# 4 0.000000 0.000000 0.000000 -0.003882 0.000000 0.003880
# 5 -0.003794 -0.001271 -0.003292 0.000000 0.032486 0.000000
# 6 0.000000 0.000000 0.000000 0.003880 0.000000 0.025721
#
#
# Mechanical properties :
#
#
# Convention : Reuss Voigt Hill
#
# Bulk Modulus (GPa) = 42.20936 54.02310 48.11623
# Shear Modulus (GPa) = 47.55195 -13.02763 17.26216
#
# Velocity S-wave (km/s) = 4.47023 -2.33980 2.69335
# Velocity P-wave (km/s) = 6.66196 3.92464 5.46738
#
# Compressibility (1/GPa) = 0.02369142
#
# Stress axis : x y z
#
# Youngs Moduli (GPa) = 137.02182 92.43824 65.82164
#
# Poissons Ratio (x) = 0.09680 0.19195
# Poissons Ratio (y) = 0.14349 0.05563
# Poissons Ratio (z) = 0.39959 0.07813
#
# Static dielectric constant tensor:
#      x y z
#    x 1.884900 0.000000 0.047090 
#    y 0.000000 1.962420 0.000000 
#    z 0.047090 0.000000 2.027990 
# 
# From -- ./inp_files/31549.got.cif
#   From: 2010.05.17/outbox.cif.g08.bks.cpg/sg12_16_cif.got.tgz:31549.got - 2010.06.03 13:09:07.
