data_PCOD9217100
_publ_section_title
;
Structure prediction by ZEFSAII (Michael W. Deem and Ramdas Pophale) SiO2 
 PCOD9217100
Probable space group: C 2/M
;
_chemical_formula_sum "Si O2"
_cell_formula_units_Z 58
_cell_length_a 9.559532
_cell_length_b 13.028206
_cell_length_c 22.324285
_cell_angle_alpha 90.000000
_cell_angle_beta 97.391580
_cell_angle_gamma 90.000000
_cell_volume 2757.241300
_symmetry_space_group_name_H-M "C 2/M"
_symmetry_group_IT_number 12
_symmetry_cell_setting 'monoclinic'
loop_
_space_group_symop_operation_xyz
x,y,z
-x,y,-z
-x,-y,-z
x,-y,z
1/2+x,1/2+y,z
1/2-x,1/2+y,-z
1/2-x,1/2-y,-z
1/2+x,1/2-y,z
loop_
_atom_site_type_symbol
_atom_site_label
_atom_site_fract_x
_atom_site_fract_y
_atom_site_fract_z
Si Si1 0.682050 0.301199 0.554758
Si Si2 0.670654 0.117970 0.843141
Si Si3 0.974391 0.712492 0.635744
Si Si4 0.513805 0.379729 0.146071
Si Si5 0.612831 0.778516 0.955680
Si Si6 0.426002 0.882556 0.747200
Si Si7 0.606725 0.619063 0.726270
Si Si8 0.000000 0.000000 0.500000
O O1 0.750000 0.250000 0.500000
O O2 0.571610 0.227007 0.583025
O O3 0.604105 0.407523 0.533816
O O4 0.815982 0.308799 0.605916
O O5 0.825684 0.161907 0.840421
O O6 0.640477 0.129421 0.911419
O O7 0.537337 0.162895 0.800176
O O8 0.679147 0.000000 0.824225
O O9 0.006116 0.815038 0.677093
O O10 0.001630 0.625912 0.686976
O O11 0.519767 0.500000 0.127234
O O12 0.434043 0.313981 0.091290
O O13 0.444658 0.380159 0.207977
O O14 0.500000 0.801858 0.000000
O O15 0.750000 0.750000 0.000000
O O16 0.267741 0.838648 0.734175
O O17 0.401136 0.000000 0.763814
O O18 0.606683 0.500000 0.705514
#
# Coordination Sequence:
#
# PCOD9217100 Si02
#       8
#     8   8   8   8   8   8   8   2
#     4  12  27  50  74 108 142 196 244 289 352 419
#     4  10  23  43  64  90 133 171 214 278 342 414
#     4  12  24  42  74 103 141 176 236 292 336 419
#     4  10  23  43  64  91 129 173 221 274 347 422
#     4  12  25  40  62  91 121 169 227 279 337 403
#     4  10  23  42  65  99 136 174 218 279 354 414
#     4  10  23  41  68  98 131 176 219 276 355 418
#     4  12  28  52  82  94 160 200 230 304 356 404
#
# _framework density 21.035518
#
# number of rings (size 3 to 8) (size 9 to 14) (size 15 to 20)
#    0.000    1.103    4.138    0.828    5.793    3.310 
#    1.241    0.690    0.000    0.000    0.000    0.000 
#    0.000    0.000    0.000    0.000    0.000    0.000 
#
# Total GULP energy -161553.722494 kJ/mol
# GULP energy per Si atom -5570.818017 kJ/mol
# Density = 2.098764 g / cm^3
# Si number density = 21.035518 Si / 1000 Ang^3
#
#
#
# Elastic Constant Matrix: (Units=GPa)
#
#
# Indices 1 2 3 4 5 6 
#
# 1 142.0882 19.9650 70.9006 0.0000 9.4529 0.0000
# 2 19.9650 62.8318 14.9569 0.0000 21.1573 0.0000
# 3 70.9006 14.9569 133.4487 0.0000 13.1246 0.0000
# 4 0.0000 0.0000 0.0000 27.1103 0.0000 4.4099
# 5 9.4529 21.1573 13.1246 0.0000 55.1891 0.0000
# 6 0.0000 0.0000 0.0000 4.4099 0.0000 23.9701
#
#
#
# Elastic Compliance Matrix: (Units=1/GPa)
#
#
# Indices 1 2 3 4 5 6 
#
# 1 0.009802 -0.002019 -0.005010 0.000000 0.000286 0.000000
# 2 -0.002019 0.018946 -0.000380 0.000000 -0.006827 0.000000
# 3 -0.005010 -0.000380 0.010341 0.000000 -0.001456 0.000000
# 4 0.000000 0.000000 0.000000 0.038024 0.000000 -0.006996
# 5 0.000286 -0.006827 -0.001456 0.000000 0.021034 0.000000
# 6 0.000000 0.000000 0.000000 -0.006996 0.000000 0.043006
#
#
# Mechanical properties :
#
#
# Convention : Reuss Voigt Hill
#
# Bulk Modulus (GPa) = 41.19722 61.11262 51.15492
# Shear Modulus (GPa) = 30.47658 36.75697 33.61678
#
# Velocity S-wave (km/s) = 3.81046 4.18470 4.00196
# Velocity P-wave (km/s) = 6.24392 7.24321 6.76205
#
# Compressibility (1/GPa) = 0.02427348
#
# Stress axis : x y z
#
# Youngs Moduli (GPa) = 102.01654 52.78107 96.70317
#
# Poissons Ratio (x) = 0.10654 0.48447
# Poissons Ratio (y) = 0.20593 0.03671
# Poissons Ratio (z) = 0.51109 0.02003
#
# Static dielectric constant tensor:
#      x y z
#    x 1.775170 0.000000 0.012180 
#    y 0.000000 1.817460 0.000000 
#    z 0.012180 0.000000 1.765150 
# 
# From -- ./inp_files/332653.got.cif
#   From: 2010.05.17/outbox.cif.g08.bks.cpg/sg12_167_cif.got.tgz:332653.got - 2010.06.03 13:09:07.
