data_PCOD9217917
_publ_section_title
;
Structure prediction by ZEFSAII (Michael W. Deem and Ramdas Pophale) SiO2 
 PCOD9217917
Probable space group: C 2/M
;
_chemical_formula_sum "Si O2"
_cell_formula_units_Z 44
_cell_length_a 8.309044
_cell_length_b 25.954334
_cell_length_c 10.557185
_cell_angle_alpha 90.000000
_cell_angle_beta 102.180775
_cell_angle_gamma 90.000000
_cell_volume 2225.460846
_symmetry_space_group_name_H-M "C 2/M"
_symmetry_group_IT_number 12
_symmetry_cell_setting 'monoclinic'
loop_
_space_group_symop_operation_xyz
x,y,z
-x,y,-z
-x,-y,-z
x,-y,z
1/2+x,1/2+y,z
1/2-x,1/2+y,-z
1/2-x,1/2-y,-z
1/2+x,1/2-y,z
loop_
_atom_site_type_symbol
_atom_site_label
_atom_site_fract_x
_atom_site_fract_y
_atom_site_fract_z
Si Si1 0.338151 0.282822 0.402976
Si Si2 0.769550 0.292960 0.177485
Si Si3 0.281309 0.889472 0.325027
Si Si4 0.715434 0.000000 0.671271
Si Si5 0.323953 0.886968 0.632709
Si Si6 0.819273 0.500000 0.635681
Si Si7 0.500000 0.221686 0.000000
O O1 0.500000 0.302158 0.500000
O O2 0.250000 0.250000 0.500000
O O3 0.366921 0.242169 0.295394
O O4 0.244829 0.332532 0.331426
O O5 0.701198 0.341899 0.241008
O O6 0.625378 0.258361 0.096505
O O7 0.890487 0.308592 0.083375
O O8 0.273406 0.886086 0.475493
O O9 0.477678 0.885896 0.329502
O O10 0.217913 0.945397 0.272320
O O11 0.519114 0.000000 0.667373
O O12 0.729464 0.000000 0.520876
O O13 0.268399 0.943127 0.677059
#
# Coordination Sequence:
#
# PCOD9217917 Si02
#       7
#     8   8   8   4   8   4   4
#     4  12  22  32  51  81 108 129 161 207 266 310
#     4  11  21  36  52  71 101 135 170 212 246 301
#     4   9  15  27  51  73 104 129 164 204 245 297
#     4   7  12  22  42  76  96 130 164 194 237 295
#     4   9  16  27  45  78 105 136 157 195 251 306
#     4   7  12  24  41  64 110 137 160 182 230 313
#     4  10  24  38  50  68  94 140 182 202 244 294
#
# _framework density 19.771184000000002
#
# number of rings (size 3 to 8) (size 9 to 14) (size 15 to 20)
#    0.000    2.364    1.818    5.455    0.000    0.000 
#    0.000    0.455    0.000    1.091    0.000    5.091 
#    0.000    0.000    0.000    0.000    0.000    0.000 
#
# Total GULP energy -122578.106327 kJ/mol
# GULP energy per Si atom -5571.732106 kJ/mol
# Density = 1.972618 g / cm^3
# Si number density = 19.771184 Si / 1000 Ang^3
#
#
#
# Elastic Constant Matrix: (Units=GPa)
#
#
# Indices 1 2 3 4 5 6 
#
# 1 17.6968 -9.8763 -4.0103 0.0000 -2.5924 0.0000
# 2 -9.8763 128.6663 4.5815 0.0000 -6.7534 0.0000
# 3 -4.0103 4.5815 45.1715 0.0000 0.1031 0.0000
# 4 0.0000 0.0000 0.0000 12.9324 0.0000 -1.8741
# 5 -2.5924 -6.7534 0.1031 0.0000 18.6822 0.0000
# 6 0.0000 0.0000 0.0000 -1.8741 0.0000 4.2979
#
#
#
# Elastic Compliance Matrix: (Units=1/GPa)
#
#
# Indices 1 2 3 4 5 6 
#
# 1 0.062024 0.005132 0.004962 0.000000 0.010434 0.000000
# 2 0.005132 0.008377 -0.000403 0.000000 0.003742 0.000000
# 3 0.004962 -0.000403 0.022618 0.000000 0.000418 0.000000
# 4 0.000000 0.000000 0.000000 0.082541 0.000000 0.035992
# 5 0.010434 0.003742 0.000418 0.000000 0.056325 0.000000
# 6 0.000000 0.000000 0.000000 0.035992 0.000000 0.248365
#
#
# Mechanical properties :
#
#
# Convention : Reuss Voigt Hill
#
# Bulk Modulus (GPa) = 8.89661 19.21385 14.05523
# Shear Modulus (GPa) = 10.03341 20.57182 15.30261
#
# Velocity S-wave (km/s) = 2.25517 3.22917 2.78508
# Velocity P-wave (km/s) = 3.36015 4.86236 4.17931
#
# Compressibility (1/GPa) = 0.11240238
#
# Stress axis : x y z
#
# Youngs Moduli (GPa) = 16.12268 119.37832 44.21211
#
# Poissons Ratio (x) = -0.61264 -0.21939
# Poissons Ratio (y) = -0.08274 0.01780
# Poissons Ratio (z) = -0.08000 0.04806
#
# Static dielectric constant tensor:
#      x y z
#    x 1.753200 0.000000 -0.010810 
#    y 0.000000 1.771520 0.000000 
#    z -0.010810 0.000000 1.666460 
# 
# From -- ./inp_files/122146.got.cif
#   From: 2010.05.17/outbox.cif.g08.bks.cpg/sg12_62_cif.got.tgz:122146.got - 2010.06.03 13:09:07.
