data_PCOD9217810
_publ_section_title
;
Structure prediction by ZEFSAII (Michael W. Deem and Ramdas Pophale) SiO2 
 PCOD9217810
Probable space group: C 2/M
;
_chemical_formula_sum "Si O2"
_cell_formula_units_Z 40
_cell_length_a 8.878978
_cell_length_b 13.905362
_cell_length_c 14.243315
_cell_angle_alpha 90.000000
_cell_angle_beta 72.977714
_cell_angle_gamma 90.000000
_cell_volume 1681.515955
_symmetry_space_group_name_H-M "C 2/M"
_symmetry_group_IT_number 12
_symmetry_cell_setting 'monoclinic'
loop_
_space_group_symop_operation_xyz
x,y,z
-x,y,-z
-x,-y,-z
x,-y,z
1/2+x,1/2+y,z
1/2-x,1/2+y,-z
1/2-x,1/2-y,-z
1/2+x,1/2-y,z
loop_
_atom_site_type_symbol
_atom_site_label
_atom_site_fract_x
_atom_site_fract_y
_atom_site_fract_z
Si Si1 0.383610 0.108522 0.233941
Si Si2 0.638166 0.388228 0.822756
Si Si3 0.413562 0.792629 0.432584
Si Si4 0.376349 0.237805 0.895674
Si Si5 0.026991 0.103951 0.333688
O O1 0.402070 0.155106 0.334246
O O2 0.474783 0.164575 0.135535
O O3 0.196239 0.106375 0.251662
O O4 0.442919 0.000000 0.227171
O O5 0.654358 0.500000 0.850792
O O6 0.472907 0.338192 0.880786
O O7 0.775827 0.316550 0.831236
O O8 0.616203 0.389673 0.714115
O O9 0.500000 0.850650 0.500000
O O10 0.250000 0.750000 0.500000
O O11 0.518816 0.698331 0.395523
O O12 0.250000 0.250000 0.000000
O O13 0.018757 0.000000 0.383401
#
# Coordination Sequence:
#
# PCOD9217810 Si02
#       5
#     8   8   8   8   8
#     4  11  25  47  73 106 149 195 248 310 376 446
#     4  11  25  46  74 106 144 192 246 304 373 443
#     4  12  25  42  70 107 145 187 244 300 372 448
#     4  12  26  45  74 108 145 192 246 305 372 445
#     4  10  23  45  72 101 142 194 243 299 371 442
#
# _framework density 23.788059000000001
#
# number of rings (size 3 to 8) (size 9 to 14) (size 15 to 20)
#    0.000    0.800    4.000    2.400    2.800    4.000 
#    0.000    1.000    0.000    9.600    0.000    0.000 
#    0.000    0.000    0.000    0.000    0.000    0.000 
#
# Total GULP energy -111531.579255 kJ/mol
# GULP energy per Si atom -5576.578963 kJ/mol
# Density = 2.373392 g / cm^3
# Si number density = 23.788059 Si / 1000 Ang^3
#
#
#
# Elastic Constant Matrix: (Units=GPa)
#
#
# Indices 1 2 3 4 5 6 
#
# 1 104.0806 27.6259 12.1139 0.0000 5.8360 0.0000
# 2 27.6259 145.0943 30.3200 0.0000 -8.3166 0.0000
# 3 12.1139 30.3200 69.6042 0.0000 -20.1093 0.0000
# 4 0.0000 0.0000 0.0000 -4.4523 0.0000 -8.4844
# 5 5.8360 -8.3166 -20.1093 0.0000 41.2811 0.0000
# 6 0.0000 0.0000 0.0000 -8.4844 0.0000 33.2098
#
#
#
# Elastic Compliance Matrix: (Units=1/GPa)
#
#
# Indices 1 2 3 4 5 6 
#
# 1 0.010442 -0.001760 -0.001838 0.000000 -0.002726 0.000000
# 2 -0.001760 0.007879 -0.003021 0.000000 0.000365 0.000000
# 3 -0.001838 -0.003021 0.018506 0.000000 0.008666 0.000000
# 4 0.000000 0.000000 0.000000 -0.151059 0.000000 -0.038592
# 5 -0.002726 0.000365 0.008666 0.000000 0.028905 0.000000
# 6 0.000000 0.000000 0.000000 -0.038592 0.000000 0.020252
#
#
# Mechanical properties :
#
#
# Convention : Reuss Voigt Hill
#
# Bulk Modulus (GPa) = 42.39121 50.98874 46.68997
# Shear Modulus (GPa) = -113.70566 30.58900 -41.55833
#
# Velocity S-wave (km/s) = -6.92122 3.58983 -4.18428
# Velocity P-wave (km/s) = 6.78321 6.21801 1.91680
#
# Compressibility (1/GPa) = 0.02358980
#
# Stress axis : x y z
#
# Youngs Moduli (GPa) = 95.76729 126.91430 54.03533
#
# Poissons Ratio (x) = 0.22341 0.09933
# Poissons Ratio (y) = 0.16858 0.16321
# Poissons Ratio (z) = 0.17604 0.38334
#
# Static dielectric constant tensor:
#      x y z
#    x 1.997110 0.000000 0.071140 
#    y 0.000000 1.949610 0.000000 
#    z 0.071140 0.000000 1.975820 
# 
# From -- ./inp_files/194428.got.cif
#   From: 2010.05.17/outbox.cif.g08.bks.cpg/sg12_98_cif.got.tgz:194428.got - 2010.06.03 13:09:07.
