data_PCOD9217290
_publ_section_title
;
Structure prediction by ZEFSAII (Michael W. Deem and Ramdas Pophale) SiO2 
 PCOD9217290
Probable space group: C 2/M
;
_chemical_formula_sum "Si O2"
_cell_formula_units_Z 56
_cell_length_a 17.007413
_cell_length_b 23.074863
_cell_length_c 9.350343
_cell_angle_alpha 90.000000
_cell_angle_beta 127.594497
_cell_angle_gamma 90.000000
_cell_volume 2907.508748
_symmetry_space_group_name_H-M "C 2/M"
_symmetry_group_IT_number 12
_symmetry_cell_setting 'monoclinic'
loop_
_space_group_symop_operation_xyz
x,y,z
-x,y,-z
-x,-y,-z
x,-y,z
1/2+x,1/2+y,z
1/2-x,1/2+y,-z
1/2-x,1/2-y,-z
1/2+x,1/2-y,z
loop_
_atom_site_type_symbol
_atom_site_label
_atom_site_fract_x
_atom_site_fract_y
_atom_site_fract_z
Si Si1 0.890936 0.357765 0.821029
Si Si2 0.530054 0.563257 0.199769
Si Si3 0.859427 0.260310 0.564559
Si Si4 0.486246 0.683472 0.156624
Si Si5 0.837064 0.710680 0.035227
Si Si6 0.616141 0.147595 0.635738
Si Si7 0.768458 0.431299 0.462780
O O1 0.909167 0.308792 0.721312
O O2 0.825146 0.405479 0.665237
O O3 0.831963 0.323228 0.879380
O O4 0.000000 0.376482 0.000000
O O5 0.512291 0.500000 0.246853
O O6 0.465519 0.617823 0.181734
O O7 0.648745 0.576072 0.337542
O O8 0.500000 0.558643 0.000000
O O9 0.750000 0.250000 0.500000
O O10 0.867449 0.289309 0.419711
O O11 0.915123 0.200922 0.649497
O O12 0.416882 0.737812 0.108246
O O13 0.500000 0.681992 0.000000
O O14 0.858109 0.659872 0.172398
O O15 0.750000 0.750000 0.000000
O O16 0.500000 0.131229 0.500000
O O17 0.684976 0.103892 0.620908
O O18 0.787079 0.500000 0.469245
#
# Coordination Sequence:
#
# PCOD9217290 Si02
#       7
#     8   8   8   8   8   8   8
#     4  11  20  40  59  83 124 163 207 258 292 367
#     4   9  20  37  62  91 116 149 210 268 294 342
#     4  11  19  33  56  81 110 164 207 247 298 359
#     4  11  19  34  57  83 117 159 200 239 304 373
#     4  12  23  34  54  91 129 158 190 250 320 374
#     4  11  22  37  55  85 129 155 193 262 311 362
#     4  10  23  42  66  90 116 165 221 256 297 363
#
# _framework density 19.260475
#
# number of rings (size 3 to 8) (size 9 to 14) (size 15 to 20)
#    0.000    1.286    4.286    3.429    4.000    0.571 
#    0.000    0.714    0.000    0.857    0.000    4.000 
#    0.000    0.000    0.000    0.000    0.000    0.000 
#
# Total GULP energy -155957.346638 kJ/mol
# GULP energy per Si atom -5569.905237 kJ/mol
# Density = 1.921664 g / cm^3
# Si number density = 19.260475 Si / 1000 Ang^3
#
#
#
# Elastic Constant Matrix: (Units=GPa)
#
#
# Indices 1 2 3 4 5 6 
#
# 1 55.1140 20.3297 16.1596 0.0000 0.7999 0.0000
# 2 20.3297 131.4823 29.2235 0.0000 -1.1810 0.0000
# 3 16.1596 29.2235 76.3169 0.0000 2.7115 0.0000
# 4 0.0000 0.0000 0.0000 30.8593 0.0000 -12.5450
# 5 0.7999 -1.1810 2.7115 0.0000 29.3116 0.0000
# 6 0.0000 0.0000 0.0000 -12.5450 0.0000 65.6249
#
#
#
# Elastic Compliance Matrix: (Units=1/GPa)
#
#
# Indices 1 2 3 4 5 6 
#
# 1 0.019991 -0.002356 -0.003319 0.000000 -0.000333 0.000000
# 2 -0.002356 0.008603 -0.002819 0.000000 0.000672 0.000000
# 3 -0.003319 -0.002819 0.014935 0.000000 -0.001405 0.000000
# 4 0.000000 0.000000 0.000000 0.035136 0.000000 0.006717
# 5 -0.000333 0.000672 -0.001405 0.000000 0.034282 0.000000
# 6 0.000000 0.000000 0.000000 0.006717 0.000000 0.016522
#
#
# Mechanical properties :
#
#
# Convention : Reuss Voigt Hill
#
# Bulk Modulus (GPa) = 37.67800 43.81543 40.74671
# Shear Modulus (GPa) = 32.19481 38.30587 35.25034
#
# Velocity S-wave (km/s) = 4.09289 4.46447 4.28271
# Velocity P-wave (km/s) = 6.47615 7.02664 6.75700
#
# Compressibility (1/GPa) = 0.02654069
#
# Stress axis : x y z
#
# Youngs Moduli (GPa) = 50.02163 116.24503 66.95517
#
# Poissons Ratio (x) = 0.27392 0.22222
# Poissons Ratio (y) = 0.11787 0.18875
# Poissons Ratio (z) = 0.16602 0.32770
#
# Static dielectric constant tensor:
#      x y z
#    x 1.608110 0.000000 -0.055690 
#    y 0.000000 1.686910 0.000000 
#    z -0.055690 0.000000 1.595480 
# 
# From -- ./inp_files/65988.got.cif
#   From: 2010.05.17/outbox.cif.g08.bks.cpg/sg12_33_cif.got.tgz:65988.got - 2010.06.03 13:09:07.
