data_PCOD9217332
_publ_section_title
;
Structure prediction by ZEFSAII (Michael W. Deem and Ramdas Pophale) SiO2 
 PCOD9217332
Probable space group: C 2/M
;
_chemical_formula_sum "Si O2"
_cell_formula_units_Z 40
_cell_length_a 10.910262
_cell_length_b 23.927935
_cell_length_c 13.548907
_cell_angle_alpha 90.000000
_cell_angle_beta 31.195841
_cell_angle_gamma 90.000000
_cell_volume 1832.082424
_symmetry_space_group_name_H-M "C 2/M"
_symmetry_group_IT_number 12
_symmetry_cell_setting 'monoclinic'
loop_
_space_group_symop_operation_xyz
x,y,z
-x,y,-z
-x,-y,-z
x,-y,z
1/2+x,1/2+y,z
1/2-x,1/2+y,-z
1/2-x,1/2-y,-z
1/2+x,1/2-y,z
loop_
_atom_site_type_symbol
_atom_site_label
_atom_site_fract_x
_atom_site_fract_y
_atom_site_fract_z
Si Si1 0.832989 0.065298 0.893413
Si Si2 0.507527 0.364957 0.611212
Si Si3 0.539971 0.268287 0.719949
Si Si4 0.055068 0.355525 0.215890
Si Si5 0.233547 0.864038 0.721750
O O1 0.882640 0.081987 0.745863
O O2 0.061574 0.088703 0.796233
O O3 0.799439 0.000000 0.929888
O O4 0.620738 0.101754 0.084830
O O5 0.500000 0.357903 0.500000
O O6 0.403315 0.312076 0.743636
O O7 0.789769 0.367378 0.436741
O O8 0.750000 0.250000 0.500000
O O9 0.429720 0.209381 0.826641
O O10 0.639501 0.305238 0.741344
O O11 0.235194 0.362920 0.182440
O O12 0.500000 0.871998 0.500000
#
# Coordination Sequence:
#
# PCOD9217332 Si02
#       5
#     8   8   8   8   8
#     4  11  26  46  66  95 133 178 232 275 318 383
#     4  10  23  42  68 100 131 174 222 268 337 397
#     4   9  19  34  66  94 135 167 204 268 330 399
#     4  11  23  40  68 100 138 172 218 271 335 394
#     4  11  20  40  65 103 131 170 217 272 336 394
#
# _framework density 21.833078
#
# number of rings (size 3 to 8) (size 9 to 14) (size 15 to 20)
#    0.000    1.600    6.000    0.600    5.600    7.200 
#    0.000    1.000    0.000    0.000    0.000    0.000 
#    0.000    0.000    0.000    0.000    0.000    0.000 
#
# Total GULP energy -111695.123144 kJ/mol
# GULP energy per Si atom -5584.756157 kJ/mol
# Density = 2.178339 g / cm^3
# Si number density = 21.833078 Si / 1000 Ang^3
#
#
#
# Elastic Constant Matrix: (Units=GPa)
#
#
# Indices 1 2 3 4 5 6 
#
# 1 78.2932 8.5266 0.7712 -0.0001 25.5550 0.0001
# 2 8.5266 170.8371 51.5980 0.0000 18.6135 0.0000
# 3 0.7712 51.5980 81.6714 0.0000 14.4167 0.0001
# 4 -0.0001 0.0000 0.0000 29.0002 0.0000 4.6645
# 5 25.5550 18.6135 14.4167 0.0000 27.9104 -0.0001
# 6 0.0001 0.0000 0.0001 4.6645 -0.0001 14.5605
#
#
#
# Elastic Compliance Matrix: (Units=1/GPa)
#
#
# Indices 1 2 3 4 5 6 
#
# 1 0.018940 0.000209 0.003053 0.000000 -0.019058 0.000000
# 2 0.000209 0.007427 -0.004166 0.000000 -0.002993 0.000000
# 3 0.003053 -0.004166 0.016340 0.000000 -0.008458 0.000000
# 4 0.000000 0.000000 0.000000 0.036356 0.000000 -0.011647
# 5 -0.019058 -0.002993 -0.008458 0.000000 0.059644 0.000000
# 6 0.000000 0.000000 0.000000 -0.011647 0.000000 0.072410
#
#
# Mechanical properties :
#
#
# Convention : Reuss Voigt Hill
#
# Bulk Modulus (GPa) = 24.44959 50.28816 37.36888
# Shear Modulus (GPa) = 22.06931 32.28794 27.17862
#
# Velocity S-wave (km/s) = 3.18279 3.84976 3.53205
# Velocity P-wave (km/s) = 4.97288 6.54552 5.81264
#
# Compressibility (1/GPa) = 0.04090047
#
# Stress axis : x y z
#
# Youngs Moduli (GPa) = 52.79729 134.63488 61.19806
#
# Poissons Ratio (x) = -0.02814 -0.18686
# Poissons Ratio (y) = -0.01103 0.25496
# Poissons Ratio (z) = -0.16121 0.56092
#
# Static dielectric constant tensor:
#      x y z
#    x 1.841450 0.000000 0.005350 
#    y 0.000000 1.785510 0.000000 
#    z 0.005350 0.000000 1.885130 
# 
# From -- ./inp_files/208529.got.cif
#   From: 2010.05.17/outbox.cif.g08.bks.cpg/sg12_105_cif.got.tgz:208529.got - 2010.06.03 13:09:07.
