data_PCOD9217879
_publ_section_title
;
Structure prediction by ZEFSAII (Michael W. Deem and Ramdas Pophale) SiO2 
 PCOD9217879
Probable space group: C 2/M
;
_chemical_formula_sum "Si O2"
_cell_formula_units_Z 32
_cell_length_a 14.410099
_cell_length_b 14.771923
_cell_length_c 6.955674
_cell_angle_alpha 90.000000
_cell_angle_beta 50.153346
_cell_angle_gamma 90.000000
_cell_volume 1136.762818
_symmetry_space_group_name_H-M "C 2/M"
_symmetry_group_IT_number 12
_symmetry_cell_setting 'monoclinic'
loop_
_space_group_symop_operation_xyz
x,y,z
-x,y,-z
-x,-y,-z
x,-y,z
1/2+x,1/2+y,z
1/2-x,1/2+y,-z
1/2-x,1/2-y,-z
1/2+x,1/2-y,z
loop_
_atom_site_type_symbol
_atom_site_label
_atom_site_fract_x
_atom_site_fract_y
_atom_site_fract_z
Si Si1 0.296062 0.660991 0.315984
Si Si2 0.549669 0.101365 0.698383
Si Si3 0.905817 0.782205 0.787489
Si Si4 0.748082 0.401842 0.254345
O O1 0.250000 0.750000 0.500000
O O2 0.535482 0.815700 0.243261
O O3 0.170952 0.618047 0.407488
O O4 0.387530 0.675873 0.023631
O O5 0.619594 0.102706 0.815198
O O6 0.505455 0.000000 0.721936
O O7 0.783914 0.817641 0.838649
O O8 0.000000 0.817761 0.500000
O O9 0.163982 0.898901 0.556927
O O10 0.734736 0.500000 0.177758
#
# Coordination Sequence:
#
# PCOD9217879 Si02
#       4
#     8   8   8   8
#     4  10  23  48  74 112 167 215 262 341 421 490
#     4   9  23  51  78 112 162 214 270 340 413 496
#     4  12  26  44  81 121 153 215 283 340 408 496
#     4   9  23  49  76 111 160 212 269 338 413 493
#
# _framework density 28.150110000000002
#
# number of rings (size 3 to 8) (size 9 to 14) (size 15 to 20)
#    1.500    0.500    0.000    1.500    0.000   11.000 
#    4.500    5.000    0.000    3.000    0.000    0.000 
#    0.000    0.000    0.000    0.000    0.000    0.000 
#
# Total GULP energy -89204.799509 kJ/mol
# GULP energy per Si atom -5575.299969 kJ/mol
# Density = 2.808604 g / cm^3
# Si number density = 28.150110 Si / 1000 Ang^3
#
#
#
# Elastic Constant Matrix: (Units=GPa)
#
#
# Indices 1 2 3 4 5 6 
#
# 1 176.0995 88.1131 61.5672 0.0000 12.4855 0.0000
# 2 88.1131 198.4824 84.2012 0.0000 1.4057 0.0000
# 3 61.5672 84.2012 202.5118 0.0000 15.2116 0.0000
# 4 0.0000 0.0000 0.0000 37.7673 0.0000 4.7889
# 5 12.4855 1.4057 15.2116 0.0000 52.0672 0.0000
# 6 0.0000 0.0000 0.0000 4.7889 0.0000 42.3321
#
#
#
# Elastic Compliance Matrix: (Units=1/GPa)
#
#
# Indices 1 2 3 4 5 6 
#
# 1 0.007598 -0.002950 -0.000974 0.000000 -0.001458 0.000000
# 2 -0.002950 0.007280 -0.002217 0.000000 0.001159 0.000000
# 3 -0.000974 -0.002217 0.006272 0.000000 -0.001539 0.000000
# 4 0.000000 0.000000 0.000000 0.026863 0.000000 -0.003039
# 5 -0.001458 0.001159 -0.001539 0.000000 0.019974 0.000000
# 6 0.000000 0.000000 0.000000 -0.003039 0.000000 0.023967
#
#
# Mechanical properties :
#
#
# Convention : Reuss Voigt Hill
#
# Bulk Modulus (GPa) = 112.76336 116.09518 114.42927
# Shear Modulus (GPa) = 46.64541 49.31414 47.97978
#
# Velocity S-wave (km/s) = 4.07507 4.19002 4.13295
# Velocity P-wave (km/s) = 7.89218 8.04608 7.96950
#
# Compressibility (1/GPa) = 0.00886813
#
# Stress axis : x y z
#
# Youngs Moduli (GPa) = 131.60645 137.36157 159.44860
#
# Poissons Ratio (x) = 0.40516 0.15533
# Poissons Ratio (y) = 0.38819 0.35353
# Poissons Ratio (z) = 0.12820 0.30456
#
# Static dielectric constant tensor:
#      x y z
#    x 2.295000 0.000000 -0.080780 
#    y 0.000000 2.210080 0.000000 
#    z -0.080780 0.000000 2.440200 
# 
# From -- ./inp_files/93290.got.cif
#   From: 2010.05.17/outbox.cif.g08.bks.cpg/sg12_47_cif.got.tgz:93290.got - 2010.06.03 13:09:07.
