data_PCOD9217368
_publ_section_title
;
Structure prediction by ZEFSAII (Michael W. Deem and Ramdas Pophale) SiO2 
 PCOD9217368
Probable space group: C 2/M
;
_chemical_formula_sum "Si O2"
_cell_formula_units_Z 52
_cell_length_a 17.246050
_cell_length_b 8.504443
_cell_length_c 22.029610
_cell_angle_alpha 90.000000
_cell_angle_beta 54.307000
_cell_angle_gamma 90.000000
_cell_volume 2624.104627
_symmetry_space_group_name_H-M "C 2/M"
_symmetry_group_IT_number 12
_symmetry_cell_setting 'monoclinic'
loop_
_space_group_symop_operation_xyz
x,y,z
-x,y,-z
-x,-y,-z
x,-y,z
1/2+x,1/2+y,z
1/2-x,1/2+y,-z
1/2-x,1/2-y,-z
1/2+x,1/2-y,z
loop_
_atom_site_type_symbol
_atom_site_label
_atom_site_fract_x
_atom_site_fract_y
_atom_site_fract_z
Si Si1 0.572424 0.809602 0.018730
Si Si2 0.939559 0.319772 0.838489
Si Si3 0.720985 0.500000 0.433177
Si Si4 0.756738 0.185384 0.860877
Si Si5 0.589561 0.500000 0.605550
Si Si6 0.865963 0.249271 0.315164
Si Si7 0.386775 0.500000 0.637392
Si Si8 0.722054 0.176041 0.275605
O O1 0.552788 0.756670 0.096199
O O2 0.561699 0.000000 0.025099
O O3 0.500000 0.750977 0.000000
O O4 0.679519 0.775009 0.947768
O O5 0.903503 0.500000 0.857225
O O6 0.862871 0.220064 0.836028
O O7 0.042470 0.322118 0.759812
O O8 0.679769 0.500000 0.519218
O O9 0.789512 0.357042 0.384460
O O10 0.634238 0.500000 0.424682
O O11 0.738197 0.287892 0.809491
O O12 0.745605 0.000000 0.851314
O O13 0.592779 0.643185 0.650496
O O14 0.494993 0.500000 0.608859
O O15 0.803923 0.174049 0.289301
O O16 0.340158 0.334787 0.682443
O O17 0.676019 0.000000 0.297003
#
# Coordination Sequence:
#
# PCOD9217368 Si02
#       8
#     8   8   4   8   4   8   4   8
#     4   9  19  36  58  85 122 168 221 270 325 384
#     4  11  22  38  61  90 126 170 220 271 324 384
#     4  10  23  44  68  94 126 171 212 262 333 406
#     4  11  22  36  60  91 127 172 218 272 326 379
#     4  12  23  42  66  97 131 163 211 275 333 382
#     4  11  23  40  66  93 126 166 216 267 323 392
#     4  10  23  42  70  97 132 174 214 267 329 394
#     4  11  22  41  65  95 132 174 221 266 323 388
#
# _framework density 19.816282999999999
#
# number of rings (size 3 to 8) (size 9 to 14) (size 15 to 20)
#    0.000    1.385    2.308    3.462    1.077    1.231 
#    1.385    0.769    0.000    5.077    0.000    0.000 
#    0.000    0.000    0.000    0.000    0.000    0.000 
#
# Total GULP energy -145012.558212 kJ/mol
# GULP energy per Si atom -5577.406085 kJ/mol
# Density = 1.977118 g / cm^3
# Si number density = 19.816283 Si / 1000 Ang^3
#
#
#
# Elastic Constant Matrix: (Units=GPa)
#
#
# Indices 1 2 3 4 5 6 
#
# 1 79.9574 20.0799 28.8046 0.0000 -8.6655 0.0001
# 2 20.0799 84.4757 26.0696 0.0001 -0.3329 0.0003
# 3 28.8046 26.0696 115.4835 0.0000 7.6871 0.0000
# 4 0.0000 0.0001 0.0000 20.9642 0.0000 14.1317
# 5 -8.6655 -0.3329 7.6871 0.0000 30.3618 0.0000
# 6 0.0001 0.0003 0.0000 14.1317 0.0000 35.5123
#
#
#
# Elastic Compliance Matrix: (Units=1/GPa)
#
#
# Indices 1 2 3 4 5 6 
#
# 1 0.014944 -0.002447 -0.003516 0.000000 0.005129 0.000000
# 2 -0.002447 0.013148 -0.002361 0.000000 0.000044 0.000000
# 3 -0.003516 -0.002361 0.010312 0.000000 -0.003640 0.000000
# 4 0.000000 0.000000 0.000000 0.065186 0.000000 -0.025940
# 5 0.005129 0.000044 -0.003640 0.000000 0.035322 0.000000
# 6 0.000000 0.000000 0.000000 -0.025940 0.000000 0.038482
#
#
# Mechanical properties :
#
#
# Convention : Reuss Voigt Hill
#
# Bulk Modulus (GPa) = 45.96516 47.75832 46.86174
# Shear Modulus (GPa) = 24.83945 31.03183 27.93564
#
# Velocity S-wave (km/s) = 3.54430 3.96153 3.75871
# Velocity P-wave (km/s) = 6.32420 6.71401 6.52201
#
# Compressibility (1/GPa) = 0.02175561
#
# Stress axis : x y z
#
# Youngs Moduli (GPa) = 66.91787 76.05710 96.97873
#
# Poissons Ratio (x) = 0.18609 0.34101
# Poissons Ratio (y) = 0.16373 0.22894
# Poissons Ratio (z) = 0.23531 0.17955
#
# Static dielectric constant tensor:
#      x y z
#    x 1.676010 0.000000 0.002280 
#    y 0.000000 1.726310 0.000000 
#    z 0.002280 0.000000 1.672810 
# 
# From -- ./inp_files/314709.got.cif
#   From: 2010.05.17/outbox.cif.g08.bks.cpg/sg12_158_cif.got.tgz:314709.got - 2010.06.03 13:09:07.
