data_PCOD9217801
_publ_section_title
;
Structure prediction by ZEFSAII (Michael W. Deem and Ramdas Pophale) SiO2 
 PCOD9217801
Probable space group: C 2/M
;
_chemical_formula_sum "Si O2"
_cell_formula_units_Z 48
_cell_length_a 11.031402
_cell_length_b 16.671438
_cell_length_c 13.255587
_cell_angle_alpha 90.000000
_cell_angle_beta 113.043182
_cell_angle_gamma 90.000000
_cell_volume 2243.312302
_symmetry_space_group_name_H-M "C 2/M"
_symmetry_group_IT_number 12
_symmetry_cell_setting 'monoclinic'
loop_
_space_group_symop_operation_xyz
x,y,z
-x,y,-z
-x,-y,-z
x,-y,z
1/2+x,1/2+y,z
1/2-x,1/2+y,-z
1/2-x,1/2-y,-z
1/2+x,1/2-y,z
loop_
_atom_site_type_symbol
_atom_site_label
_atom_site_fract_x
_atom_site_fract_y
_atom_site_fract_z
Si Si1 0.356642 0.128442 0.213730
Si Si2 0.133614 0.087609 0.982828
Si Si3 0.577926 0.905533 0.129219
Si Si4 0.931939 0.903800 0.586580
Si Si5 0.352698 0.317966 0.207119
Si Si6 0.354214 0.091613 0.442307
O O1 0.491823 0.107043 0.201458
O O2 0.349267 0.223865 0.223605
O O3 0.332444 0.091412 0.315150
O O4 0.248914 0.098317 0.099892
O O5 0.131501 0.160051 0.904784
O O6 0.148361 0.000000 0.936005
O O7 0.000000 0.087048 0.000000
O O8 0.712809 0.857822 0.187470
O O9 0.603787 0.000000 0.126212
O O10 0.500000 0.880555 0.000000
O O11 0.779025 0.875954 0.548335
O O12 0.000000 0.891567 0.500000
O O13 0.026117 0.858851 0.695639
O O14 0.931949 0.000000 0.606985
O O15 0.500000 0.130912 0.500000
O O16 0.367378 0.000000 0.485393
#
# Coordination Sequence:
#
# PCOD9217801 Si02
#       6
#     8   8   8   8   8   8
#     4  12  26  40  65  97 136 172 216 275 336 391
#     4  11  23  41  67  93 127 173 219 267 327 401
#     4  11  24  42  66  95 132 182 230 268 321 400
#     4  10  23  45  71  96 126 169 222 273 328 403
#     4  12  26  40  65  97 136 172 216 275 336 391
#     4  10  23  45  71  96 126 169 222 273 328 403
#
# _framework density 21.396932
#
# number of rings (size 3 to 8) (size 9 to 14) (size 15 to 20)
#    0.000    1.000    1.667    4.500    7.000    3.333 
#    0.000    1.667    0.000    0.000    0.000    0.000 
#    0.000    0.000    0.000    0.000    0.000    0.000 
#
# Total GULP energy -134160.190153 kJ/mol
# GULP energy per Si atom -5590.007923 kJ/mol
# Density = 2.134823 g / cm^3
# Si number density = 21.396932 Si / 1000 Ang^3
#
#
#
# Elastic Constant Matrix: (Units=GPa)
#
#
# Indices 1 2 3 4 5 6 
#
# 1 192.0135 24.5107 25.4046 0.0000 13.6466 0.0000
# 2 24.5107 67.0244 5.7342 0.0000 10.9361 0.0000
# 3 25.4046 5.7342 49.4020 0.0000 7.7510 0.0000
# 4 0.0000 0.0000 0.0000 273.2973 0.0000 33.0178
# 5 13.6466 10.9361 7.7510 0.0000 37.7531 0.0000
# 6 0.0000 0.0000 0.0000 33.0178 0.0000 29.8132
#
#
#
# Elastic Compliance Matrix: (Units=1/GPa)
#
#
# Indices 1 2 3 4 5 6 
#
# 1 0.005856 -0.001741 -0.002641 0.000000 -0.001070 0.000000
# 2 -0.001741 0.016240 -0.000362 0.000000 -0.004001 0.000000
# 3 -0.002641 -0.000362 0.022191 0.000000 -0.003496 0.000000
# 4 0.000000 0.000000 0.000000 0.004224 0.000000 -0.004678
# 5 -0.001070 -0.004001 -0.003496 0.000000 0.028751 0.000000
# 6 0.000000 0.000000 0.000000 -0.004678 0.000000 0.038723
#
#
# Mechanical properties :
#
#
# Convention : Reuss Voigt Hill
#
# Bulk Modulus (GPa) = 28.73690 46.63765 37.68728
# Shear Modulus (GPa) = 36.47667 85.02542 60.75105
#
# Velocity S-wave (km/s) = 4.13336 6.31058 5.33423
# Velocity P-wave (km/s) = 6.01989 8.65689 7.45589
#
# Compressibility (1/GPa) = 0.03479846
#
# Stress axis : x y z
#
# Youngs Moduli (GPa) = 170.77386 61.57508 45.06346
#
# Poissons Ratio (x) = 0.10719 0.11903
# Poissons Ratio (y) = 0.29729 0.01632
# Poissons Ratio (z) = 0.45106 0.02230
#
# Static dielectric constant tensor:
#      x y z
#    x 1.823010 0.000000 0.000660 
#    y 0.000000 1.744590 0.000000 
#    z 0.000660 0.000000 1.754670 
# 
# From -- ./inp_files/205123.got.cif
#   From: 2010.05.17/outbox.cif.g08.bks.cpg/sg12_103_cif.got.tgz:205123.got - 2010.06.03 13:09:07.
