data_PCOD9217055
_publ_section_title
;
Structure prediction by ZEFSAII (Michael W. Deem and Ramdas Pophale) SiO2 
 PCOD9217055
Probable space group: C 2/M
;
_chemical_formula_sum "Si O2"
_cell_formula_units_Z 48
_cell_length_a 12.225772
_cell_length_b 14.170908
_cell_length_c 20.873690
_cell_angle_alpha 90.000000
_cell_angle_beta 139.650209
_cell_angle_gamma 90.000000
_cell_volume 2341.428945
_symmetry_space_group_name_H-M "C 2/M"
_symmetry_group_IT_number 12
_symmetry_cell_setting 'monoclinic'
loop_
_space_group_symop_operation_xyz
x,y,z
-x,y,-z
-x,-y,-z
x,-y,z
1/2+x,1/2+y,z
1/2-x,1/2+y,-z
1/2-x,1/2-y,-z
1/2+x,1/2-y,z
loop_
_atom_site_type_symbol
_atom_site_label
_atom_site_fract_x
_atom_site_fract_y
_atom_site_fract_z
Si Si1 0.459118 0.000000 0.585285
Si Si2 0.053707 0.852805 0.724590
Si Si3 0.184298 0.294503 0.061003
Si Si4 0.779478 0.000000 0.645295
Si Si5 0.169671 0.311013 0.406697
Si Si6 0.614055 0.111117 0.894942
Si Si7 0.729578 0.393239 0.672962
O O1 0.656364 0.000000 0.651928
O O2 0.347188 0.000000 0.471121
O O3 0.401872 0.908438 0.598465
O O4 0.218343 0.854001 0.841742
O O5 0.097203 0.883824 0.671737
O O6 0.904772 0.911766 0.691674
O O7 0.988503 0.747398 0.689157
O O8 0.286552 0.197488 0.094386
O O9 0.155601 0.361880 0.986937
O O10 0.000000 0.264676 0.000000
O O11 0.250000 0.250000 0.500000
O O12 0.287311 0.327959 0.397117
O O13 0.416169 0.120960 0.787369
O O14 0.658181 0.000000 0.901813
O O15 0.719906 0.500000 0.644664
#
# Coordination Sequence:
#
# PCOD9217055 Si02
#       7
#     4   8   8   4   8   8   8
#     4  11  26  49  69  96 138 180 228 287 345 409
#     4  12  25  43  70 107 137 183 231 284 348 416
#     4  11  23  42  67 101 139 179 229 281 343 412
#     4  11  26  47  70 100 138 177 230 283 350 419
#     4  12  26  45  70  99 136 183 230 286 348 407
#     4  10  23  41  65  96 134 182 228 282 339 404
#     4  11  23  43  70  98 137 180 234 289 339 408
#
# _framework density 20.500301
#
# number of rings (size 3 to 8) (size 9 to 14) (size 15 to 20)
#    0.000    0.833    6.667    0.000    3.500    1.333 
#    0.000    1.667    0.000    0.000    0.000    0.000 
#    0.000    0.000    0.000    0.000    0.000    0.000 
#
# Total GULP energy -133958.033919 kJ/mol
# GULP energy per Si atom -5581.584747 kJ/mol
# Density = 2.045364 g / cm^3
# Si number density = 20.500301 Si / 1000 Ang^3
#
#
#
# Elastic Constant Matrix: (Units=GPa)
#
#
# Indices 1 2 3 4 5 6 
#
# 1 113.9593 35.4395 30.1278 0.0000 -2.9615 0.0000
# 2 35.4395 111.7820 21.9438 0.0000 -2.8351 0.0000
# 3 30.1278 21.9438 76.9973 0.0000 -9.7207 0.0000
# 4 0.0000 0.0000 0.0000 -1.9595 0.0000 -7.7742
# 5 -2.9615 -2.8351 -9.7207 0.0000 38.4802 0.0000
# 6 0.0000 0.0000 0.0000 -7.7742 0.0000 21.7061
#
#
#
# Elastic Compliance Matrix: (Units=1/GPa)
#
#
# Indices 1 2 3 4 5 6 
#
# 1 0.010491 -0.002670 -0.003375 0.000000 -0.000242 0.000000
# 2 -0.002670 0.010156 -0.001840 0.000000 0.000078 0.000000
# 3 -0.003375 -0.001840 0.015269 0.000000 0.003462 0.000000
# 4 0.000000 0.000000 0.000000 -0.210796 0.000000 -0.075498
# 5 -0.000242 0.000078 0.003462 0.000000 0.026849 0.000000
# 6 0.000000 0.000000 0.000000 -0.075498 0.000000 0.019030
#
#
# Mechanical properties :
#
#
# Convention : Reuss Voigt Hill
#
# Bulk Modulus (GPa) = 49.63380 53.08455 51.35917
# Shear Modulus (GPa) = -46.94109 25.99384 -10.47362
#
# Velocity S-wave (km/s) = -4.79035 3.56472 -2.26276
# Velocity P-wave (km/s) = 2.51651 6.54933 4.27557
#
# Compressibility (1/GPa) = 0.02014756
#
# Stress axis : x y z
#
# Youngs Moduli (GPa) = 95.31770 98.46812 65.49076
#
# Poissons Ratio (x) = 0.26289 0.22101
# Poissons Ratio (y) = 0.25448 0.12049
# Poissons Ratio (z) = 0.32167 0.18116
#
# Static dielectric constant tensor:
#      x y z
#    x 1.765170 0.000000 -0.021590 
#    y 0.000000 1.721920 0.000000 
#    z -0.021590 0.000000 1.726520 
# 
# From -- ./inp_files/305723.got.cif
#   From: 2010.05.17/outbox.cif.g08.bks.cpg/sg12_153_cif.got.tgz:305723.got - 2010.06.03 13:09:07.
