data_PCOD9217010
_publ_section_title
;
Structure prediction by ZEFSAII (Michael W. Deem and Ramdas Pophale) SiO2 
 PCOD9217010
Probable space group: C 2/M
;
_chemical_formula_sum "Si O2"
_cell_formula_units_Z 50
_cell_length_a 7.001726
_cell_length_b 31.280466
_cell_length_c 11.423014
_cell_angle_alpha 90.000000
_cell_angle_beta 65.575139
_cell_angle_gamma 90.000000
_cell_volume 2277.933537
_symmetry_space_group_name_H-M "C 2/M"
_symmetry_group_IT_number 12
_symmetry_cell_setting 'monoclinic'
loop_
_space_group_symop_operation_xyz
x,y,z
-x,y,-z
-x,-y,-z
x,-y,z
1/2+x,1/2+y,z
1/2-x,1/2+y,-z
1/2-x,1/2-y,-z
1/2+x,1/2-y,z
loop_
_atom_site_type_symbol
_atom_site_label
_atom_site_fract_x
_atom_site_fract_y
_atom_site_fract_z
Si Si1 0.301697 0.950192 0.959811
Si Si2 0.948413 0.708142 0.836011
Si Si3 0.500000 0.000000 0.500000
Si Si4 0.528273 0.116726 0.739847
Si Si5 0.205802 0.079867 0.529334
Si Si6 0.934742 0.108280 0.807493
Si Si7 0.861650 0.798785 0.887718
O O1 0.367681 0.918295 0.836716
O O2 0.263919 0.000000 0.934703
O O3 0.500000 0.951288 0.000000
O O4 0.118202 0.928164 0.083550
O O5 0.978821 0.758394 0.799272
O O6 0.948847 0.665633 0.758184
O O7 0.144148 0.698686 0.870643
O O8 0.725169 0.709250 0.959570
O O9 0.320583 0.036471 0.527768
O O10 0.628089 0.106132 0.589867
O O11 0.725368 0.111999 0.779860
O O12 0.000000 0.073784 0.500000
O O13 0.122473 0.099373 0.671158
O O14 0.961533 0.154779 0.856504
#
# Coordination Sequence:
#
# PCOD9217010 Si02
#       7
#     8   8   2   8   8   8   8
#     4   9  16  26  49  82 108 136 184 240 287 334
#     4   9  16  29  51  80 112 146 187 233 287 346
#     4  12  26  44  60  88 120 160 194 250 280 354
#     4   9  17  33  55  82 112 147 191 241 283 345
#     4  10  23  41  64  85 113 157 201 235 291 349
#     4   9  17  33  55  82 112 147 191 241 283 345
#     4   9  16  29  51  80 112 146 187 233 287 346
#
# _framework density 21.949718000000001
#
# number of rings (size 3 to 8) (size 9 to 14) (size 15 to 20)
#    0.000    2.720    1.600    0.240    2.240    0.000 
#    2.880    0.800    0.000    1.920    0.000    0.000 
#    0.000    0.000    0.000    0.000    0.000    0.000 
#
# Total GULP energy -139205.855586 kJ/mol
# GULP energy per Si atom -5568.234223 kJ/mol
# Density = 2.189976 g / cm^3
# Si number density = 21.949718 Si / 1000 Ang^3
#
#
#
# Elastic Constant Matrix: (Units=GPa)
#
#
# Indices 1 2 3 4 5 6 
#
# 1 57.1218 12.0428 21.4476 0.0000 -11.0775 0.0000
# 2 12.0428 242.1695 101.0834 0.0000 -24.9271 0.0000
# 3 21.4476 101.0834 136.7615 0.0000 -25.4033 0.0000
# 4 0.0000 0.0000 0.0000 39.7117 0.0000 -22.8170
# 5 -11.0775 -24.9271 -25.4033 0.0000 29.4670 0.0000
# 6 0.0000 0.0000 0.0000 -22.8170 0.0000 30.3325
#
#
#
# Elastic Compliance Matrix: (Units=1/GPa)
#
#
# Indices 1 2 3 4 5 6 
#
# 1 0.019403 0.000652 -0.002461 0.000000 0.005724 0.000000
# 2 0.000652 0.006049 -0.004259 0.000000 0.001690 0.000000
# 3 -0.002461 -0.004259 0.011912 0.000000 0.005741 0.000000
# 4 0.000000 0.000000 0.000000 0.044350 0.000000 0.033361
# 5 0.005724 0.001690 0.005741 0.000000 0.042467 0.000000
# 6 0.000000 0.000000 0.000000 0.033361 0.000000 0.058063
#
#
# Mechanical properties :
#
#
# Convention : Reuss Voigt Hill
#
# Bulk Modulus (GPa) = 39.64040 78.35560 58.99800
# Shear Modulus (GPa) = 24.65599 40.00084 32.32842
#
# Velocity S-wave (km/s) = 3.35519 4.27357 3.84192
# Velocity P-wave (km/s) = 5.75401 7.75413 6.82770
#
# Compressibility (1/GPa) = 0.02522679
#
# Stress axis : x y z
#
# Youngs Moduli (GPa) = 51.53789 165.32751 83.94662
#
# Poissons Ratio (x) = -0.10773 0.20663
# Poissons Ratio (y) = -0.03358 0.35752
# Poissons Ratio (z) = 0.12686 0.70411
#
# Static dielectric constant tensor:
#      x y z
#    x 1.898480 0.000000 0.018390 
#    y 0.000000 1.793720 0.000000 
#    z 0.018390 0.000000 1.759560 
# 
# From -- ./inp_files/125119.got.cif
#   From: 2010.05.17/outbox.cif.g08.bks.cpg/sg12_63_cif.got.tgz:125119.got - 2010.06.03 13:09:07.
