data_PCOD9217279
_publ_section_title
;
Structure prediction by ZEFSAII (Michael W. Deem and Ramdas Pophale) SiO2 
 PCOD9217279
Probable space group: C 2/M
;
_chemical_formula_sum "Si O2"
_cell_formula_units_Z 48
_cell_length_a 9.240082
_cell_length_b 24.404072
_cell_length_c 11.830147
_cell_angle_alpha 90.000000
_cell_angle_beta 118.569467
_cell_angle_gamma 90.000000
_cell_volume 2342.828303
_symmetry_space_group_name_H-M "C 2/M"
_symmetry_group_IT_number 12
_symmetry_cell_setting 'monoclinic'
loop_
_space_group_symop_operation_xyz
x,y,z
-x,y,-z
-x,-y,-z
x,-y,z
1/2+x,1/2+y,z
1/2-x,1/2+y,-z
1/2-x,1/2-y,-z
1/2+x,1/2-y,z
loop_
_atom_site_type_symbol
_atom_site_label
_atom_site_fract_x
_atom_site_fract_y
_atom_site_fract_z
Si Si1 0.810016 0.194345 0.962821
Si Si2 0.616834 0.222337 0.669972
Si Si3 0.325556 0.883080 0.896442
Si Si4 0.177150 0.682890 0.315649
Si Si5 0.674909 0.880809 0.534383
Si Si6 0.984226 0.934646 0.358165
O O1 0.760560 0.144818 0.027523
O O2 0.750000 0.250000 0.000000
O O3 0.720519 0.196401 0.810111
O O4 0.000000 0.194440 0.000000
O O5 0.659386 0.283127 0.646571
O O6 0.440286 0.224929 0.663477
O O7 0.656265 0.178174 0.588050
O O8 0.384135 0.836098 0.829635
O O9 0.179983 0.912779 0.768694
O O10 0.500000 0.910878 0.000000
O O11 0.178627 0.632341 0.402193
O O12 0.500000 0.909596 0.500000
O O13 0.845979 0.909578 0.629054
O O14 0.000000 0.923038 0.500000
O O15 0.985016 0.000000 0.346611
#
# Coordination Sequence:
#
# PCOD9217279 Si02
#       6
#     8   8   8   8   8   8
#     4  12  22  34  56  89 131 179 223 259 316 393
#     4  11  22  35  57  92 139 179 219 258 318 396
#     4  12  24  43  66  94 140 175 217 281 328 399
#     4  11  22  37  58  97 133 182 222 258 327 389
#     4  10  23  42  65  96 137 174 218 280 336 395
#     4  11  25  46  74 100 123 169 231 288 344 391
#
# _framework density 20.488057000000001
#
# number of rings (size 3 to 8) (size 9 to 14) (size 15 to 20)
#    0.000    0.833    5.000    3.000    2.333    0.667 
#    0.000    0.000    0.000    4.500    0.000    0.000 
#    0.000    0.000    0.000    0.000    0.000    0.000 
#
# Total GULP energy -133715.286660 kJ/mol
# GULP energy per Si atom -5571.470278 kJ/mol
# Density = 2.044143 g / cm^3
# Si number density = 20.488057 Si / 1000 Ang^3
#
#
#
# Elastic Constant Matrix: (Units=GPa)
#
#
# Indices 1 2 3 4 5 6 
#
# 1 144.7027 38.7562 51.6295 0.0000 17.4281 0.0000
# 2 38.7562 39.3257 20.2396 0.0000 9.4719 0.0000
# 3 51.6295 20.2396 135.5134 0.0000 2.7385 0.0000
# 4 0.0000 0.0000 0.0000 20.9743 0.0000 -1.9249
# 5 17.4281 9.4719 2.7385 0.0000 41.0523 0.0000
# 6 0.0000 0.0000 0.0000 -1.9249 0.0000 14.3625
#
#
#
# Elastic Compliance Matrix: (Units=1/GPa)
#
#
# Indices 1 2 3 4 5 6 
#
# 1 0.010356 -0.008280 -0.002662 0.000000 -0.002309 0.000000
# 2 -0.008280 0.035775 -0.002096 0.000000 -0.004599 0.000000
# 3 -0.002662 -0.002096 0.008686 0.000000 0.001034 0.000000
# 4 0.000000 0.000000 0.000000 0.048271 0.000000 0.006469
# 5 -0.002309 -0.004599 0.001034 0.000000 0.026331 0.000000
# 6 0.000000 0.000000 0.000000 0.006469 0.000000 0.070493
#
#
# Mechanical properties :
#
#
# Convention : Reuss Voigt Hill
#
# Bulk Modulus (GPa) = 34.79327 60.08803 47.44065
# Shear Modulus (GPa) = 21.22516 29.20558 25.21537
#
# Velocity S-wave (km/s) = 3.22215 3.77967 3.51199
# Velocity P-wave (km/s) = 5.55537 6.95987 6.29690
#
# Compressibility (1/GPa) = 0.02874119
#
# Stress axis : x y z
#
# Youngs Moduli (GPa) = 96.55872 27.95229 115.13092
#
# Poissons Ratio (x) = 0.23145 0.30652
# Poissons Ratio (y) = 0.79952 0.24127
# Poissons Ratio (z) = 0.25707 0.05858
#
# Static dielectric constant tensor:
#      x y z
#    x 1.373350 0.000000 0.486350 
#    y 0.000000 1.704440 0.000000 
#    z 0.486350 0.000000 0.785770 
# 
# From -- ./inp_files/123481.got.cif
#   From: 2010.05.17/outbox.cif.g08.bks.cpg/sg12_62_cif.got.tgz:123481.got - 2010.06.03 13:09:07.
