data_PCOD9217146
_publ_section_title
;
Structure prediction by ZEFSAII (Michael W. Deem and Ramdas Pophale) SiO2 
 PCOD9217146
Probable space group: C 2/M
;
_chemical_formula_sum "Si O2"
_cell_formula_units_Z 52
_cell_length_a 19.533373
_cell_length_b 9.781226
_cell_length_c 16.670186
_cell_angle_alpha 90.000000
_cell_angle_beta 58.813575
_cell_angle_gamma 90.000000
_cell_volume 2724.735702
_symmetry_space_group_name_H-M "C 2/M"
_symmetry_group_IT_number 12
_symmetry_cell_setting 'monoclinic'
loop_
_space_group_symop_operation_xyz
x,y,z
-x,y,-z
-x,-y,-z
x,-y,z
1/2+x,1/2+y,z
1/2-x,1/2+y,-z
1/2-x,1/2-y,-z
1/2+x,1/2-y,z
loop_
_atom_site_type_symbol
_atom_site_label
_atom_site_fract_x
_atom_site_fract_y
_atom_site_fract_z
Si Si1 0.269585 0.500000 0.482402
Si Si2 0.055263 0.342126 0.838012
Si Si3 0.810382 0.341465 0.106948
Si Si4 0.100409 0.159624 0.068110
Si Si5 0.131043 0.842465 0.239852
Si Si6 0.647277 0.772754 0.618097
Si Si7 0.498652 0.838169 0.405679
O O1 0.318356 0.621045 0.404801
O O2 0.217755 0.381180 0.562003
O O3 0.026389 0.500000 0.852786
O O4 0.120328 0.331832 0.868935
O O5 0.098201 0.306275 0.728343
O O6 0.982033 0.240252 0.896995
O O7 0.806537 0.500000 0.080746
O O8 0.724141 0.310621 0.197624
O O9 0.832069 0.238504 0.022913
O O10 0.117507 0.167332 0.152609
O O11 0.095514 0.000000 0.048680
O O12 0.070683 0.743330 0.321278
O O13 0.115629 0.000000 0.273467
O O14 0.584621 0.790448 0.582711
O O15 0.500000 0.815449 0.500000
O O16 0.506477 0.000000 0.385793
#
# Coordination Sequence:
#
# PCOD9217146 Si02
#       7
#     4   8   8   8   8   8   8
#     4  10  24  38  68  90 124 160 214 254 312 360
#     4  11  22  39  65  89 126 165 205 251 312 368
#     4  10  23  42  61  93 123 160 212 258 304 366
#     4  11  23  39  65  93 125 161 204 255 315 370
#     4  10  23  42  65  91 123 165 209 253 306 371
#     4  11  22  44  62  95 124 167 205 261 306 378
#     4  11  24  42  63  91 127 165 208 254 310 370
#
# _framework density 19.084420999999999
#
# number of rings (size 3 to 8) (size 9 to 14) (size 15 to 20)
#    0.000    1.385    3.077    1.385    2.154    6.462 
#    2.769    0.000    0.000    0.000    0.000    0.000 
#    0.000    0.000    0.000    0.000    0.000    0.000 
#
# Total GULP energy -144792.429144 kJ/mol
# GULP energy per Si atom -5568.939582 kJ/mol
# Density = 1.904098 g / cm^3
# Si number density = 19.084421 Si / 1000 Ang^3
#
#
#
# Elastic Constant Matrix: (Units=GPa)
#
#
# Indices 1 2 3 4 5 6 
#
# 1 30.8311 18.1846 -1.1187 0.0000 -3.4634 0.0000
# 2 18.1846 141.2665 36.3738 0.0000 -0.5967 0.0000
# 3 -1.1187 36.3738 44.0713 0.0000 1.9179 0.0000
# 4 0.0000 0.0000 0.0000 21.7784 0.0000 11.0854
# 5 -3.4634 -0.5967 1.9179 0.0000 11.4765 0.0000
# 6 0.0000 0.0000 0.0000 11.0854 0.0000 -0.6762
#
#
#
# Elastic Compliance Matrix: (Units=1/GPa)
#
#
# Indices 1 2 3 4 5 6 
#
# 1 0.037444 -0.006235 0.005660 0.000000 0.010030 0.000000
# 2 -0.006235 0.010061 -0.008465 0.000000 0.000056 0.000000
# 3 0.005660 -0.008465 0.029983 0.000000 -0.003743 0.000000
# 4 0.000000 0.000000 0.000000 0.004914 0.000000 0.080555
# 5 0.010030 0.000056 -0.003743 0.000000 0.090790 0.000000
# 6 0.000000 0.000000 0.000000 0.080555 0.000000 -0.158258
#
#
# Mechanical properties :
#
#
# Convention : Reuss Voigt Hill
#
# Bulk Modulus (GPa) = 16.83227 35.89426 26.36327
# Shear Modulus (GPa) = 94.66722 17.36435 56.01579
#
# Velocity S-wave (km/s) = 7.05068 3.01968 5.42359
# Velocity P-wave (km/s) = 8.66729 5.56839 7.28453
#
# Compressibility (1/GPa) = 0.05940968
#
# Stress axis : x y z
#
# Youngs Moduli (GPa) = 26.70619 99.39208 33.35203
#
# Poissons Ratio (x) = 0.61972 -0.18878
# Poissons Ratio (y) = 0.16652 0.28231
# Poissons Ratio (z) = -0.15116 0.84131
#
# Static dielectric constant tensor:
#      x y z
#    x 1.679290 0.000000 -0.000340 
#    y 0.000000 1.639550 0.000000 
#    z -0.000340 0.000000 1.640700 
# 
# From -- ./inp_files/282022.got.cif
#   From: 2010.05.17/outbox.cif.g08.bks.cpg/sg12_142_cif.got.tgz:282022.got - 2010.06.03 13:09:07.
