data_PCOD9217154
_publ_section_title
;
Structure prediction by ZEFSAII (Michael W. Deem and Ramdas Pophale) SiO2 
 PCOD9217154
Probable space group: C 2/M
;
_chemical_formula_sum "Si O2"
_cell_formula_units_Z 60
_cell_length_a 14.930839
_cell_length_b 16.931259
_cell_length_c 13.148125
_cell_angle_alpha 90.000000
_cell_angle_beta 74.146093
_cell_angle_gamma 90.000000
_cell_volume 3197.384990
_symmetry_space_group_name_H-M "C 2/M"
_symmetry_group_IT_number 12
_symmetry_cell_setting 'monoclinic'
loop_
_space_group_symop_operation_xyz
x,y,z
-x,y,-z
-x,-y,-z
x,-y,z
1/2+x,1/2+y,z
1/2-x,1/2+y,-z
1/2-x,1/2-y,-z
1/2+x,1/2-y,z
loop_
_atom_site_type_symbol
_atom_site_label
_atom_site_fract_x
_atom_site_fract_y
_atom_site_fract_z
Si Si1 0.661674 0.642480 0.688954
Si Si2 0.042436 0.589406 0.656010
Si Si3 0.807558 0.091670 0.734294
Si Si4 0.638677 0.871495 0.420040
Si Si5 0.867697 0.693927 0.195864
Si Si6 0.500000 0.278217 0.000000
Si Si7 0.888722 0.812129 0.524664
Si Si8 0.471375 0.589112 0.847242
O O1 0.762098 0.601836 0.653448
O O2 0.671178 0.725020 0.745163
O O3 0.636806 0.664205 0.581154
O O4 0.574763 0.598360 0.767458
O O5 0.040331 0.500000 0.696234
O O6 0.113271 0.593419 0.538266
O O7 0.072238 0.650182 0.734571
O O8 0.943927 0.610289 0.633556
O O9 0.717784 0.137218 0.803709
O O10 0.837496 0.130955 0.619250
O O11 0.895101 0.098357 0.782589
O O12 0.785468 0.000000 0.726566
O O13 0.639675 0.777415 0.440463
O O14 0.928897 0.722195 0.082002
O O15 0.542356 0.339761 0.069003
O O16 0.000000 0.817710 0.500000
O O17 0.461319 0.500000 0.892589
#
# Coordination Sequence:
#
# PCOD9217154 Si02
#       8
#     8   8   8   8   8   4   8   8
#     4  11  21  34  60  90 122 164 202 241 288 354
#     4  11  23  38  58  87 128 163 195 244 298 351
#     4  11  24  39  61  91 127 161 193 242 305 360
#     4  11  20  34  59  90 125 164 206 234 283 354
#     4  11  22  42  63  89 115 155 206 250 306 352
#     4  10  25  42  69  88 108 152 208 258 307 358
#     4  12  19  34  59  90 130 165 203 240 279 352
#     4  10  23  42  62  89 122 153 196 254 308 357
#
# _framework density 18.765333999999999
#
# number of rings (size 3 to 8) (size 9 to 14) (size 15 to 20)
#    0.000    1.067    5.333    2.600    1.867    2.400 
#    0.000    2.667    0.000    3.200    0.000    0.000 
#    0.000    0.000    0.000    0.000    0.000    0.000 
#
# Total GULP energy -167614.336378 kJ/mol
# GULP energy per Si atom -5587.144546 kJ/mol
# Density = 1.872262 g / cm^3
# Si number density = 18.765334 Si / 1000 Ang^3
#
#
#
# Elastic Constant Matrix: (Units=GPa)
#
#
# Indices 1 2 3 4 5 6 
#
# 1 93.3563 20.7113 39.3220 0.0000 -16.5291 0.0000
# 2 20.7113 94.8508 33.4509 0.0000 -8.6803 0.0000
# 3 39.3220 33.4509 88.2179 0.0000 -23.9619 0.0000
# 4 0.0000 0.0000 0.0000 24.9556 0.0000 12.7654
# 5 -16.5291 -8.6803 -23.9619 0.0000 15.7857 0.0000
# 6 0.0000 0.0000 0.0000 12.7654 0.0000 38.5413
#
#
#
# Elastic Compliance Matrix: (Units=1/GPa)
#
#
# Indices 1 2 3 4 5 6 
#
# 1 0.013948 -0.001028 -0.003427 0.000000 0.008838 0.000000
# 2 -0.001028 0.012249 -0.004508 0.000000 -0.001184 0.000000
# 3 -0.003427 -0.004508 0.021992 0.000000 0.027316 0.000000
# 4 0.000000 0.000000 0.000000 0.048245 0.000000 -0.015979
# 5 0.008838 -0.001184 0.027316 0.000000 0.113415 0.000000
# 6 0.000000 0.000000 0.000000 -0.015979 0.000000 0.031239
#
#
# Mechanical properties :
#
#
# Convention : Reuss Voigt Hill
#
# Bulk Modulus (GPa) = 33.04367 51.48816 42.26592
# Shear Modulus (GPa) = 18.58043 28.05259 23.31651
#
# Velocity S-wave (km/s) = 3.15007 3.87061 3.52878
# Velocity P-wave (km/s) = 5.55677 6.89006 6.25902
#
# Compressibility (1/GPa) = 0.03026298
#
# Stress axis : x y z
#
# Youngs Moduli (GPa) = 71.69555 81.64050 45.47170
#
# Poissons Ratio (x) = 0.08395 0.15581
# Poissons Ratio (y) = 0.07373 0.20498
# Poissons Ratio (z) = 0.24567 0.36802
#
# Static dielectric constant tensor:
#      x y z
#    x 1.669670 0.000000 -0.011160 
#    y 0.000000 1.646850 0.000000 
#    z -0.011160 0.000000 1.627190 
# 
# From -- ./inp_files/145535.got.cif
#   From: 2010.05.17/outbox.cif.g08.bks.cpg/sg12_73_cif.got.tgz:145535.got - 2010.06.03 13:09:07.
