data_PCOD9217127
_publ_section_title
;
Structure prediction by ZEFSAII (Michael W. Deem and Ramdas Pophale) SiO2 
 PCOD9217127
Probable space group: C 2/M
;
_chemical_formula_sum "Si O2"
_cell_formula_units_Z 64
_cell_length_a 26.148481
_cell_length_b 22.824361
_cell_length_c 18.173375
_cell_angle_alpha 90.000000
_cell_angle_beta 161.499277
_cell_angle_gamma 90.000000
_cell_volume 3441.703907
_symmetry_space_group_name_H-M "C 2/M"
_symmetry_group_IT_number 12
_symmetry_cell_setting 'monoclinic'
loop_
_space_group_symop_operation_xyz
x,y,z
-x,y,-z
-x,-y,-z
x,-y,z
1/2+x,1/2+y,z
1/2-x,1/2+y,-z
1/2-x,1/2-y,-z
1/2+x,1/2-y,z
loop_
_atom_site_type_symbol
_atom_site_label
_atom_site_fract_x
_atom_site_fract_y
_atom_site_fract_z
Si Si1 0.525570 0.641849 0.356401
Si Si2 0.594399 0.250871 0.555863
Si Si3 0.006591 0.568368 0.218857
Si Si4 0.860729 0.068667 0.252184
Si Si5 0.358200 0.116368 0.748957
Si Si6 0.870951 0.242731 0.760717
Si Si7 0.463422 0.819226 0.654731
Si Si8 0.912411 0.774810 0.075603
O O1 0.601206 0.692586 0.512372
O O2 0.398565 0.606217 0.231729
O O3 0.678393 0.604797 0.534857
O O4 0.433830 0.674507 0.164769
O O5 0.500000 0.267370 0.500000
O O6 0.505961 0.200716 0.386963
O O7 0.763154 0.226917 0.816458
O O8 0.036588 0.500000 0.275067
O O9 0.098035 0.587643 0.269431
O O10 0.049633 0.613128 0.343115
O O11 0.813411 0.577112 0.948531
O O12 0.000000 0.082890 0.500000
O O13 0.872960 0.000000 0.250069
O O14 0.362056 0.186885 0.745164
O O15 0.500000 0.100241 0.000000
O O16 0.705661 0.211894 0.556323
O O17 0.933326 0.222098 0.766965
O O18 0.000000 0.228282 0.000000
O O19 0.587551 0.786103 0.878430
#
# Coordination Sequence:
#
# PCOD9217127 Si02
#       8
#     8   8   8   8   8   8   8   8
#     4  11  23  36  59  90 120 155 191 240 292 357
#     4  11  24  36  55  91 122 151 194 236 298 354
#     4  11  25  40  60  84 114 160 206 244 285 344
#     4  10  23  42  60  81 117 163 200 239 294 349
#     4  11  20  35  61  89 124 152 189 239 294 353
#     4  11  18  36  59  89 120 154 185 231 303 360
#     4  11  22  37  60  84 119 155 191 241 291 353
#     4  11  21  35  57  89 120 151 188 237 297 355
#
# _framework density 18.595441000000001
#
# number of rings (size 3 to 8) (size 9 to 14) (size 15 to 20)
#    0.000    1.125    5.000    3.000    5.250    1.750 
#    0.000    0.000    0.000    1.500    0.000    0.000 
#    0.000    0.000    0.000    0.000    0.000    0.000 
#
# Total GULP energy -178723.025217 kJ/mol
# GULP energy per Si atom -5585.094538 kJ/mol
# Density = 1.855312 g / cm^3
# Si number density = 18.595441 Si / 1000 Ang^3
#
#
#
# Elastic Constant Matrix: (Units=GPa)
#
#
# Indices 1 2 3 4 5 6 
#
# 1 106.4602 29.1832 11.0526 0.0000 -2.6821 0.0000
# 2 29.1832 78.2741 13.4894 0.0000 -6.5802 0.0000
# 3 11.0526 13.4894 44.9573 0.0000 -11.0085 0.0000
# 4 0.0000 0.0000 0.0000 16.6707 0.0000 2.1912
# 5 -2.6821 -6.5802 -11.0085 0.0000 34.3698 0.0000
# 6 0.0000 0.0000 0.0000 2.1912 0.0000 28.7686
#
#
#
# Elastic Compliance Matrix: (Units=1/GPa)
#
#
# Indices 1 2 3 4 5 6 
#
# 1 0.010561 -0.003698 -0.001583 0.000000 -0.000391 0.000000
# 2 -0.003698 0.014829 -0.003164 0.000000 0.001537 0.000000
# 3 -0.001583 -0.003164 0.025395 0.000000 0.007405 0.000000
# 4 0.000000 0.000000 0.000000 0.060592 0.000000 -0.004615
# 5 -0.000391 0.001537 0.007405 0.000000 0.031731 0.000000
# 6 0.000000 0.000000 0.000000 -0.004615 0.000000 0.035112
#
#
# Mechanical properties :
#
#
# Convention : Reuss Voigt Hill
#
# Bulk Modulus (GPa) = 29.50165 37.46022 33.48094
# Shear Modulus (GPa) = 24.22401 27.69291 25.95846
#
# Velocity S-wave (km/s) = 3.61319 3.86324 3.74031
# Velocity P-wave (km/s) = 5.77116 6.33152 6.05782
#
# Compressibility (1/GPa) = 0.03389640
#
# Stress axis : x y z
#
# Youngs Moduli (GPa) = 94.68561 67.43676 39.37803
#
# Poissons Ratio (x) = 0.24936 0.06232
# Poissons Ratio (y) = 0.35012 0.12459
# Poissons Ratio (z) = 0.14985 0.21336
#
# Static dielectric constant tensor:
#      x y z
#    x 1.674310 0.000000 0.030520 
#    y 0.000000 1.630330 0.000000 
#    z 0.030520 0.000000 1.702130 
# 
# From -- ./inp_files/294304.got.cif
#   From: 2010.05.17/outbox.cif.g08.bks.cpg/sg12_148_cif.got.tgz:294304.got - 2010.06.03 13:09:07.
