data_PCOD9217793
_publ_section_title
;
Structure prediction by ZEFSAII (Michael W. Deem and Ramdas Pophale) SiO2 
 PCOD9217793
Probable space group: C 2/M
;
_chemical_formula_sum "Si O2"
_cell_formula_units_Z 64
_cell_length_a 15.018051
_cell_length_b 25.301906
_cell_length_c 11.804977
_cell_angle_alpha 90.000000
_cell_angle_beta 39.490533
_cell_angle_gamma 90.000000
_cell_volume 2852.695510
_symmetry_space_group_name_H-M "C 2/M"
_symmetry_group_IT_number 12
_symmetry_cell_setting 'monoclinic'
loop_
_space_group_symop_operation_xyz
x,y,z
-x,y,-z
-x,-y,-z
x,-y,z
1/2+x,1/2+y,z
1/2-x,1/2+y,-z
1/2-x,1/2-y,-z
1/2+x,1/2-y,z
loop_
_atom_site_type_symbol
_atom_site_label
_atom_site_fract_x
_atom_site_fract_y
_atom_site_fract_z
Si Si1 0.591039 0.738966 0.293350
Si Si2 0.013692 0.440317 0.866290
Si Si3 0.228281 0.436917 0.053326
Si Si4 0.876528 0.286676 0.333111
Si Si5 0.255351 0.902106 0.488588
Si Si6 0.959105 0.885239 0.672204
Si Si7 0.331311 0.884831 0.652539
Si Si8 0.153263 0.216932 0.845236
O O1 0.500000 0.746205 0.500000
O O2 0.510110 0.770767 0.275725
O O3 0.586189 0.676259 0.276649
O O4 0.749677 0.759596 0.150777
O O5 0.958487 0.500000 0.935175
O O6 0.172384 0.440971 0.670795
O O7 0.918778 0.419374 0.858257
O O8 0.000000 0.412179 0.000000
O O9 0.231822 0.500000 0.070753
O O10 0.235314 0.407021 0.166400
O O11 0.340906 0.420510 0.847791
O O12 0.750000 0.250000 0.500000
O O13 0.834158 0.346903 0.385215
O O14 0.882517 0.266624 0.199232
O O15 0.290093 0.918494 0.582483
O O16 0.095609 0.893193 0.615487
O O17 0.000000 0.896253 0.500000
O O18 0.500000 0.881366 0.500000
O O19 0.258810 0.828423 0.697605
O O20 0.000000 0.190345 0.000000
#
# Coordination Sequence:
#
# PCOD9217793 Si02
#       8
#     8   8   8   8   8   8   8   8
#     4  11  21  41  65  94 138 180 224 270 337 408
#     4  10  23  45  71 100 134 176 235 299 352 412
#     4  11  27  47  70 102 141 180 234 301 356 417
#     4  12  21  40  65  95 133 182 225 279 334 406
#     4  12  23  40  73 101 136 184 235 280 349 422
#     4  11  24  43  71 103 140 185 226 290 355 420
#     4  12  25  45  70  99 136 191 233 286 352 423
#     4  12  27  41  65 102 140 182 231 283 344 418
#
# _framework density 22.434920999999999
#
# number of rings (size 3 to 8) (size 9 to 14) (size 15 to 20)
#    0.000    0.625    5.000    2.625    3.500    3.500 
#    0.000    0.625    0.000    0.000    0.000    0.000 
#    0.000    0.000    0.000    0.000    0.000    0.000 
#
# Total GULP energy -178724.514784 kJ/mol
# GULP energy per Si atom -5585.141087 kJ/mol
# Density = 2.238386 g / cm^3
# Si number density = 22.434921 Si / 1000 Ang^3
#
#
#
# Elastic Constant Matrix: (Units=GPa)
#
#
# Indices 1 2 3 4 5 6 
#
# 1 118.0062 6.0961 16.5767 0.0000 -24.3311 0.0000
# 2 6.0961 58.6650 18.0841 0.0000 -3.7499 0.0000
# 3 16.5767 18.0841 81.1579 0.0000 -12.8054 0.0000
# 4 0.0000 0.0000 0.0000 14.0195 0.0000 -6.5312
# 5 -24.3311 -3.7499 -12.8054 0.0000 42.0238 0.0000
# 6 0.0000 0.0000 0.0000 -6.5312 0.0000 3.8832
#
#
#
# Elastic Compliance Matrix: (Units=1/GPa)
#
#
# Indices 1 2 3 4 5 6 
#
# 1 0.009731 -0.000341 -0.001079 0.000000 0.005275 0.000000
# 2 -0.000341 0.018322 -0.003977 0.000000 0.000225 0.000000
# 3 -0.001079 -0.003977 0.013944 0.000000 0.003269 0.000001
# 4 0.000000 0.000000 0.000000 0.329544 0.000000 0.554266
# 5 0.005275 0.000225 0.003269 0.000000 0.027866 0.000000
# 6 0.000000 0.000000 0.000001 0.554266 0.000000 1.189752
#
#
# Mechanical properties :
#
#
# Convention : Reuss Voigt Hill
#
# Bulk Modulus (GPa) = 32.05004 37.70476 34.87740
# Shear Modulus (GPa) = 3.10491 26.45680 14.78085
#
# Velocity S-wave (km/s) = 1.17769 3.43777 2.56956
# Velocity P-wave (km/s) = 4.02071 5.70968 4.93794
#
# Compressibility (1/GPa) = 0.03120121
#
# Stress axis : x y z
#
# Youngs Moduli (GPa) = 102.76506 54.57963 71.71443
#
# Poissons Ratio (x) = 0.01863 0.07740
# Poissons Ratio (y) = 0.03508 0.28523
# Poissons Ratio (z) = 0.11091 0.21708
#
# Static dielectric constant tensor:
#      x y z
#    x 1.868710 0.000000 0.062560 
#    y 0.000000 1.871260 0.000000 
#    z 0.062560 0.000000 2.251920 
# 
# From -- ./inp_files/149734.got.cif
#   From: 2010.05.17/outbox.cif.g08.bks.cpg/sg12_75_cif.got.tgz:149734.got - 2010.06.03 13:09:07.
