data_PCOD9217688
_publ_section_title
;
Structure prediction by ZEFSAII (Michael W. Deem and Ramdas Pophale) SiO2 
 PCOD9217688
Probable space group: C 2/M
;
_chemical_formula_sum "Si O2"
_cell_formula_units_Z 36
_cell_length_a 8.953253
_cell_length_b 20.612691
_cell_length_c 9.165908
_cell_angle_alpha 90.000000
_cell_angle_beta 83.681928
_cell_angle_gamma 90.000000
_cell_volume 1681.300041
_symmetry_space_group_name_H-M "C 2/M"
_symmetry_group_IT_number 12
_symmetry_cell_setting 'monoclinic'
loop_
_space_group_symop_operation_xyz
x,y,z
-x,y,-z
-x,-y,-z
x,-y,z
1/2+x,1/2+y,z
1/2-x,1/2+y,-z
1/2-x,1/2-y,-z
1/2+x,1/2-y,z
loop_
_atom_site_type_symbol
_atom_site_label
_atom_site_fract_x
_atom_site_fract_y
_atom_site_fract_z
Si Si1 0.822791 0.428783 0.489265
Si Si2 0.452986 0.300125 0.159006
Si Si3 0.278177 0.821126 0.254697
Si Si4 0.771865 0.070438 0.167024
Si Si5 0.500000 0.890249 0.000000
O O1 0.785697 0.500000 0.426637
O O2 0.784346 0.368266 0.392469
O O3 0.749596 0.426020 0.656376
O O4 0.000000 0.427228 0.500000
O O5 0.348039 0.250989 0.260485
O O6 0.606256 0.314745 0.225534
O O7 0.366661 0.365592 0.123789
O O8 0.500000 0.268325 0.000000
O O9 0.382598 0.853668 0.118993
O O10 0.840369 0.000000 0.124216
O O11 0.612416 0.074004 0.100449
#
# Coordination Sequence:
#
# PCOD9217688 Si02
#       5
#     8   8   8   8   4
#     4  10  23  44  68  98 136 175 219 275 329 392
#     4  12  25  45  68 101 136 173 221 284 333 386
#     4  12  25  43  71  96 135 178 224 271 336 395
#     4  11  25  44  68 101 138 174 221 275 331 396
#     4  12  21  42  72 100 131 178 222 270 333 400
#
# _framework density 21.412002999999999
#
# number of rings (size 3 to 8) (size 9 to 14) (size 15 to 20)
#    0.000    0.667    5.556    2.333    0.000    4.000 
#    0.000    2.222    0.000    0.000    0.000    0.000 
#    0.000    0.000    0.000    0.000    0.000    0.000 
#
# Total GULP energy -100536.502180 kJ/mol
# GULP energy per Si atom -5585.361232 kJ/mol
# Density = 2.136327 g / cm^3
# Si number density = 21.412003 Si / 1000 Ang^3
#
#
#
# Elastic Constant Matrix: (Units=GPa)
#
#
# Indices 1 2 3 4 5 6 
#
# 1 115.0207 65.9265 28.9291 0.0000 27.5957 0.0000
# 2 65.9265 161.1893 57.9244 0.0000 24.5726 0.0000
# 3 28.9291 57.9244 83.9872 0.0000 19.3580 0.0000
# 4 0.0000 0.0000 0.0000 28.5987 0.0000 -13.6626
# 5 27.5957 24.5726 19.3580 0.0000 28.2757 0.0000
# 6 0.0000 0.0000 0.0000 -13.6626 0.0000 20.1982
#
#
#
# Elastic Compliance Matrix: (Units=1/GPa)
#
#
# Indices 1 2 3 4 5 6 
#
# 1 0.013260 -0.004130 0.000518 0.000000 -0.009707 0.000000
# 2 -0.004130 0.009910 -0.005173 0.000000 -0.001041 0.000000
# 3 0.000518 -0.005173 0.017070 0.000000 -0.007697 0.000000
# 4 0.000000 0.000000 0.000000 0.051661 0.000000 0.034945
# 5 -0.009707 -0.001041 -0.007697 0.000000 0.051013 0.000000
# 6 0.000000 0.000000 0.000000 0.034945 0.000000 0.073147
#
#
# Mechanical properties :
#
#
# Convention : Reuss Voigt Hill
#
# Bulk Modulus (GPa) = 44.10871 73.97301 59.04086
# Shear Modulus (GPa) = 20.73092 29.24234 24.98663
#
# Velocity S-wave (km/s) = 3.11495 3.69954 3.41976
# Velocity P-wave (km/s) = 5.79499 7.27126 6.57470
#
# Compressibility (1/GPa) = 0.02267126
#
# Stress axis : x y z
#
# Youngs Moduli (GPa) = 75.41735 100.90383 58.58377
#
# Poissons Ratio (x) = 0.41670 -0.03036
# Poissons Ratio (y) = 0.31145 0.30304
# Poissons Ratio (z) = -0.03908 0.52194
#
# Static dielectric constant tensor:
#      x y z
#    x 1.732170 0.000000 -0.048670 
#    y 0.000000 1.826880 0.000000 
#    z -0.048670 0.000000 1.678060 
# 
# From -- ./inp_files/38012.got.cif
#   From: 2010.05.17/outbox.cif.g08.bks.cpg/sg12_20_cif.got.tgz:38012.got - 2010.06.03 13:09:07.
