data_PCOD9217346
_publ_section_title
;
Structure prediction by ZEFSAII (Michael W. Deem and Ramdas Pophale) SiO2 
 PCOD9217346
Probable space group: C 2/M
;
_chemical_formula_sum "Si O2"
_cell_formula_units_Z 54
_cell_length_a 14.644653
_cell_length_b 30.813618
_cell_length_c 5.323317
_cell_angle_alpha 90.000000
_cell_angle_beta 74.116917
_cell_angle_gamma 90.000000
_cell_volume 2310.462297
_symmetry_space_group_name_H-M "C 2/M"
_symmetry_group_IT_number 12
_symmetry_cell_setting 'monoclinic'
loop_
_space_group_symop_operation_xyz
x,y,z
-x,y,-z
-x,-y,-z
x,-y,z
1/2+x,1/2+y,z
1/2-x,1/2+y,-z
1/2-x,1/2-y,-z
1/2+x,1/2-y,z
loop_
_atom_site_type_symbol
_atom_site_label
_atom_site_fract_x
_atom_site_fract_y
_atom_site_fract_z
Si Si1 0.345320 0.952532 0.943242
Si Si2 0.659787 0.574291 0.819680
Si Si3 0.115104 0.226525 0.414963
Si Si4 0.393940 0.129498 0.200575
Si Si5 0.884119 0.725585 0.085908
Si Si6 0.500000 0.916110 0.500000
Si Si7 0.500000 0.500000 0.000000
Si Si8 0.886927 0.126158 0.637102
O O1 0.260780 0.947455 0.806913
O O2 0.448260 0.946617 0.738155
O O3 0.337298 0.000000 0.070072
O O4 0.339058 0.911003 0.127148
O O5 0.659639 0.601233 0.562748
O O6 0.578685 0.537819 0.869699
O O7 0.635056 0.604760 0.077851
O O8 0.145877 0.243178 0.664522
O O9 0.139469 0.176730 0.346316
O O10 0.000000 0.228609 0.500000
O O11 0.146383 0.257351 0.162845
O O12 0.354268 0.176625 0.174646
O O13 0.417636 0.116359 0.466666
O O14 0.500000 0.129547 0.000000
O O15 0.000000 0.725552 0.000000
O O16 0.000000 0.123219 0.500000
#
# Coordination Sequence:
#
# PCOD9217346 Si02
#       8
#     8   8   8   8   8   4   2   8
#     4  11  25  44  64  99 132 181 225 285 340 407
#     4  12  26  43  71  98 142 178 231 280 339 403
#     4   9  18  31  58  93 129 168 221 270 337 394
#     4   9  21  37  63  92 132 171 224 276 342 398
#     4   9  17  30  57  93 127 166 215 277 324 406
#     4  10  23  42  68  96 130 178 224 280 336 409
#     4  12  24  50  68 108 130 194 224 282 328 408
#     4  11  22  42  66  99 136 181 223 289 341 403
#
# _framework density 23.371946999999999
#
# number of rings (size 3 to 8) (size 9 to 14) (size 15 to 20)
#    0.000    1.778    2.222    1.111    9.333    6.815 
#    0.000    0.000    0.000    5.333    0.000    0.000 
#    0.000    0.000    0.000    0.000    0.000    0.000 
#
# Total GULP energy -150722.340233 kJ/mol
# GULP energy per Si atom -5582.308898 kJ/mol
# Density = 2.331875 g / cm^3
# Si number density = 23.371947 Si / 1000 Ang^3
#
#
#
# Elastic Constant Matrix: (Units=GPa)
#
#
# Indices 1 2 3 4 5 6 
#
# 1 76.1321 8.5271 16.8498 0.0000 -11.2393 0.0000
# 2 8.5271 196.3921 55.7581 0.0000 21.4100 0.0000
# 3 16.8498 55.7581 102.4772 0.0000 16.7836 0.0000
# 4 0.0000 0.0000 0.0000 -30.6392 0.0000 41.0150
# 5 -11.2393 21.4100 16.7836 0.0000 41.0236 0.0000
# 6 0.0000 0.0000 0.0000 41.0150 0.0000 -28.2868
#
#
#
# Elastic Compliance Matrix: (Units=1/GPa)
#
#
# Indices 1 2 3 4 5 6 
#
# 1 0.014674 -0.000348 -0.003120 0.000000 0.005479 0.000000
# 2 -0.000348 0.006177 -0.002958 0.000000 -0.002109 0.000000
# 3 -0.003120 -0.002958 0.012613 0.000000 -0.004471 0.000000
# 4 0.000000 0.000000 0.000000 0.034685 0.000000 0.050292
# 5 0.005479 -0.002109 -0.004471 0.000000 0.028807 0.000000
# 6 0.000000 0.000000 0.000000 0.050292 0.000000 0.037569
#
#
# Mechanical properties :
#
#
# Convention : Reuss Voigt Hill
#
# Bulk Modulus (GPa) = 48.52120 59.69682 54.10901
# Shear Modulus (GPa) = 32.41539 16.01060 24.21299
#
# Velocity S-wave (km/s) = 3.72820 2.62016 3.22216
# Velocity P-wave (km/s) = 6.27201 5.89501 6.08643
#
# Compressibility (1/GPa) = 0.02060955
#
# Stress axis : x y z
#
# Youngs Moduli (GPa) = 68.15005 161.89816 79.28223
#
# Poissons Ratio (x) = 0.05641 0.24739
# Poissons Ratio (y) = 0.02375 0.23452
# Poissons Ratio (z) = 0.21265 0.47891
#
# Static dielectric constant tensor:
#      x y z
#    x 1.991000 0.000000 -0.002210 
#    y 0.000000 1.825330 0.000000 
#    z -0.002210 0.000000 1.891020 
# 
# From -- ./inp_files/17661.got.cif
#   From: 2010.05.17/outbox.cif.g08.bks.cpg/sg12_9_cif.got.tgz:17661.got - 2010.06.03 13:09:07.
