data_PCOD9217316
_publ_section_title
;
Structure prediction by ZEFSAII (Michael W. Deem and Ramdas Pophale) SiO2 
 PCOD9217316
Probable space group: C 2/M
;
_chemical_formula_sum "Si O2"
_cell_formula_units_Z 32
_cell_length_a 16.246914
_cell_length_b 22.774777
_cell_length_c 8.747601
_cell_angle_alpha 90.000000
_cell_angle_beta 153.526360
_cell_angle_gamma 90.000000
_cell_volume 1442.913974
_symmetry_space_group_name_H-M "C 2/M"
_symmetry_group_IT_number 12
_symmetry_cell_setting 'monoclinic'
loop_
_space_group_symop_operation_xyz
x,y,z
-x,y,-z
-x,-y,-z
x,-y,z
1/2+x,1/2+y,z
1/2-x,1/2+y,-z
1/2-x,1/2-y,-z
1/2+x,1/2-y,z
loop_
_atom_site_type_symbol
_atom_site_label
_atom_site_fract_x
_atom_site_fract_y
_atom_site_fract_z
Si Si1 0.213425 0.124601 0.324698
Si Si2 0.453472 0.065784 0.245259
Si Si3 0.272053 0.830872 0.757832
Si Si4 0.629972 0.719996 0.935882
O O1 0.349963 0.072174 0.511858
O O2 0.280466 0.150932 0.596223
O O3 0.223265 0.170827 0.199606
O O4 0.000000 0.109062 0.000000
O O5 0.500000 0.076359 0.500000
O O6 0.377529 0.000000 0.102138
O O7 0.324508 0.115480 0.956348
O O8 0.062701 0.808067 0.435453
O O9 0.402859 0.776061 0.011419
O O10 0.750000 0.750000 0.000000
#
# Coordination Sequence:
#
# PCOD9217316 Si02
#       4
#     8   8   8   8
#     4  10  23  42  67 101 138 174 219 273 333 400
#     4  11  25  46  69  94 129 175 229 282 334 398
#     4  11  23  40  65  98 135 173 218 272 332 395
#     4  11  22  39  66 100 138 174 214 267 331 400
#
# _framework density 22.177344999999999
#
# number of rings (size 3 to 8) (size 9 to 14) (size 15 to 20)
#    0.000    1.250    0.000    5.250    0.000    8.500 
#    0.000    3.750    0.000   15.000    0.000    0.000 
#    0.000    0.000    0.000    0.000    0.000    0.000 
#
# Total GULP energy -89463.145835 kJ/mol
# GULP energy per Si atom -5591.446615 kJ/mol
# Density = 2.212687 g / cm^3
# Si number density = 22.177345 Si / 1000 Ang^3
#
#
#
# Elastic Constant Matrix: (Units=GPa)
#
#
# Indices 1 2 3 4 5 6 
#
# 1 114.4147 23.2072 29.7797 0.0000 2.1285 0.0000
# 2 23.2072 138.6990 67.9792 0.0000 -15.5025 0.0000
# 3 29.7797 67.9792 126.7033 0.0000 -10.8567 0.0000
# 4 0.0000 0.0000 0.0000 20.8896 0.0000 8.7137
# 5 2.1285 -15.5025 -10.8567 0.0000 37.4284 0.0000
# 6 0.0000 0.0000 0.0000 8.7137 0.0000 16.4391
#
#
#
# Elastic Compliance Matrix: (Units=1/GPa)
#
#
# Indices 1 2 3 4 5 6 
#
# 1 0.009425 -0.000801 -0.001907 0.000000 -0.001421 0.000000
# 2 -0.000801 0.010102 -0.004993 0.000000 0.002781 0.000000
# 3 -0.001907 -0.004993 0.011128 0.000000 0.001268 0.000000
# 4 0.000000 0.000000 0.000000 0.061460 0.000000 -0.032577
# 5 -0.001421 0.002781 0.001268 0.000000 0.028318 0.000000
# 6 0.000000 0.000000 0.000000 -0.032577 0.000000 0.078098
#
#
# Mechanical properties :
#
#
# Convention : Reuss Voigt Hill
#
# Bulk Modulus (GPa) = 65.56298 69.08325 67.32311
# Shear Modulus (GPa) = 22.82894 32.20815 27.51854
#
# Velocity S-wave (km/s) = 3.21188 3.81504 3.52638
# Velocity P-wave (km/s) = 6.58651 7.11506 6.85588
#
# Compressibility (1/GPa) = 0.01525251
#
# Stress axis : x y z
#
# Youngs Moduli (GPa) = 106.09535 98.98881 89.85951
#
# Poissons Ratio (x) = 0.07930 0.17139
# Poissons Ratio (y) = 0.08500 0.44871
# Poissons Ratio (z) = 0.20235 0.49429
#
# Static dielectric constant tensor:
#      x y z
#    x 1.921880 0.000000 0.024650 
#    y 0.000000 1.774920 0.000000 
#    z 0.024650 0.000000 1.864120 
# 
# From -- ./inp_files/38711.got.cif
#   From: 2010.05.17/outbox.cif.g08.bks.cpg/sg12_20_cif.got.tgz:38711.got - 2010.06.03 13:09:07.
