data_PCOD9217414
_publ_section_title
;
Structure prediction by ZEFSAII (Michael W. Deem and Ramdas Pophale) SiO2 
 PCOD9217414
Probable space group: C 2/M
;
_chemical_formula_sum "Si O2"
_cell_formula_units_Z 48
_cell_length_a 24.611970
_cell_length_b 8.839662
_cell_length_c 11.747534
_cell_angle_alpha 90.000000
_cell_angle_beta 68.660980
_cell_angle_gamma 90.000000
_cell_volume 2380.593935
_symmetry_space_group_name_H-M "C 2/M"
_symmetry_group_IT_number 12
_symmetry_cell_setting 'monoclinic'
loop_
_space_group_symop_operation_xyz
x,y,z
-x,y,-z
-x,-y,-z
x,-y,z
1/2+x,1/2+y,z
1/2-x,1/2+y,-z
1/2-x,1/2-y,-z
1/2+x,1/2-y,z
loop_
_atom_site_type_symbol
_atom_site_label
_atom_site_fract_x
_atom_site_fract_y
_atom_site_fract_z
Si Si1 0.770273 0.818400 0.365419
Si Si2 0.113719 0.179697 0.108450
Si Si3 0.886533 0.181130 0.152411
Si Si4 0.439817 0.675048 0.475111
Si Si5 0.514661 0.178861 0.785430
Si Si6 0.661274 0.180848 0.293992
O O1 0.750000 0.750000 0.500000
O O2 0.834236 0.770108 0.275360
O O3 0.722924 0.780969 0.304559
O O4 0.771440 0.000000 0.375580
O O5 0.153150 0.260214 0.172403
O O6 0.047513 0.238574 0.171717
O O7 0.114619 0.000000 0.127969
O O8 0.130928 0.209326 0.964824
O O9 0.945794 0.264840 0.140417
O O10 0.895582 0.000000 0.157569
O O11 0.500000 0.678896 0.500000
O O12 0.427221 0.500000 0.455026
O O13 0.450191 0.771304 0.354086
O O14 0.388864 0.742298 0.591395
O O15 0.505944 0.000000 0.795241
O O16 0.653767 0.000000 0.302259
#
# Coordination Sequence:
#
# PCOD9217414 Si02
#       6
#     8   8   8   8   8   8
#     4  10  23  43  65  91 121 157 200 249 303 358
#     4  11  23  40  62  89 121 164 208 246 299 365
#     4  10  23  43  64  86 121 165 208 248 294 363
#     4  11  22  37  60  88 120 159 202 243 295 362
#     4  12  24  38  61  92 126 159 200 257 311 356
#     4  11  23  39  62  93 127 158 198 255 308 354
#
# _framework density 20.163035000000001
#
# number of rings (size 3 to 8) (size 9 to 14) (size 15 to 20)
#    0.000    1.167    1.667    4.500    0.000    9.333 
#    0.000    0.000    0.000    0.000    0.000    0.000 
#    0.000    0.000    0.000    0.000    0.000    0.000 
#
# Total GULP energy -134291.342297 kJ/mol
# GULP energy per Si atom -5595.472596 kJ/mol
# Density = 2.011714 g / cm^3
# Si number density = 20.163035 Si / 1000 Ang^3
#
#
#
# Elastic Constant Matrix: (Units=GPa)
#
#
# Indices 1 2 3 4 5 6 
#
# 1 97.5497 23.0561 19.8207 0.0000 16.1409 0.0000
# 2 23.0561 38.2952 17.3024 0.0000 2.0254 0.0000
# 3 19.8207 17.3024 80.7533 0.0000 10.2837 0.0000
# 4 0.0000 0.0000 0.0000 31.3049 0.0000 11.6044
# 5 16.1409 2.0254 10.2837 0.0000 24.4890 0.0000
# 6 0.0000 0.0000 0.0000 11.6044 0.0000 23.0022
#
#
#
# Elastic Compliance Matrix: (Units=1/GPa)
#
#
# Indices 1 2 3 4 5 6 
#
# 1 0.013451 -0.007356 -0.000712 0.000000 -0.007958 0.000000
# 2 -0.007356 0.032936 -0.005834 0.000000 0.004574 0.000000
# 3 -0.000712 -0.005834 0.014460 0.000000 -0.005121 0.000000
# 4 0.000000 0.000000 0.000000 0.039292 0.000000 -0.019822
# 5 -0.007958 0.004574 -0.005121 0.000000 0.047852 0.000000
# 6 0.000000 0.000000 0.000000 -0.019822 0.000000 0.053474
#
#
# Mechanical properties :
#
#
# Convention : Reuss Voigt Hill
#
# Bulk Modulus (GPa) = 30.26316 37.43964 33.85140
# Shear Modulus (GPa) = 20.80878 26.18715 23.49797
#
# Velocity S-wave (km/s) = 3.21600 3.60776 3.41750
# Velocity P-wave (km/s) = 5.36955 5.99694 5.69189
#
# Compressibility (1/GPa) = 0.03304348
#
# Stress axis : x y z
#
# Youngs Moduli (GPa) = 74.34242 30.36236 69.15521
#
# Poissons Ratio (x) = 0.22334 0.04924
# Poissons Ratio (y) = 0.54686 0.40344
# Poissons Ratio (z) = 0.05293 0.17713
#
# Static dielectric constant tensor:
#      x y z
#    x 1.699050 0.000000 0.019410 
#    y 0.000000 1.675160 0.000000 
#    z 0.019410 0.000000 1.712770 
# 
# From -- ./inp_files/172889.got.cif
#   From: 2010.05.17/outbox.cif.g08.bks.cpg/sg12_87_cif.got.tgz:172889.got - 2010.06.03 13:09:07.
