data_PCOD9217897
_publ_section_title
;
Structure prediction by ZEFSAII (Michael W. Deem and Ramdas Pophale) SiO2 
 PCOD9217897
Probable space group: C 2/M
;
_chemical_formula_sum "Si O2"
_cell_formula_units_Z 44
_cell_length_a 28.873092
_cell_length_b 9.712617
_cell_length_c 7.320839
_cell_angle_alpha 90.000000
_cell_angle_beta 98.759790
_cell_angle_gamma 90.000000
_cell_volume 2029.059631
_symmetry_space_group_name_H-M "C 2/M"
_symmetry_group_IT_number 12
_symmetry_cell_setting 'monoclinic'
loop_
_space_group_symop_operation_xyz
x,y,z
-x,y,-z
-x,-y,-z
x,-y,z
1/2+x,1/2+y,z
1/2-x,1/2+y,-z
1/2-x,1/2-y,-z
1/2+x,1/2-y,z
loop_
_atom_site_type_symbol
_atom_site_label
_atom_site_fract_x
_atom_site_fract_y
_atom_site_fract_z
Si Si1 0.396374 0.162380 0.609320
Si Si2 0.422355 0.159697 0.028198
Si Si3 0.185704 0.283509 0.934508
Si Si4 0.206544 0.343055 0.522528
Si Si5 0.237670 0.000000 0.937543
Si Si6 0.951815 0.840770 0.358852
O O1 0.341547 0.193389 0.607622
O O2 0.414942 0.258467 0.461113
O O3 0.399048 0.000000 0.560137
O O4 0.424617 0.182862 0.812785
O O5 0.367883 0.185288 0.048558
O O6 0.453124 0.261280 0.168193
O O7 0.433843 0.000000 0.073193
O O8 0.194818 0.329758 0.730045
O O9 0.199285 0.123676 0.956029
O O10 0.221699 0.379033 0.067959
O O11 0.219687 0.500000 0.491857
O O12 0.250000 0.250000 0.500000
O O13 0.000000 0.834902 0.500000
O O14 0.938590 0.000000 0.325917
#
# Coordination Sequence:
#
# PCOD9217897 Si02
#       6
#     8   8   8   8   4   8
#     4  10  24  43  68 101 133 172 224 276 331 398
#     4  11  23  42  70  99 134 175 219 277 337 398
#     4  11  22  40  60  91 131 179 226 271 326 384
#     4  11  24  38  59  90 133 179 223 270 322 384
#     4  10  24  34  60  88 126 174 228 268 314 380
#     4  11  26  48  72  99 132 172 219 279 346 408
#
# _framework density 21.684922
#
# number of rings (size 3 to 8) (size 9 to 14) (size 15 to 20)
#    0.000    1.273    3.636    0.545    7.636    3.636 
#    0.000    3.636    0.000    0.000    0.000    0.000 
#    0.000    0.000    0.000    0.000    0.000    0.000 
#
# Total GULP energy -122614.508299 kJ/mol
# GULP energy per Si atom -5573.386741 kJ/mol
# Density = 2.163557 g / cm^3
# Si number density = 21.684922 Si / 1000 Ang^3
#
#
#
# Elastic Constant Matrix: (Units=GPa)
#
#
# Indices 1 2 3 4 5 6 
#
# 1 37.8696 27.1320 3.7465 0.0000 4.2560 0.0000
# 2 27.1320 168.6772 65.0036 0.0000 21.8096 0.0000
# 3 3.7465 65.0036 84.3100 0.0000 4.8187 0.0000
# 4 0.0000 0.0000 0.0000 30.7114 0.0000 8.6149
# 5 4.2560 21.8096 4.8187 0.0000 20.0137 0.0000
# 6 0.0000 0.0000 0.0000 8.6149 0.0000 25.6781
#
#
#
# Elastic Compliance Matrix: (Units=1/GPa)
#
#
# Indices 1 2 3 4 5 6 
#
# 1 0.030545 -0.006152 0.003421 0.000000 -0.000615 0.000000
# 2 -0.006152 0.011046 -0.007736 0.000000 -0.008866 0.000000
# 3 0.003421 -0.007736 0.017474 0.000000 0.003496 0.000000
# 4 0.000000 0.000000 0.000000 0.035944 0.000000 -0.012059
# 5 -0.000615 -0.008866 0.003496 0.000000 0.058917 0.000000
# 6 0.000000 0.000000 0.000000 -0.012059 0.000000 0.042989
#
#
# Mechanical properties :
#
#
# Convention : Reuss Voigt Hill
#
# Bulk Modulus (GPa) = 26.22610 53.62456 39.92533
# Shear Modulus (GPa) = 21.68647 28.27895 24.98271
#
# Velocity S-wave (km/s) = 3.16582 3.61513 3.39791
# Velocity P-wave (km/s) = 5.04813 6.49678 5.81772
#
# Compressibility (1/GPa) = 0.03812995
#
# Stress axis : x y z
#
# Youngs Moduli (GPa) = 32.73889 90.53268 57.22840
#
# Poissons Ratio (x) = 0.55696 -0.19578
# Poissons Ratio (y) = 0.20141 0.44273
# Poissons Ratio (z) = -0.11200 0.70038
#
# Static dielectric constant tensor:
#      x y z
#    x 1.779810 0.000000 0.009250 
#    y 0.000000 1.736290 0.000000 
#    z 0.009250 0.000000 1.879120 
# 
# From -- ./inp_files/108305.got.cif
#   From: 2010.05.17/outbox.cif.g08.bks.cpg/sg12_55_cif.got.tgz:108305.got - 2010.06.03 13:09:07.
