data_PCOD9217889
_publ_section_title
;
Structure prediction by ZEFSAII (Michael W. Deem and Ramdas Pophale) SiO2 
 PCOD9217889
Probable space group: C 2/M
;
_chemical_formula_sum "Si O2"
_cell_formula_units_Z 52
_cell_length_a 10.178079
_cell_length_b 27.219900
_cell_length_c 17.881020
_cell_angle_alpha 90.000000
_cell_angle_beta 34.916709
_cell_angle_gamma 90.000000
_cell_volume 2835.521187
_symmetry_space_group_name_H-M "C 2/M"
_symmetry_group_IT_number 12
_symmetry_cell_setting 'monoclinic'
loop_
_space_group_symop_operation_xyz
x,y,z
-x,y,-z
-x,-y,-z
x,-y,z
1/2+x,1/2+y,z
1/2-x,1/2+y,-z
1/2-x,1/2-y,-z
1/2+x,1/2-y,z
loop_
_atom_site_type_symbol
_atom_site_label
_atom_site_fract_x
_atom_site_fract_y
_atom_site_fract_z
Si Si1 0.225521 0.781639 0.733117
Si Si2 0.999002 0.686098 0.117957
Si Si3 0.949681 0.443736 0.397626
Si Si4 0.880408 0.944042 0.309374
Si Si5 0.000000 0.211011 0.500000
Si Si6 0.533413 0.154245 0.699384
Si Si7 0.369243 0.654250 0.822498
O O1 0.039486 0.744681 0.856655
O O2 0.407061 0.746092 0.608670
O O3 0.352818 0.816308 0.732359
O O4 0.098102 0.814213 0.730095
O O5 0.033682 0.663148 0.183254
O O6 0.761794 0.667060 0.192253
O O7 0.198030 0.669812 0.969008
O O8 0.932111 0.500000 0.378174
O O9 0.742723 0.435112 0.553152
O O10 0.957054 0.401868 0.331979
O O11 0.179404 0.440467 0.341087
O O12 0.065654 0.902643 0.207030
O O13 0.966967 0.000000 0.268189
O O14 0.785331 0.178407 0.573989
#
# Coordination Sequence:
#
# PCOD9217889 Si02
#       7
#     8   8   8   8   4   8   8
#     4  11  22  38  60  84 114 162 199 231 277 350
#     4  10  24  39  53  87 122 153 192 241 284 342
#     4   9  19  37  62  91 115 144 191 243 292 346
#     4   9  19  37  63  90 112 146 198 241 282 347
#     4  10  24  34  53  90 125 148 186 238 292 354
#     4  11  22  38  59  86 121 149 188 246 293 334
#     4  11  22  40  62  79 115 164 197 231 290 340
#
# _framework density 18.338781000000001
#
# number of rings (size 3 to 8) (size 9 to 14) (size 15 to 20)
#    0.000    1.846    1.538    3.692    6.462    1.846 
#    0.000    3.462    0.000    1.846    0.000    0.000 
#    0.000    0.000    0.000    0.000    0.000    0.000 
#
# Total GULP energy -145182.808918 kJ/mol
# GULP energy per Si atom -5583.954189 kJ/mol
# Density = 1.829704 g / cm^3
# Si number density = 18.338781 Si / 1000 Ang^3
#
#
#
# Elastic Constant Matrix: (Units=GPa)
#
#
# Indices 1 2 3 4 5 6 
#
# 1 81.4419 46.3025 11.4639 0.0000 6.0492 0.0000
# 2 46.3025 137.8845 34.3414 0.0000 8.0623 0.0000
# 3 11.4639 34.3414 39.7470 -0.0003 3.3470 -0.0006
# 4 0.0000 0.0000 -0.0003 17.1981 0.0001 -17.4187
# 5 6.0492 8.0623 3.3470 0.0001 16.4310 0.0001
# 6 0.0000 0.0000 -0.0006 -17.4187 0.0001 -19.5194
#
#
#
# Elastic Compliance Matrix: (Units=1/GPa)
#
#
# Indices 1 2 3 4 5 6 
#
# 1 0.015340 -0.005005 0.000172 0.000000 -0.003227 0.000000
# 2 -0.005005 0.011018 -0.007911 0.000000 -0.001952 0.000000
# 3 0.000172 -0.007911 0.032175 0.000000 -0.002736 -0.000001
# 4 0.000000 0.000000 0.000000 0.030542 0.000000 -0.027255
# 5 -0.003227 -0.001952 -0.002736 0.000000 0.063563 0.000000
# 6 0.000000 0.000000 -0.000001 -0.027255 0.000000 -0.026910
#
#
# Mechanical properties :
#
#
# Convention : Reuss Voigt Hill
#
# Bulk Modulus (GPa) = 30.26316 49.25432 39.75874
# Shear Modulus (GPa) = 30.81998 13.95298 22.38648
#
# Velocity S-wave (km/s) = 4.10395 2.76134 3.49767
# Velocity P-wave (km/s) = 6.24457 6.08958 6.16756
#
# Compressibility (1/GPa) = 0.03304348
#
# Stress axis : x y z
#
# Youngs Moduli (GPa) = 65.18951 90.76203 31.07980
#
# Poissons Ratio (x) = 0.45430 -0.00535
# Poissons Ratio (y) = 0.32630 0.24588
# Poissons Ratio (z) = -0.01122 0.71805
#
# Static dielectric constant tensor:
#      x y z
#    x 1.625330 0.000000 -0.009100 
#    y 0.000000 1.622260 0.000000 
#    z -0.009100 0.000000 1.643150 
# 
# From -- ./inp_files/259665.got.cif
#   From: 2010.05.17/outbox.cif.g08.bks.cpg/sg12_130_cif.got.tgz:259665.got - 2010.06.03 13:09:07.
