data_PCOD9217535
_publ_section_title
;
Structure prediction by ZEFSAII (Michael W. Deem and Ramdas Pophale) SiO2 
 PCOD9217535
Probable space group: C 2/M
;
_chemical_formula_sum "Si O2"
_cell_formula_units_Z 48
_cell_length_a 25.167982
_cell_length_b 20.469727
_cell_length_c 11.732532
_cell_angle_alpha 90.000000
_cell_angle_beta 23.276120
_cell_angle_gamma 90.000000
_cell_volume 2388.515743
_symmetry_space_group_name_H-M "C 2/M"
_symmetry_group_IT_number 12
_symmetry_cell_setting 'monoclinic'
loop_
_space_group_symop_operation_xyz
x,y,z
-x,y,-z
-x,-y,-z
x,-y,z
1/2+x,1/2+y,z
1/2-x,1/2+y,-z
1/2-x,1/2-y,-z
1/2+x,1/2-y,z
loop_
_atom_site_type_symbol
_atom_site_label
_atom_site_fract_x
_atom_site_fract_y
_atom_site_fract_z
Si Si1 0.853451 0.192012 0.777208
Si Si2 0.308678 0.425076 0.044072
Si Si3 0.496141 0.922582 0.376905
Si Si4 0.379944 0.753156 0.162895
Si Si5 0.261320 0.144909 0.228814
Si Si6 0.000716 0.109782 0.871155
O O1 0.829431 0.166114 0.698238
O O2 0.000000 0.221490 0.500000
O O3 0.750000 0.250000 0.000000
O O4 0.844710 0.130505 0.880799
O O5 0.314108 0.500000 0.987192
O O6 0.152289 0.410761 0.381261
O O7 0.406516 0.421391 0.960041
O O8 0.500000 0.896446 0.500000
O O9 0.513764 0.000000 0.350193
O O10 0.617447 0.896554 0.062368
O O11 0.250000 0.750000 0.500000
O O12 0.332346 0.794091 0.149117
O O13 0.500000 0.785194 0.000000
O O14 0.439476 0.683248 0.007265
O O15 0.155055 0.112630 0.524790
O O16 0.000000 0.080827 0.000000
#
# Coordination Sequence:
#
# PCOD9217535 Si02
#       6
#     8   8   8   8   8   8
#     4  12  27  43  67 107 142 181 229 289 354 419
#     4  11  25  47  71  98 141 185 229 292 354 418
#     4  10  23  43  67  98 133 178 229 284 354 421
#     4  11  23  42  66  97 138 183 231 289 348 414
#     4  12  24  40  69  99 134 183 227 284 350 417
#     4  11  24  45  66 100 135 180 238 284 347 412
#
# _framework density 20.096162
#
# number of rings (size 3 to 8) (size 9 to 14) (size 15 to 20)
#    0.000    0.833    6.667    1.000    4.667    1.333 
#    0.000    0.000    0.000    2.500    0.000    0.000 
#    0.000    0.000    0.000    0.000    0.000    0.000 
#
# Total GULP energy -134053.375939 kJ/mol
# GULP energy per Si atom -5585.557331 kJ/mol
# Density = 2.005042 g / cm^3
# Si number density = 20.096162 Si / 1000 Ang^3
#
#
#
# Elastic Constant Matrix: (Units=GPa)
#
#
# Indices 1 2 3 4 5 6 
#
# 1 124.6360 37.9642 38.8076 0.0006 -7.0913 0.0013
# 2 37.9642 63.7622 43.5763 0.0000 -1.5193 0.0012
# 3 38.8076 43.5763 162.5832 0.0001 -7.1801 0.0022
# 4 0.0006 0.0000 0.0001 41.1094 -0.0009 7.6664
# 5 -7.0913 -1.5193 -7.1801 -0.0009 42.6417 -0.0013
# 6 0.0013 0.0012 0.0022 7.6664 -0.0013 -29.4469
#
#
#
# Elastic Compliance Matrix: (Units=1/GPa)
#
#
# Indices 1 2 3 4 5 6 
#
# 1 0.009995 -0.005300 -0.000907 0.000000 0.001321 0.000000
# 2 -0.005300 0.022012 -0.004674 0.000000 -0.000884 0.000000
# 3 -0.000907 -0.004674 0.007663 0.000000 0.000973 0.000000
# 4 0.000000 0.000000 0.000000 0.023199 0.000001 0.006040
# 5 0.001321 -0.000884 0.000973 0.000001 0.023803 -0.000001
# 6 0.000000 0.000000 0.000000 0.006040 -0.000001 -0.032387
#
#
# Mechanical properties :
#
#
# Convention : Reuss Voigt Hill
#
# Bulk Modulus (GPa) = 55.83848 65.74196 60.79022
# Shear Modulus (GPa) = 60.96382 26.23640 43.60011
#
# Velocity S-wave (km/s) = 5.51379 3.61715 4.66292
# Velocity P-wave (km/s) = 8.26933 7.08729 7.70103
#
# Compressibility (1/GPa) = 0.01790880
#
# Stress axis : x y z
#
# Youngs Moduli (GPa) = 100.04750 45.43002 130.50023
#
# Poissons Ratio (x) = 0.24077 0.11836
# Poissons Ratio (y) = 0.53024 0.60992
# Poissons Ratio (z) = 0.09074 0.21233
#
# Static dielectric constant tensor:
#      x y z
#    x 1.717350 0.000000 -0.005860 
#    y 0.000000 1.728700 0.000000 
#    z -0.005860 0.000000 1.688300 
# 
# From -- ./inp_files/184779.got.cif
#   From: 2010.05.17/outbox.cif.g08.bks.cpg/sg12_93_cif.got.tgz:184779.got - 2010.06.03 13:09:07.
