data_PCOD9217166
_publ_section_title
;
Structure prediction by ZEFSAII (Michael W. Deem and Ramdas Pophale) SiO2 
 PCOD9217166
Probable space group: C 2/M
;
_chemical_formula_sum "Si O2"
_cell_formula_units_Z 58
_cell_length_a 12.529700
_cell_length_b 17.410970
_cell_length_c 20.348111
_cell_angle_alpha 90.000000
_cell_angle_beta 40.903012
_cell_angle_gamma 90.000000
_cell_volume 2906.588204
_symmetry_space_group_name_H-M "C 2/M"
_symmetry_group_IT_number 12
_symmetry_cell_setting 'monoclinic'
loop_
_space_group_symop_operation_xyz
x,y,z
-x,y,-z
-x,-y,-z
x,-y,z
1/2+x,1/2+y,z
1/2-x,1/2+y,-z
1/2-x,1/2-y,-z
1/2+x,1/2-y,z
loop_
_atom_site_type_symbol
_atom_site_label
_atom_site_fract_x
_atom_site_fract_y
_atom_site_fract_z
Si Si1 0.213311 0.091404 0.838449
Si Si2 0.964273 0.665090 0.351772
Si Si3 0.146459 0.093724 0.017070
Si Si4 0.776743 0.642907 0.575187
Si Si5 0.500000 0.000000 0.500000
Si Si6 0.414965 0.336614 0.712229
Si Si7 0.314813 0.092892 0.071315
Si Si8 0.818538 0.190763 0.612560
O O1 0.381924 0.109492 0.724445
O O2 0.042366 0.119111 0.886892
O O3 0.199244 0.000000 0.847482
O O4 0.210508 0.119048 0.915733
O O5 0.879522 0.666589 0.462261
O O6 0.820593 0.650259 0.366254
O O7 0.041921 0.747191 0.299583
O O8 0.256632 0.118354 0.026316
O O9 0.148052 0.000000 0.015920
O O10 0.859640 0.568072 0.565940
O O11 0.593959 0.625974 0.635497
O O12 0.783095 0.717422 0.620049
O O13 0.301570 0.370154 0.820763
O O14 0.327620 0.339707 0.682276
O O15 0.301727 0.000000 0.080864
O O16 0.500000 0.114151 0.000000
O O17 0.000000 0.178556 0.500000
#
# Coordination Sequence:
#
# PCOD9217166 Si02
#       8
#     8   8   8   8   2   8   8   8
#     4   9  19  36  62  91 122 161 206 257 318 370
#     4  11  22  37  63  96 124 163 211 255 313 383
#     4   8  17  39  61  83 120 163 201 256 322 373
#     4  11  23  40  62  95 126 165 205 261 314 377
#     4  12  24  36  64  94 126 154 210 266 302 366
#     4  11  23  41  63  89 123 167 213 249 319 381
#     4  10  23  42  63  87 120 164 212 264 320 382
#     4  11  19  42  65  84 123 174 206 246 308 382
#
# _framework density 19.954666
#
# number of rings (size 3 to 8) (size 9 to 14) (size 15 to 20)
#    0.000    1.793    3.448    1.655    3.862    3.310 
#    4.966    0.690    0.000    1.655    0.000    0.000 
#    0.000    0.000    0.000    0.000    0.000    0.000 
#
# Total GULP energy -161606.945835 kJ/mol
# GULP energy per Si atom -5572.653305 kJ/mol
# Density = 1.990925 g / cm^3
# Si number density = 19.954666 Si / 1000 Ang^3
#
#
#
# Elastic Constant Matrix: (Units=GPa)
#
#
# Indices 1 2 3 4 5 6 
#
# 1 113.8987 19.0870 38.5586 -0.0003 -10.5157 0.0000
# 2 19.0870 24.5378 16.6152 0.0004 -6.3739 -0.0003
# 3 38.5586 16.6152 96.7124 0.0011 -18.4632 -0.0009
# 4 -0.0003 0.0004 0.0011 32.7707 -0.0001 -1.9769
# 5 -10.5157 -6.3739 -18.4632 -0.0001 22.4712 0.0002
# 6 0.0000 -0.0003 -0.0009 -1.9769 0.0002 -3.7451
#
#
#
# Elastic Compliance Matrix: (Units=1/GPa)
#
#
# Indices 1 2 3 4 5 6 
#
# 1 0.010957 -0.006182 -0.003157 0.000000 0.000779 0.000001
# 2 -0.006182 0.050787 -0.004818 -0.000001 0.007554 -0.000002
# 3 -0.003157 -0.004818 0.014094 -0.000001 0.008736 -0.000002
# 4 0.000000 -0.000001 -0.000001 0.029573 0.000000 -0.015611
# 5 0.000779 0.007554 0.008736 0.000000 0.054187 0.000000
# 6 0.000001 -0.000002 -0.000002 -0.015611 0.000000 -0.258774
#
#
# Mechanical properties :
#
#
# Convention : Reuss Voigt Hill
#
# Bulk Modulus (GPa) = 21.04287 42.63006 31.83646
# Shear Modulus (GPa) = -90.87739 21.02523 -34.92608
#
# Velocity S-wave (km/s) = -6.75580 3.24952 -4.18816
# Velocity P-wave (km/s) = 7.09127 5.95726 2.72003
#
# Compressibility (1/GPa) = 0.04752204
#
# Stress axis : x y z
#
# Youngs Moduli (GPa) = 91.26920 19.69004 70.95021
#
# Poissons Ratio (x) = 0.12173 0.22402
# Poissons Ratio (y) = 0.56425 0.34186
# Poissons Ratio (z) = 0.28817 0.09487
#
# Static dielectric constant tensor:
#      x y z
#    x 1.761260 0.000000 -0.011820 
#    y 0.000000 1.703900 0.000000 
#    z -0.011820 0.000000 1.708670 
# 
# From -- ./inp_files/306360.got.cif
#   From: 2010.05.17/outbox.cif.g08.bks.cpg/sg12_154_cif.got.tgz:306360.got - 2010.06.03 13:09:07.
