data_PCOD9217448
_publ_section_title
;
Structure prediction by ZEFSAII (Michael W. Deem and Ramdas Pophale) SiO2 
 PCOD9217448
Probable space group: C 2/M
;
_chemical_formula_sum "Si O2"
_cell_formula_units_Z 40
_cell_length_a 9.967174
_cell_length_b 25.493632
_cell_length_c 8.440345
_cell_angle_alpha 90.000000
_cell_angle_beta 75.133348
_cell_angle_gamma 90.000000
_cell_volume 2072.894989
_symmetry_space_group_name_H-M "C 2/M"
_symmetry_group_IT_number 12
_symmetry_cell_setting 'monoclinic'
loop_
_space_group_symop_operation_xyz
x,y,z
-x,y,-z
-x,-y,-z
x,-y,z
1/2+x,1/2+y,z
1/2-x,1/2+y,-z
1/2-x,1/2-y,-z
1/2+x,1/2-y,z
loop_
_atom_site_type_symbol
_atom_site_label
_atom_site_fract_x
_atom_site_fract_y
_atom_site_fract_z
Si Si1 0.778814 0.500000 0.155670
Si Si2 0.352924 0.894853 0.599313
Si Si3 0.702101 0.700149 0.809654
Si Si4 0.918660 0.500000 0.774392
Si Si5 0.854568 0.906416 0.627356
Si Si6 0.607019 0.702670 0.203706
O O1 0.690799 0.449069 0.229876
O O2 0.921979 0.500000 0.214135
O O3 0.824252 0.500000 0.959963
O O4 0.500000 0.871638 0.500000
O O5 0.269428 0.853596 0.730289
O O6 0.386624 0.948255 0.682662
O O7 0.261132 0.906364 0.473530
O O8 0.558046 0.711129 0.762210
O O9 0.810224 0.747515 0.754619
O O10 0.664314 0.695491 0.007090
O O11 0.866366 0.849311 0.702877
O O12 0.000000 0.919860 0.500000
#
# Coordination Sequence:
#
# PCOD9217448 Si02
#       6
#     4   8   8   4   8   8
#     4  11  24  43  68  93 126 167 212 256 311 379
#     4  12  24  42  65  94 130 166 209 259 315 373
#     4  10  23  43  65  92 128 168 213 258 308 375
#     4  11  24  44  66  94 126 167 214 254 309 381
#     4  12  24  43  64  96 131 162 208 263 318 370
#     4  10  23  43  65  93 127 168 213 257 311 372
#
# _framework density 19.296686000000001
#
# number of rings (size 3 to 8) (size 9 to 14) (size 15 to 20)
#    0.000    1.000    4.000    2.400    2.800    1.600 
#    0.000    1.000    0.000    0.000    0.000    0.000 
#    0.000    0.000    0.000    0.000    0.000    0.000 
#
# Total GULP energy -111864.821165 kJ/mol
# GULP energy per Si atom -5593.241058 kJ/mol
# Density = 1.925277 g / cm^3
# Si number density = 19.296686 Si / 1000 Ang^3
#
#
#
# Elastic Constant Matrix: (Units=GPa)
#
#
# Indices 1 2 3 4 5 6 
#
# 1 118.6353 34.5487 43.9290 0.0000 -10.6846 0.0000
# 2 34.5487 111.6189 43.5305 0.0000 -8.5119 0.0000
# 3 43.9290 43.5305 61.3851 0.0000 -3.0135 0.0000
# 4 0.0000 0.0000 0.0000 92.0477 0.0000 -27.6821
# 5 -10.6846 -8.5119 -3.0135 0.0000 36.3851 0.0000
# 6 0.0000 0.0000 0.0000 -27.6821 0.0000 44.2254
#
#
#
# Elastic Compliance Matrix: (Units=1/GPa)
#
#
# Indices 1 2 3 4 5 6 
#
# 1 0.011744 -0.000280 -0.008073 0.000000 0.002715 0.000000
# 2 -0.000280 0.012565 -0.008605 0.000000 0.002145 0.000000
# 3 -0.008073 -0.008605 0.028069 0.000000 -0.002059 0.000000
# 4 0.000000 0.000000 0.000000 0.013383 0.000000 0.008377
# 5 0.002715 0.002145 -0.002059 0.000000 0.028612 0.000000
# 6 0.000000 0.000000 0.000000 0.008377 0.000000 0.027855
#
#
# Mechanical properties :
#
#
# Convention : Reuss Voigt Hill
#
# Bulk Modulus (GPa) = 54.16218 59.51728 56.83973
# Shear Modulus (GPa) = 30.80751 45.84040 38.32395
#
# Velocity S-wave (km/s) = 3.99998 4.87926 4.46133
# Velocity P-wave (km/s) = 7.03294 7.91537 7.48716
#
# Compressibility (1/GPa) = 0.01846307
#
# Stress axis : x y z
#
# Youngs Moduli (GPa) = 85.14625 79.58611 35.62674
#
# Poissons Ratio (x) = 0.02226 0.28762
# Poissons Ratio (y) = 0.02382 0.30656
# Poissons Ratio (z) = 0.68739 0.68482
#
# Static dielectric constant tensor:
#      x y z
#    x 1.630900 0.000000 -0.003610 
#    y 0.000000 1.628090 0.000000 
#    z -0.003610 0.000000 1.661200 
# 
# From -- ./inp_files/39266.got.cif
#   From: 2010.05.17/outbox.cif.g08.bks.cpg/sg12_20_cif.got.tgz:39266.got - 2010.06.03 13:09:07.
