data_PCOD9217188
_publ_section_title
;
Structure prediction by ZEFSAII (Michael W. Deem and Ramdas Pophale) SiO2 
 PCOD9217188
Probable space group: C 2/M
;
_chemical_formula_sum "Si O2"
_cell_formula_units_Z 44
_cell_length_a 19.266461
_cell_length_b 8.050999
_cell_length_c 13.246104
_cell_angle_alpha 90.000000
_cell_angle_beta 57.515942
_cell_angle_gamma 90.000000
_cell_volume 1733.189429
_symmetry_space_group_name_H-M "C 2/M"
_symmetry_group_IT_number 12
_symmetry_cell_setting 'monoclinic'
loop_
_space_group_symop_operation_xyz
x,y,z
-x,y,-z
-x,-y,-z
x,-y,z
1/2+x,1/2+y,z
1/2-x,1/2+y,-z
1/2-x,1/2-y,-z
1/2+x,1/2-y,z
loop_
_atom_site_type_symbol
_atom_site_label
_atom_site_fract_x
_atom_site_fract_y
_atom_site_fract_z
Si Si1 0.601259 0.500000 0.306709
Si Si2 0.825460 0.811528 0.007924
Si Si3 0.009388 0.682673 0.612415
Si Si4 0.240870 0.317411 0.736343
Si Si5 0.998369 0.693899 0.115154
Si Si6 0.354801 0.689965 0.368761
O O1 0.538108 0.351058 0.321460
O O2 0.666043 0.357191 0.302995
O O3 0.798837 0.795737 0.145534
O O4 0.842383 0.000000 0.963435
O O5 0.750000 0.750000 0.000000
O O6 0.907911 0.711502 0.922863
O O7 0.982026 0.500000 0.672484
O O8 0.000000 0.678878 0.500000
O O9 0.104240 0.707059 0.572503
O O10 0.199976 0.500000 0.778855
O O11 0.221291 0.256889 0.638690
O O12 0.976633 0.500000 0.132324
O O13 0.930376 0.792365 0.229876
O O14 0.000000 0.758183 0.000000
O O15 0.340683 0.500000 0.409475
#
# Coordination Sequence:
#
# PCOD9217188 Si02
#       6
#     4   8   8   8   8   8
#     4  10  25  46  76  99 146 176 229 288 354 417
#     4  12  25  39  59  88 133 180 232 285 342 408
#     4  11  25  48  80 108 138 179 236 294 359 428
#     4  10  23  42  63  94 140 175 223 286 341 414
#     4  11  23  39  63  91 129 176 229 282 335 398
#     4  12  24  41  71 103 138 186 235 291 357 420
#
# _framework density 25.386723
#
# number of rings (size 3 to 8) (size 9 to 14) (size 15 to 20)
#    0.545    0.364    2.727    4.636    2.545    2.182 
#    0.000    0.909    0.000    0.000    0.000    0.000 
#    0.000    0.000    0.000    0.000    0.000    0.000 
#
# Total GULP energy -122600.200575 kJ/mol
# GULP energy per Si atom -5572.736390 kJ/mol
# Density = 2.532894 g / cm^3
# Si number density = 25.386723 Si / 1000 Ang^3
#
#
#
# Elastic Constant Matrix: (Units=GPa)
#
#
# Indices 1 2 3 4 5 6 
#
# 1 195.6455 43.3101 19.5707 0.0000 12.7161 0.0000
# 2 43.3101 159.3118 -7.0306 0.0000 -11.9447 0.0000
# 3 19.5707 -7.0306 71.4185 0.0000 17.0421 0.0000
# 4 0.0000 0.0000 0.0000 17.9071 0.0000 7.0698
# 5 12.7161 -11.9447 17.0421 0.0000 31.8808 0.0000
# 6 0.0000 0.0000 0.0000 7.0698 0.0000 42.1255
#
#
#
# Elastic Compliance Matrix: (Units=1/GPa)
#
#
# Indices 1 2 3 4 5 6 
#
# 1 0.005782 -0.001800 -0.001204 0.000000 -0.002337 0.000000
# 2 -0.001800 0.007019 0.000442 0.000000 0.003112 0.000000
# 3 -0.001204 0.000442 0.016301 0.000000 -0.008068 0.000000
# 4 0.000000 0.000000 0.000000 0.059806 0.000000 -0.010037
# 5 -0.002337 0.003112 -0.008068 0.000000 0.037778 0.000000
# 6 0.000000 0.000000 0.000000 -0.010037 0.000000 0.025423
#
#
# Mechanical properties :
#
#
# Convention : Reuss Voigt Hill
#
# Bulk Modulus (GPa) = 41.70675 59.78623 50.74649
# Shear Modulus (GPa) = 30.26153 43.08440 36.67296
#
# Velocity S-wave (km/s) = 3.45631 4.12408 3.80488
# Velocity P-wave (km/s) = 5.69143 6.80285 6.27181
#
# Compressibility (1/GPa) = 0.02397694
#
# Stress axis : x y z
#
# Youngs Moduli (GPa) = 172.94576 142.46578 61.34763
#
# Poissons Ratio (x) = 0.25648 0.07386
# Poissons Ratio (y) = 0.31135 -0.02710
# Poissons Ratio (z) = 0.20822 -0.06294
#
# Static dielectric constant tensor:
#      x y z
#    x 2.032050 0.000000 0.002380 
#    y 0.000000 1.755510 0.000000 
#    z 0.002380 0.000000 2.114870 
# 
# From -- ./inp_files/220979.got.cif
#   From: 2010.05.17/outbox.cif.g08.bks.cpg/sg12_111_cif.got.tgz:220979.got - 2010.06.03 13:09:07.
