data_PCOD9217234
_publ_section_title
;
Structure prediction by ZEFSAII (Michael W. Deem and Ramdas Pophale) SiO2 
 PCOD9217234
Probable space group: C 2/M
;
_chemical_formula_sum "Si O2"
_cell_formula_units_Z 28
_cell_length_a 4.897240
_cell_length_b 23.381209
_cell_length_c 9.676889
_cell_angle_alpha 90.000000
_cell_angle_beta 79.617252
_cell_angle_gamma 90.000000
_cell_volume 1089.893380
_symmetry_space_group_name_H-M "C 2/M"
_symmetry_group_IT_number 12
_symmetry_cell_setting 'monoclinic'
loop_
_space_group_symop_operation_xyz
x,y,z
-x,y,-z
-x,-y,-z
x,-y,z
1/2+x,1/2+y,z
1/2-x,1/2+y,-z
1/2-x,1/2-y,-z
1/2+x,1/2-y,z
loop_
_atom_site_type_symbol
_atom_site_label
_atom_site_fract_x
_atom_site_fract_y
_atom_site_fract_z
Si Si1 0.181383 0.287024 0.772226
Si Si2 0.202994 0.589570 0.862172
Si Si3 0.500000 0.653987 0.500000
Si Si4 0.243955 0.563370 0.316254
O O1 0.365261 0.232583 0.796424
O O2 0.223159 0.341698 0.865193
O O3 0.302488 0.307490 0.613544
O O4 0.512162 0.566366 0.821268
O O5 0.045399 0.574477 0.733542
O O6 0.000000 0.568699 0.000000
O O7 0.322533 0.612841 0.416000
O O8 0.249515 0.500000 0.377698
#
# Coordination Sequence:
#
# PCOD9217234 Si02
#       4
#     8   8   4   8
#     4  11  23  40  64  91 124 165 204 253 310 364
#     4  11  25  43  63  93 127 162 211 257 301 368
#     4  10  23  42  64  96 128 158 207 258 306 374
#     4  11  24  42  66  93 125 165 204 255 314 365
#
# _framework density 25.690587000000001
#
# number of rings (size 3 to 8) (size 9 to 14) (size 15 to 20)
#    0.000    1.143    0.000    6.429    0.000   13.714 
#    0.000    7.143    0.000    0.000    0.000    0.000 
#    0.000    0.000    0.000    0.000    0.000    0.000 
#
# Total GULP energy -78548.929595 kJ/mol
# GULP energy per Si atom -5610.637828 kJ/mol
# Density = 2.563211 g / cm^3
# Si number density = 25.690587 Si / 1000 Ang^3
#
#
#
# Elastic Constant Matrix: (Units=GPa)
#
#
# Indices 1 2 3 4 5 6 
#
# 1 95.4799 1.7199 6.5822 0.0000 -4.9229 0.0000
# 2 1.7199 115.1366 -3.3542 0.0000 3.6779 0.0000
# 3 6.5822 -3.3542 63.7574 0.0000 -30.0810 0.0000
# 4 0.0000 0.0000 0.0000 -4.2956 0.0000 -11.4098
# 5 -4.9229 3.6779 -30.0810 0.0000 42.3441 0.0000
# 6 0.0000 0.0000 0.0000 -11.4098 0.0000 48.1180
#
#
#
# Elastic Compliance Matrix: (Units=1/GPa)
#
#
# Indices 1 2 3 4 5 6 
#
# 1 0.010566 -0.000203 -0.000773 0.000000 0.000697 0.000000
# 2 -0.000203 0.008714 0.000167 0.000000 -0.000662 0.000000
# 3 -0.000773 0.000167 0.023651 0.000000 0.016697 0.000000
# 4 0.000000 0.000000 0.000000 -0.142834 0.000000 -0.033869
# 5 0.000697 -0.000662 0.016697 0.000000 0.035616 0.000000
# 6 0.000000 0.000000 0.000000 -0.033869 0.000000 0.012751
#
#
# Mechanical properties :
#
#
# Convention : Reuss Voigt Hill
#
# Bulk Modulus (GPa) = 24.20407 31.58551 27.89479
# Shear Modulus (GPa) = -138.32272 35.19503 -51.56385
#
# Velocity S-wave (km/s) = -7.34566 3.70531 -4.48494
# Velocity P-wave (km/s) = 7.90589 5.53417 3.99224
#
# Compressibility (1/GPa) = 0.04131536
#
# Stress axis : x y z
#
# Youngs Moduli (GPa) = 94.64082 114.75295 42.28206
#
# Poissons Ratio (x) = 0.02325 0.03267
# Poissons Ratio (y) = 0.01918 -0.00707
# Poissons Ratio (z) = 0.07312 -0.01918
#
# Static dielectric constant tensor:
#      x y z
#    x 1.914130 0.000000 -0.001590 
#    y 0.000000 1.986160 0.000000 
#    z -0.001590 0.000000 2.071460 
# 
# From -- ./inp_files/114487.got.cif
#   From: 2010.05.17/outbox.cif.g08.bks.cpg/sg12_58_cif.got.tgz:114487.got - 2010.06.03 13:09:07.
