data_PCOD9217075
_publ_section_title
;
Structure prediction by ZEFSAII (Michael W. Deem and Ramdas Pophale) SiO2 
 PCOD9217075
Probable space group: C 2/M
;
_chemical_formula_sum "Si O2"
_cell_formula_units_Z 48
_cell_length_a 29.170561
_cell_length_b 13.652349
_cell_length_c 9.214948
_cell_angle_alpha 90.000000
_cell_angle_beta 39.882206
_cell_angle_gamma 90.000000
_cell_volume 2353.131790
_symmetry_space_group_name_H-M "C 2/M"
_symmetry_group_IT_number 12
_symmetry_cell_setting 'monoclinic'
loop_
_space_group_symop_operation_xyz
x,y,z
-x,y,-z
-x,-y,-z
x,-y,z
1/2+x,1/2+y,z
1/2-x,1/2+y,-z
1/2-x,1/2-y,-z
1/2+x,1/2-y,z
loop_
_atom_site_type_symbol
_atom_site_label
_atom_site_fract_x
_atom_site_fract_y
_atom_site_fract_z
Si Si1 0.172764 0.884197 0.328397
Si Si2 0.535720 0.889603 0.255815
Si Si3 0.800581 0.890005 0.077691
Si Si4 0.455978 0.258000 0.239124
Si Si5 0.311873 0.185536 0.164364
Si Si6 0.839536 0.611535 0.407807
O O1 0.099041 0.831483 0.550334
O O2 0.239235 0.838567 0.255340
O O3 0.169656 0.000000 0.367055
O O4 0.187393 0.872178 0.121365
O O5 0.500000 0.881175 0.500000
O O6 0.505459 0.802609 0.229548
O O7 0.519263 0.000000 0.240563
O O8 0.621081 0.876480 0.057271
O O9 0.831669 0.799264 0.091617
O O10 0.716945 0.888626 0.323764
O O11 0.827016 0.000000 0.049796
O O12 0.407004 0.175238 0.283707
O O13 0.500000 0.305326 0.000000
O O14 0.303683 0.157351 0.352085
O O15 0.858969 0.500000 0.328110
#
# Coordination Sequence:
#
# PCOD9217075 Si02
#       6
#     8   8   8   8   8   8
#     4  11  25  44  67  96 128 170 222 271 319 380
#     4  11  25  41  64  97 132 172 217 268 326 385
#     4  10  23  41  66  97 128 165 213 267 326 382
#     4  12  25  43  64  92 133 180 211 265 324 387
#     4  12  22  42  66  97 131 167 214 272 322 377
#     4  11  23  39  64  97 133 168 208 262 324 387
#
# _framework density 20.398346
#
# number of rings (size 3 to 8) (size 9 to 14) (size 15 to 20)
#    0.000    0.833    3.333    4.000    2.333    1.000 
#    0.000    0.833    0.000    3.000    0.000    0.000 
#    0.000    0.000    0.000    0.000    0.000    0.000 
#
# Total GULP energy -134160.132288 kJ/mol
# GULP energy per Si atom -5590.005512 kJ/mol
# Density = 2.035192 g / cm^3
# Si number density = 20.398346 Si / 1000 Ang^3
#
#
#
# Elastic Constant Matrix: (Units=GPa)
#
#
# Indices 1 2 3 4 5 6 
#
# 1 23.9806 30.4117 34.2853 0.0000 6.2482 0.0000
# 2 30.4117 120.6586 33.6337 0.0000 8.7801 0.0000
# 3 34.2853 33.6337 143.2819 0.0000 9.6107 0.0000
# 4 0.0000 0.0000 0.0000 12.0360 0.0000 -2.3377
# 5 6.2482 8.7801 9.6107 0.0000 24.1993 0.0000
# 6 0.0000 0.0000 0.0000 -2.3377 0.0000 24.7979
#
#
#
# Elastic Compliance Matrix: (Units=1/GPa)
#
#
# Indices 1 2 3 4 5 6 
#
# 1 0.090602 -0.017368 -0.016907 0.000000 -0.010377 0.000000
# 2 -0.017368 0.012342 0.001293 0.000000 -0.000507 0.000000
# 3 -0.016907 0.001293 0.010746 0.000000 -0.000372 0.000000
# 4 0.000000 0.000000 0.000000 0.084634 0.000000 0.007979
# 5 -0.010377 -0.000507 -0.000372 0.000000 0.044334 0.000000
# 6 0.000000 0.000000 0.000000 0.007979 0.000000 0.041078
#
#
# Mechanical properties :
#
#
# Convention : Reuss Voigt Hill
#
# Bulk Modulus (GPa) = 20.95292 53.84251 37.39771
# Shear Modulus (GPa) = 13.67581 24.84600 19.26091
#
# Velocity S-wave (km/s) = 2.59209 3.49383 3.07618
# Velocity P-wave (km/s) = 4.38779 6.53671 5.56693
#
# Compressibility (1/GPa) = 0.04772605
#
# Stress axis : x y z
#
# Youngs Moduli (GPa) = 11.03729 81.02435 93.05581
#
# Poissons Ratio (x) = 1.40724 1.57327
# Poissons Ratio (y) = 0.19170 -0.12030
# Poissons Ratio (z) = 0.18660 -0.10475
#
# Static dielectric constant tensor:
#      x y z
#    x 1.696390 0.000000 0.009740 
#    y 0.000000 1.739230 0.000000 
#    z 0.009740 0.000000 1.733860 
# 
# From -- ./inp_files/104940.got.cif
#   From: 2010.05.17/outbox.cif.g08.bks.cpg/sg12_53_cif.got.tgz:104940.got - 2010.06.03 13:09:07.
