data_PCOD9217153
_publ_section_title
;
Structure prediction by ZEFSAII (Michael W. Deem and Ramdas Pophale) SiO2 
 PCOD9217153
Probable space group: C 2/M
;
_chemical_formula_sum "Si O2"
_cell_formula_units_Z 48
_cell_length_a 29.580397
_cell_length_b 8.988972
_cell_length_c 17.137569
_cell_angle_alpha 90.000000
_cell_angle_beta 29.824989
_cell_angle_gamma 90.000000
_cell_volume 2266.352420
_symmetry_space_group_name_H-M "C 2/M"
_symmetry_group_IT_number 12
_symmetry_cell_setting 'monoclinic'
loop_
_space_group_symop_operation_xyz
x,y,z
-x,y,-z
-x,-y,-z
x,-y,z
1/2+x,1/2+y,z
1/2-x,1/2+y,-z
1/2-x,1/2-y,-z
1/2+x,1/2-y,z
loop_
_atom_site_type_symbol
_atom_site_label
_atom_site_fract_x
_atom_site_fract_y
_atom_site_fract_z
Si Si1 0.175309 0.824044 0.344710
Si Si2 0.361719 0.826010 0.145629
Si Si3 0.980753 0.176324 0.836402
Si Si4 0.848577 0.322940 0.345288
Si Si5 0.306009 0.824197 0.846369
Si Si6 0.015387 0.675042 0.328093
O O1 0.254736 0.802564 0.289232
O O2 0.210108 0.756310 0.211216
O O3 0.081602 0.745094 0.506825
O O4 0.159837 0.000000 0.359644
O O5 0.381407 0.799813 0.206795
O O6 0.382193 0.000000 0.097519
O O7 0.417788 0.725828 0.002361
O O8 0.947184 0.245950 0.805601
O O9 0.079722 0.245398 0.705434
O O10 0.985921 0.000000 0.822416
O O11 0.844247 0.500000 0.365769
O O12 0.750000 0.250000 0.500000
O O13 0.411996 0.807096 0.711436
O O14 0.285843 0.000000 0.870990
O O15 0.250000 0.750000 0.000000
O O16 0.005425 0.500000 0.327764
#
# Coordination Sequence:
#
# PCOD9217153 Si02
#       6
#     8   8   8   8   8   8
#     4  11  23  40  64  93 124 158 201 252 305 364
#     4  10  23  42  62  88 122 160 201 247 301 360
#     4  12  25  40  62  92 123 158 204 253 304 363
#     4  11  23  41  65  91 124 163 204 251 302 359
#     4  11  24  41  62  90 123 161 205 252 305 364
#     4  11  24  42  63  88 122 162 204 251 303 361
#
# _framework density 21.179407999999999
#
# number of rings (size 3 to 8) (size 9 to 14) (size 15 to 20)
#    0.000    1.000    0.000    6.500    0.000   14.667 
#    0.000    0.000    0.000    0.000    0.000    0.000 
#    0.000    0.000    0.000    0.000    0.000    0.000 
#
# Total GULP energy -134425.302460 kJ/mol
# GULP energy per Si atom -5601.054269 kJ/mol
# Density = 2.113120 g / cm^3
# Si number density = 21.179408 Si / 1000 Ang^3
#
#
#
# Elastic Constant Matrix: (Units=GPa)
#
#
# Indices 1 2 3 4 5 6 
#
# 1 67.6570 30.3739 -15.4439 0.0000 3.6992 -0.0001
# 2 30.3739 96.4105 23.1130 0.0000 -4.5172 -0.0002
# 3 -15.4439 23.1130 62.4693 0.0001 -0.2165 -0.0002
# 4 0.0000 0.0000 0.0001 43.8478 -0.0002 2.2925
# 5 3.6992 -4.5172 -0.2165 -0.0002 30.2407 0.0001
# 6 -0.0001 -0.0002 -0.0002 2.2925 0.0001 29.2078
#
#
#
# Elastic Compliance Matrix: (Units=1/GPa)
#
#
# Indices 1 2 3 4 5 6 
#
# 1 0.020825 -0.008745 0.008371 0.000000 -0.003794 0.000000
# 2 -0.008745 0.015139 -0.007752 0.000000 0.003276 0.000000
# 3 0.008371 -0.007752 0.020939 0.000000 -0.002032 0.000000
# 4 0.000000 0.000000 0.000000 0.022900 0.000000 -0.001797
# 5 -0.003794 0.003276 -0.002032 0.000000 0.034007 0.000000
# 6 0.000000 0.000000 0.000000 -0.001797 0.000000 0.034378
#
#
# Mechanical properties :
#
#
# Convention : Reuss Voigt Hill
#
# Bulk Modulus (GPa) = 24.60045 33.62476 29.11260
# Shear Modulus (GPa) = 28.09124 33.22553 30.65838
#
# Velocity S-wave (km/s) = 3.64586 3.96506 3.80880
# Velocity P-wave (km/s) = 5.41881 6.07231 5.75484
#
# Compressibility (1/GPa) = 0.04064967
#
# Stress axis : x y z
#
# Youngs Moduli (GPa) = 48.01954 66.05247 47.75883
#
# Poissons Ratio (x) = 0.57766 -0.39979
# Poissons Ratio (y) = 0.41995 0.37023
# Poissons Ratio (z) = -0.40197 0.51205
#
# Static dielectric constant tensor:
#      x y z
#    x 1.754550 0.000000 -0.011340 
#    y 0.000000 1.701350 0.000000 
#    z -0.011340 0.000000 1.764710 
# 
# From -- ./inp_files/274629.got.cif
#   From: 2010.05.17/outbox.cif.g08.bks.cpg/sg12_138_cif.got.tgz:274629.got - 2010.06.03 13:09:07.
