data_PCOD9217674
_publ_section_title
;
Structure prediction by ZEFSAII (Michael W. Deem and Ramdas Pophale) SiO2 
 PCOD9217674
Probable space group: C 2/M
;
_chemical_formula_sum "Si O2"
_cell_formula_units_Z 40
_cell_length_a 8.206491
_cell_length_b 13.643067
_cell_length_c 14.573154
_cell_angle_alpha 90.000000
_cell_angle_beta 106.800688
_cell_angle_gamma 90.000000
_cell_volume 1561.990519
_symmetry_space_group_name_H-M "C 2/M"
_symmetry_group_IT_number 12
_symmetry_cell_setting 'monoclinic'
loop_
_space_group_symop_operation_xyz
x,y,z
-x,y,-z
-x,-y,-z
x,-y,z
1/2+x,1/2+y,z
1/2-x,1/2+y,-z
1/2-x,1/2-y,-z
1/2+x,1/2-y,z
loop_
_atom_site_type_symbol
_atom_site_label
_atom_site_fract_x
_atom_site_fract_y
_atom_site_fract_z
Si Si1 0.322217 0.277438 0.610601
Si Si2 0.819623 0.115196 0.307548
Si Si3 0.579019 0.616632 0.877616
Si Si4 0.695730 0.882311 0.758713
Si Si5 0.362753 0.880192 0.053770
O O1 0.250000 0.250000 0.500000
O O2 0.326721 0.172866 0.663175
O O3 0.495761 0.339929 0.633844
O O4 0.192413 0.337209 0.656305
O O5 0.810589 0.130065 0.196809
O O6 0.815422 0.000000 0.325586
O O7 0.563750 0.500000 0.888610
O O8 0.389379 0.645484 0.820891
O O9 0.681012 0.651939 0.982356
O O10 0.601913 0.847844 0.836615
O O11 0.677651 0.000000 0.747934
O O12 0.360588 0.000000 0.057813
O O13 0.500000 0.853949 0.000000
#
# Coordination Sequence:
#
# PCOD9217674 Si02
#       5
#     8   8   8   8   8
#     4  11  23  40  65  95 126 169 227 281 335 400
#     4  10  23  44  68  95 132 175 220 277 340 401
#     4   8  15  31  55  82 118 167 212 253 315 390
#     4   9  18  34  57  86 125 171 216 265 324 392
#     4   9  16  27  50  88 129 166 207 261 323 387
#
# _framework density 25.608352
#
# number of rings (size 3 to 8) (size 9 to 14) (size 15 to 20)
#    0.000    2.600    0.000    3.000    0.000    6.400 
#    0.000    5.000    0.000    6.000    0.000    0.000 
#    0.000    0.000    0.000    0.000    0.000    0.000 
#
# Total GULP energy -111877.823903 kJ/mol
# GULP energy per Si atom -5593.891195 kJ/mol
# Density = 2.555007 g / cm^3
# Si number density = 25.608352 Si / 1000 Ang^3
#
#
#
# Elastic Constant Matrix: (Units=GPa)
#
#
# Indices 1 2 3 4 5 6 
#
# 1 76.6656 15.7780 47.5464 0.0000 -20.8391 0.0000
# 2 15.7780 151.7195 50.7614 0.0000 -5.2994 0.0000
# 3 47.5464 50.7614 183.7164 0.0000 -24.8297 0.0000
# 4 0.0000 0.0000 0.0000 46.4532 0.0000 -4.3799
# 5 -20.8391 -5.2994 -24.8297 0.0000 33.5268 0.0000
# 6 0.0000 0.0000 0.0000 -4.3799 0.0000 49.9185
#
#
#
# Elastic Compliance Matrix: (Units=1/GPa)
#
#
# Indices 1 2 3 4 5 6 
#
# 1 0.017424 -0.000429 -0.003263 0.000000 0.008346 0.000000
# 2 -0.000429 0.007277 -0.001978 0.000000 -0.000581 0.000000
# 3 -0.003263 -0.001978 0.007243 0.000000 0.003023 0.000000
# 4 0.000000 0.000000 0.000000 0.021707 0.000000 0.001905
# 5 0.008346 -0.000581 0.003023 0.000000 0.037161 0.000000
# 6 0.000000 0.000000 0.000000 0.001905 0.000000 0.020200
#
#
# Mechanical properties :
#
#
# Convention : Reuss Voigt Hill
#
# Bulk Modulus (GPa) = 48.53418 71.14144 59.83781
# Shear Modulus (GPa) = 38.69363 45.84742 42.27053
#
# Velocity S-wave (km/s) = 3.89135 4.23582 4.06723
# Velocity P-wave (km/s) = 6.25969 7.19470 6.74342
#
# Compressibility (1/GPa) = 0.02060404
#
# Stress axis : x y z
#
# Youngs Moduli (GPa) = 57.39185 137.41365 138.06726
#
# Poissons Ratio (x) = 0.05892 0.45051
# Poissons Ratio (y) = 0.02461 0.27314
# Poissons Ratio (z) = 0.18727 0.27185
#
# Static dielectric constant tensor:
#      x y z
#    x 2.117180 0.000000 0.007600 
#    y 0.000000 2.090620 0.000000 
#    z 0.007600 0.000000 1.984340 
# 
# From -- ./inp_files/194669.got.cif
#   From: 2010.05.17/outbox.cif.g08.bks.cpg/sg12_98_cif.got.tgz:194669.got - 2010.06.03 13:09:07.
