data_PCOD9217886
_publ_section_title
;
Structure prediction by ZEFSAII (Michael W. Deem and Ramdas Pophale) SiO2 
 PCOD9217886
Probable space group: C 2/M
;
_chemical_formula_sum "Si O2"
_cell_formula_units_Z 58
_cell_length_a 24.492712
_cell_length_b 26.119498
_cell_length_c 8.601906
_cell_angle_alpha 90.000000
_cell_angle_beta 149.206612
_cell_angle_gamma 90.000000
_cell_volume 2817.206151
_symmetry_space_group_name_H-M "C 2/M"
_symmetry_group_IT_number 12
_symmetry_cell_setting 'monoclinic'
loop_
_space_group_symop_operation_xyz
x,y,z
-x,y,-z
-x,-y,-z
x,-y,z
1/2+x,1/2+y,z
1/2-x,1/2+y,-z
1/2-x,1/2-y,-z
1/2+x,1/2-y,z
loop_
_atom_site_type_symbol
_atom_site_label
_atom_site_fract_x
_atom_site_fract_y
_atom_site_fract_z
Si Si1 0.363828 0.256349 0.999032
Si Si2 0.340217 0.092319 0.211362
Si Si3 0.000000 0.500000 0.500000
Si Si4 0.314294 0.633341 0.730881
Si Si5 0.268667 0.337230 0.301960
Si Si6 0.119318 0.061088 0.846990
Si Si7 0.101375 0.342798 0.357452
Si Si8 0.886485 0.246115 0.418139
O O1 0.349501 0.311838 0.887884
O O2 0.294339 0.209245 0.765818
O O3 0.487850 0.244879 0.280861
O O4 0.345560 0.252528 0.141165
O O5 0.406899 0.121603 0.509694
O O6 0.410306 0.044873 0.325684
O O7 0.312031 0.130625 0.001012
O O8 0.222503 0.078730 0.996420
O O9 0.326133 0.631136 0.576120
O O10 0.189195 0.630450 0.465051
O O11 0.368408 0.588386 0.957757
O O12 0.355265 0.308952 0.407557
O O13 0.000000 0.075582 0.500000
O O14 0.124578 0.000000 0.869157
O O15 0.147265 0.289943 0.542133
O O16 0.000000 0.334255 0.000000
#
# Coordination Sequence:
#
# PCOD9217886 Si02
#       8
#     8   8   2   8   8   8   8   8
#     4  11  23  39  61  96 135 185 222 267 327 420
#     4  11  26  47  71 101 135 180 235 287 359 402
#     4  12  28  48  76 104 134 176 238 298 344 424
#     4  11  25  40  64  99 137 174 229 274 340 406
#     4  12  24  43  63 100 146 179 221 288 338 413
#     4  10  23  50  75  96 128 177 235 293 353 416
#     4  11  23  41  65  97 137 185 224 274 333 412
#     4  11  23  37  63  95 134 181 226 261 338 399
#
# _framework density 20.587774
#
# number of rings (size 3 to 8) (size 9 to 14) (size 15 to 20)
#    0.000    0.966    3.448    3.310    9.655    0.000 
#    1.241    0.345    0.000    1.655    0.000    0.000 
#    0.000    0.000    0.000    0.000    0.000    0.000 
#
# Total GULP energy -161686.927716 kJ/mol
# GULP energy per Si atom -5575.411301 kJ/mol
# Density = 2.054092 g / cm^3
# Si number density = 20.587774 Si / 1000 Ang^3
#
#
#
# Elastic Constant Matrix: (Units=GPa)
#
#
# Indices 1 2 3 4 5 6 
#
# 1 68.2946 19.5667 27.8465 0.0000 -6.4876 0.0000
# 2 19.5667 56.5066 22.0739 0.0000 -2.3963 0.0000
# 3 27.8465 22.0739 109.3639 0.0000 -5.7009 0.0000
# 4 0.0000 0.0000 0.0000 25.1943 0.0000 8.7844
# 5 -6.4876 -2.3963 -5.7009 0.0000 29.6793 0.0000
# 6 0.0000 0.0000 0.0000 8.7844 0.0000 23.8130
#
#
#
# Elastic Compliance Matrix: (Units=1/GPa)
#
#
# Indices 1 2 3 4 5 6 
#
# 1 0.017632 -0.004657 -0.003402 0.000000 0.002825 0.000000
# 2 -0.004657 0.020461 -0.002941 0.000000 0.000069 0.000000
# 3 -0.003402 -0.002941 0.010659 0.000000 0.001066 0.000000
# 4 0.000000 0.000000 0.000000 0.045550 0.000000 -0.016803
# 5 0.002825 0.000069 0.001066 0.000000 0.034521 0.000000
# 6 0.000000 0.000000 0.000000 -0.016803 0.000000 0.048192
#
#
# Mechanical properties :
#
#
# Convention : Reuss Voigt Hill
#
# Bulk Modulus (GPa) = 37.37847 41.45991 39.41919
# Shear Modulus (GPa) = 24.04615 26.71586 25.38101
#
# Velocity S-wave (km/s) = 3.42128 3.60621 3.51496
# Velocity P-wave (km/s) = 5.81395 6.12548 5.97174
#
# Compressibility (1/GPa) = 0.02675337
#
# Stress axis : x y z
#
# Youngs Moduli (GPa) = 56.71432 48.87303 93.81540
#
# Poissons Ratio (x) = 0.22758 0.31920
# Poissons Ratio (y) = 0.26410 0.27587
# Poissons Ratio (z) = 0.19297 0.14371
#
# Static dielectric constant tensor:
#      x y z
#    x 1.805120 0.000000 0.025850 
#    y 0.000000 1.709920 0.000000 
#    z 0.025850 0.000000 1.752420 
# 
# From -- ./inp_files/106919.got.cif
#   From: 2010.05.17/outbox.cif.g08.bks.cpg/sg12_54_cif.got.tgz:106919.got - 2010.06.03 13:09:07.
