data_PCOD9217795
_publ_section_title
;
Structure prediction by ZEFSAII (Michael W. Deem and Ramdas Pophale) SiO2 
 PCOD9217795
Probable space group: C 2/M
;
_chemical_formula_sum "Si O2"
_cell_formula_units_Z 40
_cell_length_a 7.673877
_cell_length_b 14.099888
_cell_length_c 19.877005
_cell_angle_alpha 90.000000
_cell_angle_beta 130.739693
_cell_angle_gamma 90.000000
_cell_volume 1629.553569
_symmetry_space_group_name_H-M "C 2/M"
_symmetry_group_IT_number 12
_symmetry_cell_setting 'monoclinic'
loop_
_space_group_symop_operation_xyz
x,y,z
-x,y,-z
-x,-y,-z
x,-y,z
1/2+x,1/2+y,z
1/2-x,1/2+y,-z
1/2-x,1/2-y,-z
1/2+x,1/2-y,z
loop_
_atom_site_type_symbol
_atom_site_label
_atom_site_fract_x
_atom_site_fract_y
_atom_site_fract_z
Si Si1 0.901225 0.888643 0.738655
Si Si2 0.513306 0.727328 0.900979
Si Si3 0.172217 0.104597 0.664434
Si Si4 0.109040 0.604791 0.858377
Si Si5 0.997125 0.293782 0.429854
O O1 0.637280 0.855711 0.658824
O O2 0.003171 0.824601 0.825188
O O3 0.024070 0.877124 0.696075
O O4 0.917343 0.000000 0.760685
O O5 0.334079 0.664370 0.896856
O O6 0.454472 0.836800 0.871756
O O7 0.750000 0.750000 0.000000
O O8 0.438483 0.099549 0.752664
O O9 0.143757 0.194377 0.609710
O O10 0.104088 0.000000 0.621478
O O11 0.167987 0.500000 0.896737
O O12 0.000000 0.352064 0.500000
O O13 0.250000 0.250000 0.500000
#
# Coordination Sequence:
#
# PCOD9217795 Si02
#       5
#     8   8   8   8   8
#     4  11  25  47  74 105 147 199 249 306 376 449
#     4  12  26  45  74 108 144 191 247 306 372 444
#     4  10  23  45  71 102 144 189 242 303 367 440
#     4  11  25  46  74 106 145 192 243 305 371 441
#     4  12  25  42  70 107 145 187 244 300 371 445
#
# _framework density 24.546600999999999
#
# number of rings (size 3 to 8) (size 9 to 14) (size 15 to 20)
#    0.000    0.800    4.000    2.400    2.800    4.000 
#    0.000    1.000    0.000    9.600    0.000    0.000 
#    0.000    0.000    0.000    0.000    0.000    0.000 
#
# Total GULP energy -111420.281065 kJ/mol
# GULP energy per Si atom -5571.014053 kJ/mol
# Density = 2.449073 g / cm^3
# Si number density = 24.546601 Si / 1000 Ang^3
#
#
#
# Elastic Constant Matrix: (Units=GPa)
#
#
# Indices 1 2 3 4 5 6 
#
# 1 85.4121 27.8605 30.0519 0.0000 3.9383 0.0000
# 2 27.8605 171.8772 41.1781 0.0000 0.5065 0.0000
# 3 30.0519 41.1781 156.8558 0.0000 10.7541 0.0000
# 4 0.0000 0.0000 0.0000 7.3346 0.0000 10.0126
# 5 3.9383 0.5065 10.7541 0.0000 44.8170 0.0000
# 6 0.0000 0.0000 0.0000 10.0126 0.0000 26.5592
#
#
#
# Elastic Compliance Matrix: (Units=1/GPa)
#
#
# Indices 1 2 3 4 5 6 
#
# 1 0.012975 -0.001618 -0.002017 0.000000 -0.000638 0.000000
# 2 -0.001618 0.006415 -0.001402 0.000000 0.000406 0.000000
# 3 -0.002017 -0.001402 0.007236 0.000000 -0.001543 0.000000
# 4 0.000000 0.000000 0.000000 0.280905 0.000000 -0.105899
# 5 -0.000638 0.000406 -0.001543 0.000000 0.022735 0.000000
# 6 0.000000 0.000000 0.000000 -0.105899 0.000000 0.077575
#
#
# Mechanical properties :
#
#
# Convention : Reuss Voigt Hill
#
# Bulk Modulus (GPa) = 60.41926 68.03621 64.22773
# Shear Modulus (GPa) = 11.80829 36.74579 24.27704
#
# Velocity S-wave (km/s) = 2.19568 3.87328 3.14828
# Velocity P-wave (km/s) = 5.57634 6.91234 6.27997
#
# Compressibility (1/GPa) = 0.01655101
#
# Stress axis : x y z
#
# Youngs Moduli (GPa) = 77.07175 155.88333 138.20505
#
# Poissons Ratio (x) = 0.25222 0.27881
# Poissons Ratio (y) = 0.12470 0.19376
# Poissons Ratio (z) = 0.15548 0.21854
#
# Static dielectric constant tensor:
#      x y z
#    x 2.151730 0.000000 -0.016930 
#    y 0.000000 1.964460 0.000000 
#    z -0.016930 0.000000 2.011480 
# 
# From -- ./inp_files/332769.got.cif
#   From: 2010.05.17/outbox.cif.g08.bks.cpg/sg12_167_cif.got.tgz:332769.got - 2010.06.03 13:09:07.
