data_PCOD9217923
_publ_section_title
;
Structure prediction by ZEFSAII (Michael W. Deem and Ramdas Pophale) SiO2 
 PCOD9217923
Probable space group: C 2/M
;
_chemical_formula_sum "Si O2"
_cell_formula_units_Z 36
_cell_length_a 8.517255
_cell_length_b 18.188146
_cell_length_c 11.019640
_cell_angle_alpha 90.000000
_cell_angle_beta 100.892355
_cell_angle_gamma 90.000000
_cell_volume 1676.331366
_symmetry_space_group_name_H-M "C 2/M"
_symmetry_group_IT_number 12
_symmetry_cell_setting 'monoclinic'
loop_
_space_group_symop_operation_xyz
x,y,z
-x,y,-z
-x,-y,-z
x,-y,z
1/2+x,1/2+y,z
1/2-x,1/2+y,-z
1/2-x,1/2-y,-z
1/2+x,1/2-y,z
loop_
_atom_site_type_symbol
_atom_site_label
_atom_site_fract_x
_atom_site_fract_y
_atom_site_fract_z
Si Si1 0.743345 0.320529 0.342427
Si Si2 0.611159 0.117011 0.852275
Si Si3 0.500000 0.712823 0.500000
Si Si4 0.743383 0.920100 0.127772
Si Si5 0.038004 0.214601 0.868052
O O1 0.812696 0.386504 0.270285
O O2 0.628708 0.333422 0.441321
O O3 0.888847 0.267783 0.403671
O O4 0.621438 0.279878 0.234005
O O5 0.429074 0.090001 0.834070
O O6 0.609676 0.204140 0.883402
O O7 0.705886 0.081513 0.977546
O O8 0.854182 0.850444 0.170201
O O9 0.811782 0.000000 0.169431
O O10 0.000000 0.192800 0.000000
#
# Coordination Sequence:
#
# PCOD9217923 Si02
#       5
#     8   8   4   8   8
#     4  11  22  36  59  90 132 163 203 270 324 365
#     4  11  20  36  62  90 129 173 209 250 321 380
#     4  10  24  38  56  94 134 158 220 270 324 360
#     4  11  24  38  58  97 142 173 203 251 321 404
#     4  12  21  36  63  98 132 167 207 262 325 390
#
# _framework density 21.475467999999999
#
# number of rings (size 3 to 8) (size 9 to 14) (size 15 to 20)
#    0.000    0.889    6.667    3.333    0.000    0.444 
#    0.000    0.000    0.000    0.000    0.000   26.444 
#    0.000    0.000    0.000    0.000    0.000    0.000 
#
# Total GULP energy -100508.421579 kJ/mol
# GULP energy per Si atom -5583.801199 kJ/mol
# Density = 2.142659 g / cm^3
# Si number density = 21.475468 Si / 1000 Ang^3
#
#
#
# Elastic Constant Matrix: (Units=GPa)
#
#
# Indices 1 2 3 4 5 6 
#
# 1 110.5465 28.7001 44.4894 0.0000 -17.5770 0.0000
# 2 28.7001 115.8808 0.5353 0.0000 7.2392 0.0000
# 3 44.4894 0.5353 76.9182 0.0000 -5.8135 0.0000
# 4 0.0000 0.0000 0.0000 8.1882 0.0000 1.1511
# 5 -17.5770 7.2392 -5.8135 0.0000 54.7943 0.0000
# 6 0.0000 0.0000 0.0000 1.1511 0.0000 11.1951
#
#
#
# Elastic Compliance Matrix: (Units=1/GPa)
#
#
# Indices 1 2 3 4 5 6 
#
# 1 0.013678 -0.003606 -0.007579 0.000000 0.004060 0.000000
# 2 -0.003606 0.009654 0.001850 0.000000 -0.002236 0.000000
# 3 -0.007579 0.001850 0.017308 0.000000 -0.000839 0.000000
# 4 0.000000 0.000000 0.000000 0.123918 0.000000 -0.012742
# 5 0.004060 -0.002236 -0.000839 0.000000 0.019759 0.000000
# 6 0.000000 0.000000 0.000000 -0.012742 0.000000 0.090635
#
#
# Mechanical properties :
#
#
# Convention : Reuss Voigt Hill
#
# Bulk Modulus (GPa) = 45.52001 50.08832 47.80417
# Shear Modulus (GPa) = 16.61423 30.14357 23.37890
#
# Velocity S-wave (km/s) = 2.78445 3.75057 3.30302
# Velocity P-wave (km/s) = 5.61960 6.49075 6.07082
#
# Compressibility (1/GPa) = 0.02196836
#
# Stress axis : x y z
#
# Youngs Moduli (GPa) = 73.10949 103.58555 57.77518
#
# Poissons Ratio (x) = 0.37356 0.43790
# Poissons Ratio (y) = 0.26365 -0.10687
# Poissons Ratio (z) = 0.55413 -0.19160
#
# Static dielectric constant tensor:
#      x y z
#    x 1.866450 0.000000 -0.069920 
#    y 0.000000 1.738630 0.000000 
#    z -0.069920 0.000000 1.838870 
# 
# From -- ./inp_files/119222.got.cif
#   From: 2010.05.17/outbox.cif.g08.bks.cpg/sg12_60_cif.got.tgz:119222.got - 2010.06.03 13:09:07.
