data_PCOD9217400
_publ_section_title
;
Structure prediction by ZEFSAII (Michael W. Deem and Ramdas Pophale) SiO2 
 PCOD9217400
Probable space group: C 2/M
;
_chemical_formula_sum "Si O2"
_cell_formula_units_Z 64
_cell_length_a 26.710382
_cell_length_b 9.205139
_cell_length_c 23.417921
_cell_angle_alpha 90.000000
_cell_angle_beta 145.883896
_cell_angle_gamma 90.000000
_cell_volume 3229.403595
_symmetry_space_group_name_H-M "C 2/M"
_symmetry_group_IT_number 12
_symmetry_cell_setting 'monoclinic'
loop_
_space_group_symop_operation_xyz
x,y,z
-x,y,-z
-x,-y,-z
x,-y,z
1/2+x,1/2+y,z
1/2-x,1/2+y,-z
1/2-x,1/2-y,-z
1/2+x,1/2-y,z
loop_
_atom_site_type_symbol
_atom_site_label
_atom_site_fract_x
_atom_site_fract_y
_atom_site_fract_z
Si Si1 0.654391 0.671595 0.907352
Si Si2 0.191209 0.171408 0.166486
Si Si3 0.179496 0.673008 0.393067
Si Si4 0.862167 0.831819 0.341309
Si Si5 0.992874 0.672727 0.696571
Si Si6 0.129550 0.673654 0.223286
Si Si7 0.555658 0.330399 0.935434
Si Si8 0.445629 0.668659 0.538385
O O1 0.664666 0.500000 0.904489
O O2 0.584970 0.745116 0.797747
O O3 0.608135 0.686399 0.925736
O O4 0.750000 0.750000 0.000000
O O5 0.289045 0.230335 0.244151
O O6 0.162656 0.253200 0.196869
O O7 0.193031 0.000000 0.178228
O O8 0.122204 0.200169 0.050539
O O9 0.192878 0.500000 0.409013
O O10 0.250000 0.750000 0.500000
O O11 0.185105 0.717008 0.332205
O O12 0.079901 0.702812 0.322678
O O13 0.956020 0.825712 0.397240
O O14 0.879966 0.790743 0.424385
O O15 0.832477 0.000000 0.312691
O O16 0.007867 0.500000 0.707774
O O17 0.949058 0.731828 0.596943
O O18 0.132803 0.500000 0.221468
O O19 0.029139 0.727285 0.139893
O O20 0.526816 0.500000 0.912516
O O21 0.427425 0.500000 0.536811
#
# Coordination Sequence:
#
# PCOD9217400 Si02
#       8
#     8   8   8   8   8   8   8   8
#     4  11  24  42  65  93 125 165 207 252 310 367
#     4  11  24  39  60  90 122 155 198 248 302 358
#     4  10  24  42  62  90 124 161 204 252 304 363
#     4   9  20  40  61  87 121 157 201 248 298 358
#     4  11  23  41  63  93 127 161 206 255 305 367
#     4  11  23  42  64  89 119 156 201 249 299 358
#     4  10  23  43  63  87 121 158 197 247 304 361
#     4   9  20  39  62  87 120 160 200 246 301 358
#
# _framework density 19.817900000000002
#
# number of rings (size 3 to 8) (size 9 to 14) (size 15 to 20)
#    0.000    1.750    1.250    2.625    3.500    6.000 
#    0.000    1.250    0.000    0.000    0.000    0.000 
#    0.000    0.000    0.000    0.000    0.000    0.000 
#
# Total GULP energy -178875.802070 kJ/mol
# GULP energy per Si atom -5589.868815 kJ/mol
# Density = 1.977279 g / cm^3
# Si number density = 19.817900 Si / 1000 Ang^3
#
#
#
# Elastic Constant Matrix: (Units=GPa)
#
#
# Indices 1 2 3 4 5 6 
#
# 1 25.2103 11.7965 -3.9718 0.0000 -11.6481 0.0000
# 2 11.7965 51.0392 40.1769 0.0000 -4.0852 0.0000
# 3 -3.9718 40.1769 82.0045 0.0000 -5.5453 0.0000
# 4 0.0000 0.0000 0.0000 34.5087 0.0000 1.3237
# 5 -11.6481 -4.0852 -5.5453 0.0000 34.6059 0.0000
# 6 0.0000 0.0000 0.0000 1.3237 0.0000 28.7235
#
#
#
# Elastic Compliance Matrix: (Units=1/GPa)
#
#
# Indices 1 2 3 4 5 6 
#
# 1 0.065587 -0.027798 0.018265 0.000000 0.021721 0.000000
# 2 -0.027798 0.043730 -0.023307 0.000000 -0.007929 0.000000
# 3 0.018265 -0.023307 0.024999 0.000000 0.007402 0.000000
# 4 0.000000 0.000000 0.000000 0.029029 0.000000 -0.001338
# 5 0.021721 -0.007929 0.007402 0.000000 0.036458 0.000000
# 6 0.000000 0.000000 0.000000 -0.001338 0.000000 0.034876
#
#
# Mechanical properties :
#
#
# Convention : Reuss Voigt Hill
#
# Bulk Modulus (GPa) = 14.56990 28.25081 21.41036
# Shear Modulus (GPa) = 15.46842 26.91778 21.19310
#
# Velocity S-wave (km/s) = 2.79682 3.68945 3.27370
# Velocity P-wave (km/s) = 4.21871 5.69522 5.01164
#
# Compressibility (1/GPa) = 0.06863464
#
# Stress axis : x y z
#
# Youngs Moduli (GPa) = 15.24691 22.86762 40.00207
#
# Poissons Ratio (x) = 0.63567 -0.73062
# Poissons Ratio (y) = 0.42383 0.93234
# Poissons Ratio (z) = -0.27848 0.53298
#
# Static dielectric constant tensor:
#      x y z
#    x 1.708820 0.000000 0.006650 
#    y 0.000000 1.659690 0.000000 
#    z 0.006650 0.000000 1.684760 
# 
# From -- ./inp_files/353329.got.cif
#   From: 2010.05.17/outbox.cif.g08.bks.cpg/sg12_177_cif.got.tgz:353329.got - 2010.06.03 13:09:07.
