data_PCOD9217355
_publ_section_title
;
Structure prediction by ZEFSAII (Michael W. Deem and Ramdas Pophale) SiO2 
 PCOD9217355
Probable space group: C 2/M
;
_chemical_formula_sum "Si O2"
_cell_formula_units_Z 40
_cell_length_a 11.878642
_cell_length_b 16.070918
_cell_length_c 9.198874
_cell_angle_alpha 90.000000
_cell_angle_beta 111.775950
_cell_angle_gamma 90.000000
_cell_volume 1630.760925
_symmetry_space_group_name_H-M "C 2/M"
_symmetry_group_IT_number 12
_symmetry_cell_setting 'monoclinic'
loop_
_space_group_symop_operation_xyz
x,y,z
-x,y,-z
-x,-y,-z
x,-y,z
1/2+x,1/2+y,z
1/2-x,1/2+y,-z
1/2-x,1/2-y,-z
1/2+x,1/2-y,z
loop_
_atom_site_type_symbol
_atom_site_label
_atom_site_fract_x
_atom_site_fract_y
_atom_site_fract_z
Si Si1 0.622967 0.901829 0.153622
Si Si2 0.935893 0.092783 0.610016
Si Si3 0.363966 0.661766 0.118905
Si Si4 0.779512 0.098256 0.781620
Si Si5 0.026524 0.674297 0.680257
O O1 0.735206 0.855355 0.133367
O O2 0.588423 0.863344 0.291910
O O3 0.651032 0.000000 0.176156
O O4 0.500000 0.892931 0.000000
O O5 0.042031 0.092933 0.780019
O O6 0.000000 0.130985 0.500000
O O7 0.824284 0.130250 0.645543
O O8 0.898065 0.000000 0.546906
O O9 0.422803 0.746877 0.204864
O O10 0.344071 0.651198 0.938482
O O11 0.636800 0.108704 0.733897
O O12 0.809756 0.000000 0.808709
O O13 0.000000 0.692420 0.500000
#
# Coordination Sequence:
#
# PCOD9217355 Si02
#       5
#     8   8   8   8   8
#     4  11  25  46  74 107 146 194 248 300 361 439
#     4  10  23  42  69 106 145 187 237 297 363 432
#     4  12  25  45  73 103 145 192 245 300 360 433
#     4  11  24  46  75 106 143 191 247 296 355 438
#     4  12  29  46  71 109 151 190 239 305 375 435
#
# _framework density 24.528427000000001
#
# number of rings (size 3 to 8) (size 9 to 14) (size 15 to 20)
#    0.000    0.800    2.000    4.200    5.600    4.000 
#    0.000    0.000    0.000    0.000    0.000    0.000 
#    0.000    0.000    0.000    0.000    0.000    0.000 
#
# Total GULP energy -111973.753664 kJ/mol
# GULP energy per Si atom -5598.687683 kJ/mol
# Density = 2.447260 g / cm^3
# Si number density = 24.528427 Si / 1000 Ang^3
#
#
#
# Elastic Constant Matrix: (Units=GPa)
#
#
# Indices 1 2 3 4 5 6 
#
# 1 100.7347 3.4467 24.3686 0.0000 -28.9561 0.0000
# 2 3.4467 86.3441 38.2944 0.0000 -5.3122 0.0000
# 3 24.3686 38.2944 126.5859 0.0000 -29.4008 0.0000
# 4 0.0000 0.0000 0.0000 10.6635 0.0000 1.7012
# 5 -28.9561 -5.3122 -29.4008 0.0000 57.2626 0.0000
# 6 0.0000 0.0000 0.0000 1.7012 0.0000 6.8775
#
#
#
# Elastic Compliance Matrix: (Units=1/GPa)
#
#
# Indices 1 2 3 4 5 6 
#
# 1 0.011735 0.000358 -0.001114 0.000000 0.005395 0.000000
# 2 0.000358 0.013433 -0.004316 0.000000 -0.000789 0.000000
# 3 -0.001114 -0.004316 0.010441 0.000000 0.004397 0.000000
# 4 0.000000 0.000000 0.000000 0.097630 0.000000 -0.024149
# 5 0.005395 -0.000789 0.004397 0.000000 0.022376 0.000000
# 6 0.000000 0.000000 0.000000 -0.024149 0.000000 0.151376
#
#
# Mechanical properties :
#
#
# Convention : Reuss Voigt Hill
#
# Bulk Modulus (GPa) = 39.27018 49.54268 44.40643
# Shear Modulus (GPa) = 15.35514 31.46439 23.40976
#
# Velocity S-wave (km/s) = 2.50474 3.58547 3.09268
# Velocity P-wave (km/s) = 4.94063 6.11414 5.55844
#
# Compressibility (1/GPa) = 0.02546462
#
# Stress axis : x y z
#
# Youngs Moduli (GPa) = 85.21343 74.44458 95.77532
#
# Poissons Ratio (x) = -0.02662 0.10671
# Poissons Ratio (y) = -0.03048 0.41334
# Poissons Ratio (z) = 0.09494 0.32128
#
# Static dielectric constant tensor:
#      x y z
#    x 1.934610 0.000000 -0.017810 
#    y 0.000000 1.951050 0.000000 
#    z -0.017810 0.000000 1.958090 
# 
# From -- ./inp_files/47125.got.cif
#   From: 2010.05.17/outbox.cif.g08.bks.cpg/sg12_24_cif.got.tgz:47125.got - 2010.06.03 13:09:07.
