data_PCOD9217286
_publ_section_title
;
Structure prediction by ZEFSAII (Michael W. Deem and Ramdas Pophale) SiO2 
 PCOD9217286
Probable space group: C 2/M
;
_chemical_formula_sum "Si O2"
_cell_formula_units_Z 48
_cell_length_a 12.772866
_cell_length_b 13.236130
_cell_length_c 14.392459
_cell_angle_alpha 90.000000
_cell_angle_beta 54.346993
_cell_angle_gamma 90.000000
_cell_volume 1977.155452
_symmetry_space_group_name_H-M "C 2/M"
_symmetry_group_IT_number 12
_symmetry_cell_setting 'monoclinic'
loop_
_space_group_symop_operation_xyz
x,y,z
-x,y,-z
-x,-y,-z
x,-y,z
1/2+x,1/2+y,z
1/2-x,1/2+y,-z
1/2-x,1/2-y,-z
1/2+x,1/2-y,z
loop_
_atom_site_type_symbol
_atom_site_label
_atom_site_fract_x
_atom_site_fract_y
_atom_site_fract_z
Si Si1 0.622635 0.616407 0.366842
Si Si2 0.900956 0.680614 0.712669
Si Si3 0.678885 0.381379 0.689475
Si Si4 0.693726 0.878659 0.562562
Si Si5 0.052160 0.818723 0.069666
Si Si6 0.330372 0.112563 0.956723
O O1 0.500000 0.626654 0.500000
O O2 0.625836 0.500000 0.333614
O O3 0.617246 0.699216 0.289731
O O4 0.745975 0.639865 0.367647
O O5 0.808109 0.631843 0.683452
O O6 0.861820 0.636750 0.832461
O O7 0.049712 0.656756 0.619849
O O8 0.643727 0.500000 0.705687
O O9 0.710897 0.345163 0.569172
O O10 0.564064 0.322149 0.798043
O O11 0.691125 0.000000 0.555463
O O12 0.102613 0.704927 0.025185
O O13 0.176514 0.877085 0.042810
O O14 0.000000 0.862640 0.000000
O O15 0.373067 0.000000 0.959346
#
# Coordination Sequence:
#
# PCOD9217286 Si02
#       6
#     8   8   8   8   8   8
#     4  10  24  44  65  95 140 187 230 275 328 400
#     4  12  24  40  69 102 139 179 224 278 340 401
#     4  11  23  41  70 103 136 179 231 282 333 400
#     4  10  23  42  66 100 140 182 224 274 337 400
#     4  11  25  47  72 100 131 177 228 283 339 401
#     4  11  26  47  72 102 136 175 224 282 343 403
#
# _framework density 24.2773
#
# number of rings (size 3 to 8) (size 9 to 14) (size 15 to 20)
#    0.000    1.167    1.667    3.500    4.667    3.667 
#    0.000    3.333    0.000    0.000    0.000    0.000 
#    0.000    0.000    0.000    0.000    0.000    0.000 
#
# Total GULP energy -134609.878483 kJ/mol
# GULP energy per Si atom -5608.744937 kJ/mol
# Density = 2.422204 g / cm^3
# Si number density = 24.277300 Si / 1000 Ang^3
#
#
#
# Elastic Constant Matrix: (Units=GPa)
#
#
# Indices 1 2 3 4 5 6 
#
# 1 93.7944 -0.5296 33.6828 0.0000 -25.5296 0.0000
# 2 -0.5296 104.4121 2.8322 0.0000 -21.2541 0.0000
# 3 33.6828 2.8322 114.8353 0.0000 -30.2550 0.0000
# 4 0.0000 0.0000 0.0000 23.6111 0.0000 8.0081
# 5 -25.5296 -21.2541 -30.2550 0.0000 36.4244 0.0000
# 6 0.0000 0.0000 0.0000 8.0081 0.0000 25.1309
#
#
#
# Elastic Compliance Matrix: (Units=1/GPa)
#
#
# Indices 1 2 3 4 5 6 
#
# 1 0.013856 0.002068 -0.001586 0.000000 0.009601 0.000000
# 2 0.002068 0.011474 0.001608 0.000000 0.009480 0.000000
# 3 -0.001586 0.001608 0.011634 0.000000 0.009491 0.000000
# 4 0.000000 0.000000 0.000000 0.047485 0.000000 -0.015131
# 5 0.009601 0.009480 0.009491 0.000000 0.047598 0.000000
# 6 0.000000 0.000000 0.000000 -0.015131 0.000000 0.044613
#
#
# Mechanical properties :
#
#
# Convention : Reuss Voigt Hill
#
# Bulk Modulus (GPa) = 24.30443 42.77919 33.54181
# Shear Modulus (GPa) = 26.85354 35.50371 31.17863
#
# Velocity S-wave (km/s) = 3.32944 3.82831 3.58756
# Velocity P-wave (km/s) = 4.98128 6.09923 5.56838
#
# Compressibility (1/GPa) = 0.04114476
#
# Stress axis : x y z
#
# Youngs Moduli (GPa) = 72.17096 87.15253 85.95523
#
# Poissons Ratio (x) = -0.18020 0.13629
# Poissons Ratio (y) = -0.14923 -0.13824
# Poissons Ratio (z) = 0.11444 -0.14017
#
# Static dielectric constant tensor:
#      x y z
#    x 1.886720 0.000000 0.005400 
#    y 0.000000 1.963860 0.000000 
#    z 0.005400 0.000000 1.881820 
# 
# From -- ./inp_files/309415.got.cif
#   From: 2010.05.17/outbox.cif.g08.bks.cpg/sg12_155_cif.got.tgz:309415.got - 2010.06.03 13:09:07.
