data_PCOD9217625
_publ_section_title
;
Structure prediction by ZEFSAII (Michael W. Deem and Ramdas Pophale) SiO2 
 PCOD9217625
Probable space group: C 2/M
;
_chemical_formula_sum "Si O2"
_cell_formula_units_Z 44
_cell_length_a 13.996664
_cell_length_b 22.804263
_cell_length_c 13.145852
_cell_angle_alpha 90.000000
_cell_angle_beta 30.396799
_cell_angle_gamma 90.000000
_cell_volume 2123.085351
_symmetry_space_group_name_H-M "C 2/M"
_symmetry_group_IT_number 12
_symmetry_cell_setting 'monoclinic'
loop_
_space_group_symop_operation_xyz
x,y,z
-x,y,-z
-x,-y,-z
x,-y,z
1/2+x,1/2+y,z
1/2-x,1/2+y,-z
1/2-x,1/2-y,-z
1/2+x,1/2-y,z
loop_
_atom_site_type_symbol
_atom_site_label
_atom_site_fract_x
_atom_site_fract_y
_atom_site_fract_z
Si Si1 0.000000 0.311317 0.000000
Si Si2 0.500000 0.175967 0.500000
Si Si3 0.555342 0.000000 0.269051
Si Si4 0.199173 0.898484 0.855985
Si Si5 0.256366 0.221971 0.885009
Si Si6 0.751916 0.000000 0.880634
Si Si7 0.712302 0.597460 0.325856
Si Si8 0.323665 0.500000 0.469472
O O1 0.140723 0.268067 0.926154
O O2 0.129061 0.353483 0.812685
O O3 0.683124 0.134480 0.341051
O O4 0.454376 0.212359 0.643393
O O5 0.659949 0.055321 0.222984
O O6 0.327457 0.000000 0.482842
O O7 0.596087 0.000000 0.110477
O O8 0.167252 0.843464 0.962020
O O9 0.000000 0.921927 0.000000
O O10 0.250000 0.250000 0.000000
O O11 0.743633 0.055419 0.812080
O O12 0.952065 0.000000 0.757090
O O13 0.500000 0.620522 0.500000
O O14 0.706759 0.556380 0.429838
#
# Coordination Sequence:
#
# PCOD9217625 Si02
#       8
#     4   4   4   8   8   4   8   4
#     4  12  22  37  68  93 128 166 226 268 326 402
#     4   8  22  45  66  88 132 165 220 278 320 382
#     4  12  23  34  69  92 123 167 224 263 319 388
#     4  10  23  45  62  92 130 169 218 278 327 384
#     4  10  23  44  66  91 130 170 218 273 329 387
#     4   9  20  39  54  93 135 157 209 268 318 400
#     4   9  20  35  60  87 131 171 198 268 339 382
#     4   9  20  39  53  93 135 162 215 264 321 401
#
# _framework density 20.724554999999999
#
# number of rings (size 3 to 8) (size 9 to 14) (size 15 to 20)
#    1.091    1.091    0.909    2.455    6.364    3.273 
#    0.000    3.636    0.000    0.000    0.000    0.000 
#    0.000    0.000    0.000    0.000    0.000    0.000 
#
# Total GULP energy -122601.838116 kJ/mol
# GULP energy per Si atom -5572.810823 kJ/mol
# Density = 2.067738 g / cm^3
# Si number density = 20.724555 Si / 1000 Ang^3
#
#
#
# Elastic Constant Matrix: (Units=GPa)
#
#
# Indices 1 2 3 4 5 6 
#
# 1 40.9205 1.9976 21.0350 -0.0266 -11.3730 -0.0036
# 2 1.9976 82.8822 13.2984 -0.0542 -11.0046 0.0014
# 3 21.0350 13.2984 82.5272 -0.0801 -9.5925 0.0378
# 4 -0.0266 -0.0542 -0.0801 8.8957 0.0230 -9.0747
# 5 -11.3730 -11.0046 -9.5925 0.0230 38.2842 -0.0082
# 6 -0.0036 0.0014 0.0378 -9.0747 -0.0082 10.7965
#
#
#
# Elastic Compliance Matrix: (Units=1/GPa)
#
#
# Indices 1 2 3 4 5 6 
#
# 1 0.030082 0.001407 -0.007012 0.000398 0.007584 0.000374
# 2 0.001407 0.012832 -0.002007 0.000447 0.003603 0.000384
# 3 -0.007012 -0.002007 0.014337 0.000287 0.000932 0.000190
# 4 0.000398 0.000447 0.000287 0.788561 -0.000012 0.662803
# 5 0.007584 0.003603 0.000932 -0.000012 0.029643 0.000011
# 6 0.000374 0.000384 0.000190 0.662803 0.000011 0.649724
#
#
# Mechanical properties :
#
#
# Convention : Reuss Voigt Hill
#
# Bulk Modulus (GPa) = 23.79519 30.99910 27.39714
# Shear Modulus (GPa) = 3.21665 22.92855 13.07260
#
# Velocity S-wave (km/s) = 1.24718 3.32979 2.51425
# Velocity P-wave (km/s) = 3.68518 5.45651 4.65586
#
# Compressibility (1/GPa) = 0.04202530
#
# Stress axis : x y z
#
# Youngs Moduli (GPa) = 33.24290 77.92890 69.75171
#
# Poissons Ratio (x) = -0.10967 0.48913
# Poissons Ratio (y) = -0.04678 0.14002
# Poissons Ratio (z) = 0.23311 0.15643
#
# Static dielectric constant tensor:
#      x y z
#    x 1.694270 -0.000080 -0.011060 
#    y -0.000080 1.754930 0.000000 
#    z -0.011060 0.000000 1.784200 
# 
# From -- ./inp_files/218230.got.cif
#   From: 2010.05.17/outbox.cif.g08.bks.cpg/sg12_110_cif.got.tgz:218230.got - 2010.06.03 13:09:07.
