data_PCOD9217955
_publ_section_title
;
Structure prediction by ZEFSAII (Michael W. Deem and Ramdas Pophale) SiO2 
 PCOD9217955
Probable space group: C 2/M
;
_chemical_formula_sum "Si O2"
_cell_formula_units_Z 52
_cell_length_a 25.590076
_cell_length_b 24.612973
_cell_length_c 8.209467
_cell_angle_alpha 90.000000
_cell_angle_beta 149.752132
_cell_angle_gamma 90.000000
_cell_volume 2604.705521
_symmetry_space_group_name_H-M "C 2/M"
_symmetry_group_IT_number 12
_symmetry_cell_setting 'monoclinic'
loop_
_space_group_symop_operation_xyz
x,y,z
-x,y,-z
-x,-y,-z
x,-y,z
1/2+x,1/2+y,z
1/2-x,1/2+y,-z
1/2-x,1/2-y,-z
1/2+x,1/2-y,z
loop_
_atom_site_type_symbol
_atom_site_label
_atom_site_fract_x
_atom_site_fract_y
_atom_site_fract_z
Si Si1 0.924174 0.408962 0.923771
Si Si2 0.455511 0.000000 0.559807
Si Si3 0.291220 0.235659 0.338083
Si Si4 0.583172 0.714516 0.591238
Si Si5 0.462753 0.380743 0.084889
Si Si6 0.699837 0.000000 0.607771
Si Si7 0.060000 0.000000 0.829942
Si Si8 0.262599 0.168763 0.581158
O O1 0.850304 0.447808 0.616402
O O2 0.851268 0.375035 0.844532
O O3 0.000000 0.378955 0.000000
O O4 0.995475 0.447911 0.221329
O O5 0.500000 0.000000 0.500000
O O6 0.336053 0.000000 0.299374
O O7 0.389291 0.245433 0.484951
O O8 0.305765 0.203372 0.544435
O O9 0.256676 0.294741 0.312700
O O10 0.195044 0.209178 0.980898
O O11 0.500000 0.735366 0.500000
O O12 0.533953 0.658810 0.388053
O O13 0.464709 0.443595 0.144135
O O14 0.500000 0.376192 0.000000
O O15 0.345392 0.357626 0.768156
O O16 0.819742 0.000000 0.894413
O O17 0.000000 0.000000 0.500000
#
# Coordination Sequence:
#
# PCOD9217955 Si02
#       8
#     8   4   8   8   8   4   4   8
#     4   9  19  37  65  89 117 160 203 259 312 378
#     4   9  19  40  63  88 120 159 198 257 333 363
#     4  10  24  39  64  93 121 175 219 258 327 381
#     4  11  22  42  64  90 130 172 213 272 325 382
#     4  12  24  44  68  94 136 173 217 268 332 393
#     4   9  18  40  63  86 122 161 207 249 317 391
#     4  12  26  42  67 104 130 176 219 264 331 406
#     4  11  21  41  66  95 126 165 221 264 320 395
#
# _framework density 19.96387
#
# number of rings (size 3 to 8) (size 9 to 14) (size 15 to 20)
#    0.000    1.538    4.615    1.615    0.000    1.231 
#    2.769    6.923    0.000    0.000    0.000    0.000 
#    0.000    0.000    0.000    0.000    0.000    0.000 
#
# Total GULP energy -145018.544816 kJ/mol
# GULP energy per Si atom -5577.636339 kJ/mol
# Density = 1.991843 g / cm^3
# Si number density = 19.963870 Si / 1000 Ang^3
#
#
#
# Elastic Constant Matrix: (Units=GPa)
#
#
# Indices 1 2 3 4 5 6 
#
# 1 154.4507 32.5574 18.5217 0.0000 12.1267 0.0000
# 2 32.5574 73.2098 28.9950 0.0000 14.1618 0.0000
# 3 18.5217 28.9950 60.4772 0.0000 9.3207 0.0000
# 4 0.0000 0.0000 0.0000 127.3108 0.0000 19.9252
# 5 12.1267 14.1618 9.3207 0.0000 31.0772 0.0000
# 6 0.0000 0.0000 0.0000 19.9252 0.0000 30.8191
#
#
#
# Elastic Compliance Matrix: (Units=1/GPa)
#
#
# Indices 1 2 3 4 5 6 
#
# 1 0.007231 -0.002659 -0.000725 0.000000 -0.001392 0.000000
# 2 -0.002659 0.018791 -0.007376 0.000000 -0.005313 0.000000
# 3 -0.000725 -0.007376 0.020688 0.000000 -0.002561 0.000000
# 4 0.000000 0.000000 0.000000 0.008739 0.000000 -0.005650
# 5 -0.001392 -0.005313 -0.002561 0.000000 0.035910 0.000000
# 6 0.000000 0.000000 0.000000 -0.005650 0.000000 0.036100
#
#
# Mechanical properties :
#
#
# Convention : Reuss Voigt Hill
#
# Bulk Modulus (GPa) = 39.69822 49.80953 44.75387
# Shear Modulus (GPa) = 31.77073 51.71232 41.74153
#
# Velocity S-wave (km/s) = 3.99358 5.09502 4.57755
# Velocity P-wave (km/s) = 6.41818 7.72116 7.09962
#
# Compressibility (1/GPa) = 0.02519005
#
# Stress axis : x y z
#
# Youngs Moduli (GPa) = 138.28532 53.21691 48.33698
#
# Poissons Ratio (x) = 0.14152 0.03505
# Poissons Ratio (y) = 0.36775 0.35652
# Poissons Ratio (z) = 0.10027 0.39252
#
# Static dielectric constant tensor:
#      x y z
#    x 1.739410 0.000000 0.007780 
#    y 0.000000 1.731810 0.000000 
#    z 0.007780 0.000000 1.735840 
# 
# From -- ./inp_files/106882.got.cif
#   From: 2010.05.17/outbox.cif.g08.bks.cpg/sg12_54_cif.got.tgz:106882.got - 2010.06.03 13:09:07.
