data_PCOD9217863
_publ_section_title
;
Structure prediction by ZEFSAII (Michael W. Deem and Ramdas Pophale) SiO2 
 PCOD9217863
Probable space group: C 2/M
;
_chemical_formula_sum "Si O2"
_cell_formula_units_Z 56
_cell_length_a 8.567635
_cell_length_b 13.903213
_cell_length_c 23.036308
_cell_angle_alpha 90.000000
_cell_angle_beta 63.098090
_cell_angle_gamma 90.000000
_cell_volume 2447.078655
_symmetry_space_group_name_H-M "C 2/M"
_symmetry_group_IT_number 12
_symmetry_cell_setting 'monoclinic'
loop_
_space_group_symop_operation_xyz
x,y,z
-x,y,-z
-x,-y,-z
x,-y,z
1/2+x,1/2+y,z
1/2-x,1/2+y,-z
1/2-x,1/2-y,-z
1/2+x,1/2-y,z
loop_
_atom_site_type_symbol
_atom_site_label
_atom_site_fract_x
_atom_site_fract_y
_atom_site_fract_z
Si Si1 0.704869 0.601676 0.976042
Si Si2 0.703881 0.614437 0.330256
Si Si3 0.682697 0.804580 0.935590
Si Si4 0.941752 0.214393 0.450648
Si Si5 0.510622 0.108146 0.371397
Si Si6 0.675255 0.389421 0.770280
Si Si7 0.195706 0.201820 0.204704
O O1 0.790425 0.500000 0.945753
O O2 0.764104 0.698699 0.933451
O O3 0.500000 0.595529 0.000000
O O4 0.714310 0.619288 0.043422
O O5 0.708974 0.500000 0.322808
O O6 0.514684 0.648431 0.386554
O O7 0.854924 0.640002 0.352599
O O8 0.734547 0.662416 0.262536
O O9 0.679795 0.829534 0.869062
O O10 0.500000 0.803243 0.000000
O O11 0.750000 0.250000 0.500000
O O12 0.030765 0.316126 0.419345
O O13 0.000000 0.164252 0.500000
O O14 0.691661 0.106257 0.306169
O O15 0.467472 0.000000 0.398025
O O16 0.648075 0.500000 0.794689
O O17 0.775452 0.316874 0.796603
O O18 0.494221 0.338310 0.782277
#
# Coordination Sequence:
#
# PCOD9217863 Si02
#       7
#     8   8   8   8   8   8   8
#     4   9  20  41  66  93 130 175 226 282 348 425
#     4  11  25  47  73 104 142 190 248 298 363 439
#     4  10  24  44  68 101 139 181 232 292 360 431
#     4  12  25  42  69 103 142 185 232 293 363 427
#     4  10  23  47  71 100 139 182 238 298 360 435
#     4  11  26  46  74 107 143 190 244 300 368 438
#     4  12  26  45  75 106 147 191 240 310 366 435
#
# _framework density 22.884429000000001
#
# number of rings (size 3 to 8) (size 9 to 14) (size 15 to 20)
#    0.000    1.286    2.857    1.286    8.000    3.143 
#    0.000    0.714    0.000    0.000    0.000    0.000 
#    0.000    0.000    0.000    0.000    0.000    0.000 
#
# Total GULP energy -156191.688980 kJ/mol
# GULP energy per Si atom -5578.274606 kJ/mol
# Density = 2.283234 g / cm^3
# Si number density = 22.884429 Si / 1000 Ang^3
#
#
#
# Elastic Constant Matrix: (Units=GPa)
#
#
# Indices 1 2 3 4 5 6 
#
# 1 59.8229 46.5602 32.1599 0.0000 -14.1632 0.0000
# 2 46.5602 124.5223 22.7269 0.0000 4.5546 0.0000
# 3 32.1599 22.7269 133.0493 0.0000 9.1646 0.0000
# 4 0.0000 0.0000 0.0000 31.7032 0.0000 32.0057
# 5 -14.1632 4.5546 9.1646 0.0000 35.5177 0.0000
# 6 0.0000 0.0000 0.0000 32.0057 0.0000 61.1519
#
#
#
# Elastic Compliance Matrix: (Units=1/GPa)
#
#
# Indices 1 2 3 4 5 6 
#
# 1 0.034040 -0.012009 -0.007348 0.000000 0.017010 0.000000
# 2 -0.012009 0.012543 0.001223 0.000000 -0.006713 0.000000
# 3 -0.007348 0.001223 0.009464 0.000000 -0.005529 0.000000
# 4 0.000000 0.000000 0.000000 0.066880 0.000000 -0.035004
# 5 0.017010 -0.006713 -0.005529 0.000000 0.037225 0.000000
# 6 0.000000 0.000000 0.000000 -0.035004 0.000000 0.034673
#
#
# Mechanical properties :
#
#
# Convention : Reuss Voigt Hill
#
# Bulk Modulus (GPa) = 50.56086 57.80983 54.18534
# Shear Modulus (GPa) = 21.03590 40.07106 30.55348
#
# Velocity S-wave (km/s) = 3.03516 4.18906 3.65789
# Velocity P-wave (km/s) = 5.86727 6.97955 6.44744
#
# Compressibility (1/GPa) = 0.01977814
#
# Stress axis : x y z
#
# Youngs Moduli (GPa) = 29.37713 79.72345 105.66090
#
# Poissons Ratio (x) = 0.95739 0.77643
# Poissons Ratio (y) = 0.35279 -0.12917
# Poissons Ratio (z) = 0.21587 -0.09746
#
# Static dielectric constant tensor:
#      x y z
#    x 1.959760 0.000000 -0.010370 
#    y 0.000000 1.899350 0.000000 
#    z -0.010370 0.000000 1.856070 
# 
# From -- ./inp_files/332825.got.cif
#   From: 2010.05.17/outbox.cif.g08.bks.cpg/sg12_167_cif.got.tgz:332825.got - 2010.06.03 13:09:07.
