data_PCOD9217809
_publ_section_title
;
Structure prediction by ZEFSAII (Michael W. Deem and Ramdas Pophale) SiO2 
 PCOD9217809
Probable space group: C 2/M
;
_chemical_formula_sum "Si O2"
_cell_formula_units_Z 32
_cell_length_a 10.468507
_cell_length_b 27.007824
_cell_length_c 12.934241
_cell_angle_alpha 90.000000
_cell_angle_beta 22.942250
_cell_angle_gamma 90.000000
_cell_volume 1425.478302
_symmetry_space_group_name_H-M "C 2/M"
_symmetry_group_IT_number 12
_symmetry_cell_setting 'monoclinic'
loop_
_space_group_symop_operation_xyz
x,y,z
-x,y,-z
-x,-y,-z
x,-y,z
1/2+x,1/2+y,z
1/2-x,1/2+y,-z
1/2-x,1/2-y,-z
1/2+x,1/2-y,z
loop_
_atom_site_type_symbol
_atom_site_label
_atom_site_fract_x
_atom_site_fract_y
_atom_site_fract_z
Si Si1 0.599851 0.344495 0.038241
Si Si2 0.361347 0.443026 0.280599
Si Si3 0.791534 0.191392 0.473821
Si Si4 0.378971 0.599483 0.703067
O O1 0.588085 0.403741 0.052884
O O2 0.349810 0.325186 0.311217
O O3 0.500000 0.326598 0.000000
O O4 0.970254 0.327344 0.773405
O O5 0.456315 0.500000 0.197851
O O6 0.405227 0.426361 0.367465
O O7 0.000000 0.436859 0.500000
O O8 0.750000 0.250000 0.500000
O O9 0.077919 0.159141 0.313898
O O10 0.500000 0.585301 0.500000
O O11 0.000000 0.586305 0.000000
#
# Coordination Sequence:
#
# PCOD9217809 Si02
#       4
#     8   8   8   8
#     4  11  22  41  65  95 130 167 222 286 339 396
#     4  10  23  45  72 101 137 186 240 291 350 421
#     4  11  24  42  65  96 134 182 228 276 340 417
#     4  11  24  44  67  99 140 178 226 288 351 415
#
# _framework density 22.448605000000001
#
# number of rings (size 3 to 8) (size 9 to 14) (size 15 to 20)
#    0.000    1.250    0.000    7.500    0.000    4.500 
#    0.000   12.500    0.000    0.000    0.000    0.000 
#    0.000    0.000    0.000    0.000    0.000    0.000 
#
# Total GULP energy -89347.125107 kJ/mol
# GULP energy per Si atom -5584.195319 kJ/mol
# Density = 2.239751 g / cm^3
# Si number density = 22.448605 Si / 1000 Ang^3
#
#
#
# Elastic Constant Matrix: (Units=GPa)
#
#
# Indices 1 2 3 4 5 6 
#
# 1 127.7048 10.5760 25.3924 -0.0029 4.5216 0.0024
# 2 10.5760 166.7500 52.5494 0.0007 -7.5065 -0.0010
# 3 25.3924 52.5494 91.7651 -0.0035 -3.4648 0.0016
# 4 -0.0029 0.0007 -0.0035 30.9671 0.0022 -0.4239
# 5 4.5216 -7.5065 -3.4648 0.0022 34.5240 -0.0003
# 6 0.0024 -0.0010 0.0016 -0.4239 -0.0003 12.1161
#
#
#
# Elastic Compliance Matrix: (Units=1/GPa)
#
#
# Indices 1 2 3 4 5 6 
#
# 1 0.008352 0.000190 -0.002469 0.000001 -0.001300 -0.000001
# 2 0.000190 0.007370 -0.004229 -0.000001 0.001153 0.000001
# 3 -0.002469 -0.004229 0.014033 0.000001 0.000812 -0.000002
# 4 0.000001 -0.000001 0.000001 0.032308 -0.000002 0.001130
# 5 -0.001300 0.001153 0.000812 -0.000002 0.029468 0.000001
# 6 -0.000001 0.000001 -0.000002 0.001130 0.000001 0.082574
#
#
# Mechanical properties :
#
#
# Convention : Reuss Voigt Hill
#
# Bulk Modulus (GPa) = 59.74426 62.58393 61.16409
# Shear Modulus (GPa) = 25.94705 35.36827 30.65766
#
# Velocity S-wave (km/s) = 3.40346 3.97359 3.69952
# Velocity P-wave (km/s) = 6.48970 6.99942 6.74937
#
# Compressibility (1/GPa) = 0.01673801
#
# Stress axis : x y z
#
# Youngs Moduli (GPa) = 119.73507 135.69147 71.26034
#
# Poissons Ratio (x) = -0.02575 0.17593
# Poissons Ratio (y) = -0.02272 0.30138
# Poissons Ratio (z) = 0.29560 0.57387
#
# Static dielectric constant tensor:
#      x y z
#    x 1.896310 0.000000 -0.044090 
#    y 0.000000 1.838070 0.000010 
#    z -0.044090 0.000010 1.884800 
# 
# From -- ./inp_files/209031.got.cif
#   From: 2010.05.17/outbox.cif.g08.bks.cpg/sg12_105_cif.got.tgz:209031.got - 2010.06.03 13:09:07.
