data_PCOD9217110
_publ_section_title
;
Structure prediction by ZEFSAII (Michael W. Deem and Ramdas Pophale) SiO2 
 PCOD9217110
Probable space group: C 2/M
;
_chemical_formula_sum "Si O2"
_cell_formula_units_Z 36
_cell_length_a 22.485560
_cell_length_b 11.821038
_cell_length_c 5.612482
_cell_angle_alpha 90.000000
_cell_angle_beta 105.599518
_cell_angle_gamma 90.000000
_cell_volume 1436.861467
_symmetry_space_group_name_H-M "C 2/M"
_symmetry_group_IT_number 12
_symmetry_cell_setting 'monoclinic'
loop_
_space_group_symop_operation_xyz
x,y,z
-x,y,-z
-x,-y,-z
x,-y,z
1/2+x,1/2+y,z
1/2-x,1/2+y,-z
1/2-x,1/2-y,-z
1/2+x,1/2-y,z
loop_
_atom_site_type_symbol
_atom_site_label
_atom_site_fract_x
_atom_site_fract_y
_atom_site_fract_z
Si Si1 0.607429 0.694730 0.587641
Si Si2 0.944971 0.628920 0.129265
Si Si3 0.228168 0.875398 0.895682
Si Si4 0.537181 0.500000 0.287314
Si Si5 0.331141 0.120468 0.650450
O O1 0.560238 0.772015 0.684179
O O2 0.654100 0.626888 0.807135
O O3 0.577551 0.612741 0.361776
O O4 0.652776 0.781264 0.507496
O O5 0.953562 0.500000 0.230485
O O6 0.879304 0.630507 0.921412
O O7 0.000000 0.649064 0.000000
O O8 0.262474 0.880522 0.677039
O O9 0.245765 0.000000 0.025753
O O10 0.250000 0.750000 0.000000
O O11 0.500000 0.500000 0.500000
O O12 0.500000 0.500000 0.000000
O O13 0.345397 0.000000 0.549492
#
# Coordination Sequence:
#
# PCOD9217110 Si02
#       5
#     8   8   8   4   8
#     4  12  25  47  76 107 151 212 269 333 410 487
#     4  10  23  43  73 114 155 204 261 332 407 493
#     4  11  23  45  73 113 154 202 266 334 414 497
#     4  12  34  54  78 112 162 220 281 341 406 491
#     4  10  23  41  70 109 151 194 254 327 402 485
#
# _framework density 25.054608000000002
#
# number of rings (size 3 to 8) (size 9 to 14) (size 15 to 20)
#    0.000    1.111    3.333    1.333    6.222    0.889 
#    2.000    3.333    0.000    2.000    0.000    0.000 
#    0.000    0.000    0.000    0.000    0.000    0.000 
#
# Total GULP energy -100626.606074 kJ/mol
# GULP energy per Si atom -5590.367004 kJ/mol
# Density = 2.499758 g / cm^3
# Si number density = 25.054608 Si / 1000 Ang^3
#
#
#
# Elastic Constant Matrix: (Units=GPa)
#
#
# Indices 1 2 3 4 5 6 
#
# 1 120.0168 50.3853 37.8186 0.0000 -0.1385 0.0000
# 2 50.3853 240.5451 65.9920 0.0000 -1.2356 0.0000
# 3 37.8186 65.9920 95.1095 0.0000 21.6219 0.0000
# 4 0.0000 0.0000 0.0000 16.0207 0.0000 -35.3823
# 5 -0.1385 -1.2356 21.6219 0.0000 44.9079 0.0000
# 6 0.0000 0.0000 0.0000 -35.3823 0.0000 -7.4084
#
#
#
# Elastic Compliance Matrix: (Units=1/GPa)
#
#
# Indices 1 2 3 4 5 6 
#
# 1 0.009919 -0.001086 -0.003583 0.000000 0.001726 0.000000
# 2 -0.001086 0.005433 -0.003786 0.000000 0.001969 0.000000
# 3 -0.003583 -0.003786 0.016385 0.000000 -0.008004 0.000000
# 4 0.000000 0.000000 0.000000 0.005405 0.000000 -0.025815
# 5 0.001726 0.001969 -0.008004 0.000000 0.026181 0.000000
# 6 0.000000 0.000000 0.000000 -0.025815 0.000000 -0.011689
#
#
# Mechanical properties :
#
#
# Convention : Reuss Voigt Hill
#
# Bulk Modulus (GPa) = 67.43804 84.89591 76.16697
# Shear Modulus (GPa) = 68.03856 30.80242 49.42049
#
# Velocity S-wave (km/s) = 5.21681 3.51010 4.44611
# Velocity P-wave (km/s) = 7.95372 7.09828 7.53814
#
# Compressibility (1/GPa) = 0.01482843
#
# Stress axis : x y z
#
# Youngs Moduli (GPa) = 100.81580 184.04705 61.02976
#
# Poissons Ratio (x) = 0.19984 0.21868
# Poissons Ratio (y) = 0.10947 0.23105
# Poissons Ratio (z) = 0.36123 0.69677
#
# Static dielectric constant tensor:
#      x y z
#    x 1.971980 0.000000 0.027510 
#    y 0.000000 2.618800 0.000000 
#    z 0.027510 0.000000 2.039960 
# 
# From -- ./inp_files/23685.got.cif
#   From: 2010.05.17/outbox.cif.g08.bks.cpg/sg12_12_cif.got.tgz:23685.got - 2010.06.03 13:09:07.
