data_PCOD9217356
_publ_section_title
;
Structure prediction by ZEFSAII (Michael W. Deem and Ramdas Pophale) SiO2 
 PCOD9217356
Probable space group: C 2/M
;
_chemical_formula_sum "Si O2"
_cell_formula_units_Z 44
_cell_length_a 16.913633
_cell_length_b 23.261410
_cell_length_c 5.124909
_cell_angle_alpha 90.000000
_cell_angle_beta 94.297380
_cell_angle_gamma 90.000000
_cell_volume 2010.649570
_symmetry_space_group_name_H-M "C 2/M"
_symmetry_group_IT_number 12
_symmetry_cell_setting 'monoclinic'
loop_
_space_group_symop_operation_xyz
x,y,z
-x,y,-z
-x,-y,-z
x,-y,z
1/2+x,1/2+y,z
1/2-x,1/2+y,-z
1/2-x,1/2-y,-z
1/2+x,1/2-y,z
loop_
_atom_site_type_symbol
_atom_site_label
_atom_site_fract_x
_atom_site_fract_y
_atom_site_fract_z
Si Si1 0.757716 0.000000 0.162401
Si Si2 0.910578 0.000000 0.580776
Si Si3 0.143400 0.605351 0.584860
Si Si4 0.699514 0.269738 0.234847
Si Si5 0.407655 0.829447 0.930118
Si Si6 0.811676 0.094716 0.771418
Si Si7 0.412314 0.000000 0.092281
O O1 0.832905 0.000000 0.375596
O O2 0.776301 0.941833 0.001668
O O3 0.660515 0.000000 0.138842
O O4 0.891363 0.059480 0.726790
O O5 0.000000 0.000000 0.500000
O O6 0.108903 0.624804 0.302556
O O7 0.235526 0.589804 0.559086
O O8 0.099872 0.553908 0.719584
O O9 0.136391 0.654601 0.808616
O O10 0.750000 0.250000 0.500000
O O11 0.621973 0.230477 0.194700
O O12 0.678314 0.337034 0.208408
O O13 0.750000 0.250000 0.000000
O O14 0.500000 0.828611 0.000000
O O15 0.500000 0.000000 0.000000
#
# Coordination Sequence:
#
# PCOD9217356 Si02
#       7
#     4   4   8   8   8   8   4
#     4   9  23  44  75  99 146 187 235 302 372 429
#     4  11  26  49  74 107 144 186 247 319 383 439
#     4  11  24  44  70 100 144 189 234 291 358 433
#     4  12  24  44  74 106 141 192 247 292 358 439
#     4  12  25  45  66 103 147 188 234 298 358 430
#     4  10  23  44  74 105 133 190 242 301 368 442
#     4  10  23  42  69 111 139 187 243 292 349 433
#
# _framework density 21.883474
#
# number of rings (size 3 to 8) (size 9 to 14) (size 15 to 20)
#    0.000    1.091    3.636    1.636    7.636    2.182 
#    3.273    3.182    0.000    0.000    0.000    0.000 
#    0.000    0.000    0.000    0.000    0.000    0.000 
#
# Total GULP energy -122831.816957 kJ/mol
# GULP energy per Si atom -5583.264407 kJ/mol
# Density = 2.183367 g / cm^3
# Si number density = 21.883474 Si / 1000 Ang^3
#
#
#
# Elastic Constant Matrix: (Units=GPa)
#
#
# Indices 1 2 3 4 5 6 
#
# 1 172.6934 60.4634 33.1096 0.0000 -4.4479 0.0000
# 2 60.4634 181.0592 25.7223 0.0000 -7.4854 0.0000
# 3 33.1096 25.7223 110.2945 0.0000 0.7035 0.0000
# 4 0.0000 0.0000 0.0000 18.6319 0.0000 11.6106
# 5 -4.4479 -7.4854 0.7035 0.0000 26.4864 0.0000
# 6 0.0000 0.0000 0.0000 11.6106 0.0000 16.7449
#
#
#
# Elastic Compliance Matrix: (Units=1/GPa)
#
#
# Indices 1 2 3 4 5 6 
#
# 1 0.006819 -0.002028 -0.001578 0.000000 0.000614 0.000000
# 2 -0.002028 0.006388 -0.000891 0.000000 0.001489 0.000000
# 3 -0.001578 -0.000891 0.009753 0.000000 -0.000776 0.000000
# 4 0.000000 0.000000 0.000000 0.094506 0.000000 -0.065529
# 5 0.000614 0.001489 -0.000776 0.000000 0.038300 0.000000
# 6 0.000000 0.000000 0.000000 -0.065529 0.000000 0.105157
#
#
# Mechanical properties :
#
#
# Convention : Reuss Voigt Hill
#
# Bulk Modulus (GPa) = 71.59426 78.07086 74.83256
# Shear Modulus (GPa) = 18.21025 35.35610 26.78317
#
# Velocity S-wave (km/s) = 2.88782 4.02388 3.50222
# Velocity P-wave (km/s) = 6.62620 7.57245 7.11507
#
# Compressibility (1/GPa) = 0.01396760
#
# Stress axis : x y z
#
# Youngs Moduli (GPa) = 146.65230 156.53830 102.53236
#
# Poissons Ratio (x) = 0.31739 0.16180
# Poissons Ratio (y) = 0.29734 0.09132
# Poissons Ratio (z) = 0.23142 0.13942
#
# Static dielectric constant tensor:
#      x y z
#    x 1.786560 0.000000 0.006360 
#    y 0.000000 1.509310 0.000000 
#    z 0.006360 0.000000 2.005150 
# 
# From -- ./inp_files/16736.got.cif
#   From: 2010.05.17/outbox.cif.g08.bks.cpg/sg12_9_cif.got.tgz:16736.got - 2010.06.03 13:09:07.
