data_PCOD9217434
_publ_section_title
;
Structure prediction by ZEFSAII (Michael W. Deem and Ramdas Pophale) SiO2 
 PCOD9217434
Probable space group: C 2/M
;
_chemical_formula_sum "Si O2"
_cell_formula_units_Z 48
_cell_length_a 28.986827
_cell_length_b 8.143523
_cell_length_c 18.066255
_cell_angle_alpha 90.000000
_cell_angle_beta 145.112071
_cell_angle_gamma 90.000000
_cell_volume 2439.252310
_symmetry_space_group_name_H-M "C 2/M"
_symmetry_group_IT_number 12
_symmetry_cell_setting 'monoclinic'
loop_
_space_group_symop_operation_xyz
x,y,z
-x,y,-z
-x,-y,-z
x,-y,z
1/2+x,1/2+y,z
1/2-x,1/2+y,-z
1/2-x,1/2-y,-z
1/2+x,1/2-y,z
loop_
_atom_site_type_symbol
_atom_site_label
_atom_site_fract_x
_atom_site_fract_y
_atom_site_fract_z
Si Si1 0.645467 0.803635 0.530647
Si Si2 0.158430 0.697138 0.866830
Si Si3 0.509026 0.696683 0.769645
Si Si4 0.207696 0.309342 0.369471
Si Si5 0.907510 0.700203 0.377697
Si Si6 0.970368 0.192713 0.882476
O O1 0.566191 0.765436 0.377051
O O2 0.724490 0.718752 0.602646
O O3 0.631468 0.749132 0.596463
O O4 0.657294 0.000000 0.544308
O O5 0.153469 0.500000 0.861808
O O6 0.092875 0.761272 0.839564
O O7 0.133138 0.755504 0.751507
O O8 0.250000 0.750000 0.000000
O O9 0.499309 0.500000 0.758395
O O10 0.504013 0.758898 0.848194
O O11 0.186310 0.500000 0.347813
O O12 0.250000 0.250000 0.500000
O O13 0.125947 0.211207 0.247860
O O14 0.906780 0.500000 0.376381
O O15 0.000000 0.753483 0.500000
O O16 0.992761 0.000000 0.912760
O O17 0.000000 0.265084 0.000000
#
# Coordination Sequence:
#
# PCOD9217434 Si02
#       6
#     8   8   8   8   8   8
#     4  11  21  37  64  92 121 159 205 254 306 360
#     4  11  23  41  63  88 124 162 204 249 302 367
#     4  11  22  38  62  91 122 158 203 251 308 369
#     4  12  24  39  61  91 125 160 205 255 304 363
#     4   9  18  36  61  88 115 155 203 244 293 362
#     4  10  23  43  65  89 123 165 207 252 309 375
#
# _framework density 19.678159999999998
#
# number of rings (size 3 to 8) (size 9 to 14) (size 15 to 20)
#    0.000    1.333    3.333    3.000    0.000    2.333 
#    0.000   10.833    0.000    0.000    0.000    0.000 
#    0.000    0.000    0.000    0.000    0.000    0.000 
#
# Total GULP energy -134077.398909 kJ/mol
# GULP energy per Si atom -5586.558288 kJ/mol
# Density = 1.963337 g / cm^3
# Si number density = 19.678160 Si / 1000 Ang^3
#
#
#
# Elastic Constant Matrix: (Units=GPa)
#
#
# Indices 1 2 3 4 5 6 
#
# 1 178.3685 -7.7819 69.6204 0.0000 -22.2447 0.0000
# 2 -7.7819 27.3330 -16.7647 0.0000 -10.5859 0.0000
# 3 69.6204 -16.7647 133.2247 0.0000 -23.3084 0.0000
# 4 0.0000 0.0000 0.0000 27.1188 0.0000 4.1226
# 5 -22.2447 -10.5859 -23.3084 0.0000 33.1261 0.0000
# 6 0.0000 0.0000 0.0000 4.1226 0.0000 28.9093
#
#
#
# Elastic Compliance Matrix: (Units=1/GPa)
#
#
# Indices 1 2 3 4 5 6 
#
# 1 0.007258 0.001420 -0.003059 0.000000 0.003176 0.000000
# 2 0.001420 0.053099 0.010349 0.000000 0.025204 0.000000
# 3 -0.003059 0.010349 0.012118 0.000000 0.009780 0.000000
# 4 0.000000 0.000000 0.000000 0.037692 0.000000 -0.005375
# 5 0.003176 0.025204 0.009780 0.000000 0.047256 0.000000
# 6 0.000000 0.000000 0.000000 -0.005375 0.000000 0.035357
#
#
# Mechanical properties :
#
#
# Convention : Reuss Voigt Hill
#
# Bulk Modulus (GPa) = 11.12378 47.67488 29.39933
# Shear Modulus (GPa) = 24.35171 37.42102 30.88636
#
# Velocity S-wave (km/s) = 3.52163 4.36552 3.96609
# Velocity P-wave (km/s) = 4.71179 7.04914 5.99547
#
# Compressibility (1/GPa) = 0.08989753
#
# Stress axis : x y z
#
# Youngs Moduli (GPa) = 137.77440 18.83263 82.52293
#
# Poissons Ratio (x) = -0.02675 0.25241
# Poissons Ratio (y) = -0.19570 -0.85405
# Poissons Ratio (z) = 0.42140 -0.19490
#
# Static dielectric constant tensor:
#      x y z
#    x 1.665850 0.000000 -0.003880 
#    y 0.000000 1.700760 0.000000 
#    z -0.003880 0.000000 1.631740 
# 
# From -- ./inp_files/295907.got.cif
#   From: 2010.05.17/outbox.cif.g08.bks.cpg/sg12_148_cif.got.tgz:295907.got - 2010.06.03 13:09:07.
