data_PCOD9217266
_publ_section_title
;
Structure prediction by ZEFSAII (Michael W. Deem and Ramdas Pophale) SiO2 
 PCOD9217266
Probable space group: C 2/M
;
_chemical_formula_sum "Si O2"
_cell_formula_units_Z 64
_cell_length_a 8.264845
_cell_length_b 25.978490
_cell_length_c 15.574006
_cell_angle_alpha 90.000000
_cell_angle_beta 91.006876
_cell_angle_gamma 90.000000
_cell_volume 3343.350374
_symmetry_space_group_name_H-M "C 2/M"
_symmetry_group_IT_number 12
_symmetry_cell_setting 'monoclinic'
loop_
_space_group_symop_operation_xyz
x,y,z
-x,y,-z
-x,-y,-z
x,-y,z
1/2+x,1/2+y,z
1/2-x,1/2+y,-z
1/2-x,1/2-y,-z
1/2+x,1/2-y,z
loop_
_atom_site_type_symbol
_atom_site_label
_atom_site_fract_x
_atom_site_fract_y
_atom_site_fract_z
Si Si1 0.810468 0.766737 0.207348
Si Si2 0.821873 0.061450 0.206651
Si Si3 0.807061 0.809124 0.504016
Si Si4 0.189308 0.357357 0.326702
Si Si5 0.822673 0.660493 0.312621
Si Si6 0.505456 0.061253 0.096130
Si Si7 0.668472 0.398007 0.159572
Si Si8 0.411566 0.706184 0.910545
O O1 0.723804 0.808827 0.264557
O O2 0.840985 0.715983 0.265050
O O3 0.717259 0.748264 0.120943
O O4 0.969669 0.792291 0.170554
O O5 0.793712 0.094959 0.292257
O O6 0.667031 0.079029 0.147388
O O7 0.995225 0.073880 0.164345
O O8 0.812184 0.000000 0.220876
O O9 0.750000 0.750000 0.500000
O O10 0.735244 0.839841 0.422638
O O11 0.747091 0.831015 0.593900
O O12 0.000000 0.810345 0.500000
O O13 0.997482 0.366197 0.319488
O O14 0.705191 0.627259 0.252194
O O15 0.331846 0.071354 0.138061
O O16 0.525834 0.000000 0.090373
O O17 0.500000 0.083344 0.000000
O O18 0.658788 0.351248 0.091149
O O19 0.500000 0.717450 0.000000
#
# Coordination Sequence:
#
# PCOD9217266 Si02
#       8
#     8   8   8   8   8   8   8   8
#     4  11  22  38  59  85 129 167 211 257 314 381
#     4  11  24  43  68  96 129 173 218 271 331 385
#     4  12  25  37  63  97 131 168 213 263 322 388
#     4  12  22  41  66  92 132 167 210 267 323 387
#     4  11  23  41  62  96 126 170 205 260 323 387
#     4  10  23  42  65  94 126 166 223 284 333 378
#     4  11  23  40  66  93 128 172 217 266 329 388
#     4  11  24  38  57  89 128 174 217 258 316 385
#
# _framework density 19.142475000000001
#
# number of rings (size 3 to 8) (size 9 to 14) (size 15 to 20)
#    0.000    0.875    5.000    2.625    3.500    0.000 
#    0.000    3.750    0.000    5.625    0.000    0.000 
#    0.000    0.000    0.000    0.000    0.000    0.000 
#
# Total GULP energy -178704.211013 kJ/mol
# GULP energy per Si atom -5584.506594 kJ/mol
# Density = 1.909891 g / cm^3
# Si number density = 19.142475 Si / 1000 Ang^3
#
#
#
# Elastic Constant Matrix: (Units=GPa)
#
#
# Indices 1 2 3 4 5 6 
#
# 1 127.0655 7.6745 35.1254 0.0000 -0.8167 0.0000
# 2 7.6745 40.5645 29.2505 0.0000 7.1244 0.0000
# 3 35.1254 29.2505 109.5632 0.0000 4.4822 0.0000
# 4 0.0000 0.0000 0.0000 -9.9914 0.0000 8.5157
# 5 -0.8167 7.1244 4.4822 0.0000 33.3986 0.0000
# 6 0.0000 0.0000 0.0000 8.5157 0.0000 26.7357
#
#
#
# Elastic Compliance Matrix: (Units=1/GPa)
#
#
# Indices 1 2 3 4 5 6 
#
# 1 0.008651 0.000355 -0.002890 0.000000 0.000524 0.000000
# 2 0.000355 0.031563 -0.008311 0.000000 -0.005609 0.000000
# 3 -0.002890 -0.008311 0.012270 0.000000 0.000055 0.000000
# 4 0.000000 0.000000 0.000000 -0.078717 0.000000 0.025073
# 5 0.000524 -0.005609 0.000055 0.000000 0.031143 0.000000
# 6 0.000000 0.000000 0.000000 0.025073 0.000000 0.029417
#
#
# Mechanical properties :
#
#
# Convention : Reuss Voigt Hill
#
# Bulk Modulus (GPa) = 32.47509 46.81046 39.64278
# Shear Modulus (GPa) = 75.43517 23.70477 49.56997
#
# Velocity S-wave (km/s) = 6.28433 3.52281 5.09426
# Velocity P-wave (km/s) = 8.34618 6.40732 7.44018
#
# Compressibility (1/GPa) = 0.03079283
#
# Stress axis : x y z
#
# Youngs Moduli (GPa) = 115.59815 31.68280 81.49936
#
# Poissons Ratio (x) = -0.01125 0.23550
# Poissons Ratio (y) = -0.04104 0.67733
# Poissons Ratio (z) = 0.33403 0.26331
#
# Static dielectric constant tensor:
#      x y z
#    x 1.754080 0.000000 0.010340 
#    y 0.000000 2.033090 0.000000 
#    z 0.010340 0.000000 1.659700 
# 
# From -- ./inp_files/198868.got.cif
#   From: 2010.05.17/outbox.cif.g08.bks.cpg/sg12_100_cif.got.tgz:198868.got - 2010.06.03 13:09:07.
