data_PCOD9217009
_publ_section_title
;
Structure prediction by ZEFSAII (Michael W. Deem and Ramdas Pophale) SiO2 
 PCOD9217009
Probable space group: C 2/M
;
_chemical_formula_sum "Si O2"
_cell_formula_units_Z 38
_cell_length_a 14.888873
_cell_length_b 28.188592
_cell_length_c 5.190913
_cell_angle_alpha 90.000000
_cell_angle_beta 45.919604
_cell_angle_gamma 90.000000
_cell_volume 1565.033868
_symmetry_space_group_name_H-M "C 2/M"
_symmetry_group_IT_number 12
_symmetry_cell_setting 'monoclinic'
loop_
_space_group_symop_operation_xyz
x,y,z
-x,y,-z
-x,-y,-z
x,-y,z
1/2+x,1/2+y,z
1/2-x,1/2+y,-z
1/2-x,1/2-y,-z
1/2+x,1/2-y,z
loop_
_atom_site_type_symbol
_atom_site_label
_atom_site_fract_x
_atom_site_fract_y
_atom_site_fract_z
Si Si1 0.741180 0.361503 0.424355
Si Si2 0.000000 0.500000 0.500000
Si Si3 0.500000 0.701381 0.000000
Si Si4 0.913466 0.055205 0.427871
Si Si5 0.422641 0.096673 0.421968
Si Si6 0.826684 0.266317 0.093048
O O1 0.705782 0.410358 0.353673
O O2 0.797123 0.376579 0.588831
O O3 0.831077 0.322777 0.114532
O O4 0.611587 0.333307 0.701880
O O5 0.084214 0.542202 0.472407
O O6 0.545965 0.737118 0.130421
O O7 0.000000 0.066708 0.500000
O O8 0.875143 0.000000 0.521438
O O9 0.000000 0.060396 0.000000
O O10 0.500000 0.119366 0.500000
O O11 0.500000 0.096198 0.000000
O O12 0.750000 0.250000 0.500000
O O13 0.750000 0.250000 0.000000
#
# Coordination Sequence:
#
# PCOD9217009 Si02
#       6
#     8   2   4   8   8   8
#     4  11  24  44  78 101 147 191 243 302 374 445
#     4   8  22  48  70 102 154 194 252 298 344 442
#     4  10  24  48  69 108 135 186 238 312 374 430
#     4  10  23  41  64 103 145 183 230 284 356 439
#     4  10  24  43  70 106 144 192 248 294 361 430
#     4  10  25  44  68  99 135 182 235 298 362 432
#
# _framework density 24.280626999999999
#
# number of rings (size 3 to 8) (size 9 to 14) (size 15 to 20)
#    0.632    1.263    1.053    0.316    5.895    7.579 
#    0.000    0.000    0.000    0.000    0.000    0.000 
#    0.000    0.000    0.000    0.000    0.000    0.000 
#
# Total GULP energy -105948.151565 kJ/mol
# GULP energy per Si atom -5576.218503 kJ/mol
# Density = 2.422536 g / cm^3
# Si number density = 24.280627 Si / 1000 Ang^3
#
#
#
# Elastic Constant Matrix: (Units=GPa)
#
#
# Indices 1 2 3 4 5 6 
#
# 1 233.3104 106.2657 34.8229 0.0000 25.4516 0.0000
# 2 106.2657 172.9691 33.5707 0.0000 -5.8945 0.0000
# 3 34.8229 33.5707 74.9176 0.0000 15.7925 0.0000
# 4 0.0000 0.0000 0.0000 -9.0496 0.0000 -26.9276
# 5 25.4516 -5.8945 15.7925 0.0000 40.3635 0.0000
# 6 0.0000 0.0000 0.0000 -26.9276 0.0000 65.0771
#
#
#
# Elastic Compliance Matrix: (Units=1/GPa)
#
#
# Indices 1 2 3 4 5 6 
#
# 1 0.006807 -0.004305 -0.000215 0.000000 -0.004836 0.000000
# 2 -0.004305 0.009242 -0.003267 0.000000 0.005342 0.000000
# 3 -0.000215 -0.003267 0.016331 0.000000 -0.006731 0.000000
# 4 0.000000 0.000000 0.000000 -0.049525 0.000000 -0.020493
# 5 -0.004836 0.005342 -0.006731 0.000000 0.031238 0.000000
# 6 0.000000 0.000000 0.000000 -0.020493 0.000000 0.006887
#
#
# Mechanical properties :
#
#
# Convention : Reuss Voigt Hill
#
# Bulk Modulus (GPa) = 59.50265 92.27952 75.89108
# Shear Modulus (GPa) = 118.61251 39.71406 79.16328
#
# Velocity S-wave (km/s) = 6.99691 4.04868 5.71614
# Velocity P-wave (km/s) = 9.47814 7.74233 8.65386
#
# Compressibility (1/GPa) = 0.01680598
#
# Stress axis : x y z
#
# Youngs Moduli (GPa) = 146.91810 108.20099 61.23440
#
# Poissons Ratio (x) = 0.46577 0.01319
# Poissons Ratio (y) = 0.63244 0.20003
# Poissons Ratio (z) = 0.03164 0.35345
#
# Static dielectric constant tensor:
#      x y z
#    x 1.931230 0.000000 -0.051370 
#    y 0.000000 1.915170 0.000000 
#    z -0.051370 0.000000 2.085830 
# 
# From -- ./inp_files/12740.got.cif
#   From: 2010.05.17/outbox.cif.g08.bks.cpg/sg12_7_cif.got.tgz:12740.got - 2010.06.03 13:09:07.
