data_PCOD9217980
_publ_section_title
;
Structure prediction by ZEFSAII (Michael W. Deem and Ramdas Pophale) SiO2 
 PCOD9217980
Probable space group: C 2/M
;
_chemical_formula_sum "Si O2"
_cell_formula_units_Z 36
_cell_length_a 9.437632
_cell_length_b 9.478467
_cell_length_c 19.157259
_cell_angle_alpha 90.000000
_cell_angle_beta 110.199698
_cell_angle_gamma 90.000000
_cell_volume 1608.297558
_symmetry_space_group_name_H-M "C 2/M"
_symmetry_group_IT_number 12
_symmetry_cell_setting 'monoclinic'
loop_
_space_group_symop_operation_xyz
x,y,z
-x,y,-z
-x,-y,-z
x,-y,z
1/2+x,1/2+y,z
1/2-x,1/2+y,-z
1/2-x,1/2-y,-z
1/2+x,1/2-y,z
loop_
_atom_site_type_symbol
_atom_site_label
_atom_site_fract_x
_atom_site_fract_y
_atom_site_fract_z
Si Si1 0.684419 0.500000 0.495050
Si Si2 0.068613 0.835443 0.195730
Si Si3 0.146778 0.712782 0.567493
Si Si4 0.107285 0.660388 0.951207
Si Si5 0.586823 0.838927 0.719514
O O1 0.716284 0.623472 0.441170
O O2 0.664048 0.376124 0.551318
O O3 0.980860 0.742412 0.124397
O O4 0.024292 0.770348 0.263003
O O5 0.248406 0.824888 0.217160
O O6 0.026097 0.000000 0.184185
O O7 0.114189 0.686793 0.642549
O O8 0.000000 0.659250 0.500000
O O9 0.147330 0.500000 0.936340
O O10 0.250000 0.750000 0.000000
O O11 0.000000 0.651701 0.000000
O O12 0.532410 0.000000 0.719502
#
# Coordination Sequence:
#
# PCOD9217980 Si02
#       5
#     4   8   8   8   8
#     4  10  24  40  62  90 124 158 228 272 334 386
#     4  11  26  44  65  99 134 174 217 265 327 387
#     4  11  24  40  64  90 123 170 221 275 330 388
#     4  11  24  44  73 103 135 172 216 262 316 386
#     4  11  26  43  65  94 136 173 219 276 331 389
#
# _framework density 22.383917
#
# number of rings (size 3 to 8) (size 9 to 14) (size 15 to 20)
#    0.000    1.111    1.111    3.333    7.778    7.111 
#    0.000    0.000    0.000    0.000    0.000    0.000 
#    0.000    0.000    0.000    0.000    0.000    0.000 
#
# Total GULP energy -100320.467045 kJ/mol
# GULP energy per Si atom -5573.359280 kJ/mol
# Density = 2.233297 g / cm^3
# Si number density = 22.383917 Si / 1000 Ang^3
#
#
#
# Elastic Constant Matrix: (Units=GPa)
#
#
# Indices 1 2 3 4 5 6 
#
# 1 50.2133 29.5639 6.1133 0.0000 -4.0596 0.0000
# 2 29.5639 204.4166 22.7867 0.0000 1.4187 0.0000
# 3 6.1133 22.7867 86.4012 0.0000 4.4438 0.0000
# 4 0.0000 0.0000 0.0000 34.2504 0.0000 -3.7886
# 5 -4.0596 1.4187 4.4438 0.0000 33.8754 0.0000
# 6 0.0000 0.0000 0.0000 -3.7886 0.0000 5.2613
#
#
#
# Elastic Compliance Matrix: (Units=1/GPa)
#
#
# Indices 1 2 3 4 5 6 
#
# 1 0.022092 -0.003116 -0.000890 0.000000 0.002895 0.000000
# 2 -0.003116 0.005480 -0.001202 0.000000 -0.000445 0.000000
# 3 -0.000890 -0.001202 0.012038 0.000000 -0.001636 0.000000
# 4 0.000000 0.000000 0.000000 0.031724 0.000000 0.022844
# 5 0.002895 -0.000445 -0.001636 0.000000 0.030100 0.000000
# 6 0.000000 0.000000 0.000000 0.022844 0.000000 0.206516
#
#
# Mechanical properties :
#
#
# Convention : Reuss Voigt Hill
#
# Bulk Modulus (GPa) = 34.25391 50.88432 42.56911
# Shear Modulus (GPa) = 15.23941 33.51523 24.37732
#
# Velocity S-wave (km/s) = 2.61208 3.87368 3.30366
# Velocity P-wave (km/s) = 4.94302 6.54134 5.79752
#
# Compressibility (1/GPa) = 0.02919375
#
# Stress axis : x y z
#
# Youngs Moduli (GPa) = 45.26520 182.49266 83.07045
#
# Poissons Ratio (x) = 0.56863 0.07395
# Poissons Ratio (y) = 0.14104 0.09983
# Poissons Ratio (z) = 0.04030 0.21932
#
# Static dielectric constant tensor:
#      x y z
#    x 1.912010 0.000000 0.032350 
#    y 0.000000 1.801100 0.000000 
#    z 0.032350 0.000000 1.816470 
# 
# From -- ./inp_files/260900.got.cif
#   From: 2010.05.17/outbox.cif.g08.bks.cpg/sg12_131_cif.got.tgz:260900.got - 2010.06.03 13:09:07.
