data_PCOD9217351
_publ_section_title
;
Structure prediction by ZEFSAII (Michael W. Deem and Ramdas Pophale) SiO2 
 PCOD9217351
Probable space group: C 2/M
;
_chemical_formula_sum "Si O2"
_cell_formula_units_Z 40
_cell_length_a 16.489167
_cell_length_b 15.064206
_cell_length_c 12.804115
_cell_angle_alpha 90.000000
_cell_angle_beta 38.899918
_cell_angle_gamma 90.000000
_cell_volume 1997.228955
_symmetry_space_group_name_H-M "C 2/M"
_symmetry_group_IT_number 12
_symmetry_cell_setting 'monoclinic'
loop_
_space_group_symop_operation_xyz
x,y,z
-x,y,-z
-x,-y,-z
x,-y,z
1/2+x,1/2+y,z
1/2-x,1/2+y,-z
1/2-x,1/2-y,-z
1/2+x,1/2-y,z
loop_
_atom_site_type_symbol
_atom_site_label
_atom_site_fract_x
_atom_site_fract_y
_atom_site_fract_z
Si Si1 0.528175 0.500000 0.847742
Si Si2 0.242706 0.827845 0.149658
Si Si3 0.604456 0.316589 0.080188
Si Si4 0.704957 0.000000 0.552276
Si Si5 0.846131 0.500000 0.156764
Si Si6 0.000000 0.245180 0.500000
Si Si7 0.880575 0.302319 0.407013
O O1 0.462384 0.408816 0.877091
O O2 0.669919 0.500000 0.650215
O O3 0.500000 0.500000 0.000000
O O4 0.215653 0.837568 0.053750
O O5 0.305796 0.912220 0.136493
O O6 0.102981 0.814796 0.338218
O O7 0.325511 0.738024 0.081821
O O8 0.497789 0.247764 0.230992
O O9 0.633021 0.093603 0.604777
O O10 0.722121 0.000000 0.660999
O O11 0.000000 0.500000 0.000000
O O12 0.081104 0.295419 0.508732
O O13 0.750000 0.250000 0.500000
#
# Coordination Sequence:
#
# PCOD9217351 Si02
#       7
#     4   8   8   4   4   4   8
#     4  12  27  41  65  98 132 184 229 271 347 411
#     4  10  23  42  68  99 132 174 225 288 350 418
#     4  10  23  45  67  96 136 177 225 289 347 415
#     4  12  26  41  67 103 136 180 231 288 336 412
#     4  12  25  42  72 107 136 178 228 288 361 414
#     4  10  24  40  68  98 130 190 224 278 356 412
#     4  11  22  43  67  96 140 173 230 288 346 412
#
# _framework density 20.027749
#
# number of rings (size 3 to 8) (size 9 to 14) (size 15 to 20)
#    0.000    1.200    2.000    3.000    5.600    3.200 
#    0.000    6.000    0.000    0.000    0.000    0.000 
#    0.000    0.000    0.000    0.000    0.000    0.000 
#
# Total GULP energy -111547.896722 kJ/mol
# GULP energy per Si atom -5577.394836 kJ/mol
# Density = 1.998216 g / cm^3
# Si number density = 20.027749 Si / 1000 Ang^3
#
#
#
# Elastic Constant Matrix: (Units=GPa)
#
#
# Indices 1 2 3 4 5 6 
#
# 1 112.7731 73.5808 30.0697 0.0000 -4.1176 0.0000
# 2 73.5808 189.1602 41.1928 0.0000 -6.3955 0.0000
# 3 30.0697 41.1928 100.1283 0.0000 -3.8936 0.0000
# 4 0.0000 0.0000 0.0000 173.2399 0.0000 95.2065
# 5 -4.1176 -6.3955 -3.8936 0.0000 30.1526 0.0000
# 6 0.0000 0.0000 0.0000 95.2065 0.0000 114.7524
#
#
#
# Elastic Compliance Matrix: (Units=1/GPa)
#
#
# Indices 1 2 3 4 5 6 
#
# 1 0.012205 -0.004324 -0.001867 0.000000 0.000509 0.000000
# 2 -0.004324 0.007364 -0.001702 0.000000 0.000752 0.000000
# 3 -0.001867 -0.001702 0.011281 0.000000 0.000841 0.000000
# 4 0.000000 0.000000 0.000000 0.010610 0.000000 -0.008803
# 5 0.000509 0.000752 0.000841 0.000000 0.033502 0.000000
# 6 0.000000 0.000000 0.000000 -0.008803 0.000000 0.016018
#
#
# Mechanical properties :
#
#
# Convention : Reuss Voigt Hill
#
# Bulk Modulus (GPa) = 66.37913 76.86092 71.62003
# Shear Modulus (GPa) = 44.72806 80.77688 62.75247
#
# Velocity S-wave (km/s) = 4.73091 6.35768 5.60364
# Velocity P-wave (km/s) = 7.94088 9.61009 8.81509
#
# Compressibility (1/GPa) = 0.01506498
#
# Stress axis : x y z
#
# Youngs Moduli (GPa) = 81.93495 135.78668 88.64724
#
# Poissons Ratio (x) = 0.58712 0.16547
# Poissons Ratio (y) = 0.35427 0.15088
# Poissons Ratio (z) = 0.15294 0.23111
#
# Static dielectric constant tensor:
#      x y z
#    x 1.785440 0.000000 0.040700 
#    y 0.000000 1.693770 0.000000 
#    z 0.040700 0.000000 1.765560 
# 
# From -- ./inp_files/225581.got.cif
#   From: 2010.05.17/outbox.cif.g08.bks.cpg/sg12_113_cif.got.tgz:225581.got - 2010.06.03 13:09:07.
