data_PCOD9217798
_publ_section_title
;
Structure prediction by ZEFSAII (Michael W. Deem and Ramdas Pophale) SiO2 
 PCOD9217798
Probable space group: C 2/M
;
_chemical_formula_sum "Si O2"
_cell_formula_units_Z 36
_cell_length_a 12.991725
_cell_length_b 25.159287
_cell_length_c 5.128246
_cell_angle_alpha 90.000000
_cell_angle_beta 59.903899
_cell_angle_gamma 90.000000
_cell_volume 1450.251269
_symmetry_space_group_name_H-M "C 2/M"
_symmetry_group_IT_number 12
_symmetry_cell_setting 'monoclinic'
loop_
_space_group_symop_operation_xyz
x,y,z
-x,y,-z
-x,-y,-z
x,-y,z
1/2+x,1/2+y,z
1/2-x,1/2+y,-z
1/2-x,1/2-y,-z
1/2+x,1/2-y,z
loop_
_atom_site_type_symbol
_atom_site_label
_atom_site_fract_x
_atom_site_fract_y
_atom_site_fract_z
Si Si1 0.000000 0.912206 0.000000
Si Si2 0.279555 0.000000 0.483843
Si Si3 0.583952 0.776002 0.637286
Si Si4 0.368015 0.341037 0.536043
Si Si5 0.626967 0.500000 0.167659
Si Si6 0.139898 0.615616 0.760982
O O1 0.895469 0.875615 0.243496
O O2 0.947853 0.949482 0.838568
O O3 0.343895 0.055690 0.353842
O O4 0.239451 0.000000 0.833025
O O5 0.172246 0.000000 0.405830
O O6 0.500000 0.784019 0.500000
O O7 0.652056 0.721409 0.487965
O O8 0.653128 0.831562 0.568165
O O9 0.500000 0.767075 0.000000
O O10 0.500000 0.342754 0.500000
O O11 0.252565 0.370223 0.808708
O O12 0.000000 0.618994 0.000000
#
# Coordination Sequence:
#
# PCOD9217798 Si02
#       6
#     4   4   8   8   4   8
#     4  11  22  40  72 104 142 175 234 288 364 403
#     4  12  25  47  69  97 143 187 241 279 352 411
#     4  10  23  45  71 106 141 183 233 292 350 416
#     4  11  22  44  74 106 141 180 234 291 355 419
#     4  11  26  42  72 105 139 181 232 300 344 416
#     4  11  25  47  70 103 142 192 232 290 347 423
#
# _framework density 24.823284999999998
#
# number of rings (size 3 to 8) (size 9 to 14) (size 15 to 20)
#    0.000    1.111    3.333    2.333    0.000    4.444 
#    8.000   11.667    0.000    0.000    0.000    0.000 
#    0.000    0.000    0.000    0.000    0.000    0.000 
#
# Total GULP energy -100440.164459 kJ/mol
# GULP energy per Si atom -5580.009137 kJ/mol
# Density = 2.476679 g / cm^3
# Si number density = 24.823285 Si / 1000 Ang^3
#
#
#
# Elastic Constant Matrix: (Units=GPa)
#
#
# Indices 1 2 3 4 5 6 
#
# 1 123.2787 56.6359 37.8303 0.0000 -28.3579 0.0000
# 2 56.6359 226.1669 7.4311 0.0000 -32.3156 0.0000
# 3 37.8303 7.4311 44.8716 0.0000 -5.6854 0.0000
# 4 0.0000 0.0000 0.0000 27.2076 0.0000 -15.1225
# 5 -28.3579 -32.3156 -5.6854 0.0000 44.7734 0.0000
# 6 0.0000 0.0000 0.0000 -15.1225 0.0000 51.8362
#
#
#
# Elastic Compliance Matrix: (Units=1/GPa)
#
#
# Indices 1 2 3 4 5 6 
#
# 1 0.013659 -0.002265 -0.010419 0.000000 0.005694 0.000000
# 2 -0.002265 0.005311 0.001355 0.000000 0.002571 0.000000
# 3 -0.010419 0.001355 0.030626 0.000000 -0.001732 0.000000
# 4 0.000000 0.000000 0.000000 0.043868 0.000000 0.012798
# 5 0.005694 0.002571 -0.001732 0.000000 0.027577 0.000000
# 6 0.000000 0.000000 0.000000 0.012798 0.000000 0.023025
#
#
# Mechanical properties :
#
#
# Convention : Reuss Voigt Hill
#
# Bulk Modulus (GPa) = 37.11974 66.45688 51.78831
# Shear Modulus (GPa) = 28.45702 44.25809 36.35755
#
# Velocity S-wave (km/s) = 3.38950 4.22705 3.83123
# Velocity P-wave (km/s) = 5.50494 7.11717 6.36233
#
# Compressibility (1/GPa) = 0.02693984
#
# Stress axis : x y z
#
# Youngs Moduli (GPa) = 73.21081 188.27133 32.65178
#
# Poissons Ratio (x) = 0.42636 0.34021
# Poissons Ratio (y) = 0.16579 -0.04426
# Poissons Ratio (z) = 0.76281 -0.25519
#
# Static dielectric constant tensor:
#      x y z
#    x 2.200660 0.000000 -0.004600 
#    y 0.000000 1.956570 0.000000 
#    z -0.004600 0.000000 1.966550 
# 
# From -- ./inp_files/7531.got.cif
#   From: 2010.05.17/outbox.cif.g08.bks.cpg/sg12_4_cif.got.tgz:7531.got - 2010.06.03 13:09:07.
