data_PCOD9217534
_publ_section_title
;
Structure prediction by ZEFSAII (Michael W. Deem and Ramdas Pophale) SiO2 
 PCOD9217534
Probable space group: C 2/M
;
_chemical_formula_sum "Si O2"
_cell_formula_units_Z 40
_cell_length_a 11.544808
_cell_length_b 17.133889
_cell_length_c 12.524027
_cell_angle_alpha 90.000000
_cell_angle_beta 132.499622
_cell_angle_gamma 90.000000
_cell_volume 1826.502070
_symmetry_space_group_name_H-M "C 2/M"
_symmetry_group_IT_number 12
_symmetry_cell_setting 'monoclinic'
loop_
_space_group_symop_operation_xyz
x,y,z
-x,y,-z
-x,-y,-z
x,-y,z
1/2+x,1/2+y,z
1/2-x,1/2+y,-z
1/2-x,1/2-y,-z
1/2+x,1/2-y,z
loop_
_atom_site_type_symbol
_atom_site_label
_atom_site_fract_x
_atom_site_fract_y
_atom_site_fract_z
Si Si1 0.322213 0.815742 0.721363
Si Si2 0.181949 0.647893 0.635858
Si Si3 0.866563 0.087241 0.557589
Si Si4 0.116630 0.409823 0.825591
Si Si5 0.220976 0.910198 0.852599
O O1 0.291563 0.724240 0.704051
O O2 0.182080 0.852978 0.563899
O O3 0.478705 0.847864 0.762662
O O4 0.314571 0.852058 0.834470
O O5 0.243298 0.595183 0.577328
O O6 0.000000 0.668982 0.500000
O O7 0.812887 0.606467 0.246513
O O8 0.038181 0.101051 0.712752
O O9 0.861133 0.000000 0.508916
O O10 0.058320 0.500000 0.793812
O O11 0.239145 0.399855 0.998612
O O12 0.263053 0.000000 0.851036
#
# Coordination Sequence:
#
# PCOD9217534 Si02
#       5
#     8   8   8   8   8
#     4  12  24  41  69  98 131 173 218 272 326 387
#     4  12  26  42  67  97 138 171 219 275 330 382
#     4  11  23  42  70  97 128 175 225 267 322 393
#     4  11  25  46  70  96 132 177 220 266 325 393
#     4  10  23  43  67  98 133 168 218 274 325 386
#
# _framework density 21.899782999999999
#
# number of rings (size 3 to 8) (size 9 to 14) (size 15 to 20)
#    0.000    0.800    2.000    5.400    2.800    5.600 
#    3.600    3.000    0.000    0.000    0.000    0.000 
#    0.000    0.000    0.000    0.000    0.000    0.000 
#
# Total GULP energy -111981.769423 kJ/mol
# GULP energy per Si atom -5599.088471 kJ/mol
# Density = 2.184994 g / cm^3
# Si number density = 21.899783 Si / 1000 Ang^3
#
#
#
# Elastic Constant Matrix: (Units=GPa)
#
#
# Indices 1 2 3 4 5 6 
#
# 1 66.4422 10.8188 2.7339 0.0005 -15.8315 0.0004
# 2 10.8188 71.8664 20.1616 0.0000 1.2600 0.0000
# 3 2.7339 20.1616 103.5927 0.0002 -17.9100 0.0002
# 4 0.0005 0.0000 0.0002 1782.8554 0.0006 1338.6087
# 5 -15.8315 1.2600 -17.9100 0.0006 41.0496 0.0005
# 6 0.0004 0.0000 0.0002 1338.6087 0.0005 1079.1780
#
#
#
# Elastic Compliance Matrix: (Units=1/GPa)
#
#
# Indices 1 2 3 4 5 6 
#
# 1 0.017259 -0.003128 0.001428 0.000000 0.007375 0.000000
# 2 -0.003128 0.015415 -0.003470 0.000000 -0.003193 0.000000
# 3 0.001428 -0.003470 0.011253 0.000000 0.005567 0.000000
# 4 0.000000 0.000000 0.000000 0.008167 0.000000 -0.010130
# 5 0.007375 -0.003193 0.005567 0.000000 0.029732 0.000000
# 6 0.000000 0.000000 0.000000 -0.010130 0.000000 0.013492
#
#
# Mechanical properties :
#
#
# Convention : Reuss Voigt Hill
#
# Bulk Modulus (GPa) = 29.77243 34.36999 32.07121
# Shear Modulus (GPa) = 42.78908 594.49574 318.64241
#
# Velocity S-wave (km/s) = 4.42504 16.49398 12.07543
# Velocity P-wave (km/s) = 6.30336 19.45413 14.46022
#
# Compressibility (1/GPa) = 0.03358812
#
# Stress axis : x y z
#
# Youngs Moduli (GPa) = 57.94210 64.87179 88.86295
#
# Poissons Ratio (x) = 0.20293 -0.12694
# Poissons Ratio (y) = 0.18125 0.30833
# Poissons Ratio (z) = -0.08277 0.22508
#
# Static dielectric constant tensor:
#      x y z
#    x 1.792980 0.000000 0.020080 
#    y 0.000000 1.765020 0.000000 
#    z 0.020080 0.000000 1.781860 
# 
# From -- ./inp_files/145852.got.cif
#   From: 2010.05.17/outbox.cif.g08.bks.cpg/sg12_73_cif.got.tgz:145852.got - 2010.06.03 13:09:07.
