data_PCOD9217740
_publ_section_title
;
Structure prediction by ZEFSAII (Michael W. Deem and Ramdas Pophale) SiO2 
 PCOD9217740
Probable space group: C 2/M
;
_chemical_formula_sum "Si O2"
_cell_formula_units_Z 40
_cell_length_a 24.007634
_cell_length_b 13.952954
_cell_length_c 5.027804
_cell_angle_alpha 90.000000
_cell_angle_beta 66.037132
_cell_angle_gamma 90.000000
_cell_volume 1539.037595
_symmetry_space_group_name_H-M "C 2/M"
_symmetry_group_IT_number 12
_symmetry_cell_setting 'monoclinic'
loop_
_space_group_symop_operation_xyz
x,y,z
-x,y,-z
-x,-y,-z
x,-y,z
1/2+x,1/2+y,z
1/2-x,1/2+y,-z
1/2-x,1/2-y,-z
1/2+x,1/2-y,z
loop_
_atom_site_type_symbol
_atom_site_label
_atom_site_fract_x
_atom_site_fract_y
_atom_site_fract_z
Si Si1 0.930718 0.500000 0.733690
Si Si2 0.068120 0.205646 0.456460
Si Si3 0.194986 0.000000 0.555326
Si Si4 0.687716 0.000000 0.291343
Si Si5 0.260779 0.837316 0.172170
Si Si6 0.064662 0.000000 0.727890
Si Si7 0.383260 0.809133 0.122197
O O1 0.885669 0.500000 0.558792
O O2 0.913770 0.405771 0.943115
O O3 0.000000 0.500000 0.500000
O O4 0.067856 0.095716 0.546811
O O5 0.109065 0.229701 0.123114
O O6 0.000000 0.231069 0.500000
O O7 0.086458 0.271455 0.669437
O O8 0.203649 0.900405 0.377031
O O9 0.257813 0.000000 0.601362
O O10 0.125985 0.000000 0.792379
O O11 0.701690 0.090059 0.082466
O O12 0.250000 0.750000 0.000000
O O13 0.310030 0.816205 0.307996
O O14 0.000000 0.000000 0.000000
#
# Coordination Sequence:
#
# PCOD9217740 Si02
#       7
#     4   8   4   4   8   4   8
#     4  10  23  46  73 107 157 202 248 315 390 459
#     4  12  27  51  75 113 156 201 263 327 386 468
#     4  11  25  47  75 107 154 198 265 323 380 479
#     4   9  23  42  67 110 144 189 258 311 372 470
#     4  10  23  44  72 106 148 199 249 317 387 458
#     4  12  28  51  81 113 150 209 262 336 406 461
#     4  11  26  46  78 113 154 204 258 316 387 467
#
# _framework density 25.990266999999999
#
# number of rings (size 3 to 8) (size 9 to 14) (size 15 to 20)
#    0.000    1.200    0.000    4.500    8.400    2.400 
#    7.200    3.500    0.000    0.000    0.000    0.000 
#    0.000    0.000    0.000    0.000    0.000    0.000 
#
# Total GULP energy -112048.994312 kJ/mol
# GULP energy per Si atom -5602.449716 kJ/mol
# Density = 2.593111 g / cm^3
# Si number density = 25.990267 Si / 1000 Ang^3
#
#
#
# Elastic Constant Matrix: (Units=GPa)
#
#
# Indices 1 2 3 4 5 6 
#
# 1 236.8169 58.5629 69.3109 0.0000 -6.5095 0.0000
# 2 58.5629 156.9497 31.5812 0.0000 9.0510 0.0000
# 3 69.3109 31.5812 99.0908 0.0000 3.1162 0.0000
# 4 0.0000 0.0000 0.0000 -28.0209 0.0000 122.6038
# 5 -6.5095 9.0510 3.1162 0.0000 55.3177 0.0000
# 6 0.0000 0.0000 0.0000 122.6038 0.0000 -237.0341
#
#
#
# Elastic Compliance Matrix: (Units=1/GPa)
#
#
# Indices 1 2 3 4 5 6 
#
# 1 0.005644 -0.001462 -0.003516 0.000000 0.001101 0.000000
# 2 -0.001462 0.007242 -0.001245 0.000000 -0.001287 0.000000
# 3 -0.003516 -0.001245 0.012978 0.000000 -0.000941 0.000000
# 4 0.000000 0.000000 0.000000 0.028253 0.000000 0.014613
# 5 0.001101 -0.001287 -0.000941 0.000000 0.018471 0.000000
# 6 0.000000 0.000000 0.000000 0.014613 0.000000 0.003340
#
#
# Mechanical properties :
#
#
# Convention : Reuss Voigt Hill
#
# Bulk Modulus (GPa) = 74.53383 90.19636 82.36510
# Shear Modulus (GPa) = 53.85356 -19.72064 17.06646
#
# Velocity S-wave (km/s) = 4.55693 -2.75757 2.56529
# Velocity P-wave (km/s) = 7.51182 4.96390 6.36662
#
# Compressibility (1/GPa) = 0.01341673
#
# Stress axis : x y z
#
# Youngs Moduli (GPa) = 177.19331 138.09041 77.05545
#
# Poissons Ratio (x) = 0.20186 0.27095
# Poissons Ratio (y) = 0.25902 0.09594
# Poissons Ratio (z) = 0.62306 0.17193
#
# Static dielectric constant tensor:
#      x y z
#    x 2.165940 0.000000 0.004080 
#    y 0.000000 2.045120 0.000000 
#    z 0.004080 0.000000 2.027000 
# 
# From -- ./inp_files/24243.got.cif
#   From: 2010.05.17/outbox.cif.g08.bks.cpg/sg12_13_cif.got.tgz:24243.got - 2010.06.03 13:09:07.
