data_PCOD9217737
_publ_section_title
;
Structure prediction by ZEFSAII (Michael W. Deem and Ramdas Pophale) SiO2 
 PCOD9217737
Probable space group: C 2/M
;
_chemical_formula_sum "Si O2"
_cell_formula_units_Z 42
_cell_length_a 19.844448
_cell_length_b 18.897171
_cell_length_c 5.658356
_cell_angle_alpha 90.000000
_cell_angle_beta 70.004320
_cell_angle_gamma 90.000000
_cell_volume 1993.993862
_symmetry_space_group_name_H-M "C 2/M"
_symmetry_group_IT_number 12
_symmetry_cell_setting 'monoclinic'
loop_
_space_group_symop_operation_xyz
x,y,z
-x,y,-z
-x,-y,-z
x,-y,z
1/2+x,1/2+y,z
1/2-x,1/2+y,-z
1/2-x,1/2-y,-z
1/2+x,1/2-y,z
loop_
_atom_site_type_symbol
_atom_site_label
_atom_site_fract_x
_atom_site_fract_y
_atom_site_fract_z
Si Si1 0.687549 0.075987 0.477309
Si Si2 0.183311 0.301961 0.855441
Si Si3 0.306306 0.351677 0.061123
Si Si4 0.567423 0.118511 0.267133
Si Si5 0.538831 0.414476 0.204508
Si Si6 0.000000 0.500000 0.000000
O O1 0.676627 0.143643 0.651779
O O2 0.761780 0.088697 0.252323
O O3 0.622352 0.078130 0.373330
O O4 0.686922 0.000000 0.604629
O O5 0.185793 0.219547 0.792157
O O6 0.254899 0.325570 0.910136
O O7 0.114304 0.318390 0.100878
O O8 0.382634 0.380043 0.891551
O O9 0.500000 0.144030 0.500000
O O10 0.539390 0.062494 0.110719
O O11 0.500000 0.395169 0.500000
O O12 0.544904 0.500000 0.196481
O O13 0.500000 0.395219 0.000000
#
# Coordination Sequence:
#
# PCOD9217737 Si02
#       6
#     8   8   8   8   8   2
#     4  11  23  40  66  99 129 172 231 277 334 403
#     4  10  24  42  66  93 135 175 224 277 334 410
#     4  10  23  45  65  96 132 180 219 279 346 414
#     4  11  24  39  61  94 130 175 222 272 330 395
#     4  10  23  44  72 105 136 173 229 289 352 419
#     4  12  22  40  64  86 140 176 212 280 324 396
#
# _framework density 21.063254000000001
#
# number of rings (size 3 to 8) (size 9 to 14) (size 15 to 20)
#    0.000    1.524    0.952    2.571    6.667    2.286 
#    5.143    0.000    0.000    0.000    0.000    0.000 
#    0.000    0.000    0.000    0.000    0.000    0.000 
#
# Total GULP energy -117064.970191 kJ/mol
# GULP energy per Si atom -5574.522390 kJ/mol
# Density = 2.101531 g / cm^3
# Si number density = 21.063254 Si / 1000 Ang^3
#
#
#
# Elastic Constant Matrix: (Units=GPa)
#
#
# Indices 1 2 3 4 5 6 
#
# 1 141.2512 48.4779 80.9025 0.0000 -18.0830 0.0000
# 2 48.4779 69.3494 32.3095 0.0000 6.8402 0.0000
# 3 80.9025 32.3095 96.7057 0.0000 -18.2211 0.0000
# 4 0.0000 0.0000 0.0000 -0.8603 0.0000 22.1700
# 5 -18.0830 6.8402 -18.2211 0.0000 46.1650 0.0000
# 6 0.0000 0.0000 0.0000 22.1700 0.0000 -7.4432
#
#
#
# Elastic Compliance Matrix: (Units=1/GPa)
#
#
# Indices 1 2 3 4 5 6 
#
# 1 0.015558 -0.006351 -0.010337 0.000000 0.002955 0.000000
# 2 -0.006351 0.020893 -0.002937 0.000000 -0.006743 0.000000
# 3 -0.010337 -0.002937 0.020839 0.000000 0.004611 0.000000
# 4 0.000000 0.000000 0.000000 0.015343 0.000000 0.045701
# 5 0.002955 -0.006743 0.004611 0.000000 0.025638 0.000000
# 6 0.000000 0.000000 0.000000 0.045701 0.000000 0.001773
#
#
# Mechanical properties :
#
#
# Convention : Reuss Voigt Hill
#
# Bulk Modulus (GPa) = 55.43708 70.07623 62.75666
# Shear Modulus (GPa) = 34.40924 17.28007 25.84465
#
# Velocity S-wave (km/s) = 4.04618 2.86735 3.50666
# Velocity P-wave (km/s) = 6.94300 6.65612 6.80107
#
# Compressibility (1/GPa) = 0.01803847
#
# Stress axis : x y z
#
# Youngs Moduli (GPa) = 64.27422 47.86228 47.98777
#
# Poissons Ratio (x) = 0.30399 0.49605
# Poissons Ratio (y) = 0.40823 0.14096
# Poissons Ratio (z) = 0.66440 0.14059
#
# Static dielectric constant tensor:
#      x y z
#    x 1.741150 0.000000 -0.012470 
#    y 0.000000 1.751450 0.000000 
#    z -0.012470 0.000000 1.835300 
# 
# From -- ./inp_files/16006.got.cif
#   From: 2010.05.17/outbox.cif.g08.bks.cpg/sg12_9_cif.got.tgz:16006.got - 2010.06.03 13:09:07.
