data_PCOD9217277
_publ_section_title
;
Structure prediction by ZEFSAII (Michael W. Deem and Ramdas Pophale) SiO2 
 PCOD9217277
Probable space group: C 2/M
;
_chemical_formula_sum "Si O2"
_cell_formula_units_Z 56
_cell_length_a 20.886548
_cell_length_b 18.495748
_cell_length_c 20.869171
_cell_angle_alpha 90.000000
_cell_angle_beta 160.297520
_cell_angle_gamma 90.000000
_cell_volume 2717.996586
_symmetry_space_group_name_H-M "C 2/M"
_symmetry_group_IT_number 12
_symmetry_cell_setting 'monoclinic'
loop_
_space_group_symop_operation_xyz
x,y,z
-x,y,-z
-x,-y,-z
x,-y,z
1/2+x,1/2+y,z
1/2-x,1/2+y,-z
1/2-x,1/2-y,-z
1/2+x,1/2-y,z
loop_
_atom_site_type_symbol
_atom_site_label
_atom_site_fract_x
_atom_site_fract_y
_atom_site_fract_z
Si Si1 0.807485 0.419766 0.081641
Si Si2 0.742666 0.779003 0.889406
Si Si3 0.447507 0.359100 0.253464
Si Si4 0.900336 0.709175 0.836777
Si Si5 0.776870 0.583881 0.474583
Si Si6 0.074310 0.327189 0.505106
Si Si7 0.621916 0.414556 0.549602
O O1 0.751555 0.500000 0.050632
O O2 0.722540 0.355395 0.044290
O O3 0.031934 0.413580 0.302678
O O4 0.730965 0.406017 0.938673
O O5 0.612295 0.724388 0.807107
O O6 0.612757 0.794634 0.705063
O O7 0.936152 0.738113 0.056086
O O8 0.615714 0.376973 0.363139
O O9 0.510311 0.381078 0.383801
O O10 0.722896 0.764500 0.664073
O O11 0.814287 0.631187 0.739004
O O12 0.000000 0.708750 0.000000
O O13 0.726157 0.500000 0.417252
O O14 0.827519 0.621714 0.455130
O O15 0.000000 0.364308 0.500000
O O16 0.500000 0.405683 0.500000
O O17 0.652765 0.500000 0.567898
#
# Coordination Sequence:
#
# PCOD9217277 Si02
#       7
#     8   8   8   8   8   8   8
#     4  10  23  42  65  95 135 174 215 267 327 393
#     4  11  24  40  68 101 130 172 227 272 330 396
#     4  12  23  43  69  95 136 177 218 277 330 397
#     4  12  23  41  68  94 129 174 221 275 333 399
#     4  10  24  43  67  99 135 177 222 273 335 398
#     4  11  22  43  68  98 135 172 220 282 331 393
#     4  11  25  45  67  95 132 176 224 278 341 399
#
# _framework density 20.603411000000001
#
# number of rings (size 3 to 8) (size 9 to 14) (size 15 to 20)
#    0.000    1.000    2.857    3.857    2.000    2.857 
#    0.000    1.429    0.000    0.857    0.000    0.000 
#    0.000    0.000    0.000    0.000    0.000    0.000 
#
# Total GULP energy -156531.185371 kJ/mol
# GULP energy per Si atom -5590.399478 kJ/mol
# Density = 2.055652 g / cm^3
# Si number density = 20.603411 Si / 1000 Ang^3
#
#
#
# Elastic Constant Matrix: (Units=GPa)
#
#
# Indices 1 2 3 4 5 6 
#
# 1 108.1900 61.2582 42.4017 0.1606 -5.1951 0.0564
# 2 61.2582 144.8653 49.4341 0.4796 4.0900 0.1632
# 3 42.4017 49.4341 111.6102 0.7429 -24.8304 0.2628
# 4 0.1606 0.4796 0.7429 -481.1602 0.2918 -173.6902
# 5 -5.1951 4.0900 -24.8304 0.2918 32.7061 0.1017
# 6 0.0564 0.1632 0.2628 -173.6902 0.1017 -39.5397
#
#
#
# Elastic Compliance Matrix: (Units=1/GPa)
#
#
# Indices 1 2 3 4 5 6 
#
# 1 0.012925 -0.004526 -0.002795 -0.000004 0.000497 -0.000002
# 2 -0.004526 0.010311 -0.003964 -0.000001 -0.005018 0.000002
# 3 -0.002795 -0.003964 0.014184 0.000022 0.010820 0.000003
# 4 -0.000004 -0.000001 0.000022 0.003548 0.000033 -0.015587
# 5 0.000497 -0.005018 0.010820 0.000033 0.039496 0.000007
# 6 -0.000002 0.000002 0.000003 -0.015587 0.000007 0.043179
#
#
# Mechanical properties :
#
#
# Convention : Reuss Voigt Hill
#
# Bulk Modulus (GPa) = 67.33643 74.53928 70.93785
# Shear Modulus (GPa) = 33.07683 -83.49397 -25.20857
#
# Velocity S-wave (km/s) = 4.01110 -6.37278 -3.50167
# Velocity P-wave (km/s) = 7.36240 4.23002 4.26098
#
# Compressibility (1/GPa) = 0.01485080
#
# Stress axis : x y z
#
# Youngs Moduli (GPa) = 77.37075 96.98409 70.49984
#
# Poissons Ratio (x) = 0.43891 0.19706
# Poissons Ratio (y) = 0.35015 0.27945
# Poissons Ratio (z) = 0.21627 0.38443
#
# Static dielectric constant tensor:
#      x y z
#    x 1.742190 -0.000010 -0.009460 
#    y -0.000010 1.726870 -0.000010 
#    z -0.009460 -0.000010 1.744430 
# 
# From -- ./inp_files/322736.got.cif
#   From: 2010.05.17/outbox.cif.g08.bks.cpg/sg12_162_cif.got.tgz:322736.got - 2010.06.03 13:09:07.
