data_PCOD9217617
_publ_section_title
;
Structure prediction by ZEFSAII (Michael W. Deem and Ramdas Pophale) SiO2 
 PCOD9217617
Probable space group: C 2/M
;
_chemical_formula_sum "Si O2"
_cell_formula_units_Z 36
_cell_length_a 16.939072
_cell_length_b 15.476417
_cell_length_c 14.078210
_cell_angle_alpha 90.000000
_cell_angle_beta 148.667078
_cell_angle_gamma 90.000000
_cell_volume 1919.195285
_symmetry_space_group_name_H-M "C 2/M"
_symmetry_group_IT_number 12
_symmetry_cell_setting 'monoclinic'
loop_
_space_group_symop_operation_xyz
x,y,z
-x,y,-z
-x,-y,-z
x,-y,z
1/2+x,1/2+y,z
1/2-x,1/2+y,-z
1/2-x,1/2-y,-z
1/2+x,1/2-y,z
loop_
_atom_site_type_symbol
_atom_site_label
_atom_site_fract_x
_atom_site_fract_y
_atom_site_fract_z
Si Si1 0.761131 0.669331 0.625470
Si Si2 0.829900 0.500000 0.363326
Si Si3 0.840544 0.856492 0.696382
Si Si4 0.967009 0.500000 0.856710
Si Si5 0.682796 0.500000 0.822904
Si Si6 0.500000 0.370060 0.500000
Si Si7 0.409942 0.500000 0.052330
O O1 0.850654 0.757658 0.739516
O O2 0.695158 0.658107 0.451510
O O3 0.867269 0.585372 0.739224
O O4 0.620517 0.673109 0.553758
O O5 0.787771 0.415242 0.383421
O O6 0.000000 0.500000 0.500000
O O7 0.724387 0.500000 0.161327
O O8 0.988653 0.914954 0.861340
O O9 0.000000 0.500000 0.000000
O O10 0.134358 0.500000 0.983144
O O11 0.609594 0.422551 0.685685
O O12 0.628724 0.500000 0.875923
#
# Coordination Sequence:
#
# PCOD9217617 Si02
#       7
#     8   4   8   4   4   4   4
#     4  11  23  40  67  95 130 161 213 262 319 380
#     4  11  26  43  67  92 124 175 222 268 310 372
#     4  10  23  44  65  91 125 171 211 258 320 376
#     4  12  22  36  57  97 128 164 197 259 317 373
#     4  11  22  37  64  95 124 166 214 259 320 374
#     4  11  20  40  64  93 132 162 206 261 318 391
#     4  11  22  45  67  89 126 176 216 257 317 387
#
# _framework density 18.757860999999998
#
# number of rings (size 3 to 8) (size 9 to 14) (size 15 to 20)
#    0.000    1.111    4.444    3.333    4.667    1.778 
#    0.000    1.111    0.000    0.000    0.000    0.000 
#    0.000    0.000    0.000    0.000    0.000    0.000 
#
# Total GULP energy -100276.216890 kJ/mol
# GULP energy per Si atom -5570.900938 kJ/mol
# Density = 1.871517 g / cm^3
# Si number density = 18.757861 Si / 1000 Ang^3
#
#
#
# Elastic Constant Matrix: (Units=GPa)
#
#
# Indices 1 2 3 4 5 6 
#
# 1 137.7639 43.2294 46.5759 0.0000 10.1335 0.0000
# 2 43.2294 157.6550 54.8268 0.0000 17.9666 0.0000
# 3 46.5759 54.8268 94.7081 0.0000 15.2761 0.0000
# 4 0.0000 0.0000 0.0000 1.0159 0.0000 3.5713
# 5 10.1335 17.9666 15.2761 0.0000 40.1350 0.0000
# 6 0.0000 0.0000 0.0000 3.5713 0.0000 -6.1910
#
#
#
# Elastic Compliance Matrix: (Units=1/GPa)
#
#
# Indices 1 2 3 4 5 6 
#
# 1 0.008873 -0.001121 -0.003659 0.000000 -0.000346 0.000000
# 2 -0.001121 0.008225 -0.003902 0.000000 -0.001914 0.000000
# 3 -0.003659 -0.003902 0.015114 0.000000 -0.003082 0.000000
# 4 0.000000 0.000000 0.000000 0.325095 0.000000 0.187531
# 5 -0.000346 -0.001914 -0.003082 0.000000 0.027033 0.000000
# 6 0.000000 0.000000 0.000000 0.187531 0.000000 -0.053348
#
#
# Mechanical properties :
#
#
# Convention : Reuss Voigt Hill
#
# Bulk Modulus (GPa) = 67.34381 75.48792 71.41586
# Shear Modulus (GPa) = 14.15208 23.35831 18.75519
#
# Velocity S-wave (km/s) = 2.74973 3.53264 3.16548
# Velocity P-wave (km/s) = 6.78682 7.54786 7.17743
#
# Compressibility (1/GPa) = 0.01484918
#
# Stress axis : x y z
#
# Youngs Moduli (GPa) = 112.70105 121.57524 66.16443
#
# Poissons Ratio (x) = 0.13631 0.24208
# Poissons Ratio (y) = 0.12636 0.25815
# Poissons Ratio (z) = 0.41235 0.47433
#
# Static dielectric constant tensor:
#      x y z
#    x 1.656910 0.000000 -0.009180 
#    y 0.000000 1.663530 0.000000 
#    z -0.009180 0.000000 1.599710 
# 
# From -- ./inp_files/216210.got.cif
#   From: 2010.05.17/outbox.cif.g08.bks.cpg/sg12_109_cif.got.tgz:216210.got - 2010.06.03 13:09:07.
