data_PCOD9217950
_publ_section_title
;
Structure prediction by ZEFSAII (Michael W. Deem and Ramdas Pophale) SiO2 
 PCOD9217950
Probable space group: C 2/M
;
_chemical_formula_sum "Si O2"
_cell_formula_units_Z 58
_cell_length_a 19.590101
_cell_length_b 18.031895
_cell_length_c 9.151643
_cell_angle_alpha 90.000000
_cell_angle_beta 49.581438
_cell_angle_gamma 90.000000
_cell_volume 2461.212359
_symmetry_space_group_name_H-M "C 2/M"
_symmetry_group_IT_number 12
_symmetry_cell_setting 'monoclinic'
loop_
_space_group_symop_operation_xyz
x,y,z
-x,y,-z
-x,-y,-z
x,-y,z
1/2+x,1/2+y,z
1/2-x,1/2+y,-z
1/2-x,1/2-y,-z
1/2+x,1/2-y,z
loop_
_atom_site_type_symbol
_atom_site_label
_atom_site_fract_x
_atom_site_fract_y
_atom_site_fract_z
Si Si1 0.158426 0.581311 0.674548
Si Si2 0.352948 0.234647 0.402549
Si Si3 0.393758 0.176028 0.663660
Si Si4 0.258423 0.583761 0.231519
Si Si5 0.862493 0.814641 0.886811
Si Si6 0.500000 0.500000 0.000000
Si Si7 0.548413 0.377260 0.694093
Si Si8 0.205415 0.081863 0.256543
O O1 0.113947 0.500000 0.722585
O O2 0.108863 0.658628 0.719187
O O3 0.231205 0.584669 0.440020
O O4 0.208793 0.585253 0.757968
O O5 0.250000 0.250000 0.500000
O O6 0.362634 0.223202 0.563940
O O7 0.410607 0.305365 0.285077
O O8 0.500000 0.162931 0.500000
O O9 0.334190 0.101854 0.727172
O O10 0.371943 0.228261 0.833138
O O11 0.294746 0.500000 0.154355
O O12 0.323116 0.650594 0.091281
O O13 0.800274 0.854296 0.853569
O O14 0.960354 0.849596 0.733117
O O15 0.524001 0.436755 0.846126
O O16 0.621385 0.407985 0.480577
O O17 0.201354 0.000000 0.193639
#
# Coordination Sequence:
#
# PCOD9217950 Si02
#       8
#     8   8   8   8   8   2   8   8
#     4   9  20  38  64  93 128 169 224 284 327 389
#     4  11  20  39  66  93 128 177 234 277 326 408
#     4  11  21  41  67  95 129 171 229 281 334 397
#     4  10  24  39  62  98 136 174 219 277 342 397
#     4  12  23  39  61  94 134 171 219 277 339 401
#     4  12  32  40  58  96 142 180 212 282 336 424
#     4  12  25  39  61  89 134 180 223 271 334 397
#     4  11  21  36  61  91 126 175 225 264 328 408
#
# _framework density 23.565621
#
# number of rings (size 3 to 8) (size 9 to 14) (size 15 to 20)
#    0.000    1.103    4.828    1.241    3.862    0.828 
#    0.000    1.379    0.000    0.000    0.000    0.483 
#    0.000    0.552    0.000    0.000    0.000    0.000 
#
# Total GULP energy -161877.875773 kJ/mol
# GULP energy per Si atom -5581.995716 kJ/mol
# Density = 2.351198 g / cm^3
# Si number density = 23.565621 Si / 1000 Ang^3
#
#
#
# Elastic Constant Matrix: (Units=GPa)
#
#
# Indices 1 2 3 4 5 6 
#
# 1 45.4796 15.5603 10.0630 0.0000 -3.7991 0.0000
# 2 15.5603 131.7360 -0.3903 0.0000 -3.2526 0.0000
# 3 10.0630 -0.3903 35.6084 0.0000 6.4261 0.0000
# 4 0.0000 0.0000 0.0000 60.8059 0.0000 2.8605
# 5 -3.7991 -3.2526 6.4261 0.0000 27.4565 0.0000
# 6 0.0000 0.0000 0.0000 2.8605 0.0000 11.7920
#
#
#
# Elastic Compliance Matrix: (Units=1/GPa)
#
#
# Indices 1 2 3 4 5 6 
#
# 1 0.025173 -0.002873 -0.008053 0.000000 0.005027 0.000000
# 2 -0.002873 0.007941 0.000836 0.000000 0.000348 0.000000
# 3 -0.008053 0.000836 0.031899 0.000000 -0.008481 0.000000
# 4 0.000000 0.000000 0.000000 0.016636 0.000000 -0.004035
# 5 0.005027 0.000348 -0.008481 0.000000 0.039143 0.000000
# 6 0.000000 0.000000 0.000000 -0.004035 0.000000 0.085782
#
#
# Mechanical properties :
#
#
# Convention : Reuss Voigt Hill
#
# Bulk Modulus (GPa) = 22.30460 29.25446 25.77953
# Shear Modulus (GPa) = 20.68707 32.51693 26.60200
#
# Velocity S-wave (km/s) = 2.96607 3.71866 3.36348
# Velocity P-wave (km/s) = 4.60603 5.55688 5.10365
#
# Compressibility (1/GPa) = 0.04483380
#
# Stress axis : x y z
#
# Youngs Moduli (GPa) = 39.72574 125.92314 31.34924
#
# Poissons Ratio (x) = 0.36178 0.25244
# Poissons Ratio (y) = 0.11413 -0.02622
# Poissons Ratio (z) = 0.31990 -0.10530
#
# Static dielectric constant tensor:
#      x y z
#    x 1.924430 0.000000 -0.018790 
#    y 0.000000 1.917190 0.000000 
#    z -0.018790 0.000000 1.935800 
# 
# From -- ./inp_files/78002.got.cif
#   From: 2010.05.17/outbox.cif.g08.bks.cpg/sg12_40_cif.got.tgz:78002.got - 2010.06.03 13:09:07.
