data_PCOD9217431
_publ_section_title
;
Structure prediction by ZEFSAII (Michael W. Deem and Ramdas Pophale) SiO2 
 PCOD9217431
Probable space group: C 2/M
;
_chemical_formula_sum "Si O2"
_cell_formula_units_Z 56
_cell_length_a 28.175056
_cell_length_b 9.200450
_cell_length_c 20.534572
_cell_angle_alpha 90.000000
_cell_angle_beta 34.227698
_cell_angle_gamma 90.000000
_cell_volume 2994.118761
_symmetry_space_group_name_H-M "C 2/M"
_symmetry_group_IT_number 12
_symmetry_cell_setting 'monoclinic'
loop_
_space_group_symop_operation_xyz
x,y,z
-x,y,-z
-x,-y,-z
x,-y,z
1/2+x,1/2+y,z
1/2-x,1/2+y,-z
1/2-x,1/2-y,-z
1/2+x,1/2-y,z
loop_
_atom_site_type_symbol
_atom_site_label
_atom_site_fract_x
_atom_site_fract_y
_atom_site_fract_z
Si Si1 0.755362 0.332791 0.242289
Si Si2 0.162150 0.833068 0.095924
Si Si3 0.639952 0.157900 0.003993
Si Si4 0.052177 0.664478 0.777375
Si Si5 0.422126 0.825391 0.540052
Si Si6 0.089697 0.826375 0.861941
Si Si7 0.495841 0.173638 0.315660
O O1 0.748680 0.500000 0.272949
O O2 0.789373 0.336964 0.130020
O O3 0.665352 0.254546 0.346001
O O4 0.830051 0.249380 0.195256
O O5 0.085785 0.753214 0.218740
O O6 0.167309 0.000000 0.107782
O O7 0.250000 0.750000 0.000000
O O8 0.141230 0.803396 0.044405
O O9 0.649911 0.000000 0.028637
O O10 0.544495 0.152803 0.087932
O O11 0.088247 0.500000 0.739056
O O12 0.091723 0.772587 0.784601
O O13 0.045637 0.709132 0.708170
O O14 0.500000 0.784900 0.500000
O O15 0.444856 0.792895 0.438840
O O16 0.411274 0.000000 0.558765
O O17 0.097675 0.000000 0.856474
O O18 0.000000 0.789024 0.000000
O O19 0.509050 0.000000 0.299059
#
# Coordination Sequence:
#
# PCOD9217431 Si02
#       7
#     8   8   8   8   8   8   8
#     4  11  23  39  61  88 122 159 203 250 297 359
#     4  11  22  34  54  82 114 150 193 245 299 357
#     4   9  19  35  54  82 118 154 190 237 295 354
#     4   9  17  34  59  84 117 157 193 233 293 358
#     4  10  23  43  65  88 118 159 204 252 304 354
#     4  11  22  35  57  91 127 158 196 245 301 363
#     4   9  20  40  60  83 117 156 198 244 298 359
#
# _framework density 18.703334000000002
#
# number of rings (size 3 to 8) (size 9 to 14) (size 15 to 20)
#    0.000    2.000    1.429    3.000    2.000    4.857 
#    0.000    0.714    0.000    0.000    0.000    0.000 
#    0.000    0.000    0.000    0.000    0.000    0.000 
#
# Total GULP energy -155922.870074 kJ/mol
# GULP energy per Si atom -5568.673931 kJ/mol
# Density = 1.866076 g / cm^3
# Si number density = 18.703334 Si / 1000 Ang^3
#
#
#
# Elastic Constant Matrix: (Units=GPa)
#
#
# Indices 1 2 3 4 5 6 
#
# 1 55.5361 28.7280 42.5624 -0.0029 -10.0443 0.0010
# 2 28.7280 55.9428 32.8210 -0.0049 -10.6561 0.0059
# 3 42.5624 32.8210 113.2037 -0.0011 1.9698 0.0019
# 4 -0.0029 -0.0049 -0.0011 22.7001 0.0011 -10.5653
# 5 -10.0443 -10.6561 1.9698 0.0011 30.6227 -0.0009
# 6 0.0010 0.0059 0.0019 -10.5653 -0.0009 26.2405
#
#
#
# Elastic Compliance Matrix: (Units=1/GPa)
#
#
# Indices 1 2 3 4 5 6 
#
# 1 0.031173 -0.009159 -0.009198 0.000002 0.007629 0.000003
# 2 -0.009159 0.026328 -0.004302 0.000002 0.006434 -0.000004
# 3 -0.009198 -0.004302 0.013633 -0.000001 -0.005391 0.000000
# 4 0.000002 0.000002 -0.000001 0.054212 0.000000 0.021828
# 5 0.007629 0.006434 -0.005391 0.000000 0.037744 0.000000
# 6 0.000003 -0.000004 0.000000 0.021828 0.000000 0.046897
#
#
# Mechanical properties :
#
#
# Convention : Reuss Voigt Hill
#
# Bulk Modulus (GPa) = 38.73350 48.10061 43.41706
# Shear Modulus (GPa) = 18.94593 23.95074 21.44833
#
# Velocity S-wave (km/s) = 3.18617 3.58237 3.39007
# Velocity P-wave (km/s) = 5.85576 6.54864 6.21187
#
# Compressibility (1/GPa) = 0.02581744
#
# Stress axis : x y z
#
# Youngs Moduli (GPa) = 32.07910 37.98243 73.35222
#
# Poissons Ratio (x) = 0.34786 0.67468
# Poissons Ratio (y) = 0.29380 0.31554
# Poissons Ratio (z) = 0.29506 0.16339
#
# Static dielectric constant tensor:
#      x y z
#    x 1.808920 0.000000 -0.023710 
#    y 0.000000 1.612130 0.000000 
#    z -0.023710 0.000000 1.652220 
# 
# From -- ./inp_files/329484.got.cif
#   From: 2010.05.17/outbox.cif.g08.bks.cpg/sg12_165_cif.got.tgz:329484.got - 2010.06.03 13:09:07.
