data_PCOD9217309
_publ_section_title
;
Structure prediction by ZEFSAII (Michael W. Deem and Ramdas Pophale) SiO2 
 PCOD9217309
Probable space group: C 2/M
;
_chemical_formula_sum "Si O2"
_cell_formula_units_Z 40
_cell_length_a 25.562087
_cell_length_b 7.669367
_cell_length_c 9.150184
_cell_angle_alpha 90.000000
_cell_angle_beta 80.729166
_cell_angle_gamma 90.000000
_cell_volume 1770.416555
_symmetry_space_group_name_H-M "C 2/M"
_symmetry_group_IT_number 12
_symmetry_cell_setting 'monoclinic'
loop_
_space_group_symop_operation_xyz
x,y,z
-x,y,-z
-x,-y,-z
x,-y,z
1/2+x,1/2+y,z
1/2-x,1/2+y,-z
1/2-x,1/2-y,-z
1/2+x,1/2-y,z
loop_
_atom_site_type_symbol
_atom_site_label
_atom_site_fract_x
_atom_site_fract_y
_atom_site_fract_z
Si Si1 0.469519 0.000000 0.749696
Si Si2 0.253216 0.705202 0.329958
Si Si3 0.918808 0.208611 0.954970
Si Si4 0.082557 0.500000 0.537454
Si Si5 0.373109 0.294437 0.287075
Si Si6 0.194242 0.806016 0.093669
O O1 0.460611 0.169782 0.854638
O O2 0.526405 0.000000 0.647086
O O3 0.428750 0.000000 0.629820
O O4 0.245456 0.500000 0.310041
O O5 0.250000 0.750000 0.500000
O O6 0.313584 0.750270 0.258777
O O7 0.208242 0.799206 0.257687
O O8 0.861882 0.276300 0.917594
O O9 0.927135 0.000000 0.923007
O O10 0.912369 0.231248 0.132180
O O11 0.112794 0.670136 0.584864
O O12 0.372982 0.500000 0.325650
O O13 0.186252 0.000000 0.041041
O O14 0.250000 0.750000 0.000000
#
# Coordination Sequence:
#
# PCOD9217309 Si02
#       6
#     4   8   8   4   8   8
#     4  11  27  47  69  97 125 169 219 279 340 389
#     4  11  24  38  57  92 133 173 212 253 312 378
#     4  10  23  42  66  98 131 169 220 268 321 388
#     4  11  27  47  69  95 129 167 219 277 342 391
#     4  10  23  43  66  96 133 170 216 271 323 387
#     4  11  22  36  59  92 129 171 210 253 309 373
#
# _framework density 22.593551999999999
#
# number of rings (size 3 to 8) (size 9 to 14) (size 15 to 20)
#    0.000    1.400    2.000    1.800    8.400    3.200 
#    0.000    4.000    0.000    0.000    0.000    0.000 
#    0.000    0.000    0.000    0.000    0.000    0.000 
#
# Total GULP energy -111793.592600 kJ/mol
# GULP energy per Si atom -5589.679630 kJ/mol
# Density = 2.254213 g / cm^3
# Si number density = 22.593552 Si / 1000 Ang^3
#
#
#
# Elastic Constant Matrix: (Units=GPa)
#
#
# Indices 1 2 3 4 5 6 
#
# 1 61.4107 14.9013 -0.3906 0.0000 3.3067 0.0000
# 2 14.9013 85.6716 21.0674 0.0000 -3.1774 0.0000
# 3 -0.3906 21.0674 79.6875 0.0000 -2.5130 0.0000
# 4 0.0000 0.0000 0.0000 27.0304 0.0000 -2.9313
# 5 3.3067 -3.1774 -2.5130 0.0000 41.5439 0.0000
# 6 0.0000 0.0000 0.0000 -2.9313 0.0000 16.0979
#
#
#
# Elastic Compliance Matrix: (Units=1/GPa)
#
#
# Indices 1 2 3 4 5 6 
#
# 1 0.017166 -0.003264 0.000898 0.000000 -0.001562 0.000000
# 2 -0.003264 0.013129 -0.003454 0.000000 0.001055 0.000000
# 3 0.000898 -0.003454 0.013482 0.000000 0.000480 0.000000
# 4 0.000000 0.000000 0.000000 0.037741 0.000000 0.006872
# 5 -0.001562 0.001055 0.000480 0.000000 0.024305 0.000000
# 6 0.000000 0.000000 0.000000 0.006872 0.000000 0.063371
#
#
# Mechanical properties :
#
#
# Convention : Reuss Voigt Hill
#
# Bulk Modulus (GPa) = 31.11799 33.10287 32.11043
# Shear Modulus (GPa) = 26.10354 29.68058 27.89206
#
# Velocity S-wave (km/s) = 3.40274 3.62840 3.51738
# Velocity P-wave (km/s) = 5.40750 5.67776 5.54427
#
# Compressibility (1/GPa) = 0.03213575
#
# Stress axis : x y z
#
# Youngs Moduli (GPa) = 58.25562 76.16904 74.17509
#
# Poissons Ratio (x) = 0.24865 -0.06661
# Poissons Ratio (y) = 0.19017 0.25617
# Poissons Ratio (z) = -0.05231 0.26306
#
# Static dielectric constant tensor:
#      x y z
#    x 1.940780 0.000000 -0.003740 
#    y 0.000000 1.865540 0.000000 
#    z -0.003740 0.000000 1.868050 
# 
# From -- ./inp_files/101042.got.cif
#   From: 2010.05.17/outbox.cif.g08.bks.cpg/sg12_51_cif.got.tgz:101042.got - 2010.06.03 13:09:07.
