data_PCOD9217294
_publ_section_title
;
Structure prediction by ZEFSAII (Michael W. Deem and Ramdas Pophale) SiO2 
 PCOD9217294
Probable space group: C 2/M
;
_chemical_formula_sum "Si O2"
_cell_formula_units_Z 32
_cell_length_a 11.267077
_cell_length_b 14.761150
_cell_length_c 9.619521
_cell_angle_alpha 90.000000
_cell_angle_beta 104.964979
_cell_angle_gamma 90.000000
_cell_volume 1545.609300
_symmetry_space_group_name_H-M "C 2/M"
_symmetry_group_IT_number 12
_symmetry_cell_setting 'monoclinic'
loop_
_space_group_symop_operation_xyz
x,y,z
-x,y,-z
-x,-y,-z
x,-y,z
1/2+x,1/2+y,z
1/2-x,1/2+y,-z
1/2-x,1/2-y,-z
1/2+x,1/2-y,z
loop_
_atom_site_type_symbol
_atom_site_label
_atom_site_fract_x
_atom_site_fract_y
_atom_site_fract_z
Si Si1 0.922272 0.103316 0.767741
Si Si2 0.186954 0.895092 0.991973
Si Si3 0.104821 0.267690 0.419643
Si Si4 0.892657 0.608338 0.853150
O O1 0.933399 0.168352 0.643143
O O2 0.053018 0.103043 0.883842
O O3 0.890358 0.000000 0.722575
O O4 0.826709 0.140019 0.855319
O O5 0.276577 0.854989 0.905561
O O6 0.227302 0.000000 0.021931
O O7 0.250000 0.250000 0.500000
O O8 0.094197 0.336118 0.284962
O O9 0.000000 0.295984 0.500000
O O10 0.880597 0.500000 0.818794
O O11 0.000000 0.618892 0.000000
#
# Coordination Sequence:
#
# PCOD9217294 Si02
#       4
#     8   8   8   8
#     4   9  19  37  64  92 122 158 205 263 312 365
#     4   8  16  35  64  95 114 149 212 263 309 356
#     4  12  28  43  60  96 131 171 212 253 323 384
#     4  10  23  42  66  92 125 169 215 260 310 376
#
# _framework density 20.703811000000002
#
# number of rings (size 3 to 8) (size 9 to 14) (size 15 to 20)
#    0.000    2.250    0.000    3.000    7.000    3.000 
#    0.000    0.000    0.000    0.000    0.000    0.000 
#    0.000    0.000    0.000    0.000    0.000    0.000 
#
# Total GULP energy -89109.715180 kJ/mol
# GULP energy per Si atom -5569.357199 kJ/mol
# Density = 2.065669 g / cm^3
# Si number density = 20.703811 Si / 1000 Ang^3
#
#
#
# Elastic Constant Matrix: (Units=GPa)
#
#
# Indices 1 2 3 4 5 6 
#
# 1 102.5960 26.9025 54.5765 0.0000 -35.8593 0.0000
# 2 26.9025 76.7061 36.3791 0.0000 -9.6327 0.0000
# 3 54.5765 36.3791 96.1568 0.0000 -34.7554 0.0000
# 4 0.0000 0.0000 0.0000 20.4094 0.0000 -27.5602
# 5 -35.8593 -9.6327 -34.7554 0.0000 45.7241 0.0000
# 6 0.0000 0.0000 0.0000 -27.5602 0.0000 -179.8703
#
#
#
# Elastic Compliance Matrix: (Units=1/GPa)
#
#
# Indices 1 2 3 4 5 6 
#
# 1 0.015934 -0.002028 -0.005397 0.000000 0.007967 0.000000
# 2 -0.002028 0.016240 -0.005972 0.000000 -0.002709 0.000000
# 3 -0.005397 -0.005972 0.018942 0.000000 0.008907 0.000000
# 4 0.000000 0.000000 0.000000 0.040597 0.000000 -0.006220
# 5 0.007967 -0.002709 0.008907 0.000000 0.034318 0.000000
# 6 0.000000 0.000000 0.000000 -0.006220 0.000000 -0.004606
#
#
# Mechanical properties :
#
#
# Convention : Reuss Voigt Hill
#
# Bulk Modulus (GPa) = 41.11578 56.79724 48.95651
# Shear Modulus (GPa) = 31.98413 -12.24064 9.87174
#
# Velocity S-wave (km/s) = 3.93471 -2.43415 2.18596
# Velocity P-wave (km/s) = 6.36748 4.42636 5.48349
#
# Compressibility (1/GPa) = 0.02432156
#
# Stress axis : x y z
#
# Youngs Moduli (GPa) = 62.75720 61.57502 52.79358
#
# Poissons Ratio (x) = 0.12490 0.28492
# Poissons Ratio (y) = 0.12730 0.31528
# Poissons Ratio (z) = 0.33870 0.36773
#
# Static dielectric constant tensor:
#      x y z
#    x 1.995680 0.000000 -0.021240 
#    y 0.000000 1.760920 0.000000 
#    z -0.021240 0.000000 1.884820 
# 
# From -- ./inp_files/44917.got.cif
#   From: 2010.05.17/outbox.cif.g08.bks.cpg/sg12_23_cif.got.tgz:44917.got - 2010.06.03 13:09:07.
