data_PCOD9217460
_publ_section_title
;
Structure prediction by ZEFSAII (Michael W. Deem and Ramdas Pophale) SiO2 
 PCOD9217460
Probable space group: C 2/M
;
_chemical_formula_sum "Si O2"
_cell_formula_units_Z 48
_cell_length_a 14.100709
_cell_length_b 27.602465
_cell_length_c 5.366217
_cell_angle_alpha 90.000000
_cell_angle_beta 85.718577
_cell_angle_gamma 90.000000
_cell_volume 2082.780047
_symmetry_space_group_name_H-M "C 2/M"
_symmetry_group_IT_number 12
_symmetry_cell_setting 'monoclinic'
loop_
_space_group_symop_operation_xyz
x,y,z
-x,y,-z
-x,-y,-z
x,-y,z
1/2+x,1/2+y,z
1/2-x,1/2+y,-z
1/2-x,1/2-y,-z
1/2+x,1/2-y,z
loop_
_atom_site_type_symbol
_atom_site_label
_atom_site_fract_x
_atom_site_fract_y
_atom_site_fract_z
Si Si1 0.231137 0.118089 0.371237
Si Si2 0.599252 0.690502 0.594717
Si Si3 0.793834 0.447442 0.722156
Si Si4 0.391584 0.142126 0.974823
Si Si5 0.639280 0.748601 0.085535
Si Si6 0.105653 0.945884 0.079320
O O1 0.182440 0.150285 0.595092
O O2 0.279378 0.067425 0.440193
O O3 0.315505 0.145910 0.216208
O O4 0.142105 0.099780 0.228157
O O5 0.500000 0.670773 0.500000
O O6 0.629473 0.723727 0.355400
O O7 0.593504 0.719850 0.856231
O O8 0.837978 0.500000 0.751958
O O9 0.848454 0.401650 0.822632
O O10 0.687312 0.448870 0.853716
O O11 0.500000 0.127979 0.000000
O O12 0.396463 0.196614 0.872272
O O13 0.750000 0.750000 0.000000
O O14 0.104349 0.000000 0.202661
O O15 0.000000 0.937663 0.000000
#
# Coordination Sequence:
#
# PCOD9217460 Si02
#       6
#     8   8   8   8   8   8
#     4  11  24  40  65  99 134 177 225 283 339 412
#     4  12  27  43  71 105 145 184 228 284 350 416
#     4  10  23  43  65  96 133 172 225 286 345 405
#     4  11  25  45  70  94 130 179 230 281 344 408
#     4  12  25  49  70 103 143 185 232 287 344 411
#     4   9  20  38  62  92 132 180 226 278 340 410
#
# _framework density 23.046119999999998
#
# number of rings (size 3 to 8) (size 9 to 14) (size 15 to 20)
#    0.000    1.167    1.667    3.500    7.000    1.667 
#    0.000    3.333    0.000    0.000    0.000    0.000 
#    0.000    0.000    0.000    0.000    0.000    0.000 
#
# Total GULP energy -133934.119690 kJ/mol
# GULP energy per Si atom -5580.588320 kJ/mol
# Density = 2.299367 g / cm^3
# Si number density = 23.046120 Si / 1000 Ang^3
#
#
#
# Elastic Constant Matrix: (Units=GPa)
#
#
# Indices 1 2 3 4 5 6 
#
# 1 141.7785 41.9337 11.6238 0.0000 13.8450 0.0000
# 2 41.9337 122.1505 37.7520 0.0000 0.0686 0.0000
# 3 11.6238 37.7520 66.2627 0.0000 1.6722 0.0000
# 4 0.0000 0.0000 0.0000 6.5455 0.0000 -15.9204
# 5 13.8450 0.0686 1.6722 0.0000 21.6624 0.0000
# 6 0.0000 0.0000 0.0000 -15.9204 0.0000 19.7120
#
#
#
# Elastic Compliance Matrix: (Units=1/GPa)
#
#
# Indices 1 2 3 4 5 6 
#
# 1 0.008442 -0.003009 0.000370 0.000000 -0.005414 0.000000
# 2 -0.003009 0.011013 -0.005805 0.000000 0.002337 0.000000
# 3 0.000370 -0.005805 0.018375 0.000000 -0.001637 0.000000
# 4 0.000000 0.000000 0.000000 -0.158412 0.000000 -0.127942
# 5 -0.005414 0.002337 -0.001637 0.000000 0.049742 0.000000
# 6 0.000000 0.000000 0.000000 -0.127942 0.000000 -0.052602
#
#
# Mechanical properties :
#
#
# Convention : Reuss Voigt Hill
#
# Bulk Modulus (GPa) = 47.75355 56.97897 52.36626
# Shear Modulus (GPa) = -50.21446 25.50947 -12.35250
#
# Velocity S-wave (km/s) = -4.67290 3.33060 -2.31766
# Velocity P-wave (km/s) = 2.88943 6.29032 3.95091
#
# Compressibility (1/GPa) = 0.02094085
#
# Stress axis : x y z
#
# Youngs Moduli (GPa) = 118.45937 90.80485 54.42102
#
# Poissons Ratio (x) = 0.27327 -0.02016
# Poissons Ratio (y) = 0.35649 0.31593
# Poissons Ratio (z) = -0.04387 0.52715
#
# Static dielectric constant tensor:
#      x y z
#    x 1.881480 0.000000 0.046030 
#    y 0.000000 1.924600 0.000000 
#    z 0.046030 0.000000 1.962700 
# 
# From -- ./inp_files/12369.got.cif
#   From: 2010.05.17/outbox.cif.g08.bks.cpg/sg12_7_cif.got.tgz:12369.got - 2010.06.03 13:09:07.
