data_PCOD9217386
_publ_section_title
;
Structure prediction by ZEFSAII (Michael W. Deem and Ramdas Pophale) SiO2 
 PCOD9217386
Probable space group: C 2/M
;
_chemical_formula_sum "Si O2"
_cell_formula_units_Z 46
_cell_length_a 13.768801
_cell_length_b 29.365689
_cell_length_c 13.807838
_cell_angle_alpha 90.000000
_cell_angle_beta 21.283014
_cell_angle_gamma 90.000000
_cell_volume 2026.463192
_symmetry_space_group_name_H-M "C 2/M"
_symmetry_group_IT_number 12
_symmetry_cell_setting 'monoclinic'
loop_
_space_group_symop_operation_xyz
x,y,z
-x,y,-z
-x,-y,-z
x,-y,z
1/2+x,1/2+y,z
1/2-x,1/2+y,-z
1/2-x,1/2-y,-z
1/2+x,1/2-y,z
loop_
_atom_site_type_symbol
_atom_site_label
_atom_site_fract_x
_atom_site_fract_y
_atom_site_fract_z
Si Si1 0.091624 0.633639 0.803151
Si Si2 0.608503 0.425694 0.255819
Si Si3 0.004920 0.282368 0.750358
Si Si4 0.000000 0.922523 0.000000
Si Si5 0.000000 0.500000 0.000000
Si Si6 0.759729 0.452324 0.572651
Si Si7 0.573503 0.136275 0.318925
O O1 0.366051 0.604897 0.528700
O O2 0.090239 0.683619 0.757904
O O3 0.000000 0.637397 0.000000
O O4 0.834827 0.606770 0.000514
O O5 0.468584 0.451594 0.296882
O O6 0.781861 0.460043 0.163795
O O7 0.945134 0.317063 0.718869
O O8 0.250000 0.250000 0.500000
O O9 0.750000 0.250000 0.000000
O O10 0.824959 0.951809 0.235737
O O11 0.856984 0.888221 0.059278
O O12 0.916260 0.500000 0.410077
O O13 0.894125 0.403252 0.439153
O O14 0.500000 0.142111 0.500000
#
# Coordination Sequence:
#
# PCOD9217386 Si02
#       7
#     8   8   8   4   2   8   8
#     4  12  27  50  76 108 152 206 257 329 399 463
#     4  12  26  48  77 107 163 206 266 323 390 464
#     4  12  28  48  80 112 150 196 261 324 403 482
#     4  10  23  42  74 107 148 199 252 320 381 470
#     4  12  28  50  78 124 152 222 280 322 380 494
#     4  11  23  43  71 110 152 205 252 315 382 470
#     4  10  24  45  75 103 154 191 252 316 391 457
#
# _framework density 22.699648
#
# number of rings (size 3 to 8) (size 9 to 14) (size 15 to 20)
#    0.000    0.696    3.478    2.870    4.870    6.609 
#    0.000    0.000    0.000    0.000    0.000    0.000 
#    0.000    0.000    0.000    0.000    0.000    0.000 
#
# Total GULP energy -128105.058012 kJ/mol
# GULP energy per Si atom -5569.785131 kJ/mol
# Density = 2.264798 g / cm^3
# Si number density = 22.699648 Si / 1000 Ang^3
#
#
#
# Elastic Constant Matrix: (Units=GPa)
#
#
# Indices 1 2 3 4 5 6 
#
# 1 137.2881 75.1378 52.5358 0.0007 -7.3272 -0.0033
# 2 75.1378 240.9841 98.6699 -0.0024 -6.3259 0.0010
# 3 52.5358 98.6699 157.7954 0.0261 -9.6967 -0.0033
# 4 0.0007 -0.0024 0.0261 26.8861 0.0060 -6.2888
# 5 -7.3272 -6.3259 -9.6967 0.0060 45.0854 0.0094
# 6 -0.0033 0.0010 -0.0033 -6.2888 0.0094 16.8380
#
#
#
# Elastic Compliance Matrix: (Units=1/GPa)
#
#
# Indices 1 2 3 4 5 6 
#
# 1 0.009136 -0.002154 -0.001644 0.000001 0.000829 0.000002
# 2 -0.002154 0.006085 -0.003098 0.000004 -0.000163 0.000000
# 3 -0.001644 -0.003098 0.008896 -0.000010 0.001212 -0.000003
# 4 0.000001 0.000004 -0.000010 0.040754 -0.000010 0.015221
# 5 0.000829 -0.000163 0.001212 -0.000010 0.022553 -0.000016
# 6 0.000002 0.000000 -0.000003 0.015221 -0.000016 0.065075
#
#
# Mechanical properties :
#
#
# Convention : Reuss Voigt Hill
#
# Bulk Modulus (GPa) = 96.84247 109.86161 103.35204
# Shear Modulus (GPa) = 29.45800 38.41018 33.93409
#
# Velocity S-wave (km/s) = 3.60631 4.11798 3.87061
# Velocity P-wave (km/s) = 7.75215 8.43287 8.09967
#
# Compressibility (1/GPa) = 0.01032605
#
# Stress axis : x y z
#
# Youngs Moduli (GPa) = 109.45676 164.32711 112.40432
#
# Poissons Ratio (x) = 0.35390 0.18480
# Poissons Ratio (y) = 0.23573 0.34825
# Poissons Ratio (z) = 0.17996 0.50912
#
# Static dielectric constant tensor:
#      x y z
#    x 1.814700 -0.000030 0.007830 
#    y -0.000030 1.765710 0.000010 
#    z 0.007830 0.000010 1.924410 
# 
# From -- ./inp_files/219583.got.cif
#   From: 2010.05.17/outbox.cif.g08.bks.cpg/sg12_110_cif.got.tgz:219583.got - 2010.06.03 13:09:07.
