data_PCOD9217296
_publ_section_title
;
Structure prediction by ZEFSAII (Michael W. Deem and Ramdas Pophale) SiO2 
 PCOD9217296
Probable space group: C 2/M
;
_chemical_formula_sum "Si O2"
_cell_formula_units_Z 56
_cell_length_a 9.843763
_cell_length_b 25.371038
_cell_length_c 19.880546
_cell_angle_alpha 90.000000
_cell_angle_beta 35.343564
_cell_angle_gamma 90.000000
_cell_volume 2872.199063
_symmetry_space_group_name_H-M "C 2/M"
_symmetry_group_IT_number 12
_symmetry_cell_setting 'monoclinic'
loop_
_space_group_symop_operation_xyz
x,y,z
-x,y,-z
-x,-y,-z
x,-y,z
1/2+x,1/2+y,z
1/2-x,1/2+y,-z
1/2-x,1/2-y,-z
1/2+x,1/2-y,z
loop_
_atom_site_type_symbol
_atom_site_label
_atom_site_fract_x
_atom_site_fract_y
_atom_site_fract_z
Si Si1 0.576720 0.597795 0.539508
Si Si2 0.849337 0.327535 0.255110
Si Si3 0.177436 0.131607 0.866006
Si Si4 0.076112 0.058034 0.690376
Si Si5 0.426053 0.938840 0.664263
Si Si6 0.792105 0.642501 0.127566
Si Si7 0.937942 0.222933 0.873943
O O1 0.500000 0.571536 0.500000
O O2 0.399100 0.648039 0.618550
O O3 0.563336 0.566432 0.615311
O O4 0.857240 0.601859 0.419329
O O5 0.875315 0.349481 0.169332
O O6 0.073862 0.347815 0.205430
O O7 0.881626 0.264949 0.231188
O O8 0.236689 0.081389 0.795178
O O9 0.066154 0.177295 0.864323
O O10 0.000000 0.121589 0.000000
O O11 0.320614 0.061818 0.631600
O O12 0.923641 0.103650 0.783745
O O13 0.982003 0.000000 0.743336
O O14 0.495374 0.000000 0.649848
O O15 0.709704 0.696526 0.126498
O O16 0.000000 0.619495 0.000000
O O17 0.750000 0.250000 0.000000
#
# Coordination Sequence:
#
# PCOD9217296 Si02
#       7
#     8   8   8   8   8   8   8
#     4  11  23  44  68  94 127 161 222 273 322 385
#     4  11  24  38  62 100 130 163 218 276 316 379
#     4  12  23  41  67 100 135 169 219 267 321 390
#     4  10  23  42  66  93 126 169 219 271 325 389
#     4  11  24  45  70  93 128 178 218 268 333 392
#     4  11  21  38  62  96 131 168 215 260 319 397
#     4  12  22  39  68  95 127 181 216 255 322 391
#
# _framework density 19.497256
#
# number of rings (size 3 to 8) (size 9 to 14) (size 15 to 20)
#    0.000    0.857    5.714    1.714    0.000    2.857 
#    0.000    0.714    3.143    0.000    0.000    0.000 
#    0.000    0.000    0.000    0.000    0.000    0.000 
#
# Total GULP energy -156097.333744 kJ/mol
# GULP energy per Si atom -5574.904777 kJ/mol
# Density = 1.945288 g / cm^3
# Si number density = 19.497256 Si / 1000 Ang^3
#
#
#
# Elastic Constant Matrix: (Units=GPa)
#
#
# Indices 1 2 3 4 5 6 
#
# 1 114.3893 20.7492 26.6507 -0.0864 7.6754 0.0326
# 2 20.7492 67.7137 42.6585 -0.0155 -0.4690 0.0061
# 3 26.6507 42.6585 102.5335 -0.2948 6.0357 0.1101
# 4 -0.0864 -0.0155 -0.2948 480.5551 -0.0164 -176.1703
# 5 7.6754 -0.4690 6.0357 -0.0164 29.5829 0.0043
# 6 0.0326 0.0061 0.1101 -176.1703 0.0043 91.6790
#
#
#
# Elastic Compliance Matrix: (Units=1/GPa)
#
#
# Indices 1 2 3 4 5 6 
#
# 1 0.009610 -0.001990 -0.001540 0.000001 -0.002211 0.000000
# 2 -0.001990 0.020548 -0.008180 -0.000004 0.002511 0.000000
# 3 -0.001540 -0.008180 0.013705 0.000007 -0.002526 -0.000001
# 4 0.000001 -0.000004 0.000007 0.007041 0.000000 0.013530
# 5 -0.002211 0.002511 -0.002526 0.000000 0.034932 0.000002
# 6 0.000000 0.000000 -0.000001 0.013530 0.000002 0.036907
#
#
# Mechanical properties :
#
#
# Convention : Reuss Voigt Hill
#
# Bulk Modulus (GPa) = 48.91291 51.63929 50.27610
# Shear Modulus (GPa) = 32.68472 133.33527 83.00999
#
# Velocity S-wave (km/s) = 4.09880 8.27860 6.53205
# Velocity P-wave (km/s) = 6.89505 10.85924 9.09574
#
# Compressibility (1/GPa) = 0.02044450
#
# Stress axis : x y z
#
# Youngs Moduli (GPa) = 104.05673 48.66602 72.96645
#
# Poissons Ratio (x) = 0.09685 0.11235
# Poissons Ratio (y) = 0.20708 0.59683
# Poissons Ratio (z) = 0.16023 0.39807
#
# Static dielectric constant tensor:
#      x y z
#    x 1.696800 0.000000 0.001530 
#    y 0.000000 1.660780 0.000000 
#    z 0.001530 0.000000 1.685810 
# 
# From -- ./inp_files/124274.got.cif
#   From: 2010.05.17/outbox.cif.g08.bks.cpg/sg12_63_cif.got.tgz:124274.got - 2010.06.03 13:09:07.
