data_PCOD9217440
_publ_section_title
;
Structure prediction by ZEFSAII (Michael W. Deem and Ramdas Pophale) SiO2 
 PCOD9217440
Probable space group: C 2/M
;
_chemical_formula_sum "Si O2"
_cell_formula_units_Z 48
_cell_length_a 9.398142
_cell_length_b 16.200736
_cell_length_c 29.763346
_cell_angle_alpha 90.000000
_cell_angle_beta 145.857412
_cell_angle_gamma 90.000000
_cell_volume 2543.420756
_symmetry_space_group_name_H-M "C 2/M"
_symmetry_group_IT_number 12
_symmetry_cell_setting 'monoclinic'
loop_
_space_group_symop_operation_xyz
x,y,z
-x,y,-z
-x,-y,-z
x,-y,z
1/2+x,1/2+y,z
1/2-x,1/2+y,-z
1/2-x,1/2-y,-z
1/2+x,1/2-y,z
loop_
_atom_site_type_symbol
_atom_site_label
_atom_site_fract_x
_atom_site_fract_y
_atom_site_fract_z
Si Si1 0.481269 0.813106 0.548237
Si Si2 0.211675 0.595181 0.421425
Si Si3 0.645743 0.904053 0.085396
Si Si4 0.988528 0.724880 0.298871
Si Si5 0.955809 0.739828 0.189103
Si Si6 0.198280 0.591812 0.915944
O O1 0.500000 0.830322 0.500000
O O2 0.250000 0.750000 0.500000
O O3 0.420191 0.888691 0.565281
O O4 0.755246 0.777823 0.633299
O O5 0.500000 0.628372 0.500000
O O6 0.226060 0.500000 0.414732
O O7 0.065881 0.641209 0.343769
O O8 0.444848 0.897935 0.073878
O O9 0.846782 0.829873 0.146078
O O10 0.743890 0.000000 0.111326
O O11 0.500000 0.891914 0.000000
O O12 0.881256 0.720070 0.220658
O O13 0.760199 0.762047 0.267785
O O14 0.866759 0.667744 0.132986
O O15 0.123862 0.500000 0.879055
O O16 0.500000 0.591713 0.000000
#
# Coordination Sequence:
#
# PCOD9217440 Si02
#       6
#     8   8   8   8   8   8
#     4  12  20  40  69  89 121 168 213 256 307 383
#     4  11  24  42  64  93 125 161 214 269 316 378
#     4  10  23  43  65  90 126 171 213 256 310 378
#     4  12  23  39  62  94 123 167 204 254 322 376
#     4  12  24  39  64  95 128 166 212 258 321 383
#     4  10  23  43  65  91 124 165 214 263 309 371
#
# _framework density 18.872223000000002
#
# number of rings (size 3 to 8) (size 9 to 14) (size 15 to 20)
#    0.000    0.833    6.667    0.500    2.333    3.000 
#    0.000    0.833    0.000    0.000    0.000    0.000 
#    0.000    0.000    0.000    0.000    0.000    0.000 
#
# Total GULP energy -133894.018439 kJ/mol
# GULP energy per Si atom -5578.917435 kJ/mol
# Density = 1.882927 g / cm^3
# Si number density = 18.872223 Si / 1000 Ang^3
#
#
#
# Elastic Constant Matrix: (Units=GPa)
#
#
# Indices 1 2 3 4 5 6 
#
# 1 90.9271 28.1041 23.4497 0.0000 -9.0184 0.0000
# 2 28.1041 99.3749 49.3112 0.0001 -7.1481 0.0000
# 3 23.4497 49.3112 76.4936 0.0001 -10.6179 -0.0002
# 4 0.0000 0.0001 0.0001 13.0721 0.0000 3.4529
# 5 -9.0184 -7.1481 -10.6179 0.0000 50.4432 0.0000
# 6 0.0000 0.0000 -0.0002 3.4529 0.0000 21.4075
#
#
#
# Elastic Compliance Matrix: (Units=1/GPa)
#
#
# Indices 1 2 3 4 5 6 
#
# 1 0.012410 -0.002378 -0.002071 0.000000 0.001446 0.000000
# 2 -0.002378 0.015252 -0.009129 0.000000 -0.000185 0.000000
# 3 -0.002071 -0.009129 0.019944 0.000000 0.002534 0.000000
# 4 0.000000 0.000000 0.000000 0.079903 0.000000 -0.012888
# 5 0.001446 -0.000185 0.002534 0.000000 0.020590 0.000000
# 6 0.000000 0.000000 0.000000 -0.012888 0.000000 0.048791
#
#
# Mechanical properties :
#
#
# Convention : Reuss Voigt Hill
#
# Bulk Modulus (GPa) = 48.89664 52.05840 50.47752
# Shear Modulus (GPa) = 21.65780 28.04661 24.85220
#
# Velocity S-wave (km/s) = 3.39130 3.85922 3.63280
# Velocity P-wave (km/s) = 6.42652 6.89222 6.66344
#
# Compressibility (1/GPa) = 0.02045130
#
# Stress axis : x y z
#
# Youngs Moduli (GPa) = 80.57811 65.56531 50.13954
#
# Poissons Ratio (x) = 0.15593 0.10382
# Poissons Ratio (y) = 0.19164 0.45771
# Poissons Ratio (z) = 0.16685 0.59853
#
# Static dielectric constant tensor:
#      x y z
#    x 1.698350 0.000000 -0.140540 
#    y 0.000000 1.656210 0.000000 
#    z -0.140540 0.000000 2.184610 
# 
# From -- ./inp_files/251428.got.cif
#   From: 2010.05.17/outbox.cif.g08.bks.cpg/sg12_126_cif.got.tgz:251428.got - 2010.06.03 13:09:07.
