data_PCOD9217940
_publ_section_title
;
Structure prediction by ZEFSAII (Michael W. Deem and Ramdas Pophale) SiO2 
 PCOD9217940
Probable space group: C 2/M
;
_chemical_formula_sum "Si O2"
_cell_formula_units_Z 52
_cell_length_a 9.335355
_cell_length_b 19.432765
_cell_length_c 17.477855
_cell_angle_alpha 90.000000
_cell_angle_beta 132.977960
_cell_angle_gamma 90.000000
_cell_volume 2319.726365
_symmetry_space_group_name_H-M "C 2/M"
_symmetry_group_IT_number 12
_symmetry_cell_setting 'monoclinic'
loop_
_space_group_symop_operation_xyz
x,y,z
-x,y,-z
-x,-y,-z
x,-y,z
1/2+x,1/2+y,z
1/2-x,1/2+y,-z
1/2-x,1/2-y,-z
1/2+x,1/2-y,z
loop_
_atom_site_type_symbol
_atom_site_label
_atom_site_fract_x
_atom_site_fract_y
_atom_site_fract_z
Si Si1 0.762100 0.633308 0.723552
Si Si2 0.064663 0.792538 0.321151
Si Si3 0.634494 0.000000 0.152062
Si Si4 0.569951 0.370426 0.160165
Si Si5 0.500000 0.168965 0.500000
Si Si6 0.523520 0.229904 0.926702
Si Si7 0.497364 0.866187 0.666507
Si Si8 0.706150 0.500000 0.960803
O O1 0.548249 0.665758 0.654249
O O2 0.772129 0.566699 0.778210
O O3 0.832226 0.611897 0.665310
O O4 0.917452 0.686172 0.821647
O O5 0.021501 0.833114 0.225215
O O6 0.299246 0.789972 0.412762
O O7 0.989179 0.715462 0.307376
O O8 0.698033 0.000000 0.087755
O O9 0.400637 0.000000 0.083246
O O10 0.575535 0.304806 0.106670
O O11 0.422296 0.430341 0.081414
O O12 0.789985 0.398847 0.243133
O O13 0.541705 0.127522 0.437612
O O14 0.500000 0.192942 0.000000
O O15 0.750000 0.250000 0.000000
#
# Coordination Sequence:
#
# PCOD9217940 Si02
#       8
#     8   8   4   8   4   8   8   4
#     4  12  23  41  66  94 137 173 218 279 322 390
#     4  11  20  41  66  99 135 168 218 265 341 397
#     4  11  26  41  65  98 126 180 234 266 325 383
#     4  11  22  41  62  93 133 180 214 269 327 384
#     4  10  24  38  68 105 132 171 206 280 340 404
#     4  12  23  36  61  94 127 169 219 267 323 374
#     4  11  22  41  66  99 133 166 219 266 342 397
#     4  11  24  43  65  92 135 180 234 262 316 397
#
# _framework density 22.416436999999998
#
# number of rings (size 3 to 8) (size 9 to 14) (size 15 to 20)
#    0.000    0.769    4.615    4.154    2.154    1.231 
#    0.000    1.154    0.000   17.538    0.000    0.000 
#    0.000    0.000    0.000    0.000    0.000    0.000 
#
# Total GULP energy -145187.818978 kJ/mol
# GULP energy per Si atom -5584.146884 kJ/mol
# Density = 2.236542 g / cm^3
# Si number density = 22.416437 Si / 1000 Ang^3
#
#
#
# Elastic Constant Matrix: (Units=GPa)
#
#
# Indices 1 2 3 4 5 6 
#
# 1 98.6440 -26.0866 28.3806 0.0000 -10.4776 0.0000
# 2 -26.0866 59.1426 -1.5984 0.0000 11.6934 0.0000
# 3 28.3806 -1.5984 60.1201 0.0000 7.5105 0.0000
# 4 0.0000 0.0000 0.0000 10.5014 0.0000 0.6039
# 5 -10.4776 11.6934 7.5105 0.0000 52.0145 0.0000
# 6 0.0000 0.0000 0.0000 0.6039 0.0000 23.8875
#
#
#
# Elastic Compliance Matrix: (Units=1/GPa)
#
#
# Indices 1 2 3 4 5 6 
#
# 1 0.013745 0.005385 -0.006660 0.000000 0.002520 0.000000
# 2 0.005385 0.019862 -0.001621 0.000000 -0.003146 0.000000
# 3 -0.006660 -0.001621 0.020221 0.000000 -0.003897 0.000000
# 4 0.000000 0.000000 0.000000 0.095364 0.000000 -0.002411
# 5 0.002520 -0.003146 -0.003897 0.000000 0.021003 0.000000
# 6 0.000000 0.000000 0.000000 -0.002411 0.000000 0.041924
#
#
# Mechanical properties :
#
#
# Convention : Reuss Voigt Hill
#
# Bulk Modulus (GPa) = 20.81813 24.36645 22.59229
# Shear Modulus (GPa) = 21.37450 31.76143 26.56796
#
# Velocity S-wave (km/s) = 3.09126 3.76823 3.44641
# Velocity P-wave (km/s) = 4.69557 5.46134 5.09287
#
# Compressibility (1/GPa) = 0.04803506
#
# Stress axis : x y z
#
# Youngs Moduli (GPa) = 72.75212 50.34841 49.45298
#
# Poissons Ratio (x) = -0.27110 0.32937
# Poissons Ratio (y) = -0.39174 0.08015
# Poissons Ratio (z) = 0.48455 0.08160
#
# Static dielectric constant tensor:
#      x y z
#    x 1.873270 0.000000 0.001940 
#    y 0.000000 1.805430 0.000000 
#    z 0.001940 0.000000 1.916670 
# 
# From -- ./inp_files/258591.got.cif
#   From: 2010.05.17/outbox.cif.g08.bks.cpg/sg12_130_cif.got.tgz:258591.got - 2010.06.03 13:09:07.
