data_PCOD9217572
_publ_section_title
;
Structure prediction by ZEFSAII (Michael W. Deem and Ramdas Pophale) SiO2 
 PCOD9217572
Probable space group: C 2/M
;
_chemical_formula_sum "Si O2"
_cell_formula_units_Z 36
_cell_length_a 9.278368
_cell_length_b 16.656853
_cell_length_c 15.851165
_cell_angle_alpha 90.000000
_cell_angle_beta 142.436824
_cell_angle_gamma 90.000000
_cell_volume 1493.469024
_symmetry_space_group_name_H-M "C 2/M"
_symmetry_group_IT_number 12
_symmetry_cell_setting 'monoclinic'
loop_
_space_group_symop_operation_xyz
x,y,z
-x,y,-z
-x,-y,-z
x,-y,z
1/2+x,1/2+y,z
1/2-x,1/2+y,-z
1/2-x,1/2-y,-z
1/2+x,1/2-y,z
loop_
_atom_site_type_symbol
_atom_site_label
_atom_site_fract_x
_atom_site_fract_y
_atom_site_fract_z
Si Si1 0.576912 0.355455 0.376279
Si Si2 0.498070 0.624362 0.098401
Si Si3 0.005464 0.589227 0.307820
Si Si4 0.123764 0.000000 0.831948
Si Si5 0.641151 0.769192 0.261318
O O1 0.779544 0.387518 0.531733
O O2 0.453374 0.428960 0.270900
O O3 0.678832 0.293139 0.355095
O O4 0.380597 0.305982 0.336600
O O5 0.321998 0.570675 0.070749
O O6 0.507780 0.717175 0.128596
O O7 0.760707 0.591129 0.245909
O O8 0.500000 0.609810 0.000000
O O9 0.041489 0.500000 0.290297
O O10 0.994255 0.656926 0.230995
#
# Coordination Sequence:
#
# PCOD9217572 Si02
#       5
#     8   8   8   4   8
#     4  11  24  43  69 104 137 171 220 277 348 402
#     4  11  25  46  68  95 132 186 234 269 318 397
#     4  12  25  41  68 102 138 175 219 278 338 400
#     4  10  23  43  69  97 136 172 222 277 336 391
#     4  11  25  44  69 100 137 177 218 279 337 398
#
# _framework density 24.104952000000001
#
# number of rings (size 3 to 8) (size 9 to 14) (size 15 to 20)
#    0.000    0.889    4.444    1.667    4.667    5.333 
#    0.000    0.000    0.000    2.000    0.000    0.000 
#    0.000    0.000    0.000    0.000    0.000    0.000 
#
# Total GULP energy -100300.806022 kJ/mol
# GULP energy per Si atom -5572.267001 kJ/mol
# Density = 2.405009 g / cm^3
# Si number density = 24.104952 Si / 1000 Ang^3
#
#
#
# Elastic Constant Matrix: (Units=GPa)
#
#
# Indices 1 2 3 4 5 6 
#
# 1 57.6720 34.3325 13.0292 0.0000 -11.9088 0.0000
# 2 34.3325 200.2313 19.8458 0.0000 -18.6870 0.0001
# 3 13.0292 19.8458 25.5147 0.0001 3.9954 0.0001
# 4 0.0000 0.0000 0.0001 14.5217 0.0000 -14.9285
# 5 -11.9088 -18.6870 3.9954 0.0000 25.2782 -0.0001
# 6 0.0000 0.0001 0.0001 -14.9285 -0.0001 29.4900
#
#
#
# Elastic Compliance Matrix: (Units=1/GPa)
#
#
# Indices 1 2 3 4 5 6 
#
# 1 0.023654 -0.001696 -0.012621 0.000000 0.011885 0.000000
# 2 -0.001696 0.006163 -0.004631 0.000000 0.004489 0.000000
# 3 -0.012621 -0.004631 0.051994 -0.000001 -0.017587 -0.000001
# 4 0.000000 0.000000 -0.000001 0.143585 0.000000 0.072686
# 5 0.011885 0.004489 -0.017587 0.000000 0.051257 0.000000
# 6 0.000000 0.000000 -0.000001 0.072686 0.000000 0.070705
#
#
# Mechanical properties :
#
#
# Convention : Reuss Voigt Hill
#
# Bulk Modulus (GPa) = 22.77079 46.42587 34.59833
# Shear Modulus (GPa) = 12.50338 28.27203 20.38770
#
# Velocity S-wave (km/s) = 2.27998 3.42844 2.91140
# Velocity P-wave (km/s) = 4.04946 5.91388 5.06814
#
# Compressibility (1/GPa) = 0.04391591
#
# Stress axis : x y z
#
# Youngs Moduli (GPa) = 42.27530 162.26196 19.23305
#
# Poissons Ratio (x) = 0.27515 0.24275
# Poissons Ratio (y) = 0.07169 0.08906
# Poissons Ratio (z) = 0.53357 0.75136
#
# Static dielectric constant tensor:
#      x y z
#    x 1.981470 0.000000 0.027980 
#    y 0.000000 1.906270 0.000000 
#    z 0.027980 0.000000 1.964460 
# 
# From -- ./inp_files/195760.got.cif
#   From: 2010.05.17/outbox.cif.g08.bks.cpg/sg12_98_cif.got.tgz:195760.got - 2010.06.03 13:09:07.
