data_PCOD9217321
_publ_section_title
;
Structure prediction by ZEFSAII (Michael W. Deem and Ramdas Pophale) SiO2 
 PCOD9217321
Probable space group: C 2/M
;
_chemical_formula_sum "Si O2"
_cell_formula_units_Z 46
_cell_length_a 10.213638
_cell_length_b 15.361492
_cell_length_c 14.307902
_cell_angle_alpha 90.000000
_cell_angle_beta 61.181686
_cell_angle_gamma 90.000000
_cell_volume 1966.842549
_symmetry_space_group_name_H-M "C 2/M"
_symmetry_group_IT_number 12
_symmetry_cell_setting 'monoclinic'
loop_
_space_group_symop_operation_xyz
x,y,z
-x,y,-z
-x,-y,-z
x,-y,z
1/2+x,1/2+y,z
1/2-x,1/2+y,-z
1/2-x,1/2-y,-z
1/2+x,1/2-y,z
loop_
_atom_site_type_symbol
_atom_site_label
_atom_site_fract_x
_atom_site_fract_y
_atom_site_fract_z
Si Si1 0.598815 0.400246 0.735438
Si Si2 0.589172 0.296346 0.564735
Si Si3 0.500000 0.249907 0.000000
Si Si4 0.334309 0.401779 0.960846
Si Si5 0.000000 0.500000 0.500000
Si Si6 0.590819 0.861970 0.303795
Si Si7 0.500667 0.095886 0.124743
O O1 0.638087 0.500000 0.738327
O O2 0.607936 0.380085 0.623037
O O3 0.435200 0.387345 0.834633
O O4 0.731913 0.351234 0.742319
O O5 0.500000 0.312966 0.500000
O O6 0.750000 0.250000 0.500000
O O7 0.488285 0.230006 0.657545
O O8 0.374639 0.318483 0.009513
O O9 0.558246 0.187477 0.895555
O O10 0.373669 0.500000 0.982537
O O11 0.157546 0.405665 0.014531
O O12 0.033111 0.423857 0.407948
O O13 0.545306 0.897069 0.218030
O O14 0.426586 0.000000 0.138384
#
# Coordination Sequence:
#
# PCOD9217321 Si02
#       7
#     8   8   4   8   2   8   8
#     4  11  23  44  72 102 139 185 236 291 357 423
#     4  12  25  46  71 105 142 182 237 304 358 419
#     4  12  22  38  64  96 136 180 232 284 342 420
#     4  10  23  42  67  96 137 180 230 284 345 426
#     4  12  20  40  68  96 120 172 244 290 310 412
#     4  12  23  42  72  99 133 182 238 287 347 411
#     4  11  24  43  65  99 141 182 228 284 357 425
#
# _framework density 23.387740000000001
#
# number of rings (size 3 to 8) (size 9 to 14) (size 15 to 20)
#    0.000    0.696    4.348    3.130    0.000    4.522 
#    3.130    0.000    0.000    0.000    0.000    0.000 
#    0.000    0.000    0.000    0.000    0.000    0.000 
#
# Total GULP energy -128225.859087 kJ/mol
# GULP energy per Si atom -5575.037352 kJ/mol
# Density = 2.333451 g / cm^3
# Si number density = 23.387740 Si / 1000 Ang^3
#
#
#
# Elastic Constant Matrix: (Units=GPa)
#
#
# Indices 1 2 3 4 5 6 
#
# 1 46.9319 21.1004 34.4557 0.0000 17.3742 0.0000
# 2 21.1004 102.1524 23.2319 0.0000 5.8341 0.0000
# 3 34.4557 23.2319 113.6167 0.0000 18.7861 0.0000
# 4 0.0000 0.0000 0.0000 -94.6698 0.0000 -55.1219
# 5 17.3742 5.8341 18.7861 0.0000 41.9975 0.0000
# 6 0.0000 0.0000 0.0000 -55.1219 0.0000 5.7952
#
#
#
# Elastic Compliance Matrix: (Units=1/GPa)
#
#
# Indices 1 2 3 4 5 6 
#
# 1 0.032138 -0.004445 -0.007280 0.000000 -0.009422 0.000000
# 2 -0.004445 0.010892 -0.001008 0.000000 0.000776 0.000000
# 3 -0.007280 -0.001008 0.011548 0.000000 -0.002014 0.000000
# 4 0.000000 0.000000 0.000000 -0.001616 0.000000 -0.015367
# 5 -0.009422 0.000776 -0.002014 0.000000 0.028502 0.000000
# 6 0.000000 0.000000 0.000000 -0.015367 0.000000 0.026392
#
#
# Mechanical properties :
#
#
# Convention : Reuss Voigt Hill
#
# Bulk Modulus (GPa) = 34.34705 46.69746 40.52225
# Shear Modulus (GPa) = 34.95873 2.88543 18.92208
#
# Velocity S-wave (km/s) = 3.87039 1.11194 2.84748
# Velocity P-wave (km/s) = 5.88991 4.65387 5.30799
#
# Compressibility (1/GPa) = 0.02911459
#
# Stress axis : x y z
#
# Youngs Moduli (GPa) = 31.11565 91.80874 86.59321
#
# Poissons Ratio (x) = 0.40807 0.63037
# Poissons Ratio (y) = 0.13830 0.08726
# Poissons Ratio (z) = 0.22651 0.09251
#
# Static dielectric constant tensor:
#      x y z
#    x 2.093300 0.000000 0.049120 
#    y 0.000000 1.951550 0.000000 
#    z 0.049120 0.000000 1.889540 
# 
# From -- ./inp_files/204886.got.cif
#   From: 2010.05.17/outbox.cif.g08.bks.cpg/sg12_103_cif.got.tgz:204886.got - 2010.06.03 13:09:07.
