data_PCOD9217450
_publ_section_title
;
Structure prediction by ZEFSAII (Michael W. Deem and Ramdas Pophale) SiO2 
 PCOD9217450
Probable space group: C 2/M
;
_chemical_formula_sum "Si O2"
_cell_formula_units_Z 28
_cell_length_a 23.137038
_cell_length_b 12.298544
_cell_length_c 7.794269
_cell_angle_alpha 90.000000
_cell_angle_beta 31.282360
_cell_angle_gamma 90.000000
_cell_volume 1151.644372
_symmetry_space_group_name_H-M "C 2/M"
_symmetry_group_IT_number 12
_symmetry_cell_setting 'monoclinic'
loop_
_space_group_symop_operation_xyz
x,y,z
-x,y,-z
-x,-y,-z
x,-y,z
1/2+x,1/2+y,z
1/2-x,1/2+y,-z
1/2-x,1/2-y,-z
1/2+x,1/2-y,z
loop_
_atom_site_type_symbol
_atom_site_label
_atom_site_fract_x
_atom_site_fract_y
_atom_site_fract_z
Si Si1 0.323283 0.388400 0.420005
Si Si2 0.928113 0.330423 0.023166
Si Si3 0.000000 0.230898 0.500000
Si Si4 0.203040 0.876200 0.112720
O O1 0.369563 0.500000 0.230736
O O2 0.190758 0.384315 0.716867
O O3 0.387713 0.287393 0.185268
O O4 0.334715 0.386712 0.595357
O O5 0.996433 0.309992 0.675075
O O6 0.000000 0.375850 0.000000
O O7 0.895971 0.149679 0.765894
O O8 0.252350 0.000000 0.948362
O O9 0.250000 0.750000 0.000000
#
# Coordination Sequence:
#
# PCOD9217450 Si02
#       4
#     8   8   4   8
#     4  10  23  43  65  92 132 174 219 273 329 394
#     4  11  23  42  66  93 132 169 221 272 331 391
#     4  12  23  42  67 102 129 172 229 274 327 398
#     4  11  23  43  67  99 137 176 221 276 335 396
#
# _framework density 24.31306
#
# number of rings (size 3 to 8) (size 9 to 14) (size 15 to 20)
#    0.000    1.143    5.714    0.429    0.000    3.429 
#    0.000    2.857    0.000    0.000    0.000    0.000 
#    0.000    0.000    0.000    0.000    0.000    0.000 
#
# Total GULP energy -77967.259344 kJ/mol
# GULP energy per Si atom -5569.089953 kJ/mol
# Density = 2.425772 g / cm^3
# Si number density = 24.313060 Si / 1000 Ang^3
#
#
#
# Elastic Constant Matrix: (Units=GPa)
#
#
# Indices 1 2 3 4 5 6 
#
# 1 116.9782 -0.1285 14.0999 0.0000 12.3003 0.0000
# 2 -0.1285 201.6845 19.7913 0.0000 1.4436 0.0000
# 3 14.0999 19.7913 42.4102 0.0000 8.2616 0.0000
# 4 0.0000 0.0000 0.0000 24.0504 0.0000 28.3797
# 5 12.3003 1.4436 8.2616 0.0000 46.2237 0.0000
# 6 0.0000 0.0000 0.0000 28.3797 0.0000 -24.0187
#
#
#
# Elastic Compliance Matrix: (Units=1/GPa)
#
#
# Indices 1 2 3 4 5 6 
#
# 1 0.009087 0.000293 -0.002782 0.000000 -0.001930 0.000000
# 2 0.000293 0.005209 -0.002571 0.000000 0.000219 0.000000
# 3 -0.002782 -0.002571 0.026465 0.000000 -0.003910 0.000000
# 4 0.000000 0.000000 0.000000 0.017366 0.000000 0.020519
# 5 -0.001930 0.000219 -0.003910 0.000000 0.022839 0.000000
# 6 0.000000 0.000000 0.000000 0.020519 0.000000 -0.017389
#
#
# Mechanical properties :
#
#
# Convention : Reuss Voigt Hill
#
# Bulk Modulus (GPa) = 32.63523 47.62205 40.12864
# Shear Modulus (GPa) = 59.58621 31.07177 45.32899
#
# Velocity S-wave (km/s) = 4.95592 3.57877 4.32254
# Velocity P-wave (km/s) = 6.79707 6.05858 6.43842
#
# Compressibility (1/GPa) = 0.03064173
#
# Stress axis : x y z
#
# Youngs Moduli (GPa) = 110.04534 191.97057 37.78523
#
# Poissons Ratio (x) = -0.05617 0.10511
# Poissons Ratio (y) = -0.03220 0.09714
# Poissons Ratio (z) = 0.30611 0.49352
#
# Static dielectric constant tensor:
#      x y z
#    x 2.005800 0.000000 -0.087310 
#    y 0.000000 2.065540 0.000000 
#    z -0.087310 0.000000 1.962430 
# 
# From -- ./inp_files/102245.got.cif
#   From: 2010.05.17/outbox.cif.g08.bks.cpg/sg12_52_cif.got.tgz:102245.got - 2010.06.03 13:09:07.
