data_PCOD9217038
_publ_section_title
;
Structure prediction by ZEFSAII (Michael W. Deem and Ramdas Pophale) SiO2 
 PCOD9217038
Probable space group: C 2/M
;
_chemical_formula_sum "Si O2"
_cell_formula_units_Z 58
_cell_length_a 8.494377
_cell_length_b 18.975086
_cell_length_c 18.134555
_cell_angle_alpha 90.000000
_cell_angle_beta 84.928796
_cell_angle_gamma 90.000000
_cell_volume 2911.513827
_symmetry_space_group_name_H-M "C 2/M"
_symmetry_group_IT_number 12
_symmetry_cell_setting 'monoclinic'
loop_
_space_group_symop_operation_xyz
x,y,z
-x,y,-z
-x,-y,-z
x,-y,z
1/2+x,1/2+y,z
1/2-x,1/2+y,-z
1/2-x,1/2-y,-z
1/2+x,1/2-y,z
loop_
_atom_site_type_symbol
_atom_site_label
_atom_site_fract_x
_atom_site_fract_y
_atom_site_fract_z
Si Si1 0.053633 0.392046 0.107930
Si Si2 0.062497 0.313196 0.650681
Si Si3 0.589046 0.301848 0.777895
Si Si4 0.638115 0.290442 0.446845
Si Si5 0.759140 0.103947 0.959755
Si Si6 0.672220 0.919273 0.266929
Si Si7 0.500000 0.500000 0.000000
Si Si8 0.170403 0.241036 0.116639
O O1 0.105587 0.415744 0.186045
O O2 0.059859 0.306971 0.100914
O O3 0.877646 0.414166 0.093075
O O4 0.179788 0.416066 0.041466
O O5 0.089751 0.262196 0.719854
O O6 0.233526 0.330523 0.608653
O O7 0.955193 0.266248 0.599632
O O8 0.959185 0.379953 0.678591
O O9 0.671591 0.370056 0.739730
O O10 0.691349 0.280565 0.845234
O O11 0.413987 0.307354 0.817422
O O12 0.500000 0.328324 0.500000
O O13 0.750000 0.250000 0.500000
O O14 0.790616 0.187036 0.949564
O O15 0.919225 0.061167 0.950848
O O16 0.700505 0.000000 0.286325
#
# Coordination Sequence:
#
# PCOD9217038 Si02
#       8
#     8   8   8   8   8   8   2   8
#     4  10  23  41  65  81 114 160 207 255 324 384
#     4  11  17  37  62  91 132 160 205 251 294 357
#     4  11  20  36  63  91 119 163 205 263 306 368
#     4   9  19  32  61 102 123 159 208 252 286 343
#     4  11  25  41  56  81 116 154 207 265 326 379
#     4  11  24  37  62  95 125 166 206 252 316 384
#     4  12  32  38  52  80 108 162 198 256 340 396
#     4  11  20  38  60  89 111 147 210 264 319 363
#
# _framework density 19.920909000000002
#
# number of rings (size 3 to 8) (size 9 to 14) (size 15 to 20)
#    0.000    1.379    5.517    0.414    5.793    1.655 
#    0.000    0.000    0.000    6.621    0.000    0.000 
#    0.000    0.000    0.000    0.000    0.000    0.000 
#
# Total GULP energy -161519.144461 kJ/mol
# GULP energy per Si atom -5569.625671 kJ/mol
# Density = 1.987557 g / cm^3
# Si number density = 19.920909 Si / 1000 Ang^3
#
#
#
# Elastic Constant Matrix: (Units=GPa)
#
#
# Indices 1 2 3 4 5 6 
#
# 1 34.4018 5.1133 -7.4797 0.0000 -5.3874 0.0000
# 2 5.1133 117.5316 -3.5673 0.0000 -6.4093 0.0000
# 3 -7.4797 -3.5673 35.9734 0.0000 -4.8400 0.0000
# 4 0.0000 0.0000 0.0000 -33.0032 0.0000 95.5554
# 5 -5.3874 -6.4093 -4.8400 0.0000 43.7164 0.0000
# 6 0.0000 0.0000 0.0000 95.5554 0.0000 -222.8929
#
#
#
# Elastic Compliance Matrix: (Units=1/GPa)
#
#
# Indices 1 2 3 4 5 6 
#
# 1 0.031446 -0.000907 0.007057 0.000000 0.004524 0.000000
# 2 -0.000907 0.008641 0.000836 0.000000 0.001248 0.000000
# 3 0.007057 0.000836 0.029928 0.000000 0.004306 0.000000
# 4 0.000000 0.000000 0.000000 0.125598 0.000000 0.053844
# 5 0.004524 0.001248 0.004306 0.000000 0.024092 0.000000
# 6 0.000000 0.000000 0.000000 0.053844 0.000000 0.018597
#
#
# Mechanical properties :
#
#
# Convention : Reuss Voigt Hill
#
# Bulk Modulus (GPa) = 11.90666 19.55995 15.73330
# Shear Modulus (GPa) = 19.81573 -29.51325 -4.84876
#
# Velocity S-wave (km/s) = 3.15734 -3.85323 -1.56182
# Velocity P-wave (km/s) = 4.39109 3.15537 2.15932
#
# Compressibility (1/GPa) = 0.08398660
#
# Stress axis : x y z
#
# Youngs Moduli (GPa) = 31.80077 115.72413 33.41372
#
# Poissons Ratio (x) = 0.10499 -0.23580
# Poissons Ratio (y) = 0.02885 -0.02794
# Poissons Ratio (z) = -0.22442 -0.09676
#
# Static dielectric constant tensor:
#      x y z
#    x 1.799190 0.000000 -0.052340 
#    y 0.000000 1.709690 0.000000 
#    z -0.052340 0.000000 1.736940 
# 
# From -- ./inp_files/257112.got.cif
#   From: 2010.05.17/outbox.cif.g08.bks.cpg/sg12_129_cif.got.tgz:257112.got - 2010.06.03 13:09:07.
