data_PCOD9217394
_publ_section_title
;
Structure prediction by ZEFSAII (Michael W. Deem and Ramdas Pophale) SiO2 
 PCOD9217394
Probable space group: C 2/M
;
_chemical_formula_sum "Si O2"
_cell_formula_units_Z 60
_cell_length_a 13.674602
_cell_length_b 13.441964
_cell_length_c 16.838735
_cell_angle_alpha 90.000000
_cell_angle_beta 85.799798
_cell_angle_gamma 90.000000
_cell_volume 3086.873953
_symmetry_space_group_name_H-M "C 2/M"
_symmetry_group_IT_number 12
_symmetry_cell_setting 'monoclinic'
loop_
_space_group_symop_operation_xyz
x,y,z
-x,y,-z
-x,-y,-z
x,-y,z
1/2+x,1/2+y,z
1/2-x,1/2+y,-z
1/2-x,1/2-y,-z
1/2+x,1/2-y,z
loop_
_atom_site_type_symbol
_atom_site_label
_atom_site_fract_x
_atom_site_fract_y
_atom_site_fract_z
Si Si1 0.865006 0.615248 0.597159
Si Si2 0.348417 0.804200 0.767653
Si Si3 0.107940 0.306358 0.956419
Si Si4 0.439809 0.883056 0.213284
Si Si5 0.734780 0.616289 0.928257
Si Si6 0.000000 0.753442 0.500000
Si Si7 0.185639 0.117416 0.491074
Si Si8 0.238343 0.116454 0.304001
O O1 0.891145 0.500000 0.586862
O O2 0.827966 0.636698 0.687494
O O3 0.779982 0.639989 0.539058
O O4 0.957904 0.683179 0.571412
O O5 0.462909 0.819487 0.778834
O O6 0.286391 0.848578 0.843580
O O7 0.319839 0.690893 0.749846
O O8 0.103755 0.354928 0.869797
O O9 0.145780 0.192678 0.948335
O O10 0.185267 0.363669 0.007477
O O11 0.000000 0.311893 0.000000
O O12 0.353804 0.866202 0.282101
O O13 0.466990 0.000000 0.213534
O O14 0.709002 0.500000 0.926933
O O15 0.090108 0.821725 0.521268
O O16 0.209100 0.135985 0.396888
O O17 0.166235 0.000000 0.500909
O O18 0.219502 0.000000 0.287985
#
# Coordination Sequence:
#
# PCOD9217394 Si02
#       8
#     8   8   8   8   8   4   8   8
#     4  11  25  40  60  91 127 162 203 260 318 365
#     4  12  23  41  66  94 126 158 211 262 312 362
#     4  11  23  42  65  93 128 166 204 251 306 376
#     4  11  23  40  66  94 123 165 208 253 307 372
#     4  11  24  42  66  95 128 164 206 259 309 366
#     4  12  22  38  64  88 116 160 208 256 300 368
#     4  10  23  43  62  88 123 165 211 255 311 371
#     4  10  23  43  64  88 124 166 208 256 310 372
#
# _framework density 19.437138999999998
#
# number of rings (size 3 to 8) (size 9 to 14) (size 15 to 20)
#    0.000    1.067    4.000    2.400    1.867    0.800 
#    0.000    0.667    0.000    0.000    0.000    0.000 
#    0.000    0.000    0.000    0.000    0.000    0.000 
#
# Total GULP energy -167755.904668 kJ/mol
# GULP energy per Si atom -5591.863489 kJ/mol
# Density = 1.939290 g / cm^3
# Si number density = 19.437139 Si / 1000 Ang^3
#
#
#
# Elastic Constant Matrix: (Units=GPa)
#
#
# Indices 1 2 3 4 5 6 
#
# 1 53.5492 18.0997 15.2635 0.0000 -11.8661 0.0000
# 2 18.0997 89.2685 15.6511 0.0000 -6.8133 0.0000
# 3 15.2635 15.6511 60.5199 0.0000 6.2492 0.0000
# 4 0.0000 0.0000 0.0000 24.8045 0.0000 -2.7337
# 5 -11.8661 -6.8133 6.2492 0.0000 25.7985 0.0000
# 6 0.0000 0.0000 0.0000 -2.7337 0.0000 27.9985
#
#
#
# Elastic Compliance Matrix: (Units=1/GPa)
#
#
# Indices 1 2 3 4 5 6 
#
# 1 0.024163 -0.002829 -0.006598 0.000000 0.011965 0.000000
# 2 -0.002829 0.012468 -0.002786 0.000000 0.002666 0.000000
# 3 -0.006598 -0.002786 0.019792 0.000000 -0.008565 0.000000
# 4 0.000000 0.000000 0.000000 0.040754 0.000000 0.003979
# 5 0.011965 0.002666 -0.008565 0.000000 0.047044 0.000000
# 6 0.000000 0.000000 0.000000 0.003979 0.000000 0.036105
#
#
# Mechanical properties :
#
#
# Convention : Reuss Voigt Hill
#
# Bulk Modulus (GPa) = 31.25319 33.48512 32.36915
# Shear Modulus (GPa) = 23.21081 26.00851 24.60966
#
# Velocity S-wave (km/s) = 3.45939 3.66195 3.56211
# Velocity P-wave (km/s) = 5.66309 5.92829 5.79721
#
# Compressibility (1/GPa) = 0.03199674
#
# Stress axis : x y z
#
# Youngs Moduli (GPa) = 41.38628 80.20690 50.52445
#
# Poissons Ratio (x) = 0.22692 0.33335
# Poissons Ratio (y) = 0.11709 0.14076
# Poissons Ratio (z) = 0.27306 0.22346
#
# Static dielectric constant tensor:
#      x y z
#    x 1.653490 0.000000 0.002290 
#    y 0.000000 1.692870 0.000000 
#    z 0.002290 0.000000 1.684040 
# 
# From -- ./inp_files/309468.got.cif
#   From: 2010.05.17/outbox.cif.g08.bks.cpg/sg12_155_cif.got.tgz:309468.got - 2010.06.03 13:09:07.
