data_PCOD9217133
_publ_section_title
;
Structure prediction by ZEFSAII (Michael W. Deem and Ramdas Pophale) SiO2 
 PCOD9217133
Probable space group: C 2/M
;
_chemical_formula_sum "Si O2"
_cell_formula_units_Z 56
_cell_length_a 14.219864
_cell_length_b 10.018791
_cell_length_c 23.066198
_cell_angle_alpha 90.000000
_cell_angle_beta 65.141172
_cell_angle_gamma 90.000000
_cell_volume 2981.671971
_symmetry_space_group_name_H-M "C 2/M"
_symmetry_group_IT_number 12
_symmetry_cell_setting 'monoclinic'
loop_
_space_group_symop_operation_xyz
x,y,z
-x,y,-z
-x,-y,-z
x,-y,z
1/2+x,1/2+y,z
1/2-x,1/2+y,-z
1/2-x,1/2-y,-z
1/2+x,1/2-y,z
loop_
_atom_site_type_symbol
_atom_site_label
_atom_site_fract_x
_atom_site_fract_y
_atom_site_fract_z
Si Si1 0.161306 0.157864 0.496130
Si Si2 0.069620 0.842855 0.394923
Si Si3 0.884211 0.346541 0.723739
Si Si4 0.163959 0.857125 0.078815
Si Si5 0.883549 0.244728 0.032613
Si Si6 0.651099 0.651582 0.829230
Si Si7 0.016516 0.657868 0.181230
O O1 0.250000 0.250000 0.500000
O O2 0.137862 0.187070 0.434502
O O3 0.050810 0.178197 0.556668
O O4 0.187119 0.000000 0.494285
O O5 0.099839 0.753323 0.332941
O O6 0.082475 0.000000 0.378793
O O7 0.892664 0.500000 0.701381
O O8 0.771105 0.330581 0.781965
O O9 0.965302 0.326626 0.754939
O O10 0.287523 0.845420 0.052370
O O11 0.110857 0.732695 0.124324
O O12 0.129536 0.000000 0.111898
O O13 0.131279 0.846712 0.020191
O O14 0.868753 0.169923 0.097239
O O15 0.000000 0.301587 0.000000
O O16 0.621954 0.500000 0.820282
O O17 0.583761 0.763069 0.814454
O O18 0.014435 0.500000 0.168294
#
# Coordination Sequence:
#
# PCOD9217133 Si02
#       7
#     8   8   8   8   8   8   8
#     4   9  19  37  62  94 128 160 196 242 290 338
#     4   9  20  39  62  89 124 162 200 241 287 344
#     4  10  23  42  61  83 121 163 199 245 298 352
#     4  11  24  40  62  88 112 148 195 243 304 372
#     4  11  23  40  60  90 115 149 189 254 310 364
#     4  11  23  42  62  84 115 155 200 247 304 367
#     4  11  24  42  60  84 118 153 195 250 302 355
#
# _framework density 18.781409
#
# number of rings (size 3 to 8) (size 9 to 14) (size 15 to 20)
#    0.000    1.714    2.857    1.714    0.000    7.714 
#    0.000    7.143    0.000    0.000    0.000    0.000 
#    0.000    0.000    0.000    0.000    0.000    0.000 
#
# Total GULP energy -156309.524006 kJ/mol
# GULP energy per Si atom -5582.483000 kJ/mol
# Density = 1.873866 g / cm^3
# Si number density = 18.781409 Si / 1000 Ang^3
#
#
#
# Elastic Constant Matrix: (Units=GPa)
#
#
# Indices 1 2 3 4 5 6 
#
# 1 124.3707 69.9857 30.4537 0.0000 14.7051 0.0000
# 2 69.9857 127.4564 66.5371 0.0000 23.1832 0.0000
# 3 30.4537 66.5371 99.7817 0.0000 23.3509 0.0000
# 4 0.0000 0.0000 0.0000 17.0589 0.0000 -14.7697
# 5 14.7051 23.1832 23.3509 0.0000 13.3546 0.0000
# 6 0.0000 0.0000 0.0000 -14.7697 0.0000 12.5670
#
#
#
# Elastic Compliance Matrix: (Units=1/GPa)
#
#
# Indices 1 2 3 4 5 6 
#
# 1 0.011891 -0.006651 0.001977 0.000000 -0.005004 0.000000
# 2 -0.006651 0.016923 -0.006929 0.000000 -0.009938 0.000000
# 3 0.001977 -0.006929 0.019860 0.000000 -0.024875 0.000000
# 4 0.000000 0.000000 0.000000 -3.338386 0.000000 -3.923520
# 5 -0.005004 -0.009938 -0.024875 0.000000 0.141138 0.000000
# 6 0.000000 0.000000 0.000000 -3.923520 0.000000 -4.531639
#
#
# Mechanical properties :
#
#
# Convention : Reuss Voigt Hill
#
# Bulk Modulus (GPa) = 39.26525 76.17353 57.71939
# Shear Modulus (GPa) = -0.65372 20.90490 10.12559
#
# Velocity S-wave (km/s) = -0.59061 3.33988 2.32443
# Velocity P-wave (km/s) = 4.52623 7.45111 6.16465
#
# Compressibility (1/GPa) = 0.02546781
#
# Stress axis : x y z
#
# Youngs Moduli (GPa) = 84.09940 59.09232 50.35267
#
# Poissons Ratio (x) = 0.39302 -0.09955
# Poissons Ratio (y) = 0.55935 0.34888
# Poissons Ratio (z) = -0.16627 0.40944
#
# Static dielectric constant tensor:
#      x y z
#    x 1.657530 0.000000 -0.009580 
#    y 0.000000 1.645620 0.000000 
#    z -0.009580 0.000000 1.627150 
# 
# From -- ./inp_files/338527.got.cif
#   From: 2010.05.17/outbox.cif.g08.bks.cpg/sg12_170_cif.got.tgz:338527.got - 2010.06.03 13:09:07.
