data_PCOD9217284
_publ_section_title
;
Structure prediction by ZEFSAII (Michael W. Deem and Ramdas Pophale) SiO2 
 PCOD9217284
Probable space group: C 2/M
;
_chemical_formula_sum "Si O2"
_cell_formula_units_Z 52
_cell_length_a 9.764539
_cell_length_b 28.646723
_cell_length_c 15.892876
_cell_angle_alpha 90.000000
_cell_angle_beta 32.974908
_cell_angle_gamma 90.000000
_cell_volume 2419.607594
_symmetry_space_group_name_H-M "C 2/M"
_symmetry_group_IT_number 12
_symmetry_cell_setting 'monoclinic'
loop_
_space_group_symop_operation_xyz
x,y,z
-x,y,-z
-x,-y,-z
x,-y,z
1/2+x,1/2+y,z
1/2-x,1/2+y,-z
1/2-x,1/2-y,-z
1/2+x,1/2-y,z
loop_
_atom_site_type_symbol
_atom_site_label
_atom_site_fract_x
_atom_site_fract_y
_atom_site_fract_z
Si Si1 0.589844 0.945571 0.218515
Si Si2 0.087091 0.446306 0.870100
Si Si3 0.658854 0.693973 0.785530
Si Si4 0.129982 0.085269 0.564918
Si Si5 0.000000 0.371222 0.500000
Si Si6 0.000000 0.871581 0.000000
Si Si7 0.500000 0.336067 0.500000
Si Si8 0.087172 0.262294 0.668591
O O1 0.531732 0.928644 0.154060
O O2 0.331273 0.940526 0.402425
O O3 0.791669 0.907649 0.142518
O O4 0.670075 0.000000 0.180295
O O5 0.001220 0.500000 0.916603
O O6 0.385600 0.444471 0.709957
O O7 0.000000 0.421991 0.000000
O O8 0.875802 0.660803 0.634965
O O9 0.460481 0.662988 0.940547
O O10 0.568561 0.723052 0.750796
O O11 0.814431 0.724330 0.773419
O O12 0.279841 0.099245 0.570916
O O13 0.031214 0.130586 0.564849
O O14 0.251588 0.303760 0.626422
O O15 0.250000 0.250000 0.500000
#
# Coordination Sequence:
#
# PCOD9217284 Si02
#       8
#     8   8   8   8   4   4   4   8
#     4  11  23  45  71  96 137 191 233 276 346 419
#     4  10  23  42  65  98 137 177 229 289 342 405
#     4  12  25  43  69  95 141 178 227 286 342 418
#     4  12  23  40  69 104 133 181 237 281 333 414
#     4  12  23  40  65 104 135 177 228 282 341 397
#     4  12  27  46  64 104 144 176 230 294 353 398
#     4  12  19  36  67  96 131 175 229 266 328 411
#     4  12  21  41  67  98 124 180 230 276 344 406
#
# _framework density 21.491088000000001
#
# number of rings (size 3 to 8) (size 9 to 14) (size 15 to 20)
#    0.000    0.462    7.692    0.692    2.154    1.846 
#    0.000    1.538    1.692    0.000    0.000    0.000 
#    0.000    0.000    0.000    0.000    0.000    0.000 
#
# Total GULP energy -145130.099987 kJ/mol
# GULP energy per Si atom -5581.926923 kJ/mol
# Density = 2.144217 g / cm^3
# Si number density = 21.491088 Si / 1000 Ang^3
#
#
#
# Elastic Constant Matrix: (Units=GPa)
#
#
# Indices 1 2 3 4 5 6 
#
# 1 102.7278 39.0100 -2.0712 0.0000 12.1187 0.0000
# 2 39.0100 80.7132 23.5385 0.0000 13.6260 0.0000
# 3 -2.0712 23.5385 75.7689 0.0000 24.6338 0.0000
# 4 0.0000 0.0000 0.0000 1.1411 0.0000 -38.7640
# 5 12.1187 13.6260 24.6338 0.0000 19.0770 0.0000
# 6 0.0000 0.0000 0.0000 -38.7640 0.0000 -15.4087
#
#
#
# Elastic Compliance Matrix: (Units=1/GPa)
#
#
# Indices 1 2 3 4 5 6 
#
# 1 0.013774 -0.006428 0.006421 0.000000 -0.012450 0.000000
# 2 -0.006428 0.017249 -0.004923 0.000000 -0.001880 0.000000
# 3 0.006421 -0.004923 0.026002 0.000000 -0.034139 0.000000
# 4 0.000000 0.000000 0.000000 0.010136 0.000000 -0.025499
# 5 -0.012450 -0.001880 -0.034139 0.000000 0.105754 0.000000
# 6 0.000000 0.000000 0.000000 -0.025499 0.000000 -0.000751
#
#
# Mechanical properties :
#
#
# Convention : Reuss Voigt Hill
#
# Bulk Modulus (GPa) = 21.20197 42.24050 31.72124
# Shear Modulus (GPa) = 25.28500 14.21071 19.74786
#
# Velocity S-wave (km/s) = 3.43379 2.57424 3.03460
# Velocity P-wave (km/s) = 5.06044 5.34165 5.20294
#
# Compressibility (1/GPa) = 0.04716542
#
# Stress axis : x y z
#
# Youngs Moduli (GPa) = 72.60302 57.97329 38.45837
#
# Poissons Ratio (x) = 0.37264 -0.24695
# Poissons Ratio (y) = 0.46667 0.18934
# Poissons Ratio (z) = -0.46619 0.28541
#
# Static dielectric constant tensor:
#      x y z
#    x 1.924020 0.000000 0.052420 
#    y 0.000000 1.812930 0.000000 
#    z 0.052420 0.000000 1.805100 
# 
# From -- ./inp_files/201212.got.cif
#   From: 2010.05.17/outbox.cif.g08.bks.cpg/sg12_101_cif.got.tgz:201212.got - 2010.06.03 13:09:07.
