data_PCOD9217348
_publ_section_title
;
Structure prediction by ZEFSAII (Michael W. Deem and Ramdas Pophale) SiO2 
 PCOD9217348
Probable space group: C 2/M
;
_chemical_formula_sum "Si O2"
_cell_formula_units_Z 64
_cell_length_a 17.612545
_cell_length_b 14.255602
_cell_length_c 19.597438
_cell_angle_alpha 90.000000
_cell_angle_beta 137.398576
_cell_angle_gamma 90.000000
_cell_volume 3330.640899
_symmetry_space_group_name_H-M "C 2/M"
_symmetry_group_IT_number 12
_symmetry_cell_setting 'monoclinic'
loop_
_space_group_symop_operation_xyz
x,y,z
-x,y,-z
-x,-y,-z
x,-y,z
1/2+x,1/2+y,z
1/2-x,1/2+y,-z
1/2-x,1/2-y,-z
1/2+x,1/2-y,z
loop_
_atom_site_type_symbol
_atom_site_label
_atom_site_fract_x
_atom_site_fract_y
_atom_site_fract_z
Si Si1 0.835874 0.609780 0.189593
Si Si2 0.750131 0.893992 0.174177
Si Si3 0.486295 0.224334 0.180376
Si Si4 0.994055 0.605055 0.577987
Si Si5 0.109846 0.221843 0.028557
Si Si6 0.844846 0.215270 0.511129
Si Si7 0.002411 0.891766 0.287556
Si Si8 0.788564 0.609860 0.693457
O O1 0.840808 0.500000 0.175307
O O2 0.908062 0.669228 0.182681
O O3 0.709158 0.646872 0.103462
O O4 0.892840 0.620433 0.302410
O O5 0.661965 0.818841 0.090176
O O6 0.871343 0.879858 0.220096
O O7 0.758920 0.884839 0.261431
O O8 0.712800 0.000000 0.134017
O O9 0.530896 0.317203 0.247930
O O10 0.588507 0.156629 0.227577
O O11 0.421694 0.259738 0.070810
O O12 0.953276 0.500000 0.571674
O O13 0.915494 0.691554 0.543571
O O14 0.000000 0.604174 0.500000
O O15 0.000000 0.197803 0.000000
O O16 0.750000 0.250000 0.500000
O O17 0.788966 0.168719 0.408516
O O18 0.923660 0.138652 0.599195
O O19 0.021559 0.000000 0.281724
O O20 0.794620 0.500000 0.677780
#
# Coordination Sequence:
#
# PCOD9217348 Si02
#       8
#     8   8   8   8   8   8   8   8
#     4  11  24  44  67  94 128 168 217 267 317 383
#     4  10  23  43  66  93 129 166 209 267 321 383
#     4  12  23  43  67  94 127 173 212 266 321 382
#     4  10  23  42  68  97 129 172 217 260 316 385
#     4  12  25  42  67  93 130 165 218 267 324 381
#     4  12  23  39  65  95 133 169 209 262 321 376
#     4  11  24  43  65  95 131 166 211 262 322 385
#     4  11  24  41  65  98 129 168 216 262 323 385
#
# _framework density 19.215520999999999
#
# number of rings (size 3 to 8) (size 9 to 14) (size 15 to 20)
#    0.000    0.875    5.000    1.125    3.500    4.000 
#    0.000    1.875    0.000    0.000    0.000    0.000 
#    0.000    0.000    0.000    0.000    0.000    0.000 
#
# Total GULP energy -178823.544285 kJ/mol
# GULP energy per Si atom -5588.235759 kJ/mol
# Density = 1.917179 g / cm^3
# Si number density = 19.215521 Si / 1000 Ang^3
#
#
#
# Elastic Constant Matrix: (Units=GPa)
#
#
# Indices 1 2 3 4 5 6 
#
# 1 16.1278 19.1022 16.1560 0.0000 -6.3114 0.0000
# 2 19.1022 123.5459 41.8529 0.0000 1.4187 0.0000
# 3 16.1560 41.8529 110.3393 0.0000 -8.4303 0.0000
# 4 0.0000 0.0000 0.0000 25.8126 0.0000 -0.6696
# 5 -6.3114 1.4187 -8.4303 0.0000 25.9636 0.0000
# 6 0.0000 0.0000 0.0000 -0.6696 0.0000 19.9728
#
#
#
# Elastic Compliance Matrix: (Units=1/GPa)
#
#
# Indices 1 2 3 4 5 6 
#
# 1 0.091444 -0.011898 -0.007310 0.000000 0.020506 0.000000
# 2 -0.011898 0.010909 -0.002730 0.000000 -0.004375 0.000000
# 3 -0.007310 -0.002730 0.011325 0.000000 0.002050 0.000000
# 4 0.000000 0.000000 0.000000 0.038774 0.000000 0.001300
# 5 0.020506 -0.004375 0.002050 0.000000 0.044405 0.000000
# 6 0.000000 0.000000 0.000000 0.001300 0.000000 0.050112
#
#
# Mechanical properties :
#
#
# Convention : Reuss Voigt Hill
#
# Bulk Modulus (GPa) = 14.32603 44.91504 29.62053
# Shear Modulus (GPa) = 15.91791 25.87661 20.89726
#
# Velocity S-wave (km/s) = 2.88130 3.67366 3.30133
# Velocity P-wave (km/s) = 4.30590 6.43579 5.47541
#
# Compressibility (1/GPa) = 0.06980303
#
# Stress axis : x y z
#
# Youngs Moduli (GPa) = 10.93567 91.66884 88.29763
#
# Poissons Ratio (x) = 1.09067 0.64542
# Poissons Ratio (y) = 0.13011 0.24105
# Poissons Ratio (z) = 0.07993 0.25025
#
# Static dielectric constant tensor:
#      x y z
#    x 1.653390 0.000000 -0.003740 
#    y 0.000000 1.666230 0.000000 
#    z -0.003740 0.000000 1.565310 
# 
# From -- ./inp_files/183855.got.cif
#   From: 2010.05.17/outbox.cif.g08.bks.cpg/sg12_92_cif.got.tgz:183855.got - 2010.06.03 13:09:07.
