data_PCOD9217521
_publ_section_title
;
Structure prediction by ZEFSAII (Michael W. Deem and Ramdas Pophale) SiO2 
 PCOD9217521
Probable space group: C 2/M
;
_chemical_formula_sum "Si O2"
_cell_formula_units_Z 42
_cell_length_a 9.024913
_cell_length_b 14.892992
_cell_length_c 17.303715
_cell_angle_alpha 90.000000
_cell_angle_beta 110.753151
_cell_angle_gamma 90.000000
_cell_volume 2174.851925
_symmetry_space_group_name_H-M "C 2/M"
_symmetry_group_IT_number 12
_symmetry_cell_setting 'monoclinic'
loop_
_space_group_symop_operation_xyz
x,y,z
-x,y,-z
-x,-y,-z
x,-y,z
1/2+x,1/2+y,z
1/2-x,1/2+y,-z
1/2-x,1/2-y,-z
1/2+x,1/2-y,z
loop_
_atom_site_type_symbol
_atom_site_label
_atom_site_fract_x
_atom_site_fract_y
_atom_site_fract_z
Si Si1 0.858963 0.173463 0.560415
Si Si2 0.469774 0.000000 0.122360
Si Si3 0.000541 0.317015 0.783774
Si Si4 0.398387 0.691298 0.058318
Si Si5 0.811933 0.264437 0.329783
Si Si6 0.500000 0.500000 0.500000
Si Si7 0.737549 0.500000 0.941284
O O1 0.750000 0.250000 0.500000
O O2 0.769284 0.164801 0.626726
O O3 0.032797 0.217032 0.606255
O O4 0.890228 0.080823 0.521354
O O5 0.476697 0.087186 0.175000
O O6 0.619860 0.000000 0.093141
O O7 0.315241 0.000000 0.040539
O O8 0.827988 0.305927 0.713874
O O9 0.020244 0.246211 0.857399
O O10 0.129425 0.302142 0.741039
O O11 0.353519 0.593537 0.082253
O O12 0.500000 0.679289 0.000000
O O13 0.250000 0.750000 0.000000
#
# Coordination Sequence:
#
# PCOD9217521 Si02
#       7
#     8   4   8   8   8   2   4
#     4  11  22  46  73 104 141 172 227 274 329 418
#     4  11  22  38  62  90 128 169 230 275 329 400
#     4  11  23  40  63  95 132 176 219 276 341 392
#     4  12  23  40  64  88 124 171 229 277 332 391
#     4  10  23  43  67  95 145 174 207 285 339 393
#     4  12  24  40  86 108 132 186 228 268 344 400
#     4  11  23  38  60  91 120 171 230 286 328 388
#
# _framework density 19.31166
#
# number of rings (size 3 to 8) (size 9 to 14) (size 15 to 20)
#    0.000    0.952    3.810    3.714    0.000    1.524 
#    0.000    5.714    0.000    0.000    0.000    0.000 
#    0.000    0.000    0.000    0.000    0.000    0.000 
#
# Total GULP energy -116986.282052 kJ/mol
# GULP energy per Si atom -5570.775336 kJ/mol
# Density = 1.926771 g / cm^3
# Si number density = 19.311660 Si / 1000 Ang^3
#
#
#
# Elastic Constant Matrix: (Units=GPa)
#
#
# Indices 1 2 3 4 5 6 
#
# 1 92.7483 33.2767 25.3256 0.0000 -10.6066 0.0000
# 2 33.2767 168.2247 41.9687 0.0000 -5.4485 0.0000
# 3 25.3256 41.9687 72.1450 0.0000 -7.4446 0.0000
# 4 0.0000 0.0000 0.0000 31.9052 0.0000 -10.0534
# 5 -10.6066 -5.4485 -7.4446 0.0000 40.8415 0.0000
# 6 0.0000 0.0000 0.0000 -10.0534 0.0000 26.8696
#
#
#
# Elastic Compliance Matrix: (Units=1/GPa)
#
#
# Indices 1 2 3 4 5 6 
#
# 1 0.012511 -0.001594 -0.003212 0.000000 0.002451 0.000000
# 2 -0.001594 0.007158 -0.003617 0.000000 -0.000118 0.000000
# 3 -0.003212 -0.003617 0.017281 0.000000 0.001834 0.000000
# 4 0.000000 0.000000 0.000000 0.035532 0.000000 0.013294
# 5 0.002451 -0.000118 0.001834 0.000000 0.025440 0.000000
# 6 0.000000 0.000000 0.000000 0.013294 0.000000 0.042191
#
#
# Mechanical properties :
#
#
# Convention : Reuss Voigt Hill
#
# Bulk Modulus (GPa) = 49.73676 59.36224 54.54950
# Shear Modulus (GPa) = 30.55106 35.42641 32.98874
#
# Velocity S-wave (km/s) = 3.98175 4.28770 4.13756
# Velocity P-wave (km/s) = 6.85199 7.43763 7.15081
#
# Compressibility (1/GPa) = 0.02010586
#
# Stress axis : x y z
#
# Youngs Moduli (GPa) = 79.92913 139.69886 57.86538
#
# Poissons Ratio (x) = 0.22271 0.18584
# Poissons Ratio (y) = 0.12743 0.20928
# Poissons Ratio (z) = 0.25669 0.50525
#
# Static dielectric constant tensor:
#      x y z
#    x 1.767040 0.000000 -0.017840 
#    y 0.000000 1.627200 0.000000 
#    z -0.017840 0.000000 1.716530 
# 
# From -- ./inp_files/255540.got.cif
#   From: 2010.05.17/outbox.cif.g08.bks.cpg/sg12_128_cif.got.tgz:255540.got - 2010.06.03 13:09:07.
