data_PCOD9217522
_publ_section_title
;
Structure prediction by ZEFSAII (Michael W. Deem and Ramdas Pophale) SiO2 
 PCOD9217522
Probable space group: C 2/M
;
_chemical_formula_sum "Si O2"
_cell_formula_units_Z 48
_cell_length_a 19.126341
_cell_length_b 8.998791
_cell_length_c 30.145452
_cell_angle_alpha 90.000000
_cell_angle_beta 151.589954
_cell_angle_gamma 90.000000
_cell_volume 2468.553897
_symmetry_space_group_name_H-M "C 2/M"
_symmetry_group_IT_number 12
_symmetry_cell_setting 'monoclinic'
loop_
_space_group_symop_operation_xyz
x,y,z
-x,y,-z
-x,-y,-z
x,-y,z
1/2+x,1/2+y,z
1/2-x,1/2+y,-z
1/2-x,1/2-y,-z
1/2+x,1/2-y,z
loop_
_atom_site_type_symbol
_atom_site_label
_atom_site_fract_x
_atom_site_fract_y
_atom_site_fract_z
Si Si1 0.393913 0.170940 0.562637
Si Si2 0.879531 0.329568 0.230338
Si Si3 0.412209 0.830270 0.904909
Si Si4 0.864825 0.830402 0.458076
Si Si5 0.412406 0.820804 0.087197
Si Si6 0.935770 0.821838 0.742838
O O1 0.250000 0.250000 0.500000
O O2 0.511708 0.177452 0.667208
O O3 0.431123 0.257137 0.538968
O O4 0.363878 0.000000 0.535009
O O5 0.872315 0.500000 0.210316
O O6 0.724616 0.275334 0.162516
O O7 0.945681 0.228186 0.228228
O O8 0.513722 0.788936 0.919583
O O9 0.360114 0.000000 0.867613
O O10 0.500000 0.830488 0.000000
O O11 0.722891 0.741024 0.361255
O O12 0.000000 0.832686 0.500000
O O13 0.815637 0.000000 0.439616
O O14 0.512528 0.751910 0.182124
O O15 0.402987 0.000000 0.086622
O O16 0.250000 0.750000 0.000000
O O17 0.931666 0.000000 0.744162
#
# Coordination Sequence:
#
# PCOD9217522 Si02
#       6
#     8   8   8   8   8   8
#     4  11  23  40  64  94 128 169 215 263 317 378
#     4  11  24  41  65  96 129 165 213 266 317 378
#     4  10  23  43  67  96 128 164 209 258 315 380
#     4  11  25  43  64  92 129 170 216 268 322 379
#     4  11  24  43  68  98 133 169 210 261 317 380
#     4  12  25  42  66  93 128 172 216 263 320 381
#
# _framework density 19.444583000000002
#
# number of rings (size 3 to 8) (size 9 to 14) (size 15 to 20)
#    0.000    1.000    1.667    4.500    2.333    6.333 
#    0.000    0.000    0.000    0.000    0.000    0.000 
#    0.000    0.000    0.000    0.000    0.000    0.000 
#
# Total GULP energy -134173.265480 kJ/mol
# GULP energy per Si atom -5590.552728 kJ/mol
# Density = 1.940033 g / cm^3
# Si number density = 19.444583 Si / 1000 Ang^3
#
#
#
# Elastic Constant Matrix: (Units=GPa)
#
#
# Indices 1 2 3 4 5 6 
#
# 1 134.3027 63.0263 26.7361 0.0000 -8.5326 0.0000
# 2 63.0263 145.0760 44.7025 0.0000 -0.3787 0.0000
# 3 26.7361 44.7025 53.0024 0.0002 6.5538 0.0000
# 4 0.0000 0.0000 0.0002 32.2142 0.0000 -1.8763
# 5 -8.5326 -0.3787 6.5538 0.0000 33.5016 0.0000
# 6 0.0000 0.0000 0.0000 -1.8763 0.0000 32.0146
#
#
#
# Elastic Compliance Matrix: (Units=1/GPa)
#
#
# Indices 1 2 3 4 5 6 
#
# 1 0.009737 -0.003511 -0.002308 0.000000 0.002892 0.000000
# 2 -0.003511 0.010673 -0.007312 0.000000 0.000657 0.000000
# 3 -0.002308 -0.007312 0.026932 0.000000 -0.005939 0.000000
# 4 0.000000 0.000000 0.000000 0.031148 0.000000 0.001826
# 5 0.002892 0.000657 -0.005939 0.000000 0.031755 0.000000
# 6 0.000000 0.000000 0.000000 0.001826 0.000000 0.031343
#
#
# Mechanical properties :
#
#
# Convention : Reuss Voigt Hill
#
# Bulk Modulus (GPa) = 47.43666 66.81230 57.12448
# Shear Modulus (GPa) = 28.59160 32.74051 30.66606
#
# Velocity S-wave (km/s) = 3.83876 4.10785 3.97558
# Velocity P-wave (km/s) = 6.64055 7.54547 7.10743
#
# Compressibility (1/GPa) = 0.02108074
#
# Stress axis : x y z
#
# Youngs Moduli (GPa) = 102.70291 93.69342 37.13041
#
# Poissons Ratio (x) = 0.32900 0.08568
# Poissons Ratio (y) = 0.36064 0.27148
# Poissons Ratio (z) = 0.23699 0.68505
#
# Static dielectric constant tensor:
#      x y z
#    x 2.998470 0.000000 0.441360 
#    y 0.000000 1.689430 0.000000 
#    z 0.441360 0.000000 1.785600 
# 
# From -- ./inp_files/378549.got.cif
#   From: 2010.05.17/outbox.cif.g08.bks.cpg/sg12_190_cif.got.tgz:378549.got - 2010.06.03 13:09:07.
