data_PCOD9217103
_publ_section_title
;
Structure prediction by ZEFSAII (Michael W. Deem and Ramdas Pophale) SiO2 
 PCOD9217103
Probable space group: C 2/M
;
_chemical_formula_sum "Si O2"
_cell_formula_units_Z 36
_cell_length_a 8.863037
_cell_length_b 25.150514
_cell_length_c 13.465944
_cell_angle_alpha 90.000000
_cell_angle_beta 147.651466
_cell_angle_gamma 90.000000
_cell_volume 1606.110200
_symmetry_space_group_name_H-M "C 2/M"
_symmetry_group_IT_number 12
_symmetry_cell_setting 'monoclinic'
loop_
_space_group_symop_operation_xyz
x,y,z
-x,y,-z
-x,-y,-z
x,-y,z
1/2+x,1/2+y,z
1/2-x,1/2+y,-z
1/2-x,1/2-y,-z
1/2+x,1/2-y,z
loop_
_atom_site_type_symbol
_atom_site_label
_atom_site_fract_x
_atom_site_fract_y
_atom_site_fract_z
Si Si1 0.237135 0.648732 0.928805
Si Si2 0.528877 0.365059 0.719895
Si Si3 0.000000 0.679502 0.500000
Si Si4 0.703334 0.059976 0.277745
Si Si5 0.650918 0.230546 0.191891
O O1 0.017803 0.600229 0.794902
O O2 0.060081 0.703651 0.844681
O O3 0.500000 0.647765 0.000000
O O4 0.359972 0.641348 0.107327
O O5 0.691936 0.415461 0.767833
O O6 0.624190 0.315587 0.705296
O O7 0.194583 0.358562 0.541704
O O8 0.194595 0.718742 0.674857
O O9 0.000000 0.059667 0.500000
O O10 0.593739 0.000000 0.210108
O O11 0.500000 0.237378 0.000000
#
# Coordination Sequence:
#
# PCOD9217103 Si02
#       5
#     8   8   4   8   8
#     4  10  23  41  69 101 137 171 220 280 325 395
#     4  10  24  41  63 100 131 174 225 272 329 394
#     4  12  24  38  69  96 137 188 228 272 326 388
#     4  10  23  46  73  96 127 172 218 273 348 410
#     4   9  22  43  61  94 138 186 228 266 324 393
#
# _framework density 22.414403
#
# number of rings (size 3 to 8) (size 9 to 14) (size 15 to 20)
#    0.000    2.000    0.000    2.667    9.333    8.444 
#    0.000    2.778    0.000    0.000    0.000    0.000 
#    0.000    0.000    0.000    0.000    0.000    0.000 
#
# Total GULP energy -100623.979832 kJ/mol
# GULP energy per Si atom -5590.221102 kJ/mol
# Density = 2.236339 g / cm^3
# Si number density = 22.414403 Si / 1000 Ang^3
#
#
#
# Elastic Constant Matrix: (Units=GPa)
#
#
# Indices 1 2 3 4 5 6 
#
# 1 140.3941 28.9261 48.7593 0.0000 38.9227 0.0000
# 2 28.9261 106.6131 50.8170 0.0000 23.1608 0.0000
# 3 48.7593 50.8170 82.9696 0.0000 21.1914 0.0000
# 4 0.0000 0.0000 0.0000 39.8017 0.0000 -2.6729
# 5 38.9227 23.1608 21.1914 0.0000 52.7840 0.0000
# 6 0.0000 0.0000 0.0000 -2.6729 0.0000 22.9997
#
#
#
# Elastic Compliance Matrix: (Units=1/GPa)
#
#
# Indices 1 2 3 4 5 6 
#
# 1 0.010379 0.000938 -0.005141 0.000000 -0.006001 0.000000
# 2 0.000938 0.013727 -0.008072 0.000000 -0.003475 0.000000
# 3 -0.005141 -0.008072 0.020218 0.000000 -0.000784 0.000000
# 4 0.000000 0.000000 0.000000 0.025322 0.000000 0.002943
# 5 -0.006001 -0.003475 -0.000784 0.000000 0.025210 0.000000
# 6 0.000000 0.000000 0.000000 0.002943 0.000000 0.043821
#
#
# Mechanical properties :
#
#
# Convention : Reuss Voigt Hill
#
# Bulk Modulus (GPa) = 50.56954 65.22019 57.89487
# Shear Modulus (GPa) = 29.44336 36.54870 32.99603
#
# Velocity S-wave (km/s) = 3.62828 4.04244 3.84095
# Velocity P-wave (km/s) = 6.33741 7.13786 6.74951
#
# Compressibility (1/GPa) = 0.01977475
#
# Stress axis : x y z
#
# Youngs Moduli (GPa) = 96.35062 72.84758 49.46086
#
# Poissons Ratio (x) = -0.06835 0.25430
# Poissons Ratio (y) = -0.09041 0.39923
# Poissons Ratio (z) = 0.49537 0.58800
#
# Static dielectric constant tensor:
#      x y z
#    x 1.863190 0.000000 -0.005540 
#    y 0.000000 1.844780 0.000000 
#    z -0.005540 0.000000 1.936920 
# 
# From -- ./inp_files/40608.got.cif
#   From: 2010.05.17/outbox.cif.g08.bks.cpg/sg12_21_cif.got.tgz:40608.got - 2010.06.03 13:09:07.
