data_PCOD9217029
_publ_section_title
;
Structure prediction by ZEFSAII (Michael W. Deem and Ramdas Pophale) SiO2 
 PCOD9217029
Probable space group: C 2/M
;
_chemical_formula_sum "Si O2"
_cell_formula_units_Z 40
_cell_length_a 12.908357
_cell_length_b 19.777085
_cell_length_c 12.917953
_cell_angle_alpha 90.000000
_cell_angle_beta 143.290180
_cell_angle_gamma 90.000000
_cell_volume 1971.313314
_symmetry_space_group_name_H-M "C 2/M"
_symmetry_group_IT_number 12
_symmetry_cell_setting 'monoclinic'
loop_
_space_group_symop_operation_xyz
x,y,z
-x,y,-z
-x,-y,-z
x,-y,z
1/2+x,1/2+y,z
1/2-x,1/2+y,-z
1/2-x,1/2-y,-z
1/2+x,1/2-y,z
loop_
_atom_site_type_symbol
_atom_site_label
_atom_site_fract_x
_atom_site_fract_y
_atom_site_fract_z
Si Si1 0.706719 0.830011 0.682447
Si Si2 0.449550 0.419396 0.742286
Si Si3 0.723372 0.172983 0.942493
Si Si4 0.316974 0.426818 0.407036
Si Si5 0.600008 0.806337 0.186173
O O1 0.500000 0.832393 0.500000
O O2 0.815000 0.891247 0.719478
O O3 0.733113 0.830027 0.826899
O O4 0.793039 0.761698 0.703423
O O5 0.481288 0.500000 0.777577
O O6 0.357104 0.407544 0.557655
O O7 0.628147 0.376699 0.894671
O O8 0.530391 0.163443 0.832221
O O9 0.750000 0.250000 0.000000
O O10 0.500000 0.434682 0.500000
O O11 0.225434 0.500000 0.331671
O O12 0.227424 0.368130 0.271776
O O13 0.500000 0.791706 0.000000
#
# Coordination Sequence:
#
# PCOD9217029 Si02
#       5
#     8   8   8   8   8
#     4  12  26  42  67 101 132 177 222 275 331 392
#     4  11  25  47  70  96 135 179 220 274 334 394
#     4  12  24  42  66  99 133 168 223 271 325 396
#     4  10  23  41  64  97 134 176 223 269 329 393
#     4  12  23  39  67  94 135 172 221 278 330 389
#
# _framework density 20.291041
#
# number of rings (size 3 to 8) (size 9 to 14) (size 15 to 20)
#    0.000    0.600    4.000    3.600    2.800    4.800 
#    0.000    0.000    0.000    0.000    0.000    0.000 
#    0.000    0.000    0.000    0.000    0.000    0.000 
#
# Total GULP energy -111669.584206 kJ/mol
# GULP energy per Si atom -5583.479210 kJ/mol
# Density = 2.024486 g / cm^3
# Si number density = 20.291041 Si / 1000 Ang^3
#
#
#
# Elastic Constant Matrix: (Units=GPa)
#
#
# Indices 1 2 3 4 5 6 
#
# 1 101.2550 -0.1913 3.1002 0.0000 3.3691 0.0000
# 2 -0.1913 94.2465 35.2422 0.0000 20.5485 0.0000
# 3 3.1002 35.2422 51.5763 0.0000 14.3761 0.0000
# 4 0.0000 0.0000 0.0000 47.8324 0.0000 -4.2496
# 5 3.3691 20.5485 14.3761 0.0000 43.5355 0.0000
# 6 0.0000 0.0000 0.0000 -4.2496 0.0000 40.4123
#
#
#
# Elastic Compliance Matrix: (Units=1/GPa)
#
#
# Indices 1 2 3 4 5 6 
#
# 1 0.009923 0.000441 -0.000689 0.000000 -0.000748 0.000000
# 2 0.000441 0.014888 -0.009066 0.000000 -0.004068 0.000000
# 3 -0.000689 -0.009066 0.026893 0.000000 -0.004548 0.000000
# 4 0.000000 0.000000 0.000000 0.021103 0.000000 0.002219
# 5 -0.000748 -0.004068 -0.004548 0.000000 0.026449 0.000000
# 6 0.000000 0.000000 0.000000 0.002219 0.000000 0.024978
#
#
# Mechanical properties :
#
#
# Convention : Reuss Voigt Hill
#
# Bulk Modulus (GPa) = 30.23371 35.93112 33.08242
# Shear Modulus (GPa) = 32.49105 40.28447 36.38776
#
# Velocity S-wave (km/s) = 4.00590 4.46054 4.23932
# Velocity P-wave (km/s) = 6.02733 6.65394 6.34837
#
# Compressibility (1/GPa) = 0.03307566
#
# Stress axis : x y z
#
# Youngs Moduli (GPa) = 100.77705 67.16667 37.18486
#
# Poissons Ratio (x) = -0.02962 0.02563
# Poissons Ratio (y) = -0.04445 0.33712
# Poissons Ratio (z) = 0.06946 0.60893
#
# Static dielectric constant tensor:
#      x y z
#    x 1.001740 0.000000 -0.001520 
#    y 0.000000 1.888300 0.000000 
#    z -0.001520 0.000000 1.735010 
# 
# From -- ./inp_files/46917.got.cif
#   From: 2010.05.17/outbox.cif.g08.bks.cpg/sg12_24_cif.got.tgz:46917.got - 2010.06.03 13:09:07.
