data_PCOD9217446
_publ_section_title
;
Structure prediction by ZEFSAII (Michael W. Deem and Ramdas Pophale) SiO2 
 PCOD9217446
Probable space group: C 2/M
;
_chemical_formula_sum "Si O2"
_cell_formula_units_Z 64
_cell_length_a 17.076598
_cell_length_b 18.036424
_cell_length_c 16.089797
_cell_angle_alpha 90.000000
_cell_angle_beta 40.509786
_cell_angle_gamma 90.000000
_cell_volume 3219.093613
_symmetry_space_group_name_H-M "C 2/M"
_symmetry_group_IT_number 12
_symmetry_cell_setting 'monoclinic'
loop_
_space_group_symop_operation_xyz
x,y,z
-x,y,-z
-x,-y,-z
x,-y,z
1/2+x,1/2+y,z
1/2-x,1/2+y,-z
1/2-x,1/2-y,-z
1/2+x,1/2-y,z
loop_
_atom_site_type_symbol
_atom_site_label
_atom_site_fract_x
_atom_site_fract_y
_atom_site_fract_z
Si Si1 0.287893 0.315952 0.641134
Si Si2 0.814780 0.915862 0.885342
Si Si3 0.265723 0.587105 0.405077
Si Si4 0.352354 0.910560 0.836483
Si Si5 0.585307 0.170476 0.668235
Si Si6 0.136799 0.344349 0.357169
Si Si7 0.040184 0.831293 0.642206
Si Si8 0.866355 0.415520 0.113864
O O1 0.180475 0.302268 0.660567
O O2 0.329603 0.241893 0.654825
O O3 0.398546 0.347099 0.496383
O O4 0.226452 0.373082 0.752708
O O5 0.695021 0.917722 0.926280
O O6 0.908287 0.861789 0.765792
O O7 0.864783 0.000000 0.846148
O O8 0.769657 0.895056 0.013527
O O9 0.284615 0.500000 0.395632
O O10 0.156107 0.613687 0.552112
O O11 0.227469 0.610886 0.343954
O O12 0.378676 0.630593 0.351977
O O13 0.465355 0.872108 0.792132
O O14 0.351488 0.874512 0.745680
O O15 0.367130 0.000000 0.820497
O O16 0.548719 0.243130 0.646240
O O17 0.000000 0.355875 0.500000
O O18 0.879648 0.500000 0.134551
O O19 0.000000 0.382085 0.000000
#
# Coordination Sequence:
#
# PCOD9217446 Si02
#       8
#     8   8   8   8   8   8   8   8
#     4  11  23  40  65  95 129 167 213 265 326 389
#     4  10  24  44  64  90 127 170 216 261 315 393
#     4  11  21  37  63  93 129 167 206 264 324 381
#     4  11  24  42  67  97 128 168 220 271 324 382
#     4  11  21  40  63  93 126 165 213 263 316 380
#     4  12  23  40  63  99 134 166 210 274 327 385
#     4  11  22  42  63  91 131 170 213 257 319 388
#     4  10  23  43  65  92 127 163 212 275 327 376
#
# _framework density 19.881371999999999
#
# number of rings (size 3 to 8) (size 9 to 14) (size 15 to 20)
#    0.000    1.125    3.750    2.625    3.500    5.000 
#    2.250    1.875    0.000    2.250    0.000    0.000 
#    0.000    0.000    0.000    0.000    0.000    0.000 
#
# Total GULP energy -178772.941139 kJ/mol
# GULP energy per Si atom -5586.654411 kJ/mol
# Density = 1.983612 g / cm^3
# Si number density = 19.881372 Si / 1000 Ang^3
#
#
#
# Elastic Constant Matrix: (Units=GPa)
#
#
# Indices 1 2 3 4 5 6 
#
# 1 64.2635 23.3381 33.2362 -0.0001 -4.3500 0.0001
# 2 23.3381 81.4534 49.4554 -0.0001 -0.9523 0.0000
# 3 33.2362 49.4554 132.6862 -0.0004 6.2738 0.0001
# 4 -0.0001 -0.0001 -0.0004 340.7721 0.0003 -104.9216
# 5 -4.3500 -0.9523 6.2738 0.0003 22.9456 -0.0001
# 6 0.0001 0.0000 0.0001 -104.9216 -0.0001 62.2873
#
#
#
# Elastic Compliance Matrix: (Units=1/GPa)
#
#
# Indices 1 2 3 4 5 6 
#
# 1 0.018953 -0.003058 -0.003821 0.000000 0.004511 0.000000
# 2 -0.003058 0.016483 -0.005453 0.000000 0.001595 0.000000
# 3 -0.003821 -0.005453 0.010710 0.000000 -0.003879 0.000000
# 4 0.000000 0.000000 0.000000 0.006096 0.000000 0.010269
# 5 0.004511 0.001595 -0.003879 0.000000 0.045563 0.000000
# 6 0.000000 0.000000 0.000000 0.010269 0.000000 0.033353
#
#
# Mechanical properties :
#
#
# Convention : Reuss Voigt Hill
#
# Bulk Modulus (GPa) = 46.55148 54.49583 50.52366
# Shear Modulus (GPa) = 30.67837 96.69256 63.68547
#
# Velocity S-wave (km/s) = 3.93246 6.98143 5.66589
# Velocity P-wave (km/s) = 6.63961 9.61546 8.26261
#
# Compressibility (1/GPa) = 0.02148159
#
# Stress axis : x y z
#
# Youngs Moduli (GPa) = 52.76231 60.67034 93.37442
#
# Poissons Ratio (x) = 0.18551 0.35679
# Poissons Ratio (y) = 0.16133 0.50917
# Poissons Ratio (z) = 0.20161 0.33083
#
# Static dielectric constant tensor:
#      x y z
#    x 1.757830 0.000000 0.006380 
#    y 0.000000 1.676760 0.000000 
#    z 0.006380 0.000000 1.696380 
# 
# From -- ./inp_files/226834.got.cif
#   From: 2010.05.17/outbox.cif.g08.bks.cpg/sg12_114_cif.got.tgz:226834.got - 2010.06.03 13:09:07.
