data_PCOD9217429
_publ_section_title
;
Structure prediction by ZEFSAII (Michael W. Deem and Ramdas Pophale) SiO2 
 PCOD9217429
Probable space group: C 2/M
;
_chemical_formula_sum "Si O2"
_cell_formula_units_Z 64
_cell_length_a 15.965306
_cell_length_b 8.565038
_cell_length_c 31.127037
_cell_angle_alpha 90.000000
_cell_angle_beta 50.865351
_cell_angle_gamma 90.000000
_cell_volume 3301.554312
_symmetry_space_group_name_H-M "C 2/M"
_symmetry_group_IT_number 12
_symmetry_cell_setting 'monoclinic'
loop_
_space_group_symop_operation_xyz
x,y,z
-x,y,-z
-x,-y,-z
x,-y,z
1/2+x,1/2+y,z
1/2-x,1/2+y,-z
1/2-x,1/2-y,-z
1/2+x,1/2-y,z
loop_
_atom_site_type_symbol
_atom_site_label
_atom_site_fract_x
_atom_site_fract_y
_atom_site_fract_z
Si Si1 0.009996 0.811588 0.168024
Si Si2 0.104302 0.686250 0.938134
Si Si3 0.315152 0.684878 0.175403
Si Si4 0.529358 0.190056 0.558712
Si Si5 0.576447 0.685883 0.242582
Si Si6 0.215727 0.314273 0.057311
Si Si7 0.909640 0.686608 0.365634
Si Si8 0.672332 0.811475 0.431061
O O1 0.039371 0.763617 0.206860
O O2 0.093986 0.730758 0.108732
O O3 0.888656 0.774221 0.192586
O O4 0.023302 0.000000 0.160282
O O5 0.100969 0.500000 0.932312
O O6 0.115402 0.771110 0.889160
O O7 0.208793 0.732263 0.931852
O O8 0.000000 0.731364 0.000000
O O9 0.295072 0.500000 0.182081
O O10 0.200933 0.769873 0.209499
O O11 0.560649 0.245007 0.595939
O O12 0.411414 0.237842 0.579226
O O13 0.616386 0.236452 0.494292
O O14 0.528933 0.000000 0.559360
O O15 0.564567 0.500000 0.248362
O O16 0.500523 0.760939 0.302897
O O17 0.230135 0.500000 0.054130
O O18 0.250000 0.250000 0.000000
O O19 0.906370 0.500000 0.368273
O O20 0.792381 0.747318 0.389605
O O21 0.676810 0.000000 0.428994
#
# Coordination Sequence:
#
# PCOD9217429 Si02
#       8
#     8   8   8   8   8   8   8   8
#     4  10  23  43  65  87 118 154 196 245 304 363
#     4  11  23  39  60  89 124 158 194 239 294 360
#     4  11  23  41  65  91 116 151 195 248 305 359
#     4   8  17  34  58  85 118 159 198 244 299 360
#     4  11  24  43  63  84 117 163 205 249 297 361
#     4  12  24  38  61  90 123 157 196 244 297 355
#     4  11  22  36  56  86 121 154 197 252 304 352
#     4   9  17  35  60  85 115 157 205 243 294 364
#
# _framework density 19.384810000000002
#
# number of rings (size 3 to 8) (size 9 to 14) (size 15 to 20)
#    0.000    1.625    1.250    4.500    0.000    5.500 
#    0.000    8.125    0.000    0.000    0.000    0.000 
#    0.000    0.000    0.000    0.000    0.000    0.000 
#
# Total GULP energy -178833.743129 kJ/mol
# GULP energy per Si atom -5588.554473 kJ/mol
# Density = 1.934069 g / cm^3
# Si number density = 19.384810 Si / 1000 Ang^3
#
#
#
# Elastic Constant Matrix: (Units=GPa)
#
#
# Indices 1 2 3 4 5 6 
#
# 1 94.0622 5.8885 24.5558 0.0002 -16.7691 0.0002
# 2 5.8885 16.9707 7.3263 -0.0005 -2.4324 0.0003
# 3 24.5558 7.3263 68.0662 0.0003 -19.0024 0.0001
# 4 0.0002 -0.0005 0.0003 27.2478 0.0001 0.2194
# 5 -16.7691 -2.4324 -19.0024 0.0001 19.1965 0.0001
# 6 0.0002 0.0003 0.0001 0.2194 0.0001 20.1028
#
#
#
# Elastic Compliance Matrix: (Units=1/GPa)
#
#
# Indices 1 2 3 4 5 6 
#
# 1 0.012889 -0.002367 -0.001846 0.000000 0.009133 0.000000
# 2 -0.002367 0.062272 -0.005836 0.000001 0.000046 -0.000001
# 3 -0.001846 -0.005836 0.021183 0.000000 0.018617 0.000000
# 4 0.000000 0.000001 0.000000 0.036703 -0.000001 -0.000401
# 5 0.009133 0.000046 0.018617 -0.000001 0.078505 -0.000001
# 6 0.000000 -0.000001 0.000000 -0.000401 -0.000001 0.049749
#
#
# Mechanical properties :
#
#
# Convention : Reuss Voigt Hill
#
# Bulk Modulus (GPa) = 13.11510 28.29338 20.70424
# Shear Modulus (GPa) = 16.29649 22.73131 19.51390
#
# Velocity S-wave (km/s) = 2.90260 3.42809 3.17623
# Velocity P-wave (km/s) = 4.24427 5.50422 4.91478
#
# Compressibility (1/GPa) = 0.07624800
#
# Stress axis : x y z
#
# Youngs Moduli (GPa) = 77.58326 16.05853 47.20765
#
# Poissons Ratio (x) = 0.03800 0.08713
# Poissons Ratio (y) = 0.18361 0.27550
# Poissons Ratio (z) = 0.14320 0.09372
#
# Static dielectric constant tensor:
#      x y z
#    x 1.342130 0.000000 0.062830 
#    y 0.000000 1.658590 0.000000 
#    z 0.062830 0.000000 1.644890 
# 
# From -- ./inp_files/375377.got.cif
#   From: 2010.05.17/outbox.cif.g08.bks.cpg/sg12_188_cif.got.tgz:375377.got - 2010.06.03 13:09:07.
