data_PCOD9217670
_publ_section_title
;
Structure prediction by ZEFSAII (Michael W. Deem and Ramdas Pophale) SiO2 
 PCOD9217670
Probable space group: C 2/M
;
_chemical_formula_sum "Si O2"
_cell_formula_units_Z 32
_cell_length_a 11.115479
_cell_length_b 25.588093
_cell_length_c 13.368796
_cell_angle_alpha 90.000000
_cell_angle_beta 21.267680
_cell_angle_gamma 90.000000
_cell_volume 1379.229776
_symmetry_space_group_name_H-M "C 2/M"
_symmetry_group_IT_number 12
_symmetry_cell_setting 'monoclinic'
loop_
_space_group_symop_operation_xyz
x,y,z
-x,y,-z
-x,-y,-z
x,-y,z
1/2+x,1/2+y,z
1/2-x,1/2+y,-z
1/2-x,1/2-y,-z
1/2+x,1/2-y,z
loop_
_atom_site_type_symbol
_atom_site_label
_atom_site_fract_x
_atom_site_fract_y
_atom_site_fract_z
Si Si1 0.396068 0.562294 0.689990
Si Si2 0.880389 0.279364 0.192799
Si Si3 0.184465 0.326340 0.144027
Si Si4 0.247974 0.892147 0.616938
O O1 0.500000 0.583448 0.500000
O O2 0.461856 0.500000 0.639054
O O3 0.596744 0.583092 0.632162
O O4 0.000000 0.569345 0.000000
O O5 0.500000 0.264884 0.500000
O O6 0.952061 0.315735 0.230627
O O7 0.000000 0.308078 0.000000
O O8 0.109764 0.227535 0.011346
O O9 0.963084 0.342946 0.408901
O O10 0.437751 0.372205 0.921513
O O11 0.500000 0.920467 0.500000
#
# Coordination Sequence:
#
# PCOD9217670 Si02
#       4
#     8   8   8   8
#     4  10  23  44  68  94 125 159 197 248 306 364
#     4  11  22  38  58  81 117 163 211 257 301 353
#     4  11  24  38  57  87 121 161 205 253 306 355
#     4  12  24  40  64  92 125 162 202 251 306 366
#
# _framework density 23.201353999999998
#
# number of rings (size 3 to 8) (size 9 to 14) (size 15 to 20)
#    0.000    1.000    0.000    7.500    0.000   10.500 
#    0.000    0.000    0.000    7.500    0.000    0.000 
#    0.000    0.000    0.000    0.000    0.000    0.000 
#
# Total GULP energy -89418.467818 kJ/mol
# GULP energy per Si atom -5588.654239 kJ/mol
# Density = 2.314855 g / cm^3
# Si number density = 23.201354 Si / 1000 Ang^3
#
#
#
# Elastic Constant Matrix: (Units=GPa)
#
#
# Indices 1 2 3 4 5 6 
#
# 1 199.9362 30.4679 41.8529 -0.0200 -19.4992 0.0019
# 2 30.4679 43.1461 -3.2760 -0.0073 -19.1214 0.0041
# 3 41.8529 -3.2760 100.3102 -0.0553 0.7357 -0.0442
# 4 -0.0200 -0.0073 -0.0553 5.3993 0.0173 -19.2381
# 5 -19.4992 -19.1214 0.7357 0.0173 47.0957 0.0005
# 6 0.0019 0.0041 -0.0442 -19.2381 0.0005 48.9737
#
#
#
# Elastic Compliance Matrix: (Units=1/GPa)
#
#
# Indices 1 2 3 4 5 6 
#
# 1 0.006325 -0.004266 -0.002785 0.000056 0.000930 0.000020
# 2 -0.004266 0.031210 0.002719 -0.000047 0.010863 -0.000019
# 3 -0.002785 0.002719 0.011221 -0.000362 -0.000224 -0.000132
# 4 0.000056 -0.000047 -0.000362 -0.463396 0.000182 -0.182034
# 5 0.000930 0.010863 -0.000224 0.000182 0.026033 0.000070
# 6 0.000020 -0.000019 -0.000132 -0.182034 0.000070 -0.051089
#
#
# Mechanical properties :
#
#
# Convention : Reuss Voigt Hill
#
# Bulk Modulus (GPa) = 24.94164 53.49802 39.21983
# Shear Modulus (GPa) = -11.97125 38.58358 13.30617
#
# Velocity S-wave (km/s) = -2.27397 4.08240 2.39740
# Velocity P-wave (km/s) = 1.96948 6.73272 4.96026
#
# Compressibility (1/GPa) = 0.04009359
#
# Stress axis : x y z
#
# Youngs Moduli (GPa) = 158.09104 32.04079 89.11539
#
# Poissons Ratio (x) = 0.13668 0.24821
# Poissons Ratio (y) = 0.67440 -0.24235
# Poissons Ratio (z) = 0.44033 -0.08713
#
# Static dielectric constant tensor:
#      x y z
#    x 1.978280 0.000000 -0.058260 
#    y 0.000000 1.864870 0.000010 
#    z -0.058260 0.000010 1.793300 
# 
# From -- ./inp_files/209029.got.cif
#   From: 2010.05.17/outbox.cif.g08.bks.cpg/sg12_105_cif.got.tgz:209029.got - 2010.06.03 13:09:07.
