data_PCOD9217912
_publ_section_title
;
Structure prediction by ZEFSAII (Michael W. Deem and Ramdas Pophale) SiO2 
 PCOD9217912
Probable space group: C 2/M
;
_chemical_formula_sum "Si O2"
_cell_formula_units_Z 56
_cell_length_a 14.505536
_cell_length_b 27.285596
_cell_length_c 13.059495
_cell_angle_alpha 90.000000
_cell_angle_beta 143.005691
_cell_angle_gamma 90.000000
_cell_volume 3110.279253
_symmetry_space_group_name_H-M "C 2/M"
_symmetry_group_IT_number 12
_symmetry_cell_setting 'monoclinic'
loop_
_space_group_symop_operation_xyz
x,y,z
-x,y,-z
-x,-y,-z
x,-y,z
1/2+x,1/2+y,z
1/2-x,1/2+y,-z
1/2-x,1/2-y,-z
1/2+x,1/2-y,z
loop_
_atom_site_type_symbol
_atom_site_label
_atom_site_fract_x
_atom_site_fract_y
_atom_site_fract_z
Si Si1 0.912997 0.842927 0.224425
Si Si2 0.171433 0.713846 0.346531
Si Si3 0.689657 0.500000 0.780599
Si Si4 0.787840 0.107620 0.447149
Si Si5 0.865738 0.245030 0.322815
Si Si6 0.167308 0.000000 0.513004
Si Si7 0.174569 0.601552 0.119613
Si Si8 0.080326 0.219995 0.961751
O O1 0.944954 0.798194 0.329860
O O2 0.742030 0.860047 0.099259
O O3 0.935432 0.824668 0.129941
O O4 0.038059 0.883081 0.364423
O O5 0.250000 0.750000 0.500000
O O6 0.192807 0.656586 0.395747
O O7 0.257877 0.722598 0.315137
O O8 0.002532 0.734234 0.168864
O O9 0.675863 0.500000 0.644514
O O10 0.516726 0.500000 0.671501
O O11 0.787485 0.548267 0.891765
O O12 0.754581 0.051447 0.451241
O O13 0.772483 0.107498 0.310569
O O14 0.000000 0.274105 0.500000
O O15 0.756458 0.271363 0.145733
O O16 0.000000 0.607580 0.000000
O O17 0.000000 0.211850 0.000000
#
# Coordination Sequence:
#
# PCOD9217912 Si02
#       8
#     8   8   4   8   8   4   8   8
#     4  12  20  36  55  76 109 153 188 231 279 337
#     4  11  20  33  53  77 109 148 187 229 273 332
#     4   9  17  32  50  72 114 147 181 229 274 331
#     4  11  20  34  54  78 111 149 193 222 280 340
#     4  11  20  34  51  75 108 144 188 223 281 342
#     4   9  18  30  52  80 104 151 190 225 275 340
#     4  11  22  32  51  82 113 147 189 228 278 333
#     4  10  24  37  52  78 111 150 193 239 282 336
#
# _framework density 18.004814
#
# number of rings (size 3 to 8) (size 9 to 14) (size 15 to 20)
#    0.000    1.286    5.714    1.071    2.000    0.000 
#    0.000    0.000    0.000    0.000    0.000    2.000 
#    0.000    0.000    0.000   14.929    0.000    0.000 
#
# Total GULP energy -156060.634666 kJ/mol
# GULP energy per Si atom -5573.594095 kJ/mol
# Density = 1.796383 g / cm^3
# Si number density = 18.004814 Si / 1000 Ang^3
#
#
#
# Elastic Constant Matrix: (Units=GPa)
#
#
# Indices 1 2 3 4 5 6 
#
# 1 56.3779 33.5754 23.5929 0.0000 0.3274 0.0000
# 2 33.5754 109.7853 37.2940 0.0000 -4.2451 0.0000
# 3 23.5929 37.2940 95.2737 0.0000 7.8821 0.0000
# 4 0.0000 0.0000 0.0000 17.7285 0.0000 4.5552
# 5 0.3274 -4.2451 7.8821 0.0000 24.7530 0.0000
# 6 0.0000 0.0000 0.0000 4.5552 0.0000 21.4392
#
#
#
# Elastic Compliance Matrix: (Units=1/GPa)
#
#
# Indices 1 2 3 4 5 6 
#
# 1 0.022569 -0.005790 -0.003303 0.000000 -0.000240 0.000000
# 2 -0.005790 0.012243 -0.003634 0.000000 0.003334 0.000000
# 3 -0.003303 -0.003634 0.013130 0.000000 -0.004761 0.000000
# 4 0.000000 0.000000 0.000000 0.059663 0.000000 -0.012677
# 5 -0.000240 0.003334 -0.004761 0.000000 0.042490 0.000000
# 6 0.000000 0.000000 0.000000 -0.012677 0.000000 0.049337
#
#
# Mechanical properties :
#
#
# Convention : Reuss Voigt Hill
#
# Bulk Modulus (GPa) = 44.46664 50.04018 47.25341
# Shear Modulus (GPa) = 21.51627 23.91577 22.71602
#
# Velocity S-wave (km/s) = 3.46067 3.64854 3.55584
# Velocity P-wave (km/s) = 6.38114 6.75293 6.56967
#
# Compressibility (1/GPa) = 0.02248877
#
# Stress axis : x y z
#
# Youngs Moduli (GPa) = 44.30890 81.68066 76.15870
#
# Poissons Ratio (x) = 0.47289 0.25153
# Poissons Ratio (y) = 0.25653 0.27679
# Poissons Ratio (z) = 0.14634 0.29686
#
# Static dielectric constant tensor:
#      x y z
#    x 1.631480 0.000000 0.055030 
#    y 0.000000 1.668800 0.000000 
#    z 0.055030 0.000000 1.673490 
# 
# From -- ./inp_files/149520.got.cif
#   From: 2010.05.17/outbox.cif.g08.bks.cpg/sg12_75_cif.got.tgz:149520.got - 2010.06.03 13:09:07.
