data_PCOD9217042
_publ_section_title
;
Structure prediction by ZEFSAII (Michael W. Deem and Ramdas Pophale) SiO2 
 PCOD9217042
Probable space group: C 2/M
;
_chemical_formula_sum "Si O2"
_cell_formula_units_Z 34
_cell_length_a 7.329142
_cell_length_b 15.318551
_cell_length_c 22.169805
_cell_angle_alpha 90.000000
_cell_angle_beta 45.699816
_cell_angle_gamma 90.000000
_cell_volume 1781.385623
_symmetry_space_group_name_H-M "C 2/M"
_symmetry_group_IT_number 12
_symmetry_cell_setting 'monoclinic'
loop_
_space_group_symop_operation_xyz
x,y,z
-x,y,-z
-x,-y,-z
x,-y,z
1/2+x,1/2+y,z
1/2-x,1/2+y,-z
1/2-x,1/2-y,-z
1/2+x,1/2-y,z
loop_
_atom_site_type_symbol
_atom_site_label
_atom_site_fract_x
_atom_site_fract_y
_atom_site_fract_z
Si Si1 0.105383 0.601935 0.412030
Si Si2 0.000000 0.500000 0.000000
Si Si3 0.102308 0.000000 0.836640
Si Si4 0.422049 0.158783 0.711617
Si Si5 0.536185 0.000000 0.131846
Si Si6 0.696776 0.644751 0.269720
O O1 0.033265 0.500000 0.423012
O O2 0.012517 0.651567 0.373940
O O3 0.410629 0.610376 0.340939
O O4 0.000000 0.635274 0.500000
O O5 0.700983 0.500000 0.093307
O O6 0.103914 0.500000 0.046483
O O7 0.216102 0.084799 0.776136
O O8 0.230539 0.000000 0.873878
O O9 0.316670 0.255246 0.748646
O O10 0.664605 0.142422 0.697670
O O11 0.365556 0.915618 0.187723
#
# Coordination Sequence:
#
# PCOD9217042 Si02
#       6
#     8   2   4   8   4   8
#     4  11  23  39  60  91 126 164 212 259 305 349
#     4  12  22  40  72  86 126 154 190 252 328 354
#     4  10  23  41  65  92 120 156 206 247 302 375
#     4  11  22  40  65  88 123 166 210 249 300 365
#     4  10  23  41  65  92 120 156 206 247 302 375
#     4  11  22  40  65  88 123 166 210 249 300 365
#
# _framework density 19.086265000000001
#
# number of rings (size 3 to 8) (size 9 to 14) (size 15 to 20)
#    0.000    1.176    4.706    1.765    0.000    1.882 
#    0.000    3.529    0.000    0.000    0.000    0.000 
#    0.000    0.000    0.000    0.000    0.000    0.000 
#
# Total GULP energy -94730.439881 kJ/mol
# GULP energy per Si atom -5572.378817 kJ/mol
# Density = 1.904282 g / cm^3
# Si number density = 19.086265 Si / 1000 Ang^3
#
#
#
# Elastic Constant Matrix: (Units=GPa)
#
#
# Indices 1 2 3 4 5 6 
#
# 1 81.5617 -11.4953 27.3370 0.0715 22.5552 0.1191
# 2 -11.4953 90.4868 7.2557 0.0567 18.3805 0.0951
# 3 27.3370 7.2557 61.0398 0.0100 27.8699 0.0167
# 4 0.0715 0.0567 0.0100 -142.1663 -0.0285 -231.2697
# 5 22.5552 18.3805 27.8699 -0.0285 38.9889 -0.0475
# 6 0.1191 0.0951 0.0167 -231.2697 -0.0475 -369.4627
#
#
#
# Elastic Compliance Matrix: (Units=1/GPa)
#
#
# Indices 1 2 3 4 5 6 
#
# 1 0.016597 0.004206 -0.003925 0.000028 -0.008779 -0.000010
# 2 0.004206 0.013415 0.000772 0.000024 -0.009309 -0.000009
# 3 -0.003925 0.000772 0.025501 0.000008 -0.016322 -0.000003
# 4 0.000028 0.000024 0.000008 0.384645 -0.000046 -0.240773
# 5 -0.008779 -0.009309 -0.016322 -0.000046 0.046783 0.000017
# 6 -0.000010 -0.000009 -0.000003 -0.240773 0.000017 0.148008
#
#
# Mechanical properties :
#
#
# Convention : Reuss Voigt Hill
#
# Bulk Modulus (GPa) = 17.35500 31.03144 24.19322
# Shear Modulus (GPa) = 7.66816 -80.52862 -36.43023
#
# Velocity S-wave (km/s) = 2.00658 -6.50258 -4.37362
# Velocity P-wave (km/s) = 3.80541 6.33121 3.57792
#
# Compressibility (1/GPa) = 0.05762030
#
# Stress axis : x y z
#
# Youngs Moduli (GPa) = 60.25338 74.54447 39.21394
#
# Poissons Ratio (x) = -0.31356 0.15390
# Poissons Ratio (y) = -0.25345 -0.03028
# Poissons Ratio (z) = 0.23647 -0.05756
#
# Static dielectric constant tensor:
#      x y z
#    x 1.677770 0.000000 0.018070 
#    y 0.000000 1.667930 0.000000 
#    z 0.018070 0.000000 1.619810 
# 
# From -- ./inp_files/332387.got.cif
#   From: 2010.05.17/outbox.cif.g08.bks.cpg/sg12_167_cif.got.tgz:332387.got - 2010.06.03 13:09:07.
