data_PCOD9218612
_publ_section_title
;
Structure prediction by ZEFSAII (Michael W. Deem and Ramdas Pophale) SiO2 
 PCOD9218612
Probable space group: C 2/M
;
_chemical_formula_sum "Si O2"
_cell_formula_units_Z 46
_cell_length_a 28.309246
_cell_length_b 14.653775
_cell_length_c 4.986131
_cell_angle_alpha 90.000000
_cell_angle_beta 74.097967
_cell_angle_gamma 90.000000
_cell_volume 1989.277573
_symmetry_space_group_name_H-M "C 2/M"
_symmetry_group_IT_number 12
_symmetry_cell_setting 'monoclinic'
loop_
_space_group_symop_operation_xyz
x,y,z
-x,y,-z
-x,-y,-z
x,-y,z
1/2+x,1/2+y,z
1/2-x,1/2+y,-z
1/2-x,1/2-y,-z
1/2+x,1/2-y,z
loop_
_atom_site_type_symbol
_atom_site_label
_atom_site_fract_x
_atom_site_fract_y
_atom_site_fract_z
Si Si1 0.906313 0.500000 0.153917
Si Si2 0.776548 0.500000 0.920262
Si Si3 0.546515 0.856756 0.242566
Si Si4 0.867503 0.151408 0.507741
Si Si5 0.000000 0.000000 0.500000
Si Si6 0.354384 0.135701 0.572055
Si Si7 0.710269 0.500000 0.522818
Si Si8 0.934326 0.853579 0.902119
O O1 0.865195 0.579352 0.288523
O O2 0.946511 0.420260 0.021635
O O3 0.809558 0.588157 0.794468
O O4 0.730011 0.500000 0.793126
O O5 0.756201 0.500000 0.250384
O O6 0.500000 0.874952 0.500000
O O7 0.595629 0.882586 0.336202
O O8 0.548684 0.750806 0.161587
O O9 0.851601 0.257090 0.525765
O O10 0.888436 0.131397 0.770276
O O11 0.823476 0.086890 0.490207
O O12 0.912896 0.134453 0.232981
O O13 0.024199 0.920982 0.265122
#
# Coordination Sequence:
#
# PCOD9218612 Si02
#       8
#     4   4   8   8   2   8   4   8
#     4  11  20  40  63  88 133 183 222 281 329 393
#     4  11  27  43  70 106 130 176 236 283 358 405
#     4  11  23  41  63 102 138 181 234 272 330 411
#     4  11  24  47  69  99 137 182 226 282 351 399
#     4  12  24  44  68 102 142 190 224 282 332 386
#     4  10  25  41  68  97 138 184 217 293 343 409
#     4  12  26  45  73 100 133 176 233 294 337 434
#     4  11  24  42  69 101 141 181 229 278 329 410
#
# _framework density 23.123974
#
# number of rings (size 3 to 8) (size 9 to 14) (size 15 to 20)
#    0.000    1.043    2.609    3.391    4.870    4.174 
#    0.000    0.000    0.000    0.000    0.000    0.000 
#    0.000    0.000    0.000    0.000    0.000    0.000 
#
# Total GULP energy -128078.733845 kJ/mol
# GULP energy per Si atom -5568.640602 kJ/mol
# Density = 2.307134 g / cm^3
# Si number density = 23.123974 Si / 1000 Ang^3
#
#
#
# Elastic Constant Matrix: (Units=GPa)
#
#
# Indices 1 2 3 4 5 6 
#
# 1 79.4744 31.0034 -0.7155 0.0000 2.0577 0.0000
# 2 31.0034 117.6207 5.6699 0.0000 -15.8046 0.0000
# 3 -0.7155 5.6699 78.4444 0.0000 -21.4306 0.0000
# 4 0.0000 0.0000 0.0000 16.7599 0.0000 -28.3643
# 5 2.0577 -15.8046 -21.4306 0.0000 42.6887 0.0000
# 6 0.0000 0.0000 0.0000 -28.3643 0.0000 26.5055
#
#
#
# Elastic Compliance Matrix: (Units=1/GPa)
#
#
# Indices 1 2 3 4 5 6 
#
# 1 0.014218 -0.004045 -0.000202 0.000000 -0.002284 0.000000
# 2 -0.004045 0.010104 0.000357 0.000000 0.004115 0.000000
# 3 -0.000202 0.000357 0.014787 0.000000 0.007565 0.000000
# 4 0.000000 0.000000 0.000000 -0.073564 0.000000 -0.078723
# 5 -0.002284 0.004115 0.007565 0.000000 0.028857 0.000000
# 6 0.000000 0.000000 0.000000 -0.078723 0.000000 -0.046516
#
#
# Mechanical properties :
#
#
# Convention : Reuss Voigt Hill
#
# Bulk Modulus (GPa) = 31.91936 38.60612 35.26274
# Shear Modulus (GPa) = -147.52861 33.16295 -57.18283
#
# Velocity S-wave (km/s) = -7.99609 3.79111 -4.97820
# Velocity P-wave (km/s) = 8.45082 5.99123 4.21436
#
# Compressibility (1/GPa) = 0.03132895
#
# Stress axis : x y z
#
# Youngs Moduli (GPa) = 70.33377 98.97276 67.62676
#
# Poissons Ratio (x) = 0.40033 0.01366
# Poissons Ratio (y) = 0.28449 -0.02414
# Poissons Ratio (z) = 0.01421 -0.03533
#
# Static dielectric constant tensor:
#      x y z
#    x 1.929900 0.000000 0.084940 
#    y 0.000000 1.807190 0.000000 
#    z 0.084940 0.000000 1.900400 
# 
# From -- ./inp_files/31428.got.cif
#   From: 2010.05.17/outbox.cif.g08.bks.cpg/sg12_16_cif.got.tgz:31428.got - 2010.06.03 13:09:07.
