data_PCOD9218001
_publ_section_title
;
Structure prediction by ZEFSAII (Michael W. Deem and Ramdas Pophale) SiO2 
 PCOD9218001
Probable space group: C 2/M
;
_chemical_formula_sum "Si O2"
_cell_formula_units_Z 36
_cell_length_a 25.257909
_cell_length_b 8.745058
_cell_length_c 8.972192
_cell_angle_alpha 90.000000
_cell_angle_beta 115.683561
_cell_angle_gamma 90.000000
_cell_volume 1785.996109
_symmetry_space_group_name_H-M "C 2/M"
_symmetry_group_IT_number 12
_symmetry_cell_setting 'monoclinic'
loop_
_space_group_symop_operation_xyz
x,y,z
-x,y,-z
-x,-y,-z
x,-y,z
1/2+x,1/2+y,z
1/2-x,1/2+y,-z
1/2-x,1/2-y,-z
1/2+x,1/2-y,z
loop_
_atom_site_type_symbol
_atom_site_label
_atom_site_fract_x
_atom_site_fract_y
_atom_site_fract_z
Si Si1 0.277268 0.326911 0.387946
Si Si2 0.009330 0.000000 0.256527
Si Si3 0.131534 0.668665 0.696995
Si Si4 0.341127 0.183150 0.926697
Si Si5 0.900708 0.000000 0.894617
Si Si6 0.500000 0.748587 0.500000
O O1 0.286652 0.500000 0.442288
O O2 0.250000 0.250000 0.500000
O O3 0.337154 0.266775 0.390732
O O4 0.227292 0.315904 0.199565
O O5 0.006959 0.144238 0.362492
O O6 0.066473 0.000000 0.223336
O O7 0.952236 0.000000 0.081863
O O8 0.156538 0.500000 0.707201
O O9 0.061572 0.667093 0.593920
O O10 0.146753 0.714432 0.884564
O O11 0.368161 0.334177 0.876332
O O12 0.360353 0.000000 0.920444
#
# Coordination Sequence:
#
# PCOD9218001 Si02
#       6
#     8   4   8   8   4   4
#     4  11  26  43  66  98 131 169 217 276 334 390
#     4  10  24  40  66 102 128 174 230 260 328 394
#     4  11  24  43  66  94 132 174 219 270 329 396
#     4  10  24  44  66  99 133 172 222 268 333 397
#     4  11  22  44  72  96 134 179 216 274 330 387
#     4  11  23  42  64  98 132 172 222 275 321 394
#
# _framework density 20.156817
#
# number of rings (size 3 to 8) (size 9 to 14) (size 15 to 20)
#    0.000    1.333    2.222    1.667   10.889    0.000 
#    0.000    3.333    0.000    0.000    0.000    0.000 
#    0.000    0.000    0.000    0.000    0.000    0.000 
#
# Total GULP energy -100363.594844 kJ/mol
# GULP energy per Si atom -5575.755269 kJ/mol
# Density = 2.011094 g / cm^3
# Si number density = 20.156817 Si / 1000 Ang^3
#
#
#
# Elastic Constant Matrix: (Units=GPa)
#
#
# Indices 1 2 3 4 5 6 
#
# 1 120.2592 72.5353 40.5887 0.0000 -14.9056 0.0000
# 2 72.5353 126.3327 14.2087 0.0000 -29.5647 0.0000
# 3 40.5887 14.2087 76.2953 0.0000 -2.8683 0.0000
# 4 0.0000 0.0000 0.0000 25.4172 0.0000 0.7984
# 5 -14.9056 -29.5647 -2.8683 0.0000 29.1620 0.0000
# 6 0.0000 0.0000 0.0000 0.7984 0.0000 36.9613
#
#
#
# Elastic Compliance Matrix: (Units=1/GPa)
#
#
# Indices 1 2 3 4 5 6 
#
# 1 0.015534 -0.008467 -0.006736 0.000000 -0.001307 0.000000
# 2 -0.008467 0.015177 0.002102 0.000000 0.011266 0.000000
# 3 -0.006736 0.002102 0.016310 0.000000 0.000292 0.000000
# 4 0.000000 0.000000 0.000000 0.039370 0.000000 -0.000850
# 5 -0.001307 0.011266 0.000292 0.000000 0.045073 0.000000
# 6 0.000000 0.000000 0.000000 -0.000850 0.000000 0.027074
#
#
# Mechanical properties :
#
#
# Convention : Reuss Voigt Hill
#
# Bulk Modulus (GPa) = 48.03638 64.17253 56.10446
# Shear Modulus (GPa) = 26.08491 31.34505 28.71498
#
# Velocity S-wave (km/s) = 3.60126 3.94770 3.77845
# Velocity P-wave (km/s) = 6.41679 7.25844 6.85055
#
# Compressibility (1/GPa) = 0.02081755
#
# Stress axis : x y z
#
# Youngs Moduli (GPa) = 64.37468 65.88819 61.31121
#
# Poissons Ratio (x) = 0.55789 0.41301
# Poissons Ratio (y) = 0.54508 -0.12885
# Poissons Ratio (z) = 0.43365 -0.13847
#
# Static dielectric constant tensor:
#      x y z
#    x 1.791560 0.000000 -0.106920 
#    y 0.000000 1.750150 0.000000 
#    z -0.106920 0.000000 1.840380 
# 
# From -- ./inp_files/93152.got.cif
#   From: 2010.05.17/outbox.cif.g08.bks.cpg/sg12_47_cif.got.tgz:93152.got - 2010.06.03 13:09:07.
