data_PCOD9218400
_publ_section_title
;
Structure prediction by ZEFSAII (Michael W. Deem and Ramdas Pophale) SiO2 
 PCOD9218400
Probable space group: C 2/M
;
_chemical_formula_sum "Si O2"
_cell_formula_units_Z 48
_cell_length_a 8.909944
_cell_length_b 21.926578
_cell_length_c 10.974347
_cell_angle_alpha 90.000000
_cell_angle_beta 110.149712
_cell_angle_gamma 90.000000
_cell_volume 2012.776831
_symmetry_space_group_name_H-M "C 2/M"
_symmetry_group_IT_number 12
_symmetry_cell_setting 'monoclinic'
loop_
_space_group_symop_operation_xyz
x,y,z
-x,y,-z
-x,-y,-z
x,-y,z
1/2+x,1/2+y,z
1/2-x,1/2+y,-z
1/2-x,1/2-y,-z
1/2+x,1/2-y,z
loop_
_atom_site_type_symbol
_atom_site_label
_atom_site_fract_x
_atom_site_fract_y
_atom_site_fract_z
Si Si1 0.561131 0.614637 0.331916
Si Si2 0.472253 0.841952 0.805945
Si Si3 0.136129 0.567955 0.435757
Si Si4 0.254362 0.431311 0.123941
Si Si5 0.334861 0.637810 0.913023
Si Si6 0.074752 0.750258 0.401142
O O1 0.694713 0.589188 0.460656
O O2 0.402082 0.576134 0.259465
O O3 0.644011 0.620994 0.222237
O O4 0.509414 0.681570 0.364082
O O5 0.436290 0.888340 0.685489
O O6 0.368600 0.876482 0.879016
O O7 0.661111 0.832325 0.877477
O O8 0.417798 0.778975 0.730541
O O9 0.156732 0.500000 0.391440
O O10 0.000000 0.565638 0.500000
O O11 0.188681 0.500000 0.110171
O O12 0.320979 0.417678 0.006588
O O13 0.500000 0.670934 0.000000
O O14 0.250000 0.750000 0.500000
O O15 0.000000 0.717735 0.500000
#
# Coordination Sequence:
#
# PCOD9218400 Si02
#       6
#     8   8   8   8   8   8
#     4  11  23  44  67 105 137 181 235 285 354 422
#     4  12  23  44  67 103 139 180 236 289 349 414
#     4  11  22  37  65 101 139 177 223 292 356 419
#     4  11  26  45  68 100 142 189 233 288 350 418
#     4  10  24  45  68  93 135 182 234 284 337 413
#     4  12  24  42  72 103 142 185 227 284 354 428
#
# _framework density 23.847653000000001
#
# number of rings (size 3 to 8) (size 9 to 14) (size 15 to 20)
#    0.000    0.833    3.333    4.000    0.000    5.667 
#    0.000   10.833    0.000    0.000    0.000    0.000 
#    0.000    0.000    0.000    0.000    0.000    0.000 
#
# Total GULP energy -133972.747765 kJ/mol
# GULP energy per Si atom -5582.197824 kJ/mol
# Density = 2.379337 g / cm^3
# Si number density = 23.847653 Si / 1000 Ang^3
#
#
#
# Elastic Constant Matrix: (Units=GPa)
#
#
# Indices 1 2 3 4 5 6 
#
# 1 113.6524 -1.7667 29.9603 0.0000 6.3553 0.0000
# 2 -1.7667 80.0620 11.2096 0.0000 -0.3310 0.0000
# 3 29.9603 11.2096 108.8620 0.0000 7.4647 0.0000
# 4 0.0000 0.0000 0.0000 54.2296 0.0000 28.7639
# 5 6.3553 -0.3310 7.4647 0.0000 67.8190 0.0000
# 6 0.0000 0.0000 0.0000 28.7639 0.0000 36.4294
#
#
#
# Elastic Compliance Matrix: (Units=1/GPa)
#
#
# Indices 1 2 3 4 5 6 
#
# 1 0.009538 0.000578 -0.002643 0.000000 -0.000600 0.000000
# 2 0.000578 0.012711 -0.001480 0.000000 0.000171 0.000000
# 3 -0.002643 -0.001480 0.010126 0.000000 -0.000874 0.000000
# 4 0.000000 0.000000 0.000000 0.031728 0.000000 -0.025052
# 5 -0.000600 0.000171 -0.000874 0.000000 0.014898 0.000000
# 6 0.000000 0.000000 0.000000 -0.025052 0.000000 0.047231
#
#
# Mechanical properties :
#
#
# Convention : Reuss Voigt Hill
#
# Bulk Modulus (GPa) = 39.54932 42.37587 40.96259
# Shear Modulus (GPa) = 35.27337 49.24046 42.25692
#
# Velocity S-wave (km/s) = 3.85010 4.54893 4.21402
# Velocity P-wave (km/s) = 6.03195 6.73783 6.39464
#
# Compressibility (1/GPa) = 0.02528489
#
# Stress axis : x y z
#
# Youngs Moduli (GPa) = 104.84233 78.67230 98.75822
#
# Poissons Ratio (x) = -0.04548 0.26106
# Poissons Ratio (y) = -0.06061 0.14613
# Poissons Ratio (z) = 0.27714 0.11641
#
# Static dielectric constant tensor:
#      x y z
#    x 1.700250 0.000000 -0.109780 
#    y 0.000000 1.930570 0.000000 
#    z -0.109780 0.000000 1.897520 
# 
# From -- ./inp_files/123871.got.cif
#   From: 2010.05.17/outbox.cif.g08.bks.cpg/sg12_62_cif.got.tgz:123871.got - 2010.06.03 13:09:07.
