data_PCOD9218290
_publ_section_title
;
Structure prediction by ZEFSAII (Michael W. Deem and Ramdas Pophale) SiO2 
 PCOD9218290
Probable space group: C 2/M
;
_chemical_formula_sum "Si O2"
_cell_formula_units_Z 38
_cell_length_a 11.614323
_cell_length_b 22.596800
_cell_length_c 10.593756
_cell_angle_alpha 90.000000
_cell_angle_beta 140.435766
_cell_angle_gamma 90.000000
_cell_volume 1770.888827
_symmetry_space_group_name_H-M "C 2/M"
_symmetry_group_IT_number 12
_symmetry_cell_setting 'monoclinic'
loop_
_space_group_symop_operation_xyz
x,y,z
-x,y,-z
-x,-y,-z
x,-y,z
1/2+x,1/2+y,z
1/2-x,1/2+y,-z
1/2-x,1/2-y,-z
1/2+x,1/2-y,z
loop_
_atom_site_type_symbol
_atom_site_label
_atom_site_fract_x
_atom_site_fract_y
_atom_site_fract_z
Si Si1 0.011388 0.067151 0.864053
Si Si2 0.819959 0.729252 0.420995
Si Si3 0.851190 0.604847 0.021813
Si Si4 0.500000 0.000000 0.000000
Si Si5 0.000000 0.284942 0.000000
Si Si6 0.110654 0.409034 0.473733
O O1 0.812136 0.066229 0.637451
O O2 0.085096 0.000000 0.927037
O O3 0.151772 0.107741 0.910056
O O4 0.000000 0.086281 0.000000
O O5 0.750000 0.750000 0.500000
O O6 0.654819 0.744946 0.190223
O O7 0.859264 0.660308 0.474507
O O8 0.000000 0.753887 0.500000
O O9 0.859161 0.553446 0.924052
O O10 0.991291 0.583209 0.248306
O O11 0.914758 0.668757 0.028122
O O12 0.000000 0.433043 0.500000
#
# Coordination Sequence:
#
# PCOD9218290 Si02
#       6
#     8   8   8   2   4   8
#     4  11  24  40  67 100 131 172 221 275 335 405
#     4  11  26  46  67 102 136 179 234 282 337 407
#     4  11  23  45  66  99 137 176 221 276 339 402
#     4  10  24  44  66  88 136 178 218 270 332 404
#     4  11  26  43  74  94 137 188 223 280 338 400
#     4  11  24  42  67  99 137 172 222 281 337 396
#
# _framework density 21.458151000000001
#
# number of rings (size 3 to 8) (size 9 to 14) (size 15 to 20)
#    0.000    1.053    5.263    0.000    5.895    1.263 
#    0.000    4.211    0.000    0.000    0.000    0.000 
#    0.000    0.000    0.000    0.000    0.000    0.000 
#
# Total GULP energy -105882.357455 kJ/mol
# GULP energy per Si atom -5572.755656 kJ/mol
# Density = 2.140931 g / cm^3
# Si number density = 21.458151 Si / 1000 Ang^3
#
#
#
# Elastic Constant Matrix: (Units=GPa)
#
#
# Indices 1 2 3 4 5 6 
#
# 1 120.9885 4.4397 31.8332 0.0000 31.7706 0.0000
# 2 4.4397 51.5712 -13.1379 0.0000 10.8034 0.0000
# 3 31.8332 -13.1379 120.8615 0.0000 22.6779 0.0000
# 4 0.0000 0.0000 0.0000 27.1474 0.0000 11.6094
# 5 31.7706 10.8034 22.6779 0.0000 35.8315 0.0000
# 6 0.0000 0.0000 0.0000 11.6094 0.0000 -8.4034
#
#
#
# Elastic Compliance Matrix: (Units=1/GPa)
#
#
# Indices 1 2 3 4 5 6 
#
# 1 0.010949 0.000722 -0.001070 0.000000 -0.009249 0.000000
# 2 0.000722 0.022485 0.004138 0.000000 -0.010039 0.000000
# 3 -0.001070 0.004138 0.010283 0.000000 -0.006807 0.000000
# 4 0.000000 0.000000 0.000000 0.023156 0.000000 0.031990
# 5 -0.009249 -0.010039 -0.006807 0.000000 0.043444 0.000000
# 6 0.000000 0.000000 0.000000 0.031990 0.000000 -0.074805
#
#
# Mechanical properties :
#
#
# Convention : Reuss Voigt Hill
#
# Bulk Modulus (GPa) = 19.49429 37.74345 28.61887
# Shear Modulus (GPa) = 111.03596 28.93417 69.98507
#
# Velocity S-wave (km/s) = 7.20123 3.67604 5.71712
# Velocity P-wave (km/s) = 8.84580 5.97036 7.54630
#
# Compressibility (1/GPa) = 0.05129708
#
# Stress axis : x y z
#
# Youngs Moduli (GPa) = 91.33375 44.47311 97.25075
#
# Poissons Ratio (x) = -0.03212 0.10405
# Poissons Ratio (y) = -0.06597 -0.40238
# Poissons Ratio (z) = 0.09772 -0.18401
#
# Static dielectric constant tensor:
#      x y z
#    x 1.752570 0.000000 -0.067710 
#    y 0.000000 1.434750 0.000000 
#    z -0.067710 0.000000 1.717050 
# 
# From -- ./inp_files/137133.got.cif
#   From: 2010.05.17/outbox.cif.g08.bks.cpg/sg12_69_cif.got.tgz:137133.got - 2010.06.03 13:09:07.
