data_PCOD9218302
_publ_section_title
;
Structure prediction by ZEFSAII (Michael W. Deem and Ramdas Pophale) SiO2 
 PCOD9218302
Probable space group: C 2/M
;
_chemical_formula_sum "Si O2"
_cell_formula_units_Z 48
_cell_length_a 9.444497
_cell_length_b 15.089244
_cell_length_c 31.846367
_cell_angle_alpha 90.000000
_cell_angle_beta 144.512745
_cell_angle_gamma 90.000000
_cell_volume 2634.661219
_symmetry_space_group_name_H-M "C 2/M"
_symmetry_group_IT_number 12
_symmetry_cell_setting 'monoclinic'
loop_
_space_group_symop_operation_xyz
x,y,z
-x,y,-z
-x,-y,-z
x,-y,z
1/2+x,1/2+y,z
1/2-x,1/2+y,-z
1/2-x,1/2-y,-z
1/2+x,1/2-y,z
loop_
_atom_site_type_symbol
_atom_site_label
_atom_site_fract_x
_atom_site_fract_y
_atom_site_fract_z
Si Si1 0.065240 0.658624 0.812121
Si Si2 0.304101 0.102643 0.325095
Si Si3 0.287020 0.500000 0.073137
Si Si4 0.580303 0.340571 0.182627
Si Si5 0.003149 0.895578 0.665538
Si Si6 0.128828 0.000000 0.076028
Si Si7 0.227818 0.740727 0.445359
O O1 0.222282 0.670705 0.807255
O O2 0.201775 0.584680 0.872871
O O3 0.039446 0.748320 0.832462
O O4 0.790165 0.627985 0.734364
O O5 0.202942 0.121825 0.254451
O O6 0.529538 0.167169 0.386562
O O7 0.104576 0.119836 0.313559
O O8 0.374720 0.000000 0.345612
O O9 0.385765 0.412835 0.120395
O O10 0.415464 0.500000 0.058980
O O11 0.000000 0.500000 0.000000
O O12 0.857343 0.830523 0.599005
O O13 0.971216 0.000000 0.647887
O O14 0.000000 0.000000 0.000000
O O15 0.500000 0.713679 0.500000
O O16 0.250000 0.750000 0.500000
#
# Coordination Sequence:
#
# PCOD9218302 Si02
#       7
#     8   8   4   8   8   4   8
#     4  11  23  41  66  98 130 171 217 261 319 381
#     4  11  24  42  66  95 127 168 219 264 322 389
#     4  10  24  44  66  98 136 170 210 267 320 374
#     4  11  23  41  66  98 131 170 217 262 316 386
#     4  11  24  42  67  94 126 171 218 263 322 389
#     4  10  24  44  66  98 136 168 214 264 320 380
#     4  12  26  44  63  93 131 166 214 273 328 377
#
# _framework density 18.218661999999998
#
# number of rings (size 3 to 8) (size 9 to 14) (size 15 to 20)
#    0.000    1.000    5.000    1.000    2.333    4.667 
#    0.000    3.333    0.000    0.000    0.000    0.000 
#    0.000    0.000    0.000    0.000    0.000    0.000 
#
# Total GULP energy -134076.171469 kJ/mol
# GULP energy per Si atom -5586.507145 kJ/mol
# Density = 1.817720 g / cm^3
# Si number density = 18.218662 Si / 1000 Ang^3
#
#
#
# Elastic Constant Matrix: (Units=GPa)
#
#
# Indices 1 2 3 4 5 6 
#
# 1 130.1416 75.2135 76.7586 0.0000 2.6936 0.0000
# 2 75.2135 156.1086 69.9740 0.0000 1.1999 0.0000
# 3 76.7586 69.9740 143.5304 -0.0002 -1.6908 -0.0001
# 4 0.0000 0.0000 -0.0002 22.6895 -0.0001 0.3750
# 5 2.6936 1.1999 -1.6908 -0.0001 45.0299 0.0000
# 6 0.0000 0.0000 -0.0001 0.3750 0.0000 30.0842
#
#
#
# Elastic Compliance Matrix: (Units=1/GPa)
#
#
# Indices 1 2 3 4 5 6 
#
# 1 0.012955 -0.003999 -0.004989 0.000000 -0.000856 0.000000
# 2 -0.003999 0.009438 -0.002464 0.000000 -0.000105 0.000000
# 3 -0.004989 -0.002464 0.010845 0.000000 0.000771 0.000000
# 4 0.000000 0.000000 0.000000 0.044082 0.000000 -0.000549
# 5 -0.000856 -0.000105 0.000771 0.000000 0.022290 0.000000
# 6 0.000000 0.000000 0.000000 -0.000549 0.000000 0.033247
#
#
# Mechanical properties :
#
#
# Convention : Reuss Voigt Hill
#
# Bulk Modulus (GPa) = 96.75674 97.07476 96.91575
# Shear Modulus (GPa) = 31.40584 33.41634 32.41109
#
# Velocity S-wave (km/s) = 4.15640 4.28738 4.22240
# Velocity P-wave (km/s) = 8.73259 8.82653 8.77969
#
# Compressibility (1/GPa) = 0.01033520
#
# Stress axis : x y z
#
# Youngs Moduli (GPa) = 77.18824 105.95822 92.20616
#
# Poissons Ratio (x) = 0.42374 0.46000
# Poissons Ratio (y) = 0.30869 0.22716
# Poissons Ratio (z) = 0.38508 0.26104
#
# Static dielectric constant tensor:
#      x y z
#    x 1.586680 0.000000 0.013300 
#    y 0.000000 1.623200 0.000000 
#    z 0.013300 0.000000 1.561890 
# 
# From -- ./inp_files/372430.got.cif
#   From: 2010.05.17/outbox.cif.g08.bks.cpg/sg12_187_cif.got.tgz:372430.got - 2010.06.03 13:09:07.
