data_PCOD9218276
_publ_section_title
;
Structure prediction by ZEFSAII (Michael W. Deem and Ramdas Pophale) SiO2 
 PCOD9218276
Probable space group: C 2/M
;
_chemical_formula_sum "Si O2"
_cell_formula_units_Z 56
_cell_length_a 31.009293
_cell_length_b 8.540290
_cell_length_c 21.010018
_cell_angle_alpha 90.000000
_cell_angle_beta 152.689529
_cell_angle_gamma 90.000000
_cell_volume 2552.851914
_symmetry_space_group_name_H-M "C 2/M"
_symmetry_group_IT_number 12
_symmetry_cell_setting 'monoclinic'
loop_
_space_group_symop_operation_xyz
x,y,z
-x,y,-z
-x,-y,-z
x,-y,z
1/2+x,1/2+y,z
1/2-x,1/2+y,-z
1/2-x,1/2-y,-z
1/2+x,1/2-y,z
loop_
_atom_site_type_symbol
_atom_site_label
_atom_site_fract_x
_atom_site_fract_y
_atom_site_fract_z
Si Si1 0.603687 0.180509 0.607752
Si Si2 0.858345 0.681987 0.850914
Si Si3 0.846054 0.813597 0.094218
Si Si4 0.555934 0.690280 0.407893
Si Si5 0.718267 0.185148 0.119981
Si Si6 0.068950 0.682787 0.182273
Si Si7 0.157782 0.183485 0.414112
O O1 0.500000 0.186562 0.500000
O O2 0.596068 0.246271 0.526440
O O3 0.671525 0.282244 0.741624
O O4 0.635449 0.000000 0.650144
O O5 0.828538 0.500000 0.804396
O O6 0.801683 0.751073 0.835270
O O7 0.863819 0.745350 0.786482
O O8 0.964537 0.683165 0.017115
O O9 0.946966 0.759175 0.254195
O O10 0.843935 0.000000 0.097460
O O11 0.750000 0.750000 0.000000
O O12 0.839065 0.764994 0.011123
O O13 0.557078 0.500000 0.410578
O O14 0.621176 0.743597 0.434156
O O15 0.697682 0.000000 0.092434
O O16 0.092214 0.500000 0.225519
O O17 0.077263 0.779992 0.256857
O O18 0.250000 0.250000 0.500000
O O19 0.172377 0.000000 0.440736
#
# Coordination Sequence:
#
# PCOD9218276 Si02
#       7
#     8   8   8   8   8   8   8
#     4  11  25  43  63  90 124 161 206 259 312 370
#     4   8  17  33  57  86 115 151 191 236 292 351
#     4  11  23  41  65  94 125 160 204 258 316 376
#     4  10  24  44  65  89 125 169 211 257 313 375
#     4  11  22  37  61  91 123 159 201 247 302 367
#     4   9  17  35  59  83 115 153 195 240 288 347
#     4  11  24  40  58  85 120 161 207 253 302 358
#
# _framework density 21.936250999999999
#
# number of rings (size 3 to 8) (size 9 to 14) (size 15 to 20)
#    0.000    1.857    0.000    4.286    2.000    5.714 
#    0.000    2.857    0.000    0.000    0.000    0.000 
#    0.000    0.000    0.000    0.000    0.000    0.000 
#
# Total GULP energy -156365.283150 kJ/mol
# GULP energy per Si atom -5584.474398 kJ/mol
# Density = 2.188632 g / cm^3
# Si number density = 21.936251 Si / 1000 Ang^3
#
#
#
# Elastic Constant Matrix: (Units=GPa)
#
#
# Indices 1 2 3 4 5 6 
#
# 1 96.3188 14.0072 9.0814 0.0000 -4.2512 0.0000
# 2 14.0072 20.9747 5.8970 0.0000 6.1413 0.0000
# 3 9.0814 5.8970 79.1763 0.0000 -5.1195 0.0000
# 4 0.0000 0.0000 0.0000 25.6698 0.0000 -4.7740
# 5 -4.2512 6.1413 -5.1195 0.0000 34.9269 0.0000
# 6 0.0000 0.0000 0.0000 -4.7740 0.0000 29.0737
#
#
#
# Elastic Compliance Matrix: (Units=1/GPa)
#
#
# Indices 1 2 3 4 5 6 
#
# 1 0.011806 -0.008574 -0.000530 0.000000 0.002867 0.000000
# 2 -0.008574 0.058026 -0.004104 0.000000 -0.011848 0.000000
# 3 -0.000530 -0.004104 0.013164 0.000000 0.002587 0.000000
# 4 0.000000 0.000000 0.000000 0.040183 0.000000 0.006598
# 5 0.002867 -0.011848 0.002587 0.000000 0.031443 0.000000
# 6 0.000000 0.000000 0.000000 0.006598 0.000000 0.035479
#
#
# Mechanical properties :
#
#
# Convention : Reuss Voigt Hill
#
# Bulk Modulus (GPa) = 17.67488 28.27124 22.97306
# Shear Modulus (GPa) = 21.24252 29.09969 25.17110
#
# Velocity S-wave (km/s) = 3.11525 3.64614 3.39110
# Velocity P-wave (km/s) = 4.58417 5.53550 5.08214
#
# Compressibility (1/GPa) = 0.05657748
#
# Stress axis : x y z
#
# Youngs Moduli (GPa) = 84.70522 17.23372 75.96601
#
# Poissons Ratio (x) = 0.14777 0.04027
# Poissons Ratio (y) = 0.72630 0.31179
# Poissons Ratio (z) = 0.04490 0.07073
#
# Static dielectric constant tensor:
#      x y z
#    x 1.874160 0.000000 0.056980 
#    y 0.000000 1.763820 0.000000 
#    z 0.056980 0.000000 1.839540 
# 
# From -- ./inp_files/329676.got.cif
#   From: 2010.05.17/outbox.cif.g08.bks.cpg/sg12_165_cif.got.tgz:329676.got - 2010.06.03 13:09:07.
