data_PCOD9218573
_publ_section_title
;
Structure prediction by ZEFSAII (Michael W. Deem and Ramdas Pophale) SiO2 
 PCOD9218573
Probable space group: C 2/M
;
_chemical_formula_sum "Si O2"
_cell_formula_units_Z 52
_cell_length_a 22.437137
_cell_length_b 23.799447
_cell_length_c 5.871382
_cell_angle_alpha 90.000000
_cell_angle_beta 50.173534
_cell_angle_gamma 90.000000
_cell_volume 2407.847307
_symmetry_space_group_name_H-M "C 2/M"
_symmetry_group_IT_number 12
_symmetry_cell_setting 'monoclinic'
loop_
_space_group_symop_operation_xyz
x,y,z
-x,y,-z
-x,-y,-z
x,-y,z
1/2+x,1/2+y,z
1/2-x,1/2+y,-z
1/2-x,1/2-y,-z
1/2+x,1/2-y,z
loop_
_atom_site_type_symbol
_atom_site_label
_atom_site_fract_x
_atom_site_fract_y
_atom_site_fract_z
Si Si1 0.413424 0.898686 0.642322
Si Si2 0.471542 0.566053 0.821401
Si Si3 0.312339 0.703001 0.775949
Si Si4 0.697809 0.405451 0.896569
Si Si5 0.698816 0.151505 0.702254
Si Si6 0.417784 0.788165 0.318653
Si Si7 0.201962 0.500000 0.164455
O O1 0.500000 0.915179 0.500000
O O2 0.420720 0.845822 0.454575
O O3 0.365272 0.950885 0.669053
O O4 0.363455 0.875492 0.976345
O O5 0.500000 0.588239 0.500000
O O6 0.493849 0.500000 0.767285
O O7 0.500000 0.589266 0.000000
O O8 0.378961 0.572796 0.037735
O O9 0.273270 0.674798 0.651880
O O10 0.391589 0.735463 0.533032
O O11 0.250000 0.750000 0.000000
O O12 0.318210 0.654264 0.947111
O O13 0.767303 0.395165 0.548964
O O14 0.729951 0.450762 0.994784
O O15 0.652549 0.200474 0.685153
O O16 0.500000 0.779235 0.000000
#
# Coordination Sequence:
#
# PCOD9218573 Si02
#       7
#     8   8   8   8   8   8   4
#     4  12  25  45  72 109 152 192 241 302 371 453
#     4  10  24  48  75 105 148 197 243 315 388 444
#     4  12  24  46  72 104 141 186 247 310 365 443
#     4  12  26  45  74 106 147 191 257 303 370 464
#     4  12  23  44  73 102 141 195 239 307 373 441
#     4  12  25  46  73 103 145 192 245 305 382 446
#     4  12  23  48  69 113 145 192 248 298 366 448
#
# _framework density 21.596056000000001
#
# number of rings (size 3 to 8) (size 9 to 14) (size 15 to 20)
#    0.000    0.308    8.462    0.692    2.154    0.615 
#    5.538    1.154    0.000    0.000    0.000    0.000 
#    0.000    0.000    0.000    0.000    0.000    0.000 
#
# Total GULP energy -144790.890997 kJ/mol
# GULP energy per Si atom -5568.880423 kJ/mol
# Density = 2.154690 g / cm^3
# Si number density = 21.596056 Si / 1000 Ang^3
#
#
#
# Elastic Constant Matrix: (Units=GPa)
#
#
# Indices 1 2 3 4 5 6 
#
# 1 110.8572 14.2863 17.8349 0.0000 -11.5532 0.0000
# 2 14.2863 96.1203 39.5362 0.0000 -3.0228 0.0000
# 3 17.8349 39.5362 122.6998 0.0000 -13.8194 0.0000
# 4 0.0000 0.0000 0.0000 -0.1014 0.0000 -13.3282
# 5 -11.5532 -3.0228 -13.8194 0.0000 35.8011 0.0000
# 6 0.0000 0.0000 0.0000 -13.3282 0.0000 16.7948
#
#
#
# Elastic Compliance Matrix: (Units=1/GPa)
#
#
# Indices 1 2 3 4 5 6 
#
# 1 0.009556 -0.001025 -0.000754 0.000000 0.002706 0.000000
# 2 -0.001025 0.012112 -0.003843 0.000000 -0.000791 0.000000
# 3 -0.000754 -0.003843 0.009863 0.000000 0.003239 0.000000
# 4 0.000000 0.000000 0.000000 -0.093645 0.000000 -0.074316
# 5 0.002706 -0.000791 0.003239 0.000000 0.029989 0.000000
# 6 0.000000 0.000000 0.000000 -0.074316 0.000000 0.000566
#
#
# Mechanical properties :
#
#
# Convention : Reuss Voigt Hill
#
# Bulk Modulus (GPa) = 49.29316 52.55469 50.92393
# Shear Modulus (GPa) = -368.88411 27.70022 -170.59194
#
# Velocity S-wave (km/s) = -13.08364 3.58530 -8.89740
# Velocity P-wave (km/s) = 14.33065 6.44417 9.05098
#
# Compressibility (1/GPa) = 0.02028679
#
# Stress axis : x y z
#
# Youngs Moduli (GPa) = 104.64584 82.56481 101.39324
#
# Poissons Ratio (x) = 0.08464 0.07644
# Poissons Ratio (y) = 0.10727 0.38963
# Poissons Ratio (z) = 0.07889 0.31728
#
# Static dielectric constant tensor:
#      x y z
#    x 1.769940 0.000000 0.041520 
#    y 0.000000 1.777960 0.000000 
#    z 0.041520 0.000000 1.797280 
# 
# From -- ./inp_files/26165.got.cif
#   From: 2010.05.17/outbox.cif.g08.bks.cpg/sg12_14_cif.got.tgz:26165.got - 2010.06.03 13:09:07.
