data_PCOD9218945
_publ_section_title
;
Structure prediction by ZEFSAII (Michael W. Deem and Ramdas Pophale) SiO2 
 PCOD9218945
Probable space group: C 2/M
;
_chemical_formula_sum "Si O2"
_cell_formula_units_Z 44
_cell_length_a 20.308091
_cell_length_b 7.647307
_cell_length_c 11.786903
_cell_angle_alpha 90.000000
_cell_angle_beta 66.934168
_cell_angle_gamma 90.000000
_cell_volume 1684.190711
_symmetry_space_group_name_H-M "C 2/M"
_symmetry_group_IT_number 12
_symmetry_cell_setting 'monoclinic'
loop_
_space_group_symop_operation_xyz
x,y,z
-x,y,-z
-x,-y,-z
x,-y,z
1/2+x,1/2+y,z
1/2-x,1/2+y,-z
1/2-x,1/2-y,-z
1/2+x,1/2-y,z
loop_
_atom_site_type_symbol
_atom_site_label
_atom_site_fract_x
_atom_site_fract_y
_atom_site_fract_z
Si Si1 0.144932 0.183680 0.031431
Si Si2 0.485471 0.786862 0.329382
Si Si3 0.582089 0.798519 0.846893
Si Si4 0.385564 0.213851 0.603629
Si Si5 0.233415 0.789923 0.642493
Si Si6 0.211570 0.500000 0.105703
O O1 0.092193 0.211965 0.961627
O O2 0.154469 0.348150 0.104943
O O3 0.869823 0.000000 0.898845
O O4 0.224065 0.148733 0.922746
O O5 0.470341 0.722897 0.213468
O O6 0.556195 0.725257 0.345672
O O7 0.419699 0.744666 0.458082
O O8 0.487263 0.000000 0.325012
O O9 0.660203 0.792068 0.734399
O O10 0.563687 0.000000 0.878453
O O11 0.304150 0.273291 0.661738
O O12 0.381083 0.000000 0.617873
O O13 0.250000 0.750000 0.500000
O O14 0.227789 0.000000 0.660067
#
# Coordination Sequence:
#
# PCOD9218945 Si02
#       6
#     8   8   8   8   8   4
#     4   9  16  29  47  69  98 125 150 190 237 294
#     4   8  14  25  43  63  83 115 163 204 228 266
#     4  11  19  28  45  72  97 119 156 199 237 277
#     4   8  14  27  43  57  81 123 166 197 229 269
#     4  11  20  30  43  62  91 126 162 198 237 281
#     4   8  16  30  48  68  96 126 148 182 246 302
#
# _framework density 26.125306999999999
#
# number of rings (size 3 to 8) (size 9 to 14) (size 15 to 20)
#    0.545    2.182    2.727    2.182    0.000    0.000 
#    0.000    0.000    0.000    5.455    0.000    0.000 
#    0.000    8.727    0.000    0.000    0.000    0.000 
#
# Total GULP energy -122625.680693 kJ/mol
# GULP energy per Si atom -5573.894577 kJ/mol
# Density = 2.606585 g / cm^3
# Si number density = 26.125307 Si / 1000 Ang^3
#
#
#
# Elastic Constant Matrix: (Units=GPa)
#
#
# Indices 1 2 3 4 5 6 
#
# 1 141.6985 13.6913 72.0473 0.0000 22.6709 0.0000
# 2 13.6913 114.4019 20.6015 0.0000 9.2899 0.0000
# 3 72.0473 20.6015 113.4336 0.0000 -17.2986 0.0000
# 4 0.0000 0.0000 0.0000 21.8625 0.0000 9.8176
# 5 22.6709 9.2899 -17.2986 0.0000 42.8048 0.0000
# 6 0.0000 0.0000 0.0000 9.8176 0.0000 21.7042
#
#
#
# Elastic Compliance Matrix: (Units=1/GPa)
#
#
# Indices 1 2 3 4 5 6 
#
# 1 0.014963 0.001374 -0.011730 0.000000 -0.012964 0.000000
# 2 0.001374 0.009488 -0.003220 0.000000 -0.004088 0.000000
# 3 -0.011730 -0.003220 0.019081 0.000000 0.014623 0.000000
# 4 0.000000 0.000000 0.000000 0.057400 0.000000 -0.025964
# 5 -0.012964 -0.004088 0.014623 0.000000 0.037024 0.000000
# 6 0.000000 0.000000 0.000000 -0.025964 0.000000 0.057818
#
#
# Mechanical properties :
#
#
# Convention : Reuss Voigt Hill
#
# Bulk Modulus (GPa) = 61.04588 64.69046 62.86817
# Shear Modulus (GPa) = 21.89276 34.82058 28.35667
#
# Velocity S-wave (km/s) = 2.89795 3.65475 3.29813
# Velocity P-wave (km/s) = 5.88343 6.52878 6.21449
#
# Compressibility (1/GPa) = 0.01638112
#
# Stress axis : x y z
#
# Youngs Moduli (GPa) = 66.83245 105.39158 52.40869
#
# Poissons Ratio (x) = -0.14485 0.61476
# Poissons Ratio (y) = -0.09185 0.16874
# Poissons Ratio (z) = 0.78395 0.33933
#
# Static dielectric constant tensor:
#      x y z
#    x 2.049840 0.000000 -0.026540 
#    y 0.000000 2.009670 0.000000 
#    z -0.026540 0.000000 2.122010 
# 
# From -- ./inp_files/229232.got.cif
#   From: 2010.05.17/outbox.cif.g08.bks.cpg/sg12_115_cif.got.tgz:229232.got - 2010.06.03 13:09:07.
