data_PCOD9218639
_publ_section_title
;
Structure prediction by ZEFSAII (Michael W. Deem and Ramdas Pophale) SiO2 
 PCOD9218639
Probable space group: C 2/M
;
_chemical_formula_sum "Si O2"
_cell_formula_units_Z 42
_cell_length_a 16.899976
_cell_length_b 20.644867
_cell_length_c 5.806006
_cell_angle_alpha 90.000000
_cell_angle_beta 73.114279
_cell_angle_gamma 90.000000
_cell_volume 1938.366337
_symmetry_space_group_name_H-M "C 2/M"
_symmetry_group_IT_number 12
_symmetry_cell_setting 'monoclinic'
loop_
_space_group_symop_operation_xyz
x,y,z
-x,y,-z
-x,-y,-z
x,-y,z
1/2+x,1/2+y,z
1/2-x,1/2+y,-z
1/2-x,1/2-y,-z
1/2+x,1/2-y,z
loop_
_atom_site_type_symbol
_atom_site_label
_atom_site_fract_x
_atom_site_fract_y
_atom_site_fract_z
Si Si1 0.853138 0.394439 0.548675
Si Si2 0.918523 0.144007 0.214529
Si Si3 0.043036 0.713473 0.710011
Si Si4 0.237097 0.826370 0.981582
Si Si5 0.803021 0.070299 0.604520
Si Si6 0.000000 0.500000 0.500000
O O1 0.882223 0.337384 0.352164
O O2 0.819017 0.358425 0.803599
O O3 0.774073 0.429411 0.505471
O O4 0.927676 0.443573 0.530383
O O5 0.935105 0.211110 0.333118
O O6 0.840476 0.162273 0.121262
O O7 0.887435 0.086001 0.399929
O O8 0.000000 0.128548 0.000000
O O9 0.000000 0.696793 0.500000
O O10 0.000000 0.707823 0.000000
O O11 0.250000 0.750000 0.000000
O O12 0.213333 0.868202 0.222025
O O13 0.805572 0.000000 0.720800
#
# Coordination Sequence:
#
# PCOD9218639 Si02
#       6
#     8   8   8   8   8   2
#     4  11  25  44  67 104 147 195 246 297 376 446
#     4  10  25  43  71 100 140 183 244 315 373 436
#     4  11  25  43  73 109 145 189 248 312 366 437
#     4  11  25  44  72 102 141 192 246 310 372 444
#     4  11  25  44  69 101 143 191 246 305 380 452
#     4  12  24  44  70 104 156 200 236 308 368 474
#
# _framework density 21.667731
#
# number of rings (size 3 to 8) (size 9 to 14) (size 15 to 20)
#    0.000    1.143    1.905    2.286   14.667    4.190 
#    0.000    2.381    0.000    0.000    0.000    0.000 
#    0.000    0.000    0.000    0.000    0.000    0.000 
#
# Total GULP energy -116988.553177 kJ/mol
# GULP energy per Si atom -5570.883485 kJ/mol
# Density = 2.161841 g / cm^3
# Si number density = 21.667731 Si / 1000 Ang^3
#
#
#
# Elastic Constant Matrix: (Units=GPa)
#
#
# Indices 1 2 3 4 5 6 
#
# 1 65.0220 27.8227 39.3007 0.0000 -21.9331 0.0000
# 2 27.8227 137.9013 55.0614 0.0000 -16.2397 0.0000
# 3 39.3007 55.0614 80.9331 0.0000 -11.5516 0.0000
# 4 0.0000 0.0000 0.0000 5.9880 0.0000 2.6254
# 5 -21.9331 -16.2397 -11.5516 0.0000 34.6668 0.0000
# 6 0.0000 0.0000 0.0000 2.6254 0.0000 -7.8349
#
#
#
# Elastic Compliance Matrix: (Units=1/GPa)
#
#
# Indices 1 2 3 4 5 6 
#
# 1 0.026474 0.000824 -0.011518 0.000000 0.013298 0.000000
# 2 0.000824 0.010197 -0.006910 0.000000 0.002995 0.000000
# 3 -0.011518 -0.006910 0.022204 0.000000 -0.003126 0.000000
# 4 0.000000 0.000000 0.000000 0.145609 0.000000 0.048793
# 5 0.013298 0.002995 -0.003126 0.000000 0.037621 0.000000
# 6 0.000000 0.000000 0.000000 0.048793 0.000000 -0.111284
#
#
# Mechanical properties :
#
#
# Convention : Reuss Voigt Hill
#
# Bulk Modulus (GPa) = 42.25361 58.69176 50.47269
# Shear Modulus (GPa) = 28.74919 17.34209 23.04564
#
# Velocity S-wave (km/s) = 3.64651 2.83214 3.26481
# Velocity P-wave (km/s) = 6.10511 6.15148 6.12834
#
# Compressibility (1/GPa) = 0.02366662
#
# Stress axis : x y z
#
# Youngs Moduli (GPa) = 37.77239 98.06705 45.03721
#
# Poissons Ratio (x) = -0.08076 0.51874
# Poissons Ratio (y) = -0.03111 0.31120
# Poissons Ratio (z) = 0.43507 0.67762
#
# Static dielectric constant tensor:
#      x y z
#    x 1.802380 0.000000 0.050050 
#    y 0.000000 1.795390 0.000000 
#    z 0.050050 0.000000 1.855940 
# 
# From -- ./inp_files/16030.got.cif
#   From: 2010.05.17/outbox.cif.g08.bks.cpg/sg12_9_cif.got.tgz:16030.got - 2010.06.03 13:09:07.
