data_PCOD9218323
_publ_section_title
;
Structure prediction by ZEFSAII (Michael W. Deem and Ramdas Pophale) SiO2 
 PCOD9218323
Probable space group: C 2/M
;
_chemical_formula_sum "Si O2"
_cell_formula_units_Z 36
_cell_length_a 12.571640
_cell_length_b 31.115870
_cell_length_c 7.473255
_cell_angle_alpha 90.000000
_cell_angle_beta 37.068773
_cell_angle_gamma 90.000000
_cell_volume 1762.128695
_symmetry_space_group_name_H-M "C 2/M"
_symmetry_group_IT_number 12
_symmetry_cell_setting 'monoclinic'
loop_
_space_group_symop_operation_xyz
x,y,z
-x,y,-z
-x,-y,-z
x,-y,z
1/2+x,1/2+y,z
1/2-x,1/2+y,-z
1/2-x,1/2-y,-z
1/2+x,1/2-y,z
loop_
_atom_site_type_symbol
_atom_site_label
_atom_site_fract_x
_atom_site_fract_y
_atom_site_fract_z
Si Si1 0.553269 0.547956 0.643473
Si Si2 0.349735 0.292546 0.571308
Si Si3 0.000000 0.764045 0.000000
Si Si4 0.806330 0.615929 0.196729
Si Si5 0.827301 0.549116 0.850096
O O1 0.500000 0.549449 0.500000
O O2 0.619993 0.500000 0.592854
O O3 0.696110 0.584862 0.477478
O O4 0.362887 0.553900 0.991048
O O5 0.500000 0.274543 0.500000
O O6 0.430848 0.290768 0.262859
O O7 0.303622 0.341147 0.687597
O O8 0.169265 0.265314 0.822448
O O9 0.834677 0.586010 0.987009
O O10 0.000000 0.628600 0.000000
O O11 0.825739 0.500000 0.927253
O O12 0.000000 0.552382 0.500000
#
# Coordination Sequence:
#
# PCOD9218323 Si02
#       5
#     8   8   4   8   8
#     4   8  15  30  52  76 109 154 197 240 301 364
#     4  11  22  44  68  95 128 167 202 264 322 375
#     4  10  24  44  68  98 126 158 218 256 312 410
#     4  11  21  36  54  88 122 157 212 255 302 376
#     4   9  18  35  57  84 117 160 210 256 308 372
#
# _framework density 20.429838
#
# number of rings (size 3 to 8) (size 9 to 14) (size 15 to 20)
#    0.000    2.222    1.111    4.667    0.000    1.778 
#    8.000    1.111    0.000    4.000    0.000    0.000 
#    0.000    0.000    0.000    0.000    0.000    0.000 
#
# Total GULP energy -100404.348065 kJ/mol
# GULP energy per Si atom -5578.019337 kJ/mol
# Density = 2.038334 g / cm^3
# Si number density = 20.429838 Si / 1000 Ang^3
#
#
#
# Elastic Constant Matrix: (Units=GPa)
#
#
# Indices 1 2 3 4 5 6 
#
# 1 53.8446 19.0356 26.1698 0.0000 -18.9265 0.0000
# 2 19.0356 70.0341 35.4067 0.0000 5.4230 0.0000
# 3 26.1698 35.4067 146.9242 0.0000 -16.2947 0.0000
# 4 0.0000 0.0000 0.0000 18.6458 0.0000 -1.4515
# 5 -18.9265 5.4230 -16.2947 0.0000 35.7677 0.0000
# 6 0.0000 0.0000 0.0000 -1.4515 0.0000 13.4695
#
#
#
# Elastic Compliance Matrix: (Units=1/GPa)
#
#
# Indices 1 2 3 4 5 6 
#
# 1 0.027295 -0.007940 -0.001278 0.000000 0.015065 0.000000
# 2 -0.007940 0.019279 -0.004236 0.000000 -0.009054 0.000000
# 3 -0.001278 -0.004236 0.008479 0.000000 0.003829 0.000000
# 4 0.000000 0.000000 0.000000 0.054085 0.000000 0.005828
# 5 0.015065 -0.009054 0.003829 0.000000 0.039047 0.000000
# 6 0.000000 0.000000 0.000000 0.005828 0.000000 0.074870
#
#
# Mechanical properties :
#
#
# Convention : Reuss Voigt Hill
#
# Bulk Modulus (GPa) = 35.52728 48.00302 41.76515
# Shear Modulus (GPa) = 19.27932 26.25598 22.76765
#
# Velocity S-wave (km/s) = 3.07528 3.58883 3.34193
# Velocity P-wave (km/s) = 5.48064 6.38126 5.94802
#
# Compressibility (1/GPa) = 0.02814739
#
# Stress axis : x y z
#
# Youngs Moduli (GPa) = 36.63651 51.86860 117.93413
#
# Poissons Ratio (x) = 0.41182 0.15067
# Poissons Ratio (y) = 0.29088 0.49958
# Poissons Ratio (z) = 0.04681 0.21972
#
# Static dielectric constant tensor:
#      x y z
#    x 1.785840 0.000000 0.006620 
#    y 0.000000 1.689060 0.000000 
#    z 0.006620 0.000000 1.783910 
# 
# From -- ./inp_files/67245.got.cif
#   From: 2010.05.17/outbox.cif.g08.bks.cpg/sg12_34_cif.got.tgz:67245.got - 2010.06.03 13:09:07.
