data_PCOD9218918
_publ_section_title
;
Structure prediction by ZEFSAII (Michael W. Deem and Ramdas Pophale) SiO2 
 PCOD9218918
Probable space group: C 2/M
;
_chemical_formula_sum "Si O2"
_cell_formula_units_Z 48
_cell_length_a 13.019992
_cell_length_b 21.175165
_cell_length_c 10.946247
_cell_angle_alpha 90.000000
_cell_angle_beta 47.646128
_cell_angle_gamma 90.000000
_cell_volume 2230.211295
_symmetry_space_group_name_H-M "C 2/M"
_symmetry_group_IT_number 12
_symmetry_cell_setting 'monoclinic'
loop_
_space_group_symop_operation_xyz
x,y,z
-x,y,-z
-x,-y,-z
x,-y,z
1/2+x,1/2+y,z
1/2-x,1/2+y,-z
1/2-x,1/2-y,-z
1/2+x,1/2-y,z
loop_
_atom_site_type_symbol
_atom_site_label
_atom_site_fract_x
_atom_site_fract_y
_atom_site_fract_z
Si Si1 0.142531 0.348250 0.080867
Si Si2 0.337994 0.425178 0.751068
Si Si3 0.361164 0.742597 0.545392
Si Si4 0.922301 0.611868 0.440673
Si Si5 0.856272 0.225023 0.075377
Si Si6 0.645421 0.613977 0.545603
O O1 0.253862 0.323842 0.091643
O O2 0.023091 0.387982 0.242949
O O3 0.219243 0.390107 0.920055
O O4 0.100075 0.282565 0.049322
O O5 0.325326 0.500000 0.765997
O O6 0.329476 0.404567 0.616154
O O7 0.486953 0.406565 0.691611
O O8 0.500000 0.716755 0.500000
O O9 0.403169 0.812905 0.476412
O O10 0.234012 0.746033 0.741634
O O11 0.340923 0.690338 0.457871
O O12 0.768962 0.586682 0.530436
O O13 0.000000 0.586962 0.500000
O O14 0.000000 0.193965 0.000000
#
# Coordination Sequence:
#
# PCOD9218918 Si02
#       6
#     8   8   8   8   8   8
#     4  11  23  39  60  95 133 165 209 258 315 379
#     4  11  25  44  68  94 118 163 223 273 316 361
#     4  11  18  37  55  97 133 165 199 247 317 388
#     4  11  24  38  60  96 136 167 204 250 321 391
#     4  11  22  35  60  94 134 168 201 249 318 384
#     4  11  21  40  67  91 131 163 209 261 314 375
#
# _framework density 21.522625000000001
#
# number of rings (size 3 to 8) (size 9 to 14) (size 15 to 20)
#    0.000    1.000    6.667    2.500    4.667    0.000 
#    0.000    2.500    0.000    8.000    0.000    0.000 
#    0.000    0.000    0.000    0.000    0.000    0.000 
#
# Total GULP energy -134112.049816 kJ/mol
# GULP energy per Si atom -5588.002076 kJ/mol
# Density = 2.147364 g / cm^3
# Si number density = 21.522625 Si / 1000 Ang^3
#
#
#
# Elastic Constant Matrix: (Units=GPa)
#
#
# Indices 1 2 3 4 5 6 
#
# 1 114.4053 -10.8791 -0.0439 0.0000 -14.7639 0.0000
# 2 -10.8791 51.2601 -20.2745 0.0000 5.4873 0.0000
# 3 -0.0439 -20.2745 57.3870 0.0000 -1.9730 0.0000
# 4 0.0000 0.0000 0.0000 17.6858 0.0000 1.1099
# 5 -14.7639 5.4873 -1.9730 0.0000 20.1482 0.0000
# 6 0.0000 0.0000 0.0000 1.1099 0.0000 4.5833
#
#
#
# Elastic Compliance Matrix: (Units=1/GPa)
#
#
# Indices 1 2 3 4 5 6 
#
# 1 0.009777 0.001678 0.000834 0.000000 0.006789 0.000000
# 2 0.001678 0.023568 0.008177 0.000000 -0.004388 0.000000
# 3 0.000834 0.008177 0.020328 0.000000 0.000375 0.000000
# 4 0.000000 0.000000 0.000000 0.057415 0.000000 -0.013904
# 5 0.006789 -0.004388 0.000375 0.000000 0.055839 0.000000
# 6 0.000000 0.000000 0.000000 -0.013904 0.000000 0.221552
#
#
# Mechanical properties :
#
#
# Convention : Reuss Voigt Hill
#
# Bulk Modulus (GPa) = 13.32435 17.85083 15.58759
# Shear Modulus (GPa) = 12.75126 25.43344 19.09235
#
# Velocity S-wave (km/s) = 2.43669 3.44133 2.98162
# Velocity P-wave (km/s) = 3.75778 4.90941 4.37168
#
# Compressibility (1/GPa) = 0.07505057
#
# Stress axis : x y z
#
# Youngs Moduli (GPa) = 102.28266 42.42967 49.19333
#
# Poissons Ratio (x) = -0.07120 -0.04101
# Poissons Ratio (y) = -0.17163 -0.40225
# Poissons Ratio (z) = -0.08527 -0.34695
#
# Static dielectric constant tensor:
#      x y z
#    x 1.943500 0.000000 0.025540 
#    y 0.000000 1.757910 0.000000 
#    z 0.025540 0.000000 1.783200 
# 
# From -- ./inp_files/147906.got.cif
#   From: 2010.05.17/outbox.cif.g08.bks.cpg/sg12_74_cif.got.tgz:147906.got - 2010.06.03 13:09:07.
