data_PCOD9218099
_publ_section_title
;
Structure prediction by ZEFSAII (Michael W. Deem and Ramdas Pophale) SiO2 
 PCOD9218099
Probable space group: C 2/M
;
_chemical_formula_sum "Si O2"
_cell_formula_units_Z 32
_cell_length_a 20.757472
_cell_length_b 9.239762
_cell_length_c 12.801909
_cell_angle_alpha 90.000000
_cell_angle_beta 146.908544
_cell_angle_gamma 90.000000
_cell_volume 1340.554133
_symmetry_space_group_name_H-M "C 2/M"
_symmetry_group_IT_number 12
_symmetry_cell_setting 'monoclinic'
loop_
_space_group_symop_operation_xyz
x,y,z
-x,y,-z
-x,-y,-z
x,-y,z
1/2+x,1/2+y,z
1/2-x,1/2+y,-z
1/2-x,1/2-y,-z
1/2+x,1/2-y,z
loop_
_atom_site_type_symbol
_atom_site_label
_atom_site_fract_x
_atom_site_fract_y
_atom_site_fract_z
Si Si1 0.243235 0.000000 0.133189
Si Si2 0.288054 0.500000 0.328362
Si Si3 0.796020 0.000000 0.696318
Si Si4 0.903332 0.500000 0.757238
Si Si5 0.000000 0.242094 0.000000
Si Si6 0.026937 0.000000 0.739657
Si Si7 0.379746 0.263474 0.291413
O O1 0.282515 0.000000 0.305278
O O2 0.292497 0.861774 0.141855
O O3 0.101633 0.000000 0.944800
O O4 0.170535 0.500000 0.234278
O O5 0.388673 0.500000 0.554676
O O6 0.314919 0.363370 0.290133
O O7 0.697082 0.000000 0.469625
O O8 0.884256 0.139350 0.826121
O O9 0.982231 0.353500 0.876307
O O10 0.070425 0.134598 0.730611
O O11 0.500000 0.196135 0.500000
#
# Coordination Sequence:
#
# PCOD9218099 Si02
#       7
#     4   4   4   4   4   4   8
#     4  12  21  35  58  89 120 154 195 248 308 356
#     4   9  19  38  62  82 112 164 196 237 309 362
#     4  11  25  41  61  98 131 158 213 263 302 373
#     4  11  22  44  68  88 130 169 204 261 312 366
#     4  10  24  42  64  90 126 166 216 252 312 368
#     4   9  20  36  59  85 113 158 197 241 297 370
#     4   9  19  37  58  84 117 151 199 243 298 365
#
# _framework density 23.870725
#
# number of rings (size 3 to 8) (size 9 to 14) (size 15 to 20)
#    0.000    2.000    0.000    4.875    3.500    0.000 
#    4.500    0.000   11.000    0.000    0.000    0.000 
#    0.000    0.000    0.000    0.000    0.000    0.000 
#
# Total GULP energy -89235.605315 kJ/mol
# GULP energy per Si atom -5577.225332 kJ/mol
# Density = 2.381639 g / cm^3
# Si number density = 23.870725 Si / 1000 Ang^3
#
#
#
# Elastic Constant Matrix: (Units=GPa)
#
#
# Indices 1 2 3 4 5 6 
#
# 1 49.5238 -4.3378 2.7593 0.0000 -0.9520 0.0000
# 2 -4.3378 136.6195 48.9522 0.0000 1.1960 0.0000
# 3 2.7593 48.9522 166.2964 0.0000 -6.2845 0.0000
# 4 0.0000 0.0000 0.0000 62.1932 0.0000 -20.7883
# 5 -0.9520 1.1960 -6.2845 0.0000 30.1854 0.0000
# 6 0.0000 0.0000 0.0000 -20.7883 0.0000 8.9612
#
#
#
# Elastic Compliance Matrix: (Units=1/GPa)
#
#
# Indices 1 2 3 4 5 6 
#
# 1 0.020307 0.000844 -0.000567 0.000000 0.000489 0.000000
# 2 0.000844 0.008239 -0.002470 0.000000 -0.000814 0.000000
# 3 -0.000567 -0.002470 0.006806 0.000000 0.001497 0.000000
# 4 0.000000 0.000000 0.000000 0.071589 0.000000 0.166073
# 5 0.000489 -0.000814 0.001497 0.000000 0.033488 0.000000
# 6 0.000000 0.000000 0.000000 0.166073 0.000000 0.496847
#
#
# Mechanical properties :
#
#
# Convention : Reuss Voigt Hill
#
# Bulk Modulus (GPa) = 32.29368 49.68748 40.99058
# Shear Modulus (GPa) = 7.66889 40.60570 24.13730
#
# Velocity S-wave (km/s) = 1.79434 4.12887 3.18334
# Velocity P-wave (km/s) = 4.22502 6.60231 5.54262
#
# Compressibility (1/GPa) = 0.03096581
#
# Stress axis : x y z
#
# Youngs Moduli (GPa) = 49.24371 121.38127 146.92055
#
# Poissons Ratio (x) = -0.10239 0.08327
# Poissons Ratio (y) = -0.04154 0.36288
# Poissons Ratio (z) = 0.02791 0.29980
#
# Static dielectric constant tensor:
#      x y z
#    x 1.836330 0.000000 -0.034040 
#    y 0.000000 1.965970 0.000000 
#    z -0.034040 0.000000 1.970590 
# 
# From -- ./inp_files/210600.got.cif
#   From: 2010.05.17/outbox.cif.g08.bks.cpg/sg12_106_cif.got.tgz:210600.got - 2010.06.03 13:09:07.
