data_PCOD9218250
_publ_section_title
;
Structure prediction by ZEFSAII (Michael W. Deem and Ramdas Pophale) SiO2 
 PCOD9218250
Probable space group: C 2/M
;
_chemical_formula_sum "Si O2"
_cell_formula_units_Z 54
_cell_length_a 21.092692
_cell_length_b 14.490026
_cell_length_c 9.880764
_cell_angle_alpha 90.000000
_cell_angle_beta 114.889187
_cell_angle_gamma 90.000000
_cell_volume 2739.416704
_symmetry_space_group_name_H-M "C 2/M"
_symmetry_group_IT_number 12
_symmetry_cell_setting 'monoclinic'
loop_
_space_group_symop_operation_xyz
x,y,z
-x,y,-z
-x,-y,-z
x,-y,z
1/2+x,1/2+y,z
1/2-x,1/2+y,-z
1/2-x,1/2-y,-z
1/2+x,1/2-y,z
loop_
_atom_site_type_symbol
_atom_site_label
_atom_site_fract_x
_atom_site_fract_y
_atom_site_fract_z
Si Si1 0.000000 0.000000 0.000000
Si Si2 0.627978 0.892229 0.946610
Si Si3 0.000000 0.669852 0.000000
Si Si4 0.679086 0.607004 0.071286
Si Si5 0.924818 0.170015 0.803731
Si Si6 0.678431 0.728093 0.516389
Si Si7 0.223625 0.110963 0.813843
Si Si8 0.840439 0.392570 0.315674
O O1 0.026260 0.081778 0.130570
O O2 0.561910 0.884131 0.983285
O O3 0.620681 0.857809 0.785822
O O4 0.644649 0.000000 0.939156
O O5 0.697637 0.855496 0.081701
O O6 0.031394 0.737194 0.142048
O O7 0.654072 0.500000 0.063593
O O8 0.627362 0.666377 0.113834
O O9 0.757857 0.611418 0.199894
O O10 0.681829 0.628928 0.915448
O O11 0.875987 0.176371 0.629434
O O12 0.750000 0.750000 0.500000
O O13 0.695696 0.664814 0.660674
O O14 0.649363 0.824430 0.550130
O O15 0.223375 0.000000 0.791039
O O16 0.857114 0.500000 0.360661
#
# Coordination Sequence:
#
# PCOD9218250 Si02
#       8
#     2   8   4   8   8   8   8   8
#     4  10  24  44  62  82 130 184 214 240 288 410
#     4   9  19  39  62  87 120 163 211 251 311 380
#     4  11  23  37  59  82 116 166 217 255 285 375
#     4   9  17  36  63  87 118 161 205 250 316 385
#     4  11  23  38  61  89 120 165 217 248 309 374
#     4  12  23  35  60  99 129 158 198 271 333 363
#     4   9  21  36  61  97 123 149 198 268 332 368
#     4   9  20  37  60  92 126 160 200 258 324 383
#
# _framework density 19.712225
#
# number of rings (size 3 to 8) (size 9 to 14) (size 15 to 20)
#    0.000    2.074    2.222    2.889    3.111    1.778 
#    0.000    2.222    0.000    2.667    0.000    0.000 
#    0.000    0.000    0.000    0.000    0.000    0.000 
#
# Total GULP energy -150472.683539 kJ/mol
# GULP energy per Si atom -5573.062353 kJ/mol
# Density = 1.966736 g / cm^3
# Si number density = 19.712225 Si / 1000 Ang^3
#
#
#
# Elastic Constant Matrix: (Units=GPa)
#
#
# Indices 1 2 3 4 5 6 
#
# 1 32.6977 12.7264 26.4690 0.0000 -7.0867 0.0000
# 2 12.7264 76.9379 45.6629 0.0000 -3.1827 0.0000
# 3 26.4690 45.6629 127.8326 0.0000 0.5412 0.0000
# 4 0.0000 0.0000 0.0000 13.9140 0.0000 -3.1768
# 5 -7.0867 -3.1827 0.5412 0.0000 19.8287 0.0000
# 6 0.0000 0.0000 0.0000 -3.1768 0.0000 27.5974
#
#
#
# Elastic Compliance Matrix: (Units=1/GPa)
#
#
# Indices 1 2 3 4 5 6 
#
# 1 0.040760 -0.001388 -0.008006 0.000000 0.014563 0.000000
# 2 -0.001388 0.016700 -0.005688 0.000000 0.002339 0.000000
# 3 -0.008006 -0.005688 0.011529 0.000000 -0.004089 0.000000
# 4 0.000000 0.000000 0.000000 0.073810 0.000000 0.008497
# 5 0.014563 0.002339 -0.004089 0.000000 0.056124 0.000000
# 6 0.000000 0.000000 0.000000 0.008497 0.000000 0.037213
#
#
# Mechanical properties :
#
#
# Convention : Reuss Voigt Hill
#
# Bulk Modulus (GPa) = 25.75589 45.24275 35.49932
# Shear Modulus (GPa) = 17.90561 22.44200 20.17380
#
# Velocity S-wave (km/s) = 3.01715 3.37780 3.20256
# Velocity P-wave (km/s) = 5.02314 6.18176 5.63232
#
# Compressibility (1/GPa) = 0.03882607
#
# Stress axis : x y z
#
# Youngs Moduli (GPa) = 24.53357 59.88179 86.73524
#
# Poissons Ratio (x) = 0.08315 0.69436
# Poissons Ratio (y) = 0.03406 0.49332
# Poissons Ratio (z) = 0.19640 0.34059
#
# Static dielectric constant tensor:
#      x y z
#    x 1.761070 0.000000 0.022030 
#    y 0.000000 1.723310 0.000000 
#    z 0.022030 0.000000 1.675940 
# 
# From -- ./inp_files/96539.got.cif
#   From: 2010.05.17/outbox.cif.g08.bks.cpg/sg12_49_cif.got.tgz:96539.got - 2010.06.03 13:09:07.
