data_PCOD9218714
_publ_section_title
;
Structure prediction by ZEFSAII (Michael W. Deem and Ramdas Pophale) SiO2 
 PCOD9218714
Probable space group: C 2/M
;
_chemical_formula_sum "Si O2"
_cell_formula_units_Z 48
_cell_length_a 14.010955
_cell_length_b 11.116863
_cell_length_c 18.641319
_cell_angle_alpha 90.000000
_cell_angle_beta 45.745623
_cell_angle_gamma 90.000000
_cell_volume 2079.650896
_symmetry_space_group_name_H-M "C 2/M"
_symmetry_group_IT_number 12
_symmetry_cell_setting 'monoclinic'
loop_
_space_group_symop_operation_xyz
x,y,z
-x,y,-z
-x,-y,-z
x,-y,z
1/2+x,1/2+y,z
1/2-x,1/2+y,-z
1/2-x,1/2-y,-z
1/2+x,1/2-y,z
loop_
_atom_site_type_symbol
_atom_site_label
_atom_site_fract_x
_atom_site_fract_y
_atom_site_fract_z
Si Si1 0.920388 0.000000 0.825556
Si Si2 0.060912 0.000000 0.888555
Si Si3 0.284369 0.792672 0.086605
Si Si4 0.667905 0.246507 0.788109
Si Si5 0.619096 0.500000 0.599161
Si Si6 0.919661 0.359877 0.866760
Si Si7 0.561274 0.000000 0.549367
Si Si8 0.478420 0.269139 0.597002
O O1 0.835022 0.113559 0.849596
O O2 0.933466 0.000000 0.903521
O O3 0.057055 0.000000 0.711377
O O4 0.142793 0.115394 0.820647
O O5 0.000000 0.000000 0.000000
O O6 0.362686 0.812603 0.118373
O O7 0.199847 0.669588 0.125164
O O8 0.365996 0.811197 0.971488
O O9 0.562310 0.204950 0.783907
O O10 0.819960 0.216841 0.691748
O O11 0.778353 0.500000 0.525240
O O12 0.561049 0.378796 0.590615
O O13 0.942772 0.500000 0.858137
O O14 0.500000 0.000000 0.500000
O O15 0.515762 0.867838 0.602588
O O16 0.500000 0.275161 0.500000
#
# Coordination Sequence:
#
# PCOD9218714 Si02
#       8
#     4   4   8   8   4   8   4   8
#     4  12  24  45  72  99 144 184 236 289 351 432
#     4  12  27  45  72 102 145 194 235 295 349 428
#     4  11  24  43  64 101 136 185 234 290 354 420
#     4  12  26  44  69 102 139 185 241 286 361 423
#     4  12  25  49  77 107 141 194 242 302 373 435
#     4  11  25  41  67  96 139 184 231 297 346 426
#     4  10  25  47  77 103 140 184 242 306 370 434
#     4  11  26  48  74 107 146 191 240 310 369 435
#
# _framework density 23.080795999999999
#
# number of rings (size 3 to 8) (size 9 to 14) (size 15 to 20)
#    0.000    0.667    4.167    2.750   10.500    0.667 
#    3.000    0.000    0.000    0.000    0.000    0.000 
#    0.000    0.000    0.000    0.000    0.000    0.000 
#
# Total GULP energy -134100.594347 kJ/mol
# GULP energy per Si atom -5587.524764 kJ/mol
# Density = 2.302826 g / cm^3
# Si number density = 23.080796 Si / 1000 Ang^3
#
#
#
# Elastic Constant Matrix: (Units=GPa)
#
#
# Indices 1 2 3 4 5 6 
#
# 1 91.2760 42.1335 20.6779 0.0000 -9.8099 0.0000
# 2 42.1335 132.4276 22.7326 0.0000 -14.7781 0.0000
# 3 20.6779 22.7326 83.6392 0.0000 -20.0414 0.0000
# 4 0.0000 0.0000 0.0000 29.0959 0.0000 11.3179
# 5 -9.8099 -14.7781 -20.0414 0.0000 44.2743 0.0000
# 6 0.0000 0.0000 0.0000 11.3179 0.0000 22.8796
#
#
#
# Elastic Compliance Matrix: (Units=1/GPa)
#
#
# Indices 1 2 3 4 5 6 
#
# 1 0.013248 -0.003777 -0.002072 0.000000 0.000737 0.000000
# 2 -0.003777 0.009139 -0.001144 0.000000 0.001696 0.000000
# 3 -0.002072 -0.001144 0.014108 0.000000 0.005545 0.000000
# 4 0.000000 0.000000 0.000000 0.042558 0.000000 -0.021052
# 5 0.000737 0.001696 0.005545 0.000000 0.025826 0.000000
# 6 0.000000 0.000000 0.000000 -0.021052 0.000000 0.054121
#
#
# Mechanical properties :
#
#
# Convention : Reuss Voigt Hill
#
# Bulk Modulus (GPa) = 44.42733 53.15898 48.79315
# Shear Modulus (GPa) = 27.70265 34.03656 30.86960
#
# Velocity S-wave (km/s) = 3.46822 3.84431 3.66110
# Velocity P-wave (km/s) = 5.94377 6.54115 6.24960
#
# Compressibility (1/GPa) = 0.02250867
#
# Stress axis : x y z
#
# Youngs Moduli (GPa) = 75.48364 109.42626 70.88178
#
# Poissons Ratio (x) = 0.41331 0.14688
# Poissons Ratio (y) = 0.28511 0.08107
# Poissons Ratio (z) = 0.15641 0.12515
#
# Static dielectric constant tensor:
#      x y z
#    x 1.862480 0.000000 0.026030 
#    y 0.000000 1.937360 0.000000 
#    z 0.026030 0.000000 1.874230 
# 
# From -- ./inp_files/310253.got.cif
#   From: 2010.05.17/outbox.cif.g08.bks.cpg/sg12_156_cif.got.tgz:310253.got - 2010.06.03 13:09:07.
