data_PCOD9218700
_publ_section_title
;
Structure prediction by ZEFSAII (Michael W. Deem and Ramdas Pophale) SiO2 
 PCOD9218700
Probable space group: C 2/M
;
_chemical_formula_sum "Si O2"
_cell_formula_units_Z 40
_cell_length_a 18.583318
_cell_length_b 9.700997
_cell_length_c 19.969269
_cell_angle_alpha 90.000000
_cell_angle_beta 144.276833
_cell_angle_gamma 90.000000
_cell_volume 2101.926869
_symmetry_space_group_name_H-M "C 2/M"
_symmetry_group_IT_number 12
_symmetry_cell_setting 'monoclinic'
loop_
_space_group_symop_operation_xyz
x,y,z
-x,y,-z
-x,-y,-z
x,-y,z
1/2+x,1/2+y,z
1/2-x,1/2+y,-z
1/2-x,1/2-y,-z
1/2+x,1/2-y,z
loop_
_atom_site_type_symbol
_atom_site_label
_atom_site_fract_x
_atom_site_fract_y
_atom_site_fract_z
Si Si1 0.456406 0.765383 0.245937
Si Si2 0.213494 0.500000 0.924127
Si Si3 0.293744 0.000000 0.344874
Si Si4 0.417141 0.720259 0.792242
Si Si5 0.196771 0.000000 0.868683
Si Si6 0.568355 0.500000 0.981734
Si Si7 0.994363 0.500000 0.075763
Si Si8 0.999608 0.500000 0.613035
O O1 0.560727 0.721298 0.271272
O O2 0.375486 0.636058 0.209522
O O3 0.367911 0.864137 0.134892
O O4 0.499265 0.865437 0.338018
O O5 0.311499 0.500000 0.057046
O O6 0.284897 0.500000 0.907504
O O7 0.205314 0.865460 0.281377
O O8 0.381496 0.000000 0.475897
O O9 0.382415 0.000000 0.347335
O O10 0.524769 0.633668 0.909164
O O11 0.436047 0.870001 0.838528
O O12 0.345130 0.000000 0.973445
O O13 0.500000 0.500000 0.000000
O O14 0.000000 0.500000 0.000000
#
# Coordination Sequence:
#
# PCOD9218700 Si02
#       8
#     8   4   4   8   4   4   4   4
#     4  11  22  37  64  91 121 161 209 247 304 366
#     4  11  19  35  56  85 132 172 199 241 288 368
#     4  10  25  47  69  85 119 154 215 268 312 364
#     4  11  22  40  59  91 124 162 203 255 299 368
#     4  12  20  36  58  91 130 162 190 246 292 368
#     4  11  22  33  57  90 128 174 214 239 290 360
#     4  12  25  34  53  92 136 162 189 232 308 365
#     4  10  25  47  68  90 109 161 214 268 316 363
#
# _framework density 19.030158
#
# number of rings (size 3 to 8) (size 9 to 14) (size 15 to 20)
#    0.000    1.000    4.000    3.600    8.400    0.800 
#    0.000    1.000    0.000    2.400    0.000    0.000 
#    0.000    0.000    0.000    0.000    0.000    0.000 
#
# Total GULP energy -111570.030465 kJ/mol
# GULP energy per Si atom -5578.501523 kJ/mol
# Density = 1.898684 g / cm^3
# Si number density = 19.030158 Si / 1000 Ang^3
#
#
#
# Elastic Constant Matrix: (Units=GPa)
#
#
# Indices 1 2 3 4 5 6 
#
# 1 126.2638 31.0866 27.9993 0.0000 3.5300 0.0000
# 2 31.0866 154.8996 39.5309 0.0000 2.0323 0.0000
# 3 27.9993 39.5309 75.9292 0.0000 -7.8938 -0.0001
# 4 0.0000 0.0000 0.0000 -5.6989 0.0000 -31.7554
# 5 3.5300 2.0323 -7.8938 0.0000 32.8391 0.0000
# 6 0.0000 0.0000 -0.0001 -31.7554 0.0000 -20.0539
#
#
#
# Elastic Compliance Matrix: (Units=1/GPa)
#
#
# Indices 1 2 3 4 5 6 
#
# 1 0.008858 -0.001016 -0.002902 0.000000 -0.001587 0.000000
# 2 -0.001016 0.007627 -0.003727 0.000000 -0.001259 0.000000
# 3 -0.002902 -0.003727 0.016654 0.000000 0.004546 0.000000
# 4 0.000000 0.000000 0.000000 0.022429 0.000000 -0.035516
# 5 -0.001587 -0.001259 0.004546 0.000000 0.031793 0.000000
# 6 0.000000 0.000000 0.000000 -0.035516 0.000000 0.006374
#
#
# Mechanical properties :
#
#
# Convention : Reuss Voigt Hill
#
# Bulk Modulus (GPa) = 56.03033 61.59179 58.81106
# Shear Modulus (GPa) = 43.48777 18.64899 31.06838
#
# Velocity S-wave (km/s) = 4.78557 3.13384 4.04491
# Velocity P-wave (km/s) = 7.74870 6.74761 7.26542
#
# Compressibility (1/GPa) = 0.01784748
#
# Stress axis : x y z
#
# Youngs Moduli (GPa) = 112.89099 131.10555 60.04739
#
# Poissons Ratio (x) = 0.13323 0.17428
# Poissons Ratio (y) = 0.11472 0.22381
# Poissons Ratio (z) = 0.32765 0.48866
#
# Static dielectric constant tensor:
#      x y z
#    x 1.748820 0.000000 -0.007210 
#    y 0.000000 1.718290 0.000000 
#    z -0.007210 0.000000 1.629380 
# 
# From -- ./inp_files/314570.got.cif
#   From: 2010.05.17/outbox.cif.g08.bks.cpg/sg12_158_cif.got.tgz:314570.got - 2010.06.03 13:09:07.
