data_PCOD9218494
_publ_section_title
;
Structure prediction by ZEFSAII (Michael W. Deem and Ramdas Pophale) SiO2 
 PCOD9218494
Probable space group: C 2/M
;
_chemical_formula_sum "Si O2"
_cell_formula_units_Z 48
_cell_length_a 8.559010
_cell_length_b 31.435811
_cell_length_c 16.997659
_cell_angle_alpha 90.000000
_cell_angle_beta 30.186205
_cell_angle_gamma 90.000000
_cell_volume 2299.549766
_symmetry_space_group_name_H-M "C 2/M"
_symmetry_group_IT_number 12
_symmetry_cell_setting 'monoclinic'
loop_
_space_group_symop_operation_xyz
x,y,z
-x,y,-z
-x,-y,-z
x,-y,z
1/2+x,1/2+y,z
1/2-x,1/2+y,-z
1/2-x,1/2-y,-z
1/2+x,1/2-y,z
loop_
_atom_site_type_symbol
_atom_site_label
_atom_site_fract_x
_atom_site_fract_y
_atom_site_fract_z
Si Si1 0.871359 0.414251 0.722718
Si Si2 0.271765 0.500000 0.172156
Si Si3 0.723507 0.148382 0.674009
Si Si4 0.266628 0.702968 0.027517
Si Si5 0.134736 0.000000 0.182927
Si Si6 0.423121 0.413946 0.365758
Si Si7 0.848380 0.873212 0.877187
O O1 0.922511 0.457052 0.748206
O O2 0.504283 0.408022 0.866501
O O3 0.975396 0.372561 0.723429
O O4 0.090081 0.419656 0.551348
O O5 0.432476 0.500000 0.189613
O O6 0.500000 0.500000 0.000000
O O7 0.558063 0.183015 0.800190
O O8 0.000000 0.166228 0.500000
O O9 0.858718 0.108074 0.663495
O O10 0.500000 0.701937 0.000000
O O11 0.250000 0.750000 0.000000
O O12 0.361226 0.671092 0.916244
O O13 0.046564 0.957737 0.272539
O O14 0.500000 0.000000 0.000000
O O15 0.435987 0.377910 0.292675
O O16 0.500000 0.882388 0.000000
#
# Coordination Sequence:
#
# PCOD9218494 Si02
#       7
#     8   4   8   8   4   8   8
#     4  11  25  44  65  99 134 187 224 280 333 391
#     4  12  29  37  62  94 139 180 236 275 326 387
#     4  10  24  46  72  99 135 177 224 274 335 405
#     4  12  26  46  72 102 134 172 218 278 342 405
#     4  12  27  41  62 100 138 182 229 290 326 380
#     4  11  24  43  69  95 139 181 230 273 337 394
#     4  12  23  40  71  99 134 174 226 276 328 400
#
# _framework density 20.873650000000001
#
# number of rings (size 3 to 8) (size 9 to 14) (size 15 to 20)
#    0.000    0.667    5.000    2.000    4.667    0.667 
#    0.000    5.000    0.000    0.000    0.000    0.000 
#    0.000    0.000    0.000    0.000    0.000    0.000 
#
# Total GULP energy -133993.302436 kJ/mol
# GULP energy per Si atom -5583.054268 kJ/mol
# Density = 2.082614 g / cm^3
# Si number density = 20.873650 Si / 1000 Ang^3
#
#
#
# Elastic Constant Matrix: (Units=GPa)
#
#
# Indices 1 2 3 4 5 6 
#
# 1 65.2265 30.6675 42.2489 0.0000 -2.9344 0.0000
# 2 30.6675 157.7818 87.1595 0.0000 13.8320 0.0000
# 3 42.2489 87.1595 131.4166 0.0000 17.5071 0.0000
# 4 0.0000 0.0000 0.0000 27.3263 0.0000 14.6815
# 5 -2.9344 13.8320 17.5071 0.0000 45.4302 0.0000
# 6 0.0000 0.0000 0.0000 14.6815 0.0000 33.3021
#
#
#
# Elastic Compliance Matrix: (Units=1/GPa)
#
#
# Indices 1 2 3 4 5 6 
#
# 1 0.020061 -0.000620 -0.006573 0.000000 0.004018 0.000000
# 2 -0.000620 0.010033 -0.006370 0.000000 -0.000640 0.000000
# 3 -0.006573 -0.006370 0.014489 0.000000 -0.004069 0.000000
# 4 0.000000 0.000000 0.000000 0.047953 0.000000 -0.021140
# 5 0.004018 -0.000640 -0.004069 0.000000 0.024034 0.000000
# 6 0.000000 0.000000 0.000000 -0.021140 0.000000 0.039348
#
#
# Mechanical properties :
#
#
# Convention : Reuss Voigt Hill
#
# Bulk Modulus (GPa) = 57.28287 74.95295 66.11791
# Shear Modulus (GPa) = 26.47410 34.16833 30.32121
#
# Velocity S-wave (km/s) = 3.56519 4.05027 3.81544
# Velocity P-wave (km/s) = 6.66706 7.60649 7.15222
#
# Compressibility (1/GPa) = 0.01745723
#
# Stress axis : x y z
#
# Youngs Moduli (GPa) = 49.84722 99.66954 69.01710
#
# Poissons Ratio (x) = 0.06183 0.45367
# Poissons Ratio (y) = 0.03092 0.43961
# Poissons Ratio (z) = 0.32766 0.63485
#
# Static dielectric constant tensor:
#      x y z
#    x 1.859970 0.000000 -0.023400 
#    y 0.000000 1.710970 0.000000 
#    z -0.023400 0.000000 1.745490 
# 
# From -- ./inp_files/260258.got.cif
#   From: 2010.05.17/outbox.cif.g08.bks.cpg/sg12_131_cif.got.tgz:260258.got - 2010.06.03 13:09:07.
