data_PCOD9218531
_publ_section_title
;
Structure prediction by ZEFSAII (Michael W. Deem and Ramdas Pophale) SiO2 
 PCOD9218531
Probable space group: C 2/M
;
_chemical_formula_sum "Si O2"
_cell_formula_units_Z 40
_cell_length_a 13.147467
_cell_length_b 17.796167
_cell_length_c 8.761600
_cell_angle_alpha 90.000000
_cell_angle_beta 77.905860
_cell_angle_gamma 90.000000
_cell_volume 2004.490912
_symmetry_space_group_name_H-M "C 2/M"
_symmetry_group_IT_number 12
_symmetry_cell_setting 'monoclinic'
loop_
_space_group_symop_operation_xyz
x,y,z
-x,y,-z
-x,-y,-z
x,-y,z
1/2+x,1/2+y,z
1/2-x,1/2+y,-z
1/2-x,1/2-y,-z
1/2+x,1/2-y,z
loop_
_atom_site_type_symbol
_atom_site_label
_atom_site_fract_x
_atom_site_fract_y
_atom_site_fract_z
Si Si1 0.001257 0.801368 0.180162
Si Si2 0.845287 0.915414 0.697084
Si Si3 0.783652 0.171959 0.413428
Si Si4 0.026001 0.500000 0.228927
Si Si5 0.676575 0.000000 0.915964
Si Si6 0.935780 0.340097 0.663013
O O1 0.075925 0.858493 0.248394
O O2 0.042667 0.717645 0.206855
O O3 0.886073 0.814218 0.282076
O O4 0.000000 0.814483 0.000000
O O5 0.808081 0.884592 0.545215
O O6 0.889889 0.000000 0.664837
O O7 0.747034 0.929565 0.841015
O O8 0.750000 0.250000 0.500000
O O9 0.684509 0.150358 0.342724
O O10 0.020377 0.422485 0.320107
O O11 0.927087 0.500000 0.150425
O O12 0.134402 0.500000 0.100155
O O13 0.000000 0.306585 0.500000
#
# Coordination Sequence:
#
# PCOD9218531 Si02
#       6
#     8   8   8   4   4   8
#     4  12  28  44  70 105 137 184 229 289 344 407
#     4  10  24  47  72  96 139 182 229 278 342 406
#     4  12  24  44  71 100 136 178 230 280 340 411
#     4  11  25  40  69 106 137 181 225 287 356 400
#     4   9  24  44  69  99 142 177 229 284 346 408
#     4  12  25  44  70 100 142 177 236 280 344 417
#
# _framework density 19.955192
#
# number of rings (size 3 to 8) (size 9 to 14) (size 15 to 20)
#    0.600    0.200    4.000    2.100    7.000    2.800 
#    0.000    0.000    0.000    0.000    0.000    0.000 
#    0.000    0.000    0.000    0.000    0.000    0.000 
#
# Total GULP energy -111704.370505 kJ/mol
# GULP energy per Si atom -5585.218525 kJ/mol
# Density = 1.990977 g / cm^3
# Si number density = 19.955192 Si / 1000 Ang^3
#
#
#
# Elastic Constant Matrix: (Units=GPa)
#
#
# Indices 1 2 3 4 5 6 
#
# 1 123.1881 11.6685 26.3965 0.0000 -7.1055 0.0000
# 2 11.6685 95.1715 -4.9471 0.0000 10.5171 0.0000
# 3 26.3965 -4.9471 76.0458 0.0000 -17.4187 0.0000
# 4 0.0000 0.0000 0.0000 33.4779 0.0000 -11.5524
# 5 -7.1055 10.5171 -17.4187 0.0000 39.2908 0.0000
# 6 0.0000 0.0000 0.0000 -11.5524 0.0000 14.3277
#
#
#
# Elastic Compliance Matrix: (Units=1/GPa)
#
#
# Indices 1 2 3 4 5 6 
#
# 1 0.008931 -0.001322 -0.003044 0.000000 0.000619 0.000000
# 2 -0.001322 0.011023 0.000496 0.000000 -0.002970 0.000000
# 3 -0.003044 0.000496 0.015674 0.000000 0.006266 0.000000
# 4 0.000000 0.000000 0.000000 0.041385 0.000000 0.033369
# 5 0.000619 -0.002970 0.006266 0.000000 0.029136 0.000000
# 6 0.000000 0.000000 0.000000 0.033369 0.000000 0.096700
#
#
# Mechanical properties :
#
#
# Convention : Reuss Voigt Hill
#
# Bulk Modulus (GPa) = 35.85790 40.07125 37.96457
# Shear Modulus (GPa) = 22.73906 34.83843 28.78875
#
# Velocity S-wave (km/s) = 3.37932 4.18285 3.80237
# Velocity P-wave (km/s) = 5.76495 6.59185 6.19222
#
# Compressibility (1/GPa) = 0.02788786
#
# Stress axis : x y z
#
# Youngs Moduli (GPa) = 111.97121 90.71651 63.79974
#
# Poissons Ratio (x) = 0.11989 0.19422
# Poissons Ratio (y) = 0.14799 -0.03162
# Poissons Ratio (z) = 0.34086 -0.04496
#
# Static dielectric constant tensor:
#      x y z
#    x 1.716850 0.000000 0.000300 
#    y 0.000000 1.695820 0.000000 
#    z 0.000300 0.000000 1.694520 
# 
# From -- ./inp_files/46980.got.cif
#   From: 2010.05.17/outbox.cif.g08.bks.cpg/sg12_24_cif.got.tgz:46980.got - 2010.06.03 13:09:07.
