data_PCOD9218329
_publ_section_title
;
Structure prediction by ZEFSAII (Michael W. Deem and Ramdas Pophale) SiO2 
 PCOD9218329
Probable space group: C 2/M
;
_chemical_formula_sum "Si O2"
_cell_formula_units_Z 56
_cell_length_a 15.208610
_cell_length_b 27.625181
_cell_length_c 6.084799
_cell_angle_alpha 90.000000
_cell_angle_beta 98.328988
_cell_angle_gamma 90.000000
_cell_volume 2529.507074
_symmetry_space_group_name_H-M "C 2/M"
_symmetry_group_IT_number 12
_symmetry_cell_setting 'monoclinic'
loop_
_space_group_symop_operation_xyz
x,y,z
-x,y,-z
-x,-y,-z
x,-y,z
1/2+x,1/2+y,z
1/2-x,1/2+y,-z
1/2-x,1/2-y,-z
1/2+x,1/2-y,z
loop_
_atom_site_type_symbol
_atom_site_label
_atom_site_fract_x
_atom_site_fract_y
_atom_site_fract_z
Si Si1 0.042284 0.345770 0.765210
Si Si2 0.207313 0.130995 0.344479
Si Si3 0.907820 0.187161 0.397303
Si Si4 0.759165 0.053828 0.301145
Si Si5 0.194171 0.274057 0.786509
Si Si6 0.094206 0.552357 0.903240
Si Si7 0.094402 0.099062 0.922542
O O1 0.102606 0.298716 0.824634
O O2 0.091132 0.398073 0.765650
O O3 0.000000 0.339862 0.500000
O O4 0.000000 0.349670 0.000000
O O5 0.116754 0.148875 0.425795
O O6 0.256727 0.097321 0.535359
O O7 0.257131 0.179727 0.296763
O O8 0.173293 0.101084 0.127919
O O9 0.833605 0.228211 0.367437
O O10 0.911965 0.153735 0.181437
O O11 0.000000 0.210117 0.500000
O O12 0.858300 0.064286 0.238754
O O13 0.758969 0.000000 0.399057
O O14 0.678097 0.055421 0.098213
O O15 0.250000 0.250000 0.000000
O O16 0.101119 0.500000 0.787203
O O17 0.000000 0.550504 0.000000
O O18 0.000000 0.085873 0.000000
#
# Coordination Sequence:
#
# PCOD9218329 Si02
#       7
#     8   8   8   8   8   8   8
#     4  11  27  47  71 105 150 190 243 312 372 443
#     4  11  24  42  71  98 138 183 239 302 369 436
#     4  11  23  42  65  94 132 182 237 291 358 435
#     4  10  24  44  69 106 145 184 240 304 372 447
#     4  12  26  42  67 103 136 188 241 303 369 446
#     4   9  20  43  73 102 140 188 238 297 372 453
#     4  11  22  42  69  98 136 185 237 296 361 435
#
# _framework density 22.138701999999999
#
# number of rings (size 3 to 8) (size 9 to 14) (size 15 to 20)
#    0.000    1.286    2.857    1.714    6.000    4.000 
#    0.000    1.429    0.000    0.000    0.000    0.000 
#    0.000    0.000    0.000    0.000    0.000    0.000 
#
# Total GULP energy -155926.792529 kJ/mol
# GULP energy per Si atom -5568.814019 kJ/mol
# Density = 2.208831 g / cm^3
# Si number density = 22.138702 Si / 1000 Ang^3
#
#
#
# Elastic Constant Matrix: (Units=GPa)
#
#
# Indices 1 2 3 4 5 6 
#
# 1 88.0201 28.5010 34.7221 0.0000 0.0085 0.0000
# 2 28.5010 127.5909 46.0539 0.0000 9.3566 0.0000
# 3 34.7221 46.0539 82.1120 0.0000 5.3612 0.0000
# 4 0.0000 0.0000 0.0000 51.4248 0.0000 -67.6705
# 5 0.0085 9.3566 5.3612 0.0000 35.1124 0.0000
# 6 0.0000 0.0000 0.0000 -67.6705 0.0000 296.1212
#
#
#
# Elastic Compliance Matrix: (Units=1/GPa)
#
#
# Indices 1 2 3 4 5 6 
#
# 1 0.013830 -0.001298 -0.005195 0.000000 0.001136 0.000000
# 2 -0.001298 0.010062 -0.004969 0.000000 -0.001922 0.000000
# 3 -0.005195 -0.004969 0.017248 0.000000 -0.001308 0.000000
# 4 0.000000 0.000000 0.000000 0.027808 0.000000 0.006355
# 5 0.001136 -0.001922 -0.001308 0.000000 0.029192 0.000000
# 6 0.000000 0.000000 0.000000 0.006355 0.000000 0.004829
#
#
# Mechanical properties :
#
#
# Convention : Reuss Voigt Hill
#
# Bulk Modulus (GPa) = 54.89422 57.36410 56.12916
# Shear Modulus (GPa) = 37.88902 89.09476 63.49189
#
# Velocity S-wave (km/s) = 4.14144 6.35069 5.36110
# Velocity P-wave (km/s) = 6.90783 8.92987 7.98313
#
# Compressibility (1/GPa) = 0.01821685
#
# Stress axis : x y z
#
# Youngs Moduli (GPa) = 72.30498 99.38364 57.97916
#
# Poissons Ratio (x) = 0.12897 0.30118
# Poissons Ratio (y) = 0.09383 0.28811
# Poissons Ratio (z) = 0.37560 0.49386
#
# Static dielectric constant tensor:
#      x y z
#    x 1.861880 0.000000 -0.047740 
#    y 0.000000 1.785880 0.000000 
#    z -0.047740 0.000000 1.839940 
# 
# From -- ./inp_files/17700.got.cif
#   From: 2010.05.17/outbox.cif.g08.bks.cpg/sg12_9_cif.got.tgz:17700.got - 2010.06.03 13:09:07.
