data_PCOD9218640
_publ_section_title
;
Structure prediction by ZEFSAII (Michael W. Deem and Ramdas Pophale) SiO2 
 PCOD9218640
Probable space group: C 2/M
;
_chemical_formula_sum "Si O2"
_cell_formula_units_Z 32
_cell_length_a 9.033286
_cell_length_b 10.343693
_cell_length_c 20.764180
_cell_angle_alpha 90.000000
_cell_angle_beta 50.467654
_cell_angle_gamma 90.000000
_cell_volume 1496.373462
_symmetry_space_group_name_H-M "C 2/M"
_symmetry_group_IT_number 12
_symmetry_cell_setting 'monoclinic'
loop_
_space_group_symop_operation_xyz
x,y,z
-x,y,-z
-x,-y,-z
x,-y,z
1/2+x,1/2+y,z
1/2-x,1/2+y,-z
1/2-x,1/2-y,-z
1/2+x,1/2-y,z
loop_
_atom_site_type_symbol
_atom_site_label
_atom_site_fract_x
_atom_site_fract_y
_atom_site_fract_z
Si Si1 0.796096 0.000000 0.597614
Si Si2 0.189591 0.772820 0.696422
Si Si3 0.961309 0.500000 0.584790
Si Si4 0.356668 0.858306 0.929834
Si Si5 0.264138 0.257256 0.817914
O O1 0.750633 0.871747 0.654746
O O2 0.000000 0.000000 0.500000
O O3 0.637426 0.000000 0.585241
O O4 0.188523 0.804058 0.773112
O O5 0.971752 0.806977 0.737552
O O6 0.340842 0.871262 0.628014
O O7 0.000000 0.500000 0.500000
O O8 0.311647 0.830364 0.866779
O O9 0.584291 0.849798 0.882447
O O10 0.283782 0.000000 0.966581
O O11 0.250000 0.750000 0.000000
#
# Coordination Sequence:
#
# PCOD9218640 Si02
#       5
#     4   8   4   8   8
#     4  12  28  48  70 104 153 187 232 302 361 417
#     4  11  25  46  73 104 144 188 242 291 351 417
#     4  12  28  46  72 108 141 191 240 288 357 427
#     4  11  26  48  72 106 146 186 232 291 359 424
#     4  10  25  43  72 102 141 188 232 291 347 414
#
# _framework density 21.385037000000001
#
# number of rings (size 3 to 8) (size 9 to 14) (size 15 to 20)
#    0.000    1.000    2.500    1.500   14.000    6.000 
#    4.500    0.000    0.000    0.000    0.000    0.000 
#    0.000    0.000    0.000    0.000    0.000    0.000 
#
# Total GULP energy -89152.439227 kJ/mol
# GULP energy per Si atom -5572.027452 kJ/mol
# Density = 2.133636 g / cm^3
# Si number density = 21.385037 Si / 1000 Ang^3
#
#
#
# Elastic Constant Matrix: (Units=GPa)
#
#
# Indices 1 2 3 4 5 6 
#
# 1 110.4235 46.8035 18.9067 0.0000 -14.4765 0.0000
# 2 46.8035 168.1581 66.2142 0.0000 -5.2159 0.0000
# 3 18.9067 66.2142 100.4469 0.0000 -7.6815 0.0000
# 4 0.0000 0.0000 0.0000 26.9098 0.0000 -12.3680
# 5 -14.4765 -5.2159 -7.6815 0.0000 35.2996 0.0000
# 6 0.0000 0.0000 0.0000 -12.3680 0.0000 11.6889
#
#
#
# Elastic Compliance Matrix: (Units=1/GPa)
#
#
# Indices 1 2 3 4 5 6 
#
# 1 0.010807 -0.002976 0.000237 0.000000 0.004044 0.000000
# 2 -0.002976 0.008851 -0.005357 0.000000 -0.001078 0.000000
# 3 0.000237 -0.005357 0.013616 0.000000 0.002268 0.000000
# 4 0.000000 0.000000 0.000000 0.072342 0.000000 0.076545
# 5 0.004044 -0.001078 0.002268 0.000000 0.030322 0.000000
# 6 0.000000 0.000000 0.000000 0.076545 0.000000 0.166543
#
#
# Mechanical properties :
#
#
# Convention : Reuss Voigt Hill
#
# Bulk Modulus (GPa) = 58.54197 71.43081 64.98639
# Shear Modulus (GPa) = 15.41472 31.25327 23.33400
#
# Velocity S-wave (km/s) = 2.68772 3.82705 3.30682
# Velocity P-wave (km/s) = 6.08822 7.28032 6.71079
#
# Compressibility (1/GPa) = 0.01708176
#
# Stress axis : x y z
#
# Youngs Moduli (GPa) = 92.53339 112.98337 73.44503
#
# Poissons Ratio (x) = 0.33620 -0.01738
# Poissons Ratio (y) = 0.27535 0.39343
# Poissons Ratio (z) = -0.02190 0.60523
#
# Static dielectric constant tensor:
#      x y z
#    x 1.799310 0.000000 -0.043860 
#    y 0.000000 1.675910 0.000000 
#    z -0.043860 0.000000 1.752400 
# 
# From -- ./inp_files/298942.got.cif
#   From: 2010.05.17/outbox.cif.g08.bks.cpg/sg12_150_cif.got.tgz:298942.got - 2010.06.03 13:09:07.
