data_PCOD9218972
_publ_section_title
;
Structure prediction by ZEFSAII (Michael W. Deem and Ramdas Pophale) SiO2 
 PCOD9218972
Probable space group: C 2/M
;
_chemical_formula_sum "Si O2"
_cell_formula_units_Z 64
_cell_length_a 18.865759
_cell_length_b 28.521643
_cell_length_c 13.483988
_cell_angle_alpha 90.000000
_cell_angle_beta 31.226110
_cell_angle_gamma 90.000000
_cell_volume 3761.371279
_symmetry_space_group_name_H-M "C 2/M"
_symmetry_group_IT_number 12
_symmetry_cell_setting 'monoclinic'
loop_
_space_group_symop_operation_xyz
x,y,z
-x,y,-z
-x,-y,-z
x,-y,z
1/2+x,1/2+y,z
1/2-x,1/2+y,-z
1/2-x,1/2-y,-z
1/2+x,1/2-y,z
loop_
_atom_site_type_symbol
_atom_site_label
_atom_site_fract_x
_atom_site_fract_y
_atom_site_fract_z
Si Si1 0.928319 0.709695 0.487749
Si Si2 0.100605 0.946160 0.223781
Si Si3 0.567712 0.683025 0.518533
Si Si4 0.354288 0.144120 0.136414
Si Si5 0.867930 0.850633 0.912532
Si Si6 0.378947 0.808535 0.913420
Si Si7 0.123463 0.219386 0.929732
Si Si8 0.202941 0.947193 0.328313
O O1 0.979018 0.763467 0.421863
O O2 0.767547 0.714296 0.699641
O O3 0.000000 0.688116 0.500000
O O4 0.986526 0.689234 0.316024
O O5 0.154717 0.905576 0.085320
O O6 0.165594 0.941582 0.256264
O O7 0.937743 0.941417 0.441659
O O8 0.124627 0.000000 0.161608
O O9 0.500000 0.661727 0.500000
O O10 0.728899 0.677058 0.318406
O O11 0.506257 0.659314 0.687201
O O12 0.310985 0.092837 0.223440
O O13 0.500000 0.159609 0.000000
O O14 0.366457 0.148633 0.004283
O O15 0.750145 0.817520 0.004255
O O16 0.888841 0.829759 0.996171
O O17 0.373983 0.761772 0.989989
O O18 0.000000 0.226501 0.000000
O O19 0.252495 0.000000 0.284579
#
# Coordination Sequence:
#
# PCOD9218972 Si02
#       8
#     8   8   8   8   8   8   8   8
#     4  11  22  37  56  79 108 147 192 232 268 322
#     4   9  17  31  58  88 108 135 189 239 269 328
#     4  11  19  32  57  78 106 145 193 229 257 324
#     4  12  23  33  50  84 119 150 186 222 273 336
#     4  12  20  36  62  83 106 151 194 220 282 335
#     4  12  22  37  58  79 109 156 190 222 275 334
#     4  12  26  39  54  83 116 147 190 237 273 320
#     4   9  17  32  53  81 116 145 174 224 282 333
#
# _framework density 17.015070999999999
#
# number of rings (size 3 to 8) (size 9 to 14) (size 15 to 20)
#    0.000    1.000    7.500    2.250    0.000    1.750 
#    0.000    0.000    0.000    0.375    0.000    2.625 
#    0.000    0.000    0.000    0.000    0.000    0.000 
#
# Total GULP energy -178290.957707 kJ/mol
# GULP energy per Si atom -5571.592428 kJ/mol
# Density = 1.697634 g / cm^3
# Si number density = 17.015071 Si / 1000 Ang^3
#
#
#
# Elastic Constant Matrix: (Units=GPa)
#
#
# Indices 1 2 3 4 5 6 
#
# 1 56.1227 9.9725 19.5251 0.0030 -12.5415 -0.0028
# 2 9.9725 86.0611 10.3164 -0.0030 11.5432 0.0028
# 3 19.5251 10.3164 99.8333 -0.0021 -0.6440 0.0018
# 4 0.0030 -0.0030 -0.0021 57.4576 -0.0040 -36.4439
# 5 -12.5415 11.5432 -0.6440 -0.0040 25.6307 0.0043
# 6 -0.0028 0.0028 0.0018 -36.4439 0.0043 51.7775
#
#
#
# Elastic Compliance Matrix: (Units=1/GPa)
#
#
# Indices 1 2 3 4 5 6 
#
# 1 0.022740 -0.003873 -0.003965 -0.000001 0.012771 0.000000
# 2 -0.003873 0.013201 -0.000657 0.000000 -0.007857 0.000000
# 3 -0.003965 -0.000657 0.010851 0.000000 -0.001371 0.000000
# 4 -0.000001 0.000000 0.000000 0.031440 0.000001 0.022129
# 5 0.012771 -0.007857 -0.001371 0.000001 0.048769 -0.000002
# 6 0.000000 0.000000 0.000000 0.022129 -0.000002 0.034889
#
#
# Mechanical properties :
#
#
# Convention : Reuss Voigt Hill
#
# Bulk Modulus (GPa) = 33.55478 35.73834 34.64656
# Shear Modulus (GPa) = 26.48107 40.45337 33.46722
#
# Velocity S-wave (km/s) = 3.94932 4.88125 4.43980
# Velocity P-wave (km/s) = 6.36864 7.26763 6.83293
#
# Compressibility (1/GPa) = 0.02980202
#
# Stress axis : x y z
#
# Youngs Moduli (GPa) = 43.97626 75.75170 92.15574
#
# Poissons Ratio (x) = 0.29336 0.36537
# Poissons Ratio (y) = 0.17031 0.06058
# Poissons Ratio (z) = 0.17435 0.04980
#
# Static dielectric constant tensor:
#      x y z
#    x 1.554250 0.000000 0.030630 
#    y 0.000000 1.624880 0.000000 
#    z 0.030630 0.000000 1.559630 
# 
# From -- ./inp_files/161182.got.cif
#   From: 2010.05.17/outbox.cif.g08.bks.cpg/sg12_81_cif.got.tgz:161182.got - 2010.06.03 13:09:07.
