data_PCOD9218663
_publ_section_title
;
Structure prediction by ZEFSAII (Michael W. Deem and Ramdas Pophale) SiO2 
 PCOD9218663
Probable space group: C 2/M
;
_chemical_formula_sum "Si O2"
_cell_formula_units_Z 24
_cell_length_a 5.912124
_cell_length_b 23.321527
_cell_length_c 12.338006
_cell_angle_alpha 90.000000
_cell_angle_beta 34.798131
_cell_angle_gamma 90.000000
_cell_volume 970.830267
_symmetry_space_group_name_H-M "C 2/M"
_symmetry_group_IT_number 12
_symmetry_cell_setting 'monoclinic'
loop_
_space_group_symop_operation_xyz
x,y,z
-x,y,-z
-x,-y,-z
x,-y,z
1/2+x,1/2+y,z
1/2-x,1/2+y,-z
1/2-x,1/2-y,-z
1/2+x,1/2-y,z
loop_
_atom_site_type_symbol
_atom_site_label
_atom_site_fract_x
_atom_site_fract_y
_atom_site_fract_z
Si Si1 0.554879 0.603055 0.212079
Si Si2 0.179830 0.000000 0.836624
Si Si3 0.125541 0.766726 0.714609
Si Si4 0.891328 0.000000 0.645556
O O1 0.377744 0.562621 0.190207
O O2 0.364094 0.664629 0.297460
O O3 0.536094 0.559864 0.321600
O O4 0.000000 0.614731 0.000000
O O5 0.688057 0.000000 0.603406
O O6 0.670403 0.000000 0.095819
O O7 0.500000 0.741133 0.500000
O O8 0.234511 0.751227 0.797453
#
# Coordination Sequence:
#
# PCOD9218663 Si02
#       4
#     8   4   8   4
#     4  11  24  41  65  98 131 173 222 273 330 400
#     4  11  21  41  65  94 137 171 209 275 337 397
#     4  10  25  45  67  96 133 175 224 279 333 390
#     4  11  25  39  65  99 133 173 216 271 336 396
#
# _framework density 24.721108999999998
#
# number of rings (size 3 to 8) (size 9 to 14) (size 15 to 20)
#    0.000    1.333    3.333    1.000    9.333    4.000 
#    0.000    0.000    0.000    0.000    0.000    0.000 
#    0.000    0.000    0.000    0.000    0.000    0.000 
#
# Total GULP energy -66856.813195 kJ/mol
# GULP energy per Si atom -5571.401100 kJ/mol
# Density = 2.466484 g / cm^3
# Si number density = 24.721109 Si / 1000 Ang^3
#
#
#
# Elastic Constant Matrix: (Units=GPa)
#
#
# Indices 1 2 3 4 5 6 
#
# 1 171.3048 89.4061 39.5944 0.0000 -1.0182 0.0000
# 2 89.4061 202.3794 23.1942 0.0000 5.4380 0.0000
# 3 39.5944 23.1942 135.4378 0.0000 3.8929 0.0000
# 4 0.0000 0.0000 0.0000 30.0681 0.0000 4.4251
# 5 -1.0182 5.4380 3.8929 0.0000 50.2848 0.0000
# 6 0.0000 0.0000 0.0000 4.4251 0.0000 94.1046
#
#
#
# Elastic Compliance Matrix: (Units=1/GPa)
#
#
# Indices 1 2 3 4 5 6 
#
# 1 0.008001 -0.003348 -0.001785 0.000000 0.000662 0.000000
# 2 -0.003348 0.006453 -0.000104 0.000000 -0.000758 0.000000
# 3 -0.001785 -0.000104 0.007942 0.000000 -0.000640 0.000000
# 4 0.000000 0.000000 0.000000 0.033490 0.000000 -0.001575
# 5 0.000662 -0.000758 -0.000640 0.000000 0.020032 0.000000
# 6 0.000000 0.000000 0.000000 -0.001575 0.000000 0.010701
#
#
# Mechanical properties :
#
#
# Convention : Reuss Voigt Hill
#
# Bulk Modulus (GPa) = 83.88678 90.39015 87.13846
# Shear Modulus (GPa) = 49.47278 58.68663 54.07970
#
# Velocity S-wave (km/s) = 4.47837 4.87760 4.68224
# Velocity P-wave (km/s) = 7.79410 8.26829 8.03470
#
# Compressibility (1/GPa) = 0.01192083
#
# Stress axis : x y z
#
# Youngs Moduli (GPa) = 124.97797 154.97554 125.92040
#
# Poissons Ratio (x) = 0.51887 0.22475
# Poissons Ratio (y) = 0.41843 0.01316
# Poissons Ratio (z) = 0.22306 0.01619
#
# Static dielectric constant tensor:
#      x y z
#    x 2.214520 0.000000 -0.668360 
#    y 0.000000 1.732440 0.000000 
#    z -0.668360 0.000000 4.776020 
# 
# From -- ./inp_files/191152.got.cif
#   From: 2010.05.17/outbox.cif.g08.bks.cpg/sg12_96_cif.got.tgz:191152.got - 2010.06.03 13:09:07.
