data_PCOD9218472
_publ_section_title
;
Structure prediction by ZEFSAII (Michael W. Deem and Ramdas Pophale) SiO2 
 PCOD9218472
Probable space group: C 2/M
;
_chemical_formula_sum "Si O2"
_cell_formula_units_Z 32
_cell_length_a 11.453455
_cell_length_b 14.094276
_cell_length_c 13.968628
_cell_angle_alpha 90.000000
_cell_angle_beta 147.457670
_cell_angle_gamma 90.000000
_cell_volume 1212.977637
_symmetry_space_group_name_H-M "C 2/M"
_symmetry_group_IT_number 12
_symmetry_cell_setting 'monoclinic'
loop_
_space_group_symop_operation_xyz
x,y,z
-x,y,-z
-x,-y,-z
x,-y,z
1/2+x,1/2+y,z
1/2-x,1/2+y,-z
1/2-x,1/2-y,-z
1/2+x,1/2-y,z
loop_
_atom_site_type_symbol
_atom_site_label
_atom_site_fract_x
_atom_site_fract_y
_atom_site_fract_z
Si Si1 0.927117 0.500000 0.060707
Si Si2 0.681425 0.500000 0.205139
Si Si3 0.240207 0.677471 0.138648
Si Si4 0.000000 0.187176 0.500000
Si Si5 0.346228 0.331950 0.661571
Si Si6 0.360957 0.000000 0.591173
O O1 0.791356 0.595430 0.962078
O O2 0.000000 0.500000 0.000000
O O3 0.078623 0.500000 0.256308
O O4 0.649091 0.404534 0.245119
O O5 0.920272 0.500000 0.322265
O O6 0.500000 0.500000 0.000000
O O7 0.343917 0.640935 0.311302
O O8 0.440190 0.727537 0.223219
O O9 0.000000 0.716546 0.000000
O O10 0.162447 0.257120 0.557339
O O11 0.274184 0.406923 0.530199
#
# Coordination Sequence:
#
# PCOD9218472 Si02
#       6
#     4   4   8   4   8   4
#     4  10  24  46  70 106 137 182 247 289 358 420
#     4  11  21  41  76 112 139 182 245 308 352 411
#     4  11  27  47  69 103 142 191 242 291 358 426
#     4  12  26  48  70 102 150 194 230 294 360 442
#     4  11  23  46  72 109 141 186 243 291 368 421
#     4  11  21  44  81 101 139 185 239 315 345 412
#
# _framework density 26.381360999999998
#
# number of rings (size 3 to 8) (size 9 to 14) (size 15 to 20)
#    0.000    1.000    2.500    4.500    7.000    2.500 
#    4.500    0.000    0.000    0.000    0.000    0.000 
#    0.000    0.000    0.000    0.000    0.000    0.000 
#
# Total GULP energy -89385.543102 kJ/mol
# GULP energy per Si atom -5586.596444 kJ/mol
# Density = 2.632132 g / cm^3
# Si number density = 26.381361 Si / 1000 Ang^3
#
#
#
# Elastic Constant Matrix: (Units=GPa)
#
#
# Indices 1 2 3 4 5 6 
#
# 1 171.5900 38.3425 81.4503 -0.0021 46.8773 -0.0022
# 2 38.3425 74.7549 43.1608 -0.0034 -11.2869 -0.0030
# 3 81.4503 43.1608 184.7676 -0.0135 -24.3256 -0.0109
# 4 -0.0021 -0.0034 -0.0135 440.2334 -0.0069 325.0200
# 5 46.8773 -11.2869 -24.3256 -0.0069 97.3529 -0.0061
# 6 -0.0022 -0.0030 -0.0109 325.0200 -0.0061 294.3692
#
#
#
# Elastic Compliance Matrix: (Units=1/GPa)
#
#
# Indices 1 2 3 4 5 6 
#
# 1 0.010822 -0.003826 -0.004779 0.000000 -0.006849 0.000000
# 2 -0.003826 0.016895 -0.001820 0.000000 0.003346 0.000000
# 3 -0.004779 -0.001820 0.008499 0.000000 0.004214 0.000000
# 4 0.000000 0.000000 0.000000 0.012289 0.000000 -0.013569
# 5 -0.006849 0.003346 0.004214 0.000000 0.015010 0.000000
# 6 0.000000 0.000000 0.000000 -0.013569 0.000000 0.018379
#
#
# Mechanical properties :
#
#
# Convention : Reuss Voigt Hill
#
# Bulk Modulus (GPa) = 65.07111 84.11328 74.59220
# Shear Modulus (GPa) = 46.35427 184.26835 115.31131
#
# Velocity S-wave (km/s) = 4.19631 8.36657 6.61848
# Velocity P-wave (km/s) = 6.94246 11.19310 9.31352
#
# Compressibility (1/GPa) = 0.01536780
#
# Stress axis : x y z
#
# Youngs Moduli (GPa) = 92.40415 59.18869 117.66769
#
# Poissons Ratio (x) = 0.22644 0.56229
# Poissons Ratio (y) = 0.35352 0.21410
# Poissons Ratio (z) = 0.44156 0.10770
#
# Static dielectric constant tensor:
#      x y z
#    x 2.183990 0.000000 -0.042720 
#    y 0.000000 2.325320 0.000000 
#    z -0.042720 0.000000 2.183310 
# 
# From -- ./inp_files/206837.got.cif
#   From: 2010.05.17/outbox.cif.g08.bks.cpg/sg12_104_cif.got.tgz:206837.got - 2010.06.03 13:09:07.
