data_PCOD9218370
_publ_section_title
;
Structure prediction by ZEFSAII (Michael W. Deem and Ramdas Pophale) SiO2 
 PCOD9218370
Probable space group: C 2/M
;
_chemical_formula_sum "Si O2"
_cell_formula_units_Z 36
_cell_length_a 16.707841
_cell_length_b 14.519640
_cell_length_c 7.304334
_cell_angle_alpha 90.000000
_cell_angle_beta 50.252808
_cell_angle_gamma 90.000000
_cell_volume 1362.421573
_symmetry_space_group_name_H-M "C 2/M"
_symmetry_group_IT_number 12
_symmetry_cell_setting 'monoclinic'
loop_
_space_group_symop_operation_xyz
x,y,z
-x,y,-z
-x,-y,-z
x,-y,z
1/2+x,1/2+y,z
1/2-x,1/2+y,-z
1/2-x,1/2-y,-z
1/2+x,1/2-y,z
loop_
_atom_site_type_symbol
_atom_site_label
_atom_site_fract_x
_atom_site_fract_y
_atom_site_fract_z
Si Si1 0.513271 0.000000 0.699773
Si Si2 0.462247 0.695322 0.267289
Si Si3 0.372071 0.830844 0.903526
Si Si4 0.730939 0.805307 0.320808
Si Si5 0.523369 0.500000 0.183270
Si Si6 0.764239 0.000000 0.298841
O O1 0.500000 0.000000 0.500000
O O2 0.446476 0.087809 0.864328
O O3 0.638255 0.000000 0.534721
O O4 0.552173 0.746673 0.248099
O O5 0.362644 0.760412 0.431786
O O6 0.467414 0.591691 0.332894
O O7 0.500000 0.697166 0.000000
O O8 0.314247 0.854202 0.798823
O O9 0.292542 0.783606 0.158150
O O10 0.786811 0.893625 0.331566
O O11 0.500000 0.500000 0.000000
O O12 0.650134 0.500000 0.998044
#
# Coordination Sequence:
#
# PCOD9218370 Si02
#       6
#     4   8   8   8   4   4
#     4  12  20  37  65  96 135 165 204 267 330 375
#     4  11  23  42  65  91 127 172 217 265 318 382
#     4  11  22  40  63  97 134 164 217 262 321 378
#     4  11  23  39  68  96 127 173 214 266 319 386
#     4  10  24  45  61  89 130 176 212 262 327 387
#     4  12  20  40  69  94 127 177 211 257 339 382
#
# _framework density 26.423537
#
# number of rings (size 3 to 8) (size 9 to 14) (size 15 to 20)
#    0.000    0.889    6.667    0.667    0.000    1.778 
#    0.000    5.556    0.000    0.000    0.000    0.000 
#    0.000    0.000    0.000    0.000    0.000    0.000 
#
# Total GULP energy -100434.445079 kJ/mol
# GULP energy per Si atom -5579.691393 kJ/mol
# Density = 2.636340 g / cm^3
# Si number density = 26.423537 Si / 1000 Ang^3
#
#
#
# Elastic Constant Matrix: (Units=GPa)
#
#
# Indices 1 2 3 4 5 6 
#
# 1 70.9572 21.8542 28.7239 0.0000 -4.7449 0.0000
# 2 21.8542 194.8311 49.0731 0.0000 -35.7920 0.0000
# 3 28.7239 49.0731 146.8319 0.0000 -34.7142 0.0000
# 4 0.0000 0.0000 0.0000 55.6866 0.0000 -23.8050
# 5 -4.7449 -35.7920 -34.7142 0.0000 33.2775 0.0000
# 6 0.0000 0.0000 0.0000 -23.8050 0.0000 24.9525
#
#
#
# Elastic Compliance Matrix: (Units=1/GPa)
#
#
# Indices 1 2 3 4 5 6 
#
# 1 0.015658 -0.001437 -0.003213 0.000000 -0.002664 0.000000
# 2 -0.001437 0.006580 -0.000389 0.000000 0.006466 0.000000
# 3 -0.003213 -0.000389 0.009772 0.000000 0.009317 0.000000
# 4 0.000000 0.000000 0.000000 0.030325 0.000000 0.028930
# 5 -0.002664 0.006466 0.009317 0.000000 0.046344 0.000000
# 6 0.000000 0.000000 0.000000 0.028930 0.000000 0.067676
#
#
# Mechanical properties :
#
#
# Convention : Reuss Voigt Hill
#
# Bulk Modulus (GPa) = 45.59517 67.99139 56.79328
# Shear Modulus (GPa) = 25.80748 43.64791 34.72769
#
# Velocity S-wave (km/s) = 3.12859 4.06871 3.62922
# Velocity P-wave (km/s) = 5.50851 6.91808 6.25314
#
# Compressibility (1/GPa) = 0.02193215
#
# Stress axis : x y z
#
# Youngs Moduli (GPa) = 63.86570 151.98325 102.33502
#
# Poissons Ratio (x) = 0.21832 0.32878
# Poissons Ratio (y) = 0.09174 0.03984
# Poissons Ratio (z) = 0.20519 0.05917
#
# Static dielectric constant tensor:
#      x y z
#    x 2.297440 0.000000 -0.025030 
#    y 0.000000 2.037960 0.000000 
#    z -0.025030 0.000000 2.098350 
# 
# From -- ./inp_files/86269.got.cif
#   From: 2010.05.17/outbox.cif.g08.bks.cpg/sg12_44_cif.got.tgz:86269.got - 2010.06.03 13:09:07.
