data_PCOD9218559
_publ_section_title
;
Structure prediction by ZEFSAII (Michael W. Deem and Ramdas Pophale) SiO2 
 PCOD9218559
Probable space group: C 2/M
;
_chemical_formula_sum "Si O2"
_cell_formula_units_Z 40
_cell_length_a 5.674245
_cell_length_b 21.830925
_cell_length_c 14.385650
_cell_angle_alpha 90.000000
_cell_angle_beta 96.016004
_cell_angle_gamma 90.000000
_cell_volume 1772.194127
_symmetry_space_group_name_H-M "C 2/M"
_symmetry_group_IT_number 12
_symmetry_cell_setting 'monoclinic'
loop_
_space_group_symop_operation_xyz
x,y,z
-x,y,-z
-x,-y,-z
x,-y,z
1/2+x,1/2+y,z
1/2-x,1/2+y,-z
1/2-x,1/2-y,-z
1/2+x,1/2-y,z
loop_
_atom_site_type_symbol
_atom_site_label
_atom_site_fract_x
_atom_site_fract_y
_atom_site_fract_z
Si Si1 0.612613 0.610784 0.784399
Si Si2 0.257914 0.679275 0.035577
Si Si3 0.882451 0.000000 0.893185
Si Si4 0.796132 0.500000 0.415080
Si Si5 0.000000 0.712600 0.500000
Si Si6 0.046810 0.500000 0.230585
Si Si7 0.360881 0.633826 0.589019
O O1 0.708920 0.664050 0.855185
O O2 0.459100 0.561805 0.839802
O O3 0.489702 0.643485 0.691980
O O4 0.808578 0.562918 0.757221
O O5 0.500000 0.653976 0.000000
O O6 0.250000 0.750000 0.000000
O O7 0.000000 0.652220 0.000000
O O8 0.598610 0.000000 0.871980
O O9 0.000000 0.000000 0.000000
O O10 0.884549 0.500000 0.313625
O O11 0.654560 0.561461 0.419609
O O12 0.000000 0.500000 0.500000
O O13 0.750000 0.750000 0.500000
O O14 0.900606 0.664911 0.418717
O O15 0.500000 0.650997 0.500000
#
# Coordination Sequence:
#
# PCOD9218559 Si02
#       7
#     8   8   4   4   4   4   8
#     4  11  25  42  71 109 148 198 249 310 385 461
#     4  10  24  48  72 103 140 185 253 320 373 429
#     4  11  24  42  67 102 153 197 242 303 387 471
#     4  12  21  40  75 113 150 193 253 313 391 454
#     4  12  28  55  74 105 156 212 270 314 382 452
#     4  11  24  41  65 113 159 194 251 302 402 479
#     4  12  25  47  76 112 158 204 252 324 385 469
#
# _framework density 22.570893000000002
#
# number of rings (size 3 to 8) (size 9 to 14) (size 15 to 20)
#    0.000    0.800    4.000    2.700    5.600    0.800 
#    7.200    0.000    0.000    0.000    0.000    0.000 
#    0.000    0.000    0.000    0.000    0.000    0.000 
#
# Total GULP energy -111377.439370 kJ/mol
# GULP energy per Si atom -5568.871968 kJ/mol
# Density = 2.251952 g / cm^3
# Si number density = 22.570893 Si / 1000 Ang^3
#
#
#
# Elastic Constant Matrix: (Units=GPa)
#
#
# Indices 1 2 3 4 5 6 
#
# 1 123.3205 31.4867 64.5584 0.0000 19.6351 0.0000
# 2 31.4867 103.7134 39.7835 0.0000 1.9323 0.0000
# 3 64.5584 39.7835 213.6808 0.0000 44.1921 0.0000
# 4 0.0000 0.0000 0.0000 65.5747 0.0000 39.7735
# 5 19.6351 1.9323 44.1921 0.0000 43.4726 0.0000
# 6 0.0000 0.0000 0.0000 39.7735 0.0000 9.6780
#
#
#
# Elastic Compliance Matrix: (Units=1/GPa)
#
#
# Indices 1 2 3 4 5 6 
#
# 1 0.010184 -0.002207 -0.002197 0.000000 -0.002268 0.000000
# 2 -0.002207 0.010988 -0.001879 0.000000 0.002419 0.000000
# 3 -0.002197 -0.001879 0.006927 0.000000 -0.005966 0.000000
# 4 0.000000 0.000000 0.000000 -0.010216 0.000000 0.041986
# 5 -0.002268 0.002419 -0.005966 0.000000 0.029985 0.000000
# 6 0.000000 0.000000 0.000000 0.041986 0.000000 -0.069223
#
#
# Mechanical properties :
#
#
# Convention : Reuss Voigt Hill
#
# Bulk Modulus (GPa) = 64.37802 79.15242 71.76522
# Shear Modulus (GPa) = -1384.06575 44.07080 -669.99748
#
# Velocity S-wave (km/s) = -24.78991 4.42356 -17.24778
# Velocity P-wave (km/s) = 28.12119 7.82528 19.09930
#
# Compressibility (1/GPa) = 0.01553325
#
# Stress axis : x y z
#
# Youngs Moduli (GPa) = 98.19764 91.01092 144.35556
#
# Poissons Ratio (x) = 0.20084 0.31711
# Poissons Ratio (y) = 0.21670 0.27127
# Poissons Ratio (z) = 0.21571 0.17103
#
# Static dielectric constant tensor:
#      x y z
#    x 1.940050 0.000000 0.012860 
#    y 0.000000 1.756580 0.000000 
#    z 0.012860 0.000000 1.815860 
# 
# From -- ./inp_files/191649.got.cif
#   From: 2010.05.17/outbox.cif.g08.bks.cpg/sg12_96_cif.got.tgz:191649.got - 2010.06.03 13:09:07.
