data_PCOD9218549
_publ_section_title
;
Structure prediction by ZEFSAII (Michael W. Deem and Ramdas Pophale) SiO2 
 PCOD9218549
Probable space group: C 2/M
;
_chemical_formula_sum "Si O2"
_cell_formula_units_Z 52
_cell_length_a 23.744709
_cell_length_b 23.751363
_cell_length_c 5.441872
_cell_angle_alpha 90.000000
_cell_angle_beta 50.285033
_cell_angle_gamma 90.000000
_cell_volume 2360.812145
_symmetry_space_group_name_H-M "C 2/M"
_symmetry_group_IT_number 12
_symmetry_cell_setting 'monoclinic'
loop_
_space_group_symop_operation_xyz
x,y,z
-x,y,-z
-x,-y,-z
x,-y,z
1/2+x,1/2+y,z
1/2-x,1/2+y,-z
1/2-x,1/2-y,-z
1/2+x,1/2-y,z
loop_
_atom_site_type_symbol
_atom_site_label
_atom_site_fract_x
_atom_site_fract_y
_atom_site_fract_z
Si Si1 0.572554 0.772525 0.932690
Si Si2 0.915300 0.615367 0.817504
Si Si3 0.312775 0.563066 0.228168
Si Si4 0.185545 0.788039 0.277405
Si Si5 0.425077 0.657543 0.807704
Si Si6 0.452549 0.000000 0.888570
Si Si7 0.762834 0.402058 0.077374
O O1 0.639042 0.752034 0.581483
O O2 0.500000 0.794641 0.000000
O O3 0.598944 0.823430 0.028357
O O4 0.549484 0.713133 0.117102
O O5 0.910828 0.559589 0.999627
O O6 0.000000 0.618269 0.500000
O O7 0.850357 0.604015 0.806109
O O8 0.343188 0.500000 0.116130
O O9 0.261680 0.563113 0.613476
O O10 0.376627 0.610165 0.076159
O O11 0.270682 0.577944 0.089347
O O12 0.128316 0.814677 0.245142
O O13 0.228545 0.842176 0.252948
O O14 0.250000 0.750000 0.000000
O O15 0.500000 0.631127 0.500000
O O16 0.500000 0.000000 0.500000
O O17 0.500000 0.000000 0.000000
#
# Coordination Sequence:
#
# PCOD9218549 Si02
#       7
#     8   8   8   8   8   4   8
#     4  12  24  41  72 102 138 187 235 294 354 430
#     4  11  27  45  69 101 139 186 242 295 352 423
#     4  11  26  47  75 106 142 187 242 296 362 429
#     4  11  25  42  68 102 146 186 234 295 365 424
#     4  11  23  44  68 102 145 184 236 294 360 427
#     4  10  24  48  66  94 136 180 231 290 345 408
#     4  11  26  47  72 104 144 188 237 301 356 429
#
# _framework density 22.026319000000001
#
# number of rings (size 3 to 8) (size 9 to 14) (size 15 to 20)
#    0.000    0.923    3.077    2.308    8.615    4.000 
#    0.000    0.000    0.000    3.231    0.000    0.000 
#    0.000    0.000    0.000    0.000    0.000    0.000 
#
# Total GULP energy -145080.496974 kJ/mol
# GULP energy per Si atom -5580.019114 kJ/mol
# Density = 2.197619 g / cm^3
# Si number density = 22.026319 Si / 1000 Ang^3
#
#
#
# Elastic Constant Matrix: (Units=GPa)
#
#
# Indices 1 2 3 4 5 6 
#
# 1 67.4292 1.6248 9.5609 0.0000 -8.1838 0.0000
# 2 1.6248 131.0964 10.9999 0.0000 4.7355 0.0000
# 3 9.5609 10.9999 98.2149 0.0000 -13.4027 0.0000
# 4 0.0000 0.0000 0.0000 18.2056 0.0000 0.5056
# 5 -8.1838 4.7355 -13.4027 0.0000 33.2663 0.0000
# 6 0.0000 0.0000 0.0000 0.5056 0.0000 22.5096
#
#
#
# Elastic Compliance Matrix: (Units=1/GPa)
#
#
# Indices 1 2 3 4 5 6 
#
# 1 0.015393 -0.000230 -0.001007 0.000000 0.003414 0.000000
# 2 -0.000230 0.007778 -0.001066 0.000000 -0.001593 0.000000
# 3 -0.001007 -0.001066 0.010990 0.000000 0.004332 0.000000
# 4 0.000000 0.000000 0.000000 0.054962 0.000000 -0.001235
# 5 0.003414 -0.001593 0.004332 0.000000 0.032872 0.000000
# 6 0.000000 0.000000 0.000000 -0.001235 0.000000 0.044453
#
#
# Mechanical properties :
#
#
# Convention : Reuss Voigt Hill
#
# Bulk Modulus (GPa) = 33.83426 37.90130 35.86778
# Shear Modulus (GPa) = 27.63860 33.09996 30.36928
#
# Velocity S-wave (km/s) = 3.54616 3.88073 3.71721
# Velocity P-wave (km/s) = 5.67108 6.10940 5.89431
#
# Compressibility (1/GPa) = 0.02955584
#
# Stress axis : x y z
#
# Youngs Moduli (GPa) = 64.96460 128.57056 90.98910
#
# Poissons Ratio (x) = 0.02952 0.09162
# Poissons Ratio (y) = 0.01492 0.09701
# Poissons Ratio (z) = 0.06541 0.13708
#
# Static dielectric constant tensor:
#      x y z
#    x 1.822210 0.000000 0.068740 
#    y 0.000000 1.807290 0.000000 
#    z 0.068740 0.000000 1.898070 
# 
# From -- ./inp_files/26174.got.cif
#   From: 2010.05.17/outbox.cif.g08.bks.cpg/sg12_14_cif.got.tgz:26174.got - 2010.06.03 13:09:07.
