data_PCOD9218108
_publ_section_title
;
Structure prediction by ZEFSAII (Michael W. Deem and Ramdas Pophale) SiO2 
 PCOD9218108
Probable space group: C 2/M
;
_chemical_formula_sum "Si O2"
_cell_formula_units_Z 50
_cell_length_a 23.608431
_cell_length_b 12.835997
_cell_length_c 7.483614
_cell_angle_alpha 90.000000
_cell_angle_beta 63.857000
_cell_angle_gamma 90.000000
_cell_volume 2035.813352
_symmetry_space_group_name_H-M "C 2/M"
_symmetry_group_IT_number 12
_symmetry_cell_setting 'monoclinic'
loop_
_space_group_symop_operation_xyz
x,y,z
-x,y,-z
-x,-y,-z
x,-y,z
1/2+x,1/2+y,z
1/2-x,1/2+y,-z
1/2-x,1/2-y,-z
1/2+x,1/2-y,z
loop_
_atom_site_type_symbol
_atom_site_label
_atom_site_fract_x
_atom_site_fract_y
_atom_site_fract_z
Si Si1 0.427128 0.879858 0.170779
Si Si2 0.770926 0.111461 0.534267
Si Si3 0.500000 0.500000 0.000000
Si Si4 0.567538 0.612832 0.313149
Si Si5 0.731074 0.181503 0.238077
Si Si6 0.147161 0.275656 0.040261
Si Si7 0.906284 0.157390 0.339638
O O1 0.375576 0.850214 0.087826
O O2 0.417333 0.000000 0.243984
O O3 0.500000 0.875226 0.000000
O O4 0.419458 0.780802 0.314461
O O5 0.724685 0.117622 0.428757
O O6 0.763849 0.202072 0.685736
O O7 0.838927 0.131608 0.346907
O O8 0.766492 0.000000 0.626300
O O9 0.540205 0.591170 0.832363
O O10 0.500000 0.620630 0.500000
O O11 0.572153 0.500000 0.212364
O O12 0.584618 0.709392 0.170059
O O13 0.607489 0.619892 0.438811
O O14 0.676350 0.165066 0.170907
O O15 0.799804 0.183076 0.050756
#
# Coordination Sequence:
#
# PCOD9218108 Si02
#       7
#     8   8   2   8   8   8   8
#     4  11  25  45  69  96 135 187 240 290 340 414
#     4  11  22  42  68  98 136 175 230 293 353 419
#     4  12  24  36  76 108 144 184 222 302 360 424
#     4  11  24  40  66 105 144 178 217 287 372 431
#     4  10  24  42  65  96 134 184 230 288 346 416
#     4  11  23  44  65  95 140 178 239 289 342 421
#     4  12  22  42  67 105 139 178 232 284 353 427
#
# _framework density 24.560206999999998
#
# number of rings (size 3 to 8) (size 9 to 14) (size 15 to 20)
#    0.000    0.960    5.600    0.960    0.000    1.920 
#    0.000    4.000    0.000    2.880    0.000    0.000 
#    0.000    0.000    0.000    0.000    0.000    0.000 
#
# Total GULP energy -139359.569636 kJ/mol
# GULP energy per Si atom -5574.382785 kJ/mol
# Density = 2.450431 g / cm^3
# Si number density = 24.560207 Si / 1000 Ang^3
#
#
#
# Elastic Constant Matrix: (Units=GPa)
#
#
# Indices 1 2 3 4 5 6 
#
# 1 92.7131 -6.6883 -12.2951 0.0000 8.6745 0.0000
# 2 -6.6883 142.8853 0.6662 0.0000 -2.1892 0.0000
# 3 -12.2951 0.6662 35.9751 0.0000 0.2779 0.0000
# 4 0.0000 0.0000 0.0000 7.2061 0.0000 -3.7656
# 5 8.6745 -2.1892 0.2779 0.0000 32.2209 0.0000
# 6 0.0000 0.0000 0.0000 -3.7656 0.0000 13.1067
#
#
#
# Elastic Compliance Matrix: (Units=1/GPa)
#
#
# Indices 1 2 3 4 5 6 
#
# 1 0.011644 0.000478 0.003995 0.000000 -0.003137 0.000000
# 2 0.000478 0.007026 0.000031 0.000000 0.000348 0.000000
# 3 0.003995 0.000031 0.029172 0.000000 -0.001325 0.000000
# 4 0.000000 0.000000 0.000000 0.163287 0.000000 0.046914
# 5 -0.003137 0.000348 -0.001325 0.000000 0.031915 0.000000
# 6 0.000000 0.000000 0.000000 0.046914 0.000000 0.089775
#
#
# Mechanical properties :
#
#
# Convention : Reuss Voigt Hill
#
# Bulk Modulus (GPa) = 17.59028 26.10435 21.84731
# Shear Modulus (GPa) = 14.58738 29.83278 22.21008
#
# Velocity S-wave (km/s) = 2.43974 3.48901 3.01044
# Velocity P-wave (km/s) = 3.88768 5.18485 4.58240
#
# Compressibility (1/GPa) = 0.05684957
#
# Stress axis : x y z
#
# Youngs Moduli (GPa) = 85.88331 142.32432 34.27945
#
# Poissons Ratio (x) = -0.06808 -0.13694
# Poissons Ratio (y) = -0.04108 -0.00105
# Poissons Ratio (z) = -0.34309 -0.00437
#
# Static dielectric constant tensor:
#      x y z
#    x 2.303640 0.000000 0.007780 
#    y 0.000000 1.903310 0.000000 
#    z 0.007780 0.000000 2.093570 
# 
# From -- ./inp_files/103070.got.cif
#   From: 2010.05.17/outbox.cif.g08.bks.cpg/sg12_52_cif.got.tgz:103070.got - 2010.06.03 13:09:07.
