data_PCOD9218947
_publ_section_title
;
Structure prediction by ZEFSAII (Michael W. Deem and Ramdas Pophale) SiO2 
 PCOD9218947
Probable space group: C 2/M
;
_chemical_formula_sum "Si O2"
_cell_formula_units_Z 48
_cell_length_a 17.947591
_cell_length_b 19.694788
_cell_length_c 12.261192
_cell_angle_alpha 90.000000
_cell_angle_beta 30.079766
_cell_angle_gamma 90.000000
_cell_volume 2172.229545
_symmetry_space_group_name_H-M "C 2/M"
_symmetry_group_IT_number 12
_symmetry_cell_setting 'monoclinic'
loop_
_space_group_symop_operation_xyz
x,y,z
-x,y,-z
-x,-y,-z
x,-y,z
1/2+x,1/2+y,z
1/2-x,1/2+y,-z
1/2-x,1/2-y,-z
1/2+x,1/2-y,z
loop_
_atom_site_type_symbol
_atom_site_label
_atom_site_fract_x
_atom_site_fract_y
_atom_site_fract_z
Si Si1 0.983236 0.137416 0.229561
Si Si2 0.764688 0.797273 0.191476
Si Si3 0.325001 0.918217 0.343850
Si Si4 0.982488 0.743034 0.640656
Si Si5 0.123377 0.927978 0.249812
Si Si6 0.141634 0.645129 0.932526
O O1 0.815316 0.116027 0.418557
O O2 0.994605 0.207232 0.287655
O O3 0.043299 0.081418 0.237070
O O4 0.104011 0.149033 0.982793
O O5 0.500000 0.718158 0.500000
O O6 0.673287 0.792848 0.191036
O O7 0.627247 0.805462 0.448980
O O8 0.308987 0.899143 0.235061
O O9 0.332247 0.000000 0.347815
O O10 0.479775 0.880099 0.172677
O O11 0.341390 0.775751 0.117173
O O12 0.242876 0.870608 0.119473
O O13 0.000000 0.927838 0.500000
O O14 0.204059 0.000000 0.152856
#
# Coordination Sequence:
#
# PCOD9218947 Si02
#       6
#     8   8   8   8   8   8
#     4  12  18  31  51  74 102 132 166 207 245 299
#     4   9  19  30  51  72 101 134 164 202 254 294
#     4  11  22  33  48  71 104 139 165 205 254 298
#     4   8  16  30  44  71  97 127 158 196 245 291
#     4  11  19  29  47  72 100 133 168 199 241 302
#     4  11  19  33  46  68 104 138 165 197 252 307
#
# _framework density 22.097113
#
# number of rings (size 3 to 8) (size 9 to 14) (size 15 to 20)
#    1.000    0.500    5.000    3.500    0.000    0.667 
#    0.000    0.000    0.000    0.000    0.000    9.333 
#    0.000    1.333    0.000    0.000    0.000    0.000 
#
# Total GULP energy -133745.907532 kJ/mol
# GULP energy per Si atom -5572.746147 kJ/mol
# Density = 2.204682 g / cm^3
# Si number density = 22.097113 Si / 1000 Ang^3
#
#
#
# Elastic Constant Matrix: (Units=GPa)
#
#
# Indices 1 2 3 4 5 6 
#
# 1 37.2649 7.6841 22.9383 -0.0014 -16.4902 -0.0018
# 2 7.6841 44.8236 38.9238 -0.0014 -8.0457 -0.0018
# 3 22.9383 38.9238 135.0356 -0.0048 -36.0815 -0.0084
# 4 -0.0014 -0.0014 -0.0048 1.3243 0.0028 -55.2577
# 5 -16.4902 -8.0457 -36.0815 0.0028 36.0593 0.0028
# 6 -0.0018 -0.0018 -0.0084 -55.2577 0.0028 -119.8178
#
#
#
# Elastic Compliance Matrix: (Units=1/GPa)
#
#
# Indices 1 2 3 4 5 6 
#
# 1 0.034263 -0.002048 -0.001591 0.000000 0.013620 0.000000
# 2 -0.002048 0.030068 -0.009250 0.000000 -0.003483 0.000000
# 3 -0.001591 -0.009250 0.013098 0.000000 0.010315 0.000000
# 4 0.000000 0.000000 0.000000 0.037302 -0.000002 -0.017203
# 5 0.013620 -0.003483 0.010315 -0.000002 0.043505 0.000001
# 6 0.000000 0.000000 0.000000 -0.017203 0.000001 -0.000412
#
#
# Mechanical properties :
#
#
# Convention : Reuss Voigt Hill
#
# Bulk Modulus (GPa) = 19.35996 39.57961 29.46978
# Shear Modulus (GPa) = 24.89815 -6.64832 9.12492
#
# Velocity S-wave (km/s) = 3.36037 -1.73644 2.03431
# Velocity P-wave (km/s) = 4.88225 3.73233 4.34550
#
# Compressibility (1/GPa) = 0.05165300
#
# Stress axis : x y z
#
# Youngs Moduli (GPa) = 29.18558 33.25805 76.34730
#
# Poissons Ratio (x) = 0.06810 0.12144
# Poissons Ratio (y) = 0.05976 0.70620
# Poissons Ratio (z) = 0.04642 0.30763
#
# Static dielectric constant tensor:
#      x y z
#    x 1.875490 0.000000 -0.029850 
#    y 0.000000 1.824210 0.000000 
#    z -0.029850 0.000000 1.916580 
# 
# From -- ./inp_files/294016.got.cif
#   From: 2010.05.17/outbox.cif.g08.bks.cpg/sg12_148_cif.got.tgz:294016.got - 2010.06.03 13:09:07.
