data_PCOD9218087
_publ_section_title
;
Structure prediction by ZEFSAII (Michael W. Deem and Ramdas Pophale) SiO2 
 PCOD9218087
Probable space group: C 2/M
;
_chemical_formula_sum "Si O2"
_cell_formula_units_Z 28
_cell_length_a 8.741498
_cell_length_b 25.078429
_cell_length_c 6.291897
_cell_angle_alpha 90.000000
_cell_angle_beta 92.988781
_cell_angle_gamma 90.000000
_cell_volume 1377.452555
_symmetry_space_group_name_H-M "C 2/M"
_symmetry_group_IT_number 12
_symmetry_cell_setting 'monoclinic'
loop_
_space_group_symop_operation_xyz
x,y,z
-x,y,-z
-x,-y,-z
x,-y,z
1/2+x,1/2+y,z
1/2-x,1/2+y,-z
1/2-x,1/2-y,-z
1/2+x,1/2-y,z
loop_
_atom_site_type_symbol
_atom_site_label
_atom_site_fract_x
_atom_site_fract_y
_atom_site_fract_z
Si Si1 0.000000 0.255448 0.500000
Si Si2 0.325415 0.000000 0.578206
Si Si3 0.347288 0.500000 0.842786
Si Si4 0.676723 0.909856 0.071792
Si Si5 0.256216 0.793183 0.809192
O O1 0.120015 0.220065 0.637929
O O2 0.091360 0.288239 0.326080
O O3 0.500000 0.000000 0.500000
O O4 0.179402 0.000000 0.410838
O O5 0.314475 0.053146 0.719439
O O6 0.500000 0.500000 0.000000
O O7 0.256629 0.446775 0.903459
O O8 0.752932 0.852563 0.102306
O O9 0.500000 0.901892 0.000000
O O10 0.250000 0.750000 0.000000
#
# Coordination Sequence:
#
# PCOD9218087 Si02
#       5
#     4   4   4   8   8
#     4  10  24  42  62  96 128 174 220 266 334 398
#     4  11  21  41  67  90 127 163 215 269 314 390
#     4  11  25  41  63  97 131 165 213 272 331 382
#     4  11  23  40  66  94 123 172 220 261 325 393
#     4  11  24  42  66  94 134 170 222 273 328 389
#
# _framework density 20.327379000000001
#
# number of rings (size 3 to 8) (size 9 to 14) (size 15 to 20)
#    0.000    1.143    2.857    3.429    2.000   11.429 
#    0.000    0.000    0.000    0.000    0.000    0.000 
#    0.000    0.000    0.000    0.000    0.000    0.000 
#
# Total GULP energy -78168.042790 kJ/mol
# GULP energy per Si atom -5583.431628 kJ/mol
# Density = 2.028111 g / cm^3
# Si number density = 20.327379 Si / 1000 Ang^3
#
#
#
# Elastic Constant Matrix: (Units=GPa)
#
#
# Indices 1 2 3 4 5 6 
#
# 1 51.1638 -2.4896 11.1266 0.0000 13.6914 0.0000
# 2 -2.4896 161.6467 41.1368 0.0000 -0.2124 0.0000
# 3 11.1266 41.1368 107.0732 0.0000 14.1544 0.0000
# 4 0.0000 0.0000 0.0000 -53.1544 0.0000 12.1115
# 5 13.6914 -0.2124 14.1544 0.0000 42.9188 0.0000
# 6 0.0000 0.0000 0.0000 12.1115 0.0000 11.8747
#
#
#
# Elastic Compliance Matrix: (Units=1/GPa)
#
#
# Indices 1 2 3 4 5 6 
#
# 1 0.021649 0.000758 -0.001703 0.000000 -0.006341 0.000000
# 2 0.000758 0.006920 -0.002834 0.000000 0.000727 0.000000
# 3 -0.001703 -0.002834 0.011015 0.000000 -0.003104 0.000000
# 4 0.000000 0.000000 0.000000 -0.015265 0.000000 0.015570
# 5 -0.006341 0.000727 -0.003104 0.000000 0.026350 0.000000
# 6 0.000000 0.000000 0.000000 0.015570 0.000000 0.068332
#
#
# Mechanical properties :
#
#
# Convention : Reuss Voigt Hill
#
# Bulk Modulus (GPa) = 31.22215 46.60348 38.91282
# Shear Modulus (GPa) = 36.43444 18.33516 27.38480
#
# Velocity S-wave (km/s) = 4.23825 3.00658 3.67439
# Velocity P-wave (km/s) = 6.27242 5.91852 6.09804
#
# Compressibility (1/GPa) = 0.03202854
#
# Stress axis : x y z
#
# Youngs Moduli (GPa) = 46.19132 144.50746 90.78326
#
# Poissons Ratio (x) = -0.10960 0.15459
# Poissons Ratio (y) = -0.03503 0.25724
# Poissons Ratio (z) = 0.07866 0.40947
#
# Static dielectric constant tensor:
#      x y z
#    x 1.760190 0.000000 -0.007580 
#    y 0.000000 1.667650 0.000000 
#    z -0.007580 0.000000 1.495010 
# 
# From -- ./inp_files/3175.got.cif
#   From: 2010.05.17/outbox.cif.g08.bks.cpg/sg12_2_cif.got.tgz:3175.got - 2010.06.03 13:09:07.
