data_PCOD9218174
_publ_section_title
;
Structure prediction by ZEFSAII (Michael W. Deem and Ramdas Pophale) SiO2 
 PCOD9218174
Probable space group: C 2/M
;
_chemical_formula_sum "Si O2"
_cell_formula_units_Z 56
_cell_length_a 25.622032
_cell_length_b 17.843300
_cell_length_c 9.261190
_cell_angle_alpha 90.000000
_cell_angle_beta 137.515304
_cell_angle_gamma 90.000000
_cell_volume 2859.645895
_symmetry_space_group_name_H-M "C 2/M"
_symmetry_group_IT_number 12
_symmetry_cell_setting 'monoclinic'
loop_
_space_group_symop_operation_xyz
x,y,z
-x,y,-z
-x,-y,-z
x,-y,z
1/2+x,1/2+y,z
1/2-x,1/2+y,-z
1/2-x,1/2-y,-z
1/2+x,1/2-y,z
loop_
_atom_site_type_symbol
_atom_site_label
_atom_site_fract_x
_atom_site_fract_y
_atom_site_fract_z
Si Si1 0.083171 0.086498 0.244290
Si Si2 0.666763 0.305434 0.630324
Si Si3 0.406118 0.000000 0.989014
Si Si4 0.580441 0.707746 0.747007
Si Si5 0.338917 0.857290 0.018989
Si Si6 0.852570 0.086420 0.930889
Si Si7 0.590592 0.000000 0.342714
Si Si8 0.318437 0.868136 0.320779
O O1 0.108697 0.145269 0.416747
O O2 0.142487 0.092636 0.231504
O O3 0.083747 0.000000 0.299196
O O4 0.000000 0.099458 0.000000
O O5 0.642948 0.310277 0.749722
O O6 0.664677 0.216790 0.595239
O O7 0.753723 0.335249 0.790032
O O8 0.372800 0.927060 0.001445
O O9 0.499017 0.000000 0.180648
O O10 0.386955 0.000000 0.780076
O O11 0.500000 0.716550 0.500000
O O12 0.606236 0.784312 0.876704
O O13 0.584359 0.639953 0.866951
O O14 0.330795 0.873833 0.173632
O O15 0.769030 0.111195 0.816396
O O16 0.867074 0.000000 0.998552
O O17 0.626438 0.926936 0.489464
#
# Coordination Sequence:
#
# PCOD9218174 Si02
#       8
#     8   8   4   8   8   8   4   8
#     4  10  24  43  62  91 132 172 219 267 330 398
#     4  11  23  41  66  99 128 172 224 273 325 398
#     4  11  29  45  67 103 130 175 226 273 328 403
#     4  11  23  41  64  95 134 168 219 278 330 387
#     4  11  24  42  68  97 131 170 227 268 331 400
#     4  11  22  39  64  92 126 171 217 265 329 393
#     4  11  27  49  65  97 140 171 222 277 334 391
#     4  11  22  42  67  96 133 172 216 275 330 395
#
# _framework density 19.582843
#
# number of rings (size 3 to 8) (size 9 to 14) (size 15 to 20)
#    0.000    1.143    3.571    2.143    7.000    3.143 
#    2.571    0.000    0.000    0.000    0.000    0.000 
#    0.000    0.000    0.000    0.000    0.000    0.000 
#
# Total GULP energy -156535.448616 kJ/mol
# GULP energy per Si atom -5590.551736 kJ/mol
# Density = 1.953827 g / cm^3
# Si number density = 19.582843 Si / 1000 Ang^3
#
#
#
# Elastic Constant Matrix: (Units=GPa)
#
#
# Indices 1 2 3 4 5 6 
#
# 1 65.4327 55.5593 10.7007 0.0000 -4.8169 0.0000
# 2 55.5593 182.2880 79.1116 0.0000 -20.3566 0.0000
# 3 10.7007 79.1116 85.3182 0.0000 -4.6432 0.0000
# 4 0.0000 0.0000 0.0000 43.1455 0.0000 -36.3211
# 5 -4.8169 -20.3566 -4.6432 0.0000 21.4737 0.0000
# 6 0.0000 0.0000 0.0000 -36.3211 0.0000 147.5391
#
#
#
# Elastic Compliance Matrix: (Units=1/GPa)
#
#
# Indices 1 2 3 4 5 6 
#
# 1 0.022400 -0.009821 0.006136 0.000000 -0.002958 0.000000
# 2 -0.009821 0.014637 -0.011845 0.000000 0.009112 0.000000
# 3 0.006136 -0.011845 0.021653 0.000000 -0.005170 0.000000
# 4 0.000000 0.000000 0.000000 0.029236 0.000000 0.007197
# 5 -0.002958 0.009112 -0.005170 0.000000 0.053425 0.000000
# 6 0.000000 0.000000 0.000000 0.007197 0.000000 0.008550
#
#
# Mechanical properties :
#
#
# Convention : Reuss Voigt Hill
#
# Bulk Modulus (GPa) = 36.19086 69.30911 52.74999
# Shear Modulus (GPa) = 26.29216 54.94282 40.61749
#
# Velocity S-wave (km/s) = 3.66814 5.30260 4.55921
# Velocity P-wave (km/s) = 6.03833 8.54164 7.39666
#
# Compressibility (1/GPa) = 0.02763128
#
# Stress axis : x y z
#
# Youngs Moduli (GPa) = 44.64198 68.31981 46.18313
#
# Poissons Ratio (x) = 0.67094 -0.28337
# Poissons Ratio (y) = 0.43841 0.54702
# Poissons Ratio (z) = -0.27391 0.80923
#
# Static dielectric constant tensor:
#      x y z
#    x 1.696090 0.000000 0.014830 
#    y 0.000000 1.661790 0.000000 
#    z 0.014830 0.000000 1.671950 
# 
# From -- ./inp_files/106069.got.cif
#   From: 2010.05.17/outbox.cif.g08.bks.cpg/sg12_54_cif.got.tgz:106069.got - 2010.06.03 13:09:07.
