data_PCOD9218458
_publ_section_title
;
Structure prediction by ZEFSAII (Michael W. Deem and Ramdas Pophale) SiO2 
 PCOD9218458
Probable space group: C 2/M
;
_chemical_formula_sum "Si O2"
_cell_formula_units_Z 56
_cell_length_a 17.850985
_cell_length_b 18.108706
_cell_length_c 9.413990
_cell_angle_alpha 90.000000
_cell_angle_beta 64.072619
_cell_angle_gamma 90.000000
_cell_volume 2736.853555
_symmetry_space_group_name_H-M "C 2/M"
_symmetry_group_IT_number 12
_symmetry_cell_setting 'monoclinic'
loop_
_space_group_symop_operation_xyz
x,y,z
-x,y,-z
-x,-y,-z
x,-y,z
1/2+x,1/2+y,z
1/2-x,1/2+y,-z
1/2-x,1/2-y,-z
1/2+x,1/2-y,z
loop_
_atom_site_type_symbol
_atom_site_label
_atom_site_fract_x
_atom_site_fract_y
_atom_site_fract_z
Si Si1 0.076666 0.818181 0.532032
Si Si2 0.998441 0.585547 0.830589
Si Si3 0.673692 0.151143 0.133340
Si Si4 0.658138 0.817940 0.629326
Si Si5 0.753148 0.083145 0.335616
Si Si6 0.279320 0.311273 0.784553
Si Si7 0.947998 0.913581 0.176416
O O1 0.120656 0.751440 0.578189
O O2 0.147278 0.849574 0.366577
O O3 0.042846 0.872953 0.680966
O O4 0.000000 0.791895 0.500000
O O5 0.993950 0.500000 0.787221
O O6 0.918369 0.630500 0.841846
O O7 0.083047 0.624899 0.713139
O O8 0.000000 0.586296 0.000000
O O9 0.700284 0.098267 0.239038
O O10 0.683324 0.234673 0.185087
O O11 0.738672 0.145162 0.949042
O O12 0.725588 0.858251 0.475274
O O13 0.703315 0.796301 0.738322
O O14 0.850340 0.091871 0.221019
O O15 0.739923 0.000000 0.399847
O O16 0.969948 0.000000 0.174392
O O17 0.000000 0.882674 0.000000
#
# Coordination Sequence:
#
# PCOD9218458 Si02
#       7
#     8   8   8   8   8   8   8
#     4  12  25  42  67 101 132 171 219 277 337 399
#     4  11  24  43  65  97 140 179 219 271 334 409
#     4  11  23  42  65  97 133 176 225 273 330 397
#     4  12  23  44  66 101 135 175 221 272 333 409
#     4  11  23  42  70  97 131 176 219 272 334 401
#     4  11  23  42  67  93 133 174 222 283 327 388
#     4  10  24  46  68  95 130 173 224 278 339 399
#
# _framework density 20.461452000000001
#
# number of rings (size 3 to 8) (size 9 to 14) (size 15 to 20)
#    0.000    0.857    4.286    3.000    2.000    0.857 
#    0.000    2.857    0.000    0.000    0.000    0.000 
#    0.000    0.000    0.000    0.000    0.000    0.000 
#
# Total GULP energy -156573.045237 kJ/mol
# GULP energy per Si atom -5591.894473 kJ/mol
# Density = 2.041488 g / cm^3
# Si number density = 20.461452 Si / 1000 Ang^3
#
#
#
# Elastic Constant Matrix: (Units=GPa)
#
#
# Indices 1 2 3 4 5 6 
#
# 1 105.5572 35.3090 18.9751 0.0000 13.6092 0.0000
# 2 35.3090 75.5069 35.6969 0.0000 -5.8427 0.0000
# 3 18.9751 35.6969 119.4207 0.0000 -9.5308 0.0000
# 4 0.0000 0.0000 0.0000 17.0772 0.0000 -9.1341
# 5 13.6092 -5.8427 -9.5308 0.0000 37.6878 0.0000
# 6 0.0000 0.0000 0.0000 -9.1341 0.0000 18.4893
#
#
#
# Elastic Compliance Matrix: (Units=1/GPa)
#
#
# Indices 1 2 3 4 5 6 
#
# 1 0.012255 -0.005855 -0.000635 0.000000 -0.005494 0.000000
# 2 -0.005855 0.018279 -0.004224 0.000000 0.003880 0.000000
# 3 -0.000635 -0.004224 0.009903 0.000000 0.002079 0.000000
# 4 0.000000 0.000000 0.000000 0.079588 0.000000 0.039318
# 5 -0.005494 0.003880 0.002079 0.000000 0.029645 0.000000
# 6 0.000000 0.000000 0.000000 0.039318 0.000000 0.073510
#
#
# Mechanical properties :
#
#
# Convention : Reuss Voigt Hill
#
# Bulk Modulus (GPa) = 52.61002 53.38298 52.99650
# Shear Modulus (GPa) = 19.92474 28.68444 24.30459
#
# Velocity S-wave (km/s) = 3.12391 3.74823 3.45022
# Velocity P-wave (km/s) = 6.22731 6.69914 6.46753
#
# Compressibility (1/GPa) = 0.01900779
#
# Stress axis : x y z
#
# Youngs Moduli (GPa) = 81.60178 54.70734 100.97713
#
# Poissons Ratio (x) = 0.32033 0.06416
# Poissons Ratio (y) = 0.47780 0.42652
# Poissons Ratio (z) = 0.05185 0.23108
#
# Static dielectric constant tensor:
#      x y z
#    x 1.712390 0.000000 -0.011350 
#    y 0.000000 1.723890 0.000000 
#    z -0.011350 0.000000 1.738020 
# 
# From -- ./inp_files/75828.got.cif
#   From: 2010.05.17/outbox.cif.g08.bks.cpg/sg12_38_cif.got.tgz:75828.got - 2010.06.03 13:09:07.
