data_PCOD9218623
_publ_section_title
;
Structure prediction by ZEFSAII (Michael W. Deem and Ramdas Pophale) SiO2 
 PCOD9218623
Probable space group: C 2/M
;
_chemical_formula_sum "Si O2"
_cell_formula_units_Z 48
_cell_length_a 11.622320
_cell_length_b 26.211681
_cell_length_c 14.372953
_cell_angle_alpha 90.000000
_cell_angle_beta 30.530999
_cell_angle_gamma 90.000000
_cell_volume 2224.340314
_symmetry_space_group_name_H-M "C 2/M"
_symmetry_group_IT_number 12
_symmetry_cell_setting 'monoclinic'
loop_
_space_group_symop_operation_xyz
x,y,z
-x,y,-z
-x,-y,-z
x,-y,z
1/2+x,1/2+y,z
1/2-x,1/2+y,-z
1/2-x,1/2-y,-z
1/2+x,1/2-y,z
loop_
_atom_site_type_symbol
_atom_site_label
_atom_site_fract_x
_atom_site_fract_y
_atom_site_fract_z
Si Si1 0.793748 0.219138 0.715888
Si Si2 0.991623 0.179037 0.102818
Si Si3 0.982231 0.556719 0.856958
Si Si4 0.882701 0.943130 0.720429
Si Si5 0.606367 0.341984 0.624835
Si Si6 0.508928 0.165319 0.216964
O O1 0.661544 0.271888 0.812173
O O2 0.620420 0.179841 0.787849
O O3 0.000000 0.224775 0.500000
O O4 0.905655 0.195529 0.729835
O O5 0.895121 0.153973 0.263445
O O6 0.251319 0.192336 0.944213
O O7 0.000000 0.148248 0.000000
O O8 0.965694 0.500000 0.827277
O O9 0.225920 0.561124 0.738331
O O10 0.947165 0.604818 0.815899
O O11 0.793945 0.559933 0.070066
O O12 0.051262 0.896245 0.615541
O O13 0.985072 0.000000 0.649851
O O14 0.841050 0.321768 0.418624
#
# Coordination Sequence:
#
# PCOD9218623 Si02
#       6
#     8   8   8   8   8   8
#     4  10  25  42  65  95 126 160 211 262 320 377
#     4  12  29  42  63  88 122 175 220 260 308 367
#     4   9  17  32  61  99 131 160 202 251 316 390
#     4   9  17  33  62  99 133 163 196 251 321 384
#     4  11  24  42  65  94 132 161 207 267 310 380
#     4  11  23  41  64  95 128 168 203 254 322 373
#
# _framework density 21.579431
#
# number of rings (size 3 to 8) (size 9 to 14) (size 15 to 20)
#    0.000    1.667    3.333    1.500    7.000    2.000 
#    0.000    1.667    0.000    2.000    0.000    2.333 
#    0.000    0.000    0.000    0.000    0.000    0.000 
#
# Total GULP energy -134209.045182 kJ/mol
# GULP energy per Si atom -5592.043549 kJ/mol
# Density = 2.153032 g / cm^3
# Si number density = 21.579431 Si / 1000 Ang^3
#
#
#
# Elastic Constant Matrix: (Units=GPa)
#
#
# Indices 1 2 3 4 5 6 
#
# 1 62.3811 13.9171 17.0413 0.0006 18.8512 0.0001
# 2 13.9171 90.4690 -2.3967 0.0001 -9.4231 0.0001
# 3 17.0413 -2.3967 57.2439 0.0005 0.6495 0.0002
# 4 0.0006 0.0001 0.0005 25.1965 -0.0005 -0.3298
# 5 18.8512 -9.4231 0.6495 -0.0005 32.0560 -0.0001
# 6 0.0001 0.0001 0.0002 -0.3298 -0.0001 10.1484
#
#
#
# Elastic Compliance Matrix: (Units=1/GPa)
#
#
# Indices 1 2 3 4 5 6 
#
# 1 0.023904 -0.005484 -0.007170 -0.000001 -0.015524 0.000000
# 2 -0.005484 0.012672 0.002085 0.000000 0.006908 0.000000
# 3 -0.007170 0.002085 0.019640 0.000000 0.004431 0.000000
# 4 -0.000001 0.000000 0.000000 0.039705 0.000001 0.001290
# 5 -0.015524 0.006908 0.004431 0.000001 0.042265 0.000001
# 6 0.000000 0.000000 0.000000 0.001290 0.000001 0.098580
#
#
# Mechanical properties :
#
#
# Convention : Reuss Voigt Hill
#
# Bulk Modulus (GPa) = 28.50756 29.69084 29.09920
# Shear Modulus (GPa) = 18.54621 25.58232 22.06426
#
# Velocity S-wave (km/s) = 2.93480 3.44684 3.20107
# Velocity P-wave (km/s) = 4.97225 5.44331 5.21310
#
# Compressibility (1/GPa) = 0.03507842
#
# Stress axis : x y z
#
# Youngs Moduli (GPa) = 41.83439 78.91502 50.91528
#
# Poissons Ratio (x) = 0.43277 0.36504
# Poissons Ratio (y) = 0.22942 -0.10615
# Poissons Ratio (z) = 0.29993 -0.16452
#
# Static dielectric constant tensor:
#      x y z
#    x 1.773140 0.000000 0.023220 
#    y 0.000000 1.792390 0.000000 
#    z 0.023220 0.000000 1.833640 
# 
# From -- ./inp_files/209270.got.cif
#   From: 2010.05.17/outbox.cif.g08.bks.cpg/sg12_105_cif.got.tgz:209270.got - 2010.06.03 13:09:07.
