data_PCOD9218334
_publ_section_title
;
Structure prediction by ZEFSAII (Michael W. Deem and Ramdas Pophale) SiO2 
 PCOD9218334
Probable space group: C 2/M
;
_chemical_formula_sum "Si O2"
_cell_formula_units_Z 36
_cell_length_a 8.465205
_cell_length_b 17.316268
_cell_length_c 11.974988
_cell_angle_alpha 90.000000
_cell_angle_beta 106.586024
_cell_angle_gamma 90.000000
_cell_volume 1682.325977
_symmetry_space_group_name_H-M "C 2/M"
_symmetry_group_IT_number 12
_symmetry_cell_setting 'monoclinic'
loop_
_space_group_symop_operation_xyz
x,y,z
-x,y,-z
-x,-y,-z
x,-y,z
1/2+x,1/2+y,z
1/2-x,1/2+y,-z
1/2-x,1/2-y,-z
1/2+x,1/2-y,z
loop_
_atom_site_type_symbol
_atom_site_label
_atom_site_fract_x
_atom_site_fract_y
_atom_site_fract_z
Si Si1 0.304624 0.908196 0.440610
Si Si2 0.600243 0.000000 0.196575
Si Si3 0.759800 0.500000 0.025453
Si Si4 0.077847 0.809552 0.256955
Si Si5 0.756648 0.150709 0.337233
Si Si6 0.500000 0.635477 0.000000
O O1 0.500000 0.895677 0.500000
O O2 0.227206 0.868077 0.316699
O O3 0.214748 0.867714 0.527217
O O4 0.275288 0.000000 0.433195
O O5 0.404603 0.000000 0.144871
O O6 0.665930 0.924767 0.271864
O O7 0.669368 0.000000 0.085108
O O8 0.652201 0.423091 0.015765
O O9 0.140613 0.724888 0.300680
O O10 0.921023 0.833808 0.299588
O O11 0.028623 0.815764 0.117486
#
# Coordination Sequence:
#
# PCOD9218334 Si02
#       6
#     8   4   4   8   8   4
#     4  11  26  46  77 108 141 189 239 299 360 424
#     4  11  24  46  74 102 143 195 243 293 352 426
#     4  10  24  44  70 104 146 191 245 289 349 426
#     4  12  28  45  73 105 152 186 240 294 361 423
#     4  12  26  48  72 108 143 188 240 298 362 418
#     4  11  26  44  72 109 148 190 236 293 356 424
#
# _framework density 21.398944
#
# number of rings (size 3 to 8) (size 9 to 14) (size 15 to 20)
#    0.000    0.667    3.333    2.667   10.889    3.556 
#    0.000    0.000    0.000    0.000    0.000    0.000 
#    0.000    0.000    0.000    0.000    0.000    0.000 
#
# Total GULP energy -100818.009604 kJ/mol
# GULP energy per Si atom -5601.000534 kJ/mol
# Density = 2.135024 g / cm^3
# Si number density = 21.398944 Si / 1000 Ang^3
#
#
#
# Elastic Constant Matrix: (Units=GPa)
#
#
# Indices 1 2 3 4 5 6 
#
# 1 70.7540 32.2068 40.3201 0.0000 15.9047 0.0000
# 2 32.2068 140.1455 52.9208 0.0000 21.1194 0.0000
# 3 40.3201 52.9208 131.7273 0.0000 7.3102 0.0000
# 4 0.0000 0.0000 0.0000 -70.0723 0.0000 -43.5725
# 5 15.9047 21.1194 7.3102 0.0000 36.1245 0.0000
# 6 0.0000 0.0000 0.0000 -43.5725 0.0000 26.3334
#
#
#
# Elastic Compliance Matrix: (Units=1/GPa)
#
#
# Indices 1 2 3 4 5 6 
#
# 1 0.019071 -0.001575 -0.004844 0.000000 -0.006496 0.000000
# 2 -0.001575 0.009252 -0.003007 0.000000 -0.004107 0.000000
# 3 -0.004844 -0.003007 0.010181 0.000000 0.001831 0.000000
# 4 0.000000 0.000000 0.000000 -0.007034 0.000000 -0.011639
# 5 -0.006496 -0.004107 0.001831 0.000000 0.032573 0.000000
# 6 0.000000 0.000000 0.000000 -0.011639 0.000000 0.018717
#
#
# Mechanical properties :
#
#
# Convention : Reuss Voigt Hill
#
# Bulk Modulus (GPa) = 50.88634 65.94689 58.41662
# Shear Modulus (GPa) = 46.22734 12.95572 29.59153
#
# Velocity S-wave (km/s) = 4.65290 2.46323 3.72270
# Velocity P-wave (km/s) = 7.25930 6.24298 6.77024
#
# Compressibility (1/GPa) = 0.01965164
#
# Stress axis : x y z
#
# Youngs Moduli (GPa) = 52.43572 108.08867 98.22529
#
# Poissons Ratio (x) = 0.17019 0.47584
# Poissons Ratio (y) = 0.08256 0.29536
# Poissons Ratio (z) = 0.25402 0.32502
#
# Static dielectric constant tensor:
#      x y z
#    x 1.789920 0.000000 -0.017310 
#    y 0.000000 1.707970 0.000000 
#    z -0.017310 0.000000 1.789010 
# 
# From -- ./inp_files/119261.got.cif
#   From: 2010.05.17/outbox.cif.g08.bks.cpg/sg12_60_cif.got.tgz:119261.got - 2010.06.03 13:09:07.
