data_PCOD9218413
_publ_section_title
;
Structure prediction by ZEFSAII (Michael W. Deem and Ramdas Pophale) SiO2 
 PCOD9218413
Probable space group: C 2/M
;
_chemical_formula_sum "Si O2"
_cell_formula_units_Z 58
_cell_length_a 15.124039
_cell_length_b 28.207227
_cell_length_c 9.920945
_cell_angle_alpha 90.000000
_cell_angle_beta 36.685874
_cell_angle_gamma 90.000000
_cell_volume 2528.520045
_symmetry_space_group_name_H-M "C 2/M"
_symmetry_group_IT_number 12
_symmetry_cell_setting 'monoclinic'
loop_
_space_group_symop_operation_xyz
x,y,z
-x,y,-z
-x,-y,-z
x,-y,z
1/2+x,1/2+y,z
1/2-x,1/2+y,-z
1/2-x,1/2-y,-z
1/2+x,1/2-y,z
loop_
_atom_site_type_symbol
_atom_site_label
_atom_site_fract_x
_atom_site_fract_y
_atom_site_fract_z
Si Si1 0.592053 0.808091 0.198467
Si Si2 0.841734 0.135849 0.014156
Si Si3 0.615943 0.108272 0.479487
Si Si4 0.834394 0.682770 0.188337
Si Si5 0.470810 0.295708 0.380835
Si Si6 0.000000 0.500000 0.000000
Si Si7 0.794874 0.422294 0.355897
Si Si8 0.465330 0.554974 0.699467
O O1 0.706353 0.827118 0.167594
O O2 0.450480 0.842144 0.382466
O O3 0.553545 0.753780 0.262737
O O4 0.679520 0.818200 0.954819
O O5 0.787045 0.112946 0.220913
O O6 0.847097 0.091802 0.903714
O O7 0.979175 0.167588 0.796116
O O8 0.500000 0.094501 0.500000
O O9 0.622025 0.074333 0.601641
O O10 0.704226 0.712816 0.411586
O O11 0.817302 0.630363 0.269664
O O12 0.000000 0.701820 0.000000
O O13 0.500000 0.313583 0.500000
O O14 0.871406 0.458911 0.163227
O O15 0.621947 0.434311 0.580623
O O16 0.500000 0.563593 0.500000
O O17 0.423523 0.500000 0.768269
#
# Coordination Sequence:
#
# PCOD9218413 Si02
#       8
#     8   8   8   8   8   2   8   8
#     4  11  23  42  71 101 138 185 245 294 355 425
#     4  11  22  42  70 102 139 189 233 303 350 429
#     4  10  24  45  69  98 146 190 236 293 365 428
#     4  12  24  42  67  98 145 182 231 306 353 419
#     4  12  24  40  71 105 136 192 250 289 357 438
#     4  12  24  44  84  98 136 186 248 300 350 432
#     4  12  23  46  70 107 137 190 238 298 360 418
#     4  11  24  44  71 107 139 178 240 296 361 430
#
# _framework density 22.938319
#
# number of rings (size 3 to 8) (size 9 to 14) (size 15 to 20)
#    0.000    0.690    5.517    2.897    1.931    2.207 
#    1.241    1.034    0.000    0.000    0.000    0.000 
#    0.000    0.000    0.000    0.000    0.000    0.000 
#
# Total GULP energy -161647.546504 kJ/mol
# GULP energy per Si atom -5574.053328 kJ/mol
# Density = 2.288611 g / cm^3
# Si number density = 22.938319 Si / 1000 Ang^3
#
#
#
# Elastic Constant Matrix: (Units=GPa)
#
#
# Indices 1 2 3 4 5 6 
#
# 1 48.8462 17.5480 -0.5890 0.0000 2.1332 0.0000
# 2 17.5480 90.8595 33.3337 0.0000 -1.1970 0.0000
# 3 -0.5890 33.3337 131.7786 0.0000 -5.4375 0.0000
# 4 0.0000 0.0000 0.0000 36.4794 0.0000 -10.6669
# 5 2.1332 -1.1970 -5.4375 0.0000 25.6334 0.0000
# 6 0.0000 0.0000 0.0000 -10.6669 0.0000 6.2972
#
#
#
# Elastic Compliance Matrix: (Units=1/GPa)
#
#
# Indices 1 2 3 4 5 6 
#
# 1 0.022284 -0.004780 0.001234 0.000000 -0.001816 0.000000
# 2 -0.004780 0.013158 -0.003337 0.000000 0.000304 0.000000
# 3 0.001234 -0.003337 0.008502 0.000000 0.001545 0.000000
# 4 0.000000 0.000000 0.000000 0.054316 0.000000 0.092006
# 5 -0.001816 0.000304 0.001545 0.000000 0.039505 0.000000
# 6 0.000000 0.000000 0.000000 0.092006 0.000000 0.314649
#
#
# Mechanical properties :
#
#
# Convention : Reuss Voigt Hill
#
# Bulk Modulus (GPa) = 33.13862 41.34108 37.23985
# Shear Modulus (GPa) = 10.49893 28.42811 19.46352
#
# Velocity S-wave (km/s) = 2.14172 3.52423 2.91609
# Velocity P-wave (km/s) = 4.53808 5.88405 5.25434
#
# Compressibility (1/GPa) = 0.03017627
#
# Stress axis : x y z
#
# Youngs Moduli (GPa) = 44.87535 76.00210 117.62133
#
# Poissons Ratio (x) = 0.36332 -0.14513
# Poissons Ratio (y) = 0.21452 0.39251
# Poissons Ratio (z) = -0.05537 0.25362
#
# Static dielectric constant tensor:
#      x y z
#    x 2.170400 0.000000 0.052640 
#    y 0.000000 1.759930 0.000000 
#    z 0.052640 0.000000 1.957180 
# 
# From -- ./inp_files/160909.got.cif
#   From: 2010.05.17/outbox.cif.g08.bks.cpg/sg12_81_cif.got.tgz:160909.got - 2010.06.03 13:09:07.
