data_PCOD9218625
_publ_section_title
;
Structure prediction by ZEFSAII (Michael W. Deem and Ramdas Pophale) SiO2 
 PCOD9218625
Probable space group: C 2/M
;
_chemical_formula_sum "Si O2"
_cell_formula_units_Z 58
_cell_length_a 12.146746
_cell_length_b 25.106619
_cell_length_c 18.068995
_cell_angle_alpha 90.000000
_cell_angle_beta 151.801892
_cell_angle_gamma 90.000000
_cell_volume 2603.777700
_symmetry_space_group_name_H-M "C 2/M"
_symmetry_group_IT_number 12
_symmetry_cell_setting 'monoclinic'
loop_
_space_group_symop_operation_xyz
x,y,z
-x,y,-z
-x,-y,-z
x,-y,z
1/2+x,1/2+y,z
1/2-x,1/2+y,-z
1/2-x,1/2-y,-z
1/2+x,1/2-y,z
loop_
_atom_site_type_symbol
_atom_site_label
_atom_site_fract_x
_atom_site_fract_y
_atom_site_fract_z
Si Si1 0.021779 0.796768 0.145529
Si Si2 0.537875 0.637446 0.298865
Si Si3 0.218917 0.888895 0.082704
Si Si4 0.508857 0.167569 0.361155
Si Si5 0.704060 0.061194 0.027041
Si Si6 0.217196 0.103048 0.712417
Si Si7 0.500000 0.500000 0.500000
Si Si8 0.770027 0.295433 0.652137
O O1 0.965298 0.820819 0.193024
O O2 0.274022 0.812168 0.260845
O O3 0.061350 0.735087 0.189514
O O4 0.846888 0.829138 0.987777
O O5 0.809038 0.647935 0.470529
O O6 0.430759 0.583357 0.202749
O O7 0.436649 0.637200 0.321437
O O8 0.427527 0.882279 0.263211
O O9 0.259975 0.927059 0.038646
O O10 0.000000 0.907564 0.000000
O O11 0.629257 0.207071 0.371949
O O12 0.673338 0.000000 0.024774
O O13 0.461422 0.091096 0.897209
O O14 0.262862 0.143107 0.672055
O O15 0.107450 0.047981 0.618406
O O16 0.500000 0.275699 0.500000
#
# Coordination Sequence:
#
# PCOD9218625 Si02
#       8
#     8   8   8   8   8   8   2   8
#     4  10  25  42  66  97 138 180 219 274 345 396
#     4  11  24  42  63  97 132 177 219 277 338 409
#     4   9  21  44  66  95 130 181 225 272 337 408
#     4  11  21  42  69  90 136 180 221 274 329 408
#     4  11  24  43  66  96 136 173 224 288 349 395
#     4  12  24  42  67 102 136 176 229 278 341 401
#     4  12  24  44  70 100 144 176 234 284 342 398
#     4  12  23  39  67 105 132 171 231 278 325 411
#
# _framework density 22.275327000000001
#
# number of rings (size 3 to 8) (size 9 to 14) (size 15 to 20)
#    0.000    1.103    4.138    1.655    2.897    2.483 
#    0.000    2.069    0.000   10.759    0.000    0.000 
#    0.000    0.000    0.000    0.000    0.000    0.000 
#
# Total GULP energy -161556.386577 kJ/mol
# GULP energy per Si atom -5570.909882 kJ/mol
# Density = 2.222463 g / cm^3
# Si number density = 22.275327 Si / 1000 Ang^3
#
#
#
# Elastic Constant Matrix: (Units=GPa)
#
#
# Indices 1 2 3 4 5 6 
#
# 1 94.4999 15.2883 -16.8431 -0.0006 3.7815 0.0002
# 2 15.2883 79.3182 7.3622 0.0007 4.2100 -0.0002
# 3 -16.8431 7.3622 58.2989 -0.0068 -17.4295 0.0009
# 4 -0.0006 0.0007 -0.0068 28.9555 -0.0007 7.0004
# 5 3.7815 4.2100 -17.4295 -0.0007 33.8652 0.0001
# 6 0.0002 -0.0002 0.0009 7.0004 0.0001 1.2941
#
#
#
# Elastic Compliance Matrix: (Units=1/GPa)
#
#
# Indices 1 2 3 4 5 6 
#
# 1 0.011695 -0.002689 0.004051 -0.000008 0.001114 0.000039
# 2 -0.002689 0.013613 -0.003442 0.000008 -0.003163 -0.000037
# 3 0.004051 -0.003442 0.022161 -0.000031 0.011381 0.000153
# 4 -0.000008 0.000008 -0.000031 -0.112203 -0.000020 0.606952
# 5 0.001114 -0.003163 0.011381 -0.000020 0.035655 0.000096
# 6 0.000039 -0.000037 0.000153 0.606952 0.000096 -2.510529
#
#
# Mechanical properties :
#
#
# Convention : Reuss Voigt Hill
#
# Bulk Modulus (GPa) = 23.09012 27.08133 25.08573
# Shear Modulus (GPa) = -1.98333 27.91028 12.96347
#
# Velocity S-wave (km/s) = -0.94462 3.54357 2.41501
# Velocity P-wave (km/s) = 3.03291 5.37833 4.36606
#
# Compressibility (1/GPa) = 0.04330856
#
# Stress axis : x y z
#
# Youngs Moduli (GPa) = 85.50968 73.45828 45.12514
#
# Poissons Ratio (x) = 0.19755 -0.18281
# Poissons Ratio (y) = 0.22995 0.15531
# Poissons Ratio (z) = -0.34641 0.25283
#
# Static dielectric constant tensor:
#      x y z
#    x 1.914460 0.000000 0.007620 
#    y 0.000000 1.798370 0.000000 
#    z 0.007620 0.000000 1.908160 
# 
# From -- ./inp_files/266034.got.cif
#   From: 2010.05.17/outbox.cif.g08.bks.cpg/sg12_134_cif.got.tgz:266034.got - 2010.06.03 13:09:07.
