data_PCOD9218849
_publ_section_title
;
Structure prediction by ZEFSAII (Michael W. Deem and Ramdas Pophale) SiO2 
 PCOD9218849
Probable space group: C 2/M
;
_chemical_formula_sum "Si O2"
_cell_formula_units_Z 64
_cell_length_a 12.304827
_cell_length_b 18.741704
_cell_length_c 14.660569
_cell_angle_alpha 90.000000
_cell_angle_beta 87.338357
_cell_angle_gamma 90.000000
_cell_volume 3377.276650
_symmetry_space_group_name_H-M "C 2/M"
_symmetry_group_IT_number 12
_symmetry_cell_setting 'monoclinic'
loop_
_space_group_symop_operation_xyz
x,y,z
-x,y,-z
-x,-y,-z
x,-y,z
1/2+x,1/2+y,z
1/2-x,1/2+y,-z
1/2-x,1/2-y,-z
1/2+x,1/2-y,z
loop_
_atom_site_type_symbol
_atom_site_label
_atom_site_fract_x
_atom_site_fract_y
_atom_site_fract_z
Si Si1 0.883080 0.164544 0.676113
Si Si2 0.130495 0.415432 0.984345
Si Si3 0.395362 0.811453 0.446249
Si Si4 0.197267 0.306856 0.826129
Si Si5 0.723972 0.148968 0.163413
Si Si6 0.514203 0.186321 0.274073
Si Si7 0.406163 0.583478 0.287135
Si Si8 0.318826 0.654288 0.468536
O O1 0.772268 0.166638 0.738714
O O2 0.867735 0.148939 0.568976
O O3 0.934012 0.243174 0.683636
O O4 0.971040 0.112814 0.718474
O O5 0.140400 0.500000 0.966310
O O6 0.182098 0.367380 0.902515
O O7 0.194856 0.393692 0.073471
O O8 0.000000 0.399981 0.000000
O O9 0.500000 0.794058 0.500000
O O10 0.441539 0.849646 0.355275
O O11 0.338759 0.734747 0.428445
O O12 0.309057 0.854262 0.508974
O O13 0.252267 0.232896 0.857016
O O14 0.074745 0.291156 0.796932
O O15 0.614578 0.144138 0.228780
O O16 0.825663 0.120767 0.218025
O O17 0.403541 0.500000 0.271291
O O18 0.364798 0.602413 0.390848
#
# Coordination Sequence:
#
# PCOD9218849 Si02
#       8
#     8   8   8   8   8   8   8   8
#     4  11  22  37  59  94 128 167 210 256 317 370
#     4  11  24  44  68  94 125 166 209 261 332 394
#     4  11  18  30  55  87 122 153 204 269 309 350
#     4  11  22  41  68  99 126 155 215 275 312 377
#     4  11  23  42  68  95 126 163 214 266 322 375
#     4  11  19  36  62  96 126 155 208 273 316 357
#     4  12  25  41  59  88 134 176 212 253 313 392
#     4  11  21  33  56  88 124 167 213 252 308 368
#
# _framework density 18.95018
#
# number of rings (size 3 to 8) (size 9 to 14) (size 15 to 20)
#    0.000    0.875    6.250    1.875    3.500    1.500 
#    0.000    0.625    0.000    5.625    0.000    0.000 
#    0.000    0.000    0.000    0.000    0.000    0.000 
#
# Total GULP energy -178593.325703 kJ/mol
# GULP energy per Si atom -5581.041428 kJ/mol
# Density = 1.890705 g / cm^3
# Si number density = 18.950180 Si / 1000 Ang^3
#
#
#
# Elastic Constant Matrix: (Units=GPa)
#
#
# Indices 1 2 3 4 5 6 
#
# 1 106.4622 36.0950 39.4556 0.0000 1.0643 0.0000
# 2 36.0950 58.7492 38.5883 0.0000 0.3512 0.0000
# 3 39.4556 38.5883 102.8757 0.0000 9.0105 0.0000
# 4 0.0000 0.0000 0.0000 19.0872 0.0000 -0.5721
# 5 1.0643 0.3512 9.0105 0.0000 24.2515 0.0000
# 6 0.0000 0.0000 0.0000 -0.5721 0.0000 15.9894
#
#
#
# Elastic Compliance Matrix: (Units=1/GPa)
#
#
# Indices 1 2 3 4 5 6 
#
# 1 0.012338 -0.005900 -0.002562 0.000000 0.000496 0.000000
# 2 -0.005900 0.025609 -0.007580 0.000000 0.002704 0.000000
# 3 -0.002562 -0.007580 0.013982 0.000000 -0.004973 0.000000
# 4 0.000000 0.000000 0.000000 0.052447 0.000000 0.001877
# 5 0.000496 0.002704 -0.004973 0.000000 0.043021 0.000000
# 6 0.000000 0.000000 0.000000 0.001877 0.000000 0.062609
#
#
# Mechanical properties :
#
#
# Convention : Reuss Voigt Hill
#
# Bulk Modulus (GPa) = 50.39248 55.15165 52.77206
# Shear Modulus (GPa) = 20.10406 22.12883 21.11645
#
# Velocity S-wave (km/s) = 3.26066 3.42092 3.34176
# Velocity P-wave (km/s) = 6.38950 6.69106 6.54202
#
# Compressibility (1/GPa) = 0.01984423
#
# Stress axis : x y z
#
# Youngs Moduli (GPa) = 81.04962 39.04847 71.52144
#
# Poissons Ratio (x) = 0.23040 0.18325
# Poissons Ratio (y) = 0.47823 0.54212
# Poissons Ratio (z) = 0.20766 0.29598
#
# Static dielectric constant tensor:
#      x y z
#    x 1.690060 0.000000 0.002300 
#    y 0.000000 1.630440 0.000000 
#    z 0.002300 0.000000 1.689270 
# 
# From -- ./inp_files/206690.got.cif
#   From: 2010.05.17/outbox.cif.g08.bks.cpg/sg12_104_cif.got.tgz:206690.got - 2010.06.03 13:09:07.
