data_PCOD9218393
_publ_section_title
;
Structure prediction by ZEFSAII (Michael W. Deem and Ramdas Pophale) SiO2 
 PCOD9218393
Probable space group: C 2/M
;
_chemical_formula_sum "Si O2"
_cell_formula_units_Z 58
_cell_length_a 8.611362
_cell_length_b 20.632386
_cell_length_c 14.841878
_cell_angle_alpha 90.000000
_cell_angle_beta 101.904078
_cell_angle_gamma 90.000000
_cell_volume 2580.289652
_symmetry_space_group_name_H-M "C 2/M"
_symmetry_group_IT_number 12
_symmetry_cell_setting 'monoclinic'
loop_
_space_group_symop_operation_xyz
x,y,z
-x,y,-z
-x,-y,-z
x,-y,z
1/2+x,1/2+y,z
1/2-x,1/2+y,-z
1/2-x,1/2-y,-z
1/2+x,1/2-y,z
loop_
_atom_site_type_symbol
_atom_site_label
_atom_site_fract_x
_atom_site_fract_y
_atom_site_fract_z
Si Si1 0.372405 0.655204 0.603704
Si Si2 0.932032 0.723098 0.346051
Si Si3 0.934864 0.074421 0.782365
Si Si4 0.818147 0.612737 0.585240
Si Si5 0.703470 0.074773 0.211468
Si Si6 0.000000 0.500000 0.500000
Si Si7 0.357779 0.679598 0.916155
Si Si8 0.982019 0.693868 0.142972
O O1 0.227771 0.698828 0.626230
O O2 0.521445 0.703644 0.624767
O O3 0.392637 0.596868 0.676554
O O4 0.320973 0.627258 0.501959
O O5 0.927709 0.714197 0.237671
O O6 0.072807 0.676423 0.395476
O O7 0.124925 0.081246 0.814489
O O8 0.852166 0.123646 0.840287
O O9 0.889582 0.000000 0.791483
O O10 0.771677 0.591165 0.679936
O O11 0.924615 0.556360 0.556123
O O12 0.579803 0.127503 0.160437
O O13 0.650657 0.000000 0.196292
O O14 0.180150 0.686421 0.932783
O O15 0.411081 0.747711 0.879541
O O16 0.500000 0.661858 0.000000
#
# Coordination Sequence:
#
# PCOD9218393 Si02
#       8
#     8   8   8   8   8   2   8   8
#     4  12  24  41  64  94 133 176 228 286 333 385
#     4  11  22  40  61  92 129 172 222 269 335 390
#     4  11  26  45  67  96 135 180 224 282 344 408
#     4  11  24  38  62  96 136 183 231 281 322 387
#     4  10  24  45  67  96 141 189 232 274 332 399
#     4  12  20  40  60  90 144 168 248 282 326 388
#     4  12  25  46  75 106 135 168 218 282 351 420
#     4  11  22  42  70 103 133 173 220 274 338 415
#
# _framework density 22.478095
#
# number of rings (size 3 to 8) (size 9 to 14) (size 15 to 20)
#    0.000    0.828    4.828    1.655    4.828    1.379 
#    0.000    1.379    0.000    2.069    0.000    0.000 
#    0.000    0.000    0.000    0.000    0.000    0.000 
#
# Total GULP energy -162236.698704 kJ/mol
# GULP energy per Si atom -5594.368921 kJ/mol
# Density = 2.242693 g / cm^3
# Si number density = 22.478095 Si / 1000 Ang^3
#
#
#
# Elastic Constant Matrix: (Units=GPa)
#
#
# Indices 1 2 3 4 5 6 
#
# 1 68.4712 35.9490 5.2243 0.0000 8.0903 0.0000
# 2 35.9490 153.0995 28.6981 0.0000 1.0635 0.0000
# 3 5.2243 28.6981 63.4313 0.0000 19.6167 0.0000
# 4 0.0000 0.0000 0.0000 -57.9933 0.0000 -75.1588
# 5 8.0903 1.0635 19.6167 0.0000 32.3159 0.0000
# 6 0.0000 0.0000 0.0000 -75.1588 0.0000 -38.1855
#
#
#
# Elastic Compliance Matrix: (Units=1/GPa)
#
#
# Indices 1 2 3 4 5 6 
#
# 1 0.017455 -0.004498 0.002343 0.000000 -0.005644 0.000000
# 2 -0.004498 0.008417 -0.004555 0.000000 0.003614 0.000000
# 3 0.002343 -0.004555 0.021875 0.000000 -0.013715 0.000000
# 4 0.000000 0.000000 0.000000 0.011119 0.000000 -0.021885
# 5 -0.005644 0.003614 -0.013715 0.000000 0.040564 0.000000
# 6 0.000000 0.000000 0.000000 -0.021885 0.000000 0.016886
#
#
# Mechanical properties :
#
#
# Convention : Reuss Voigt Hill
#
# Bulk Modulus (GPa) = 29.13355 47.19386 38.16370
# Shear Modulus (GPa) = 35.41635 1.56945 18.49290
#
# Velocity S-wave (km/s) = 3.97368 0.83650 2.87140
# Velocity P-wave (km/s) = 5.83460 4.68765 5.29229
#
# Compressibility (1/GPa) = 0.03432469
#
# Stress axis : x y z
#
# Youngs Moduli (GPa) = 57.29154 118.81090 45.71520
#
# Poissons Ratio (x) = 0.53447 -0.10712
# Poissons Ratio (y) = 0.25772 0.20824
# Poissons Ratio (z) = -0.13424 0.54121
#
# Static dielectric constant tensor:
#      x y z
#    x 1.842050 0.000000 0.013150 
#    y 0.000000 1.755390 0.000000 
#    z 0.013150 0.000000 1.857230 
# 
# From -- ./inp_files/258203.got.cif
#   From: 2010.05.17/outbox.cif.g08.bks.cpg/sg12_130_cif.got.tgz:258203.got - 2010.06.03 13:09:07.
