data_PCOD9218069
_publ_section_title
;
Structure prediction by ZEFSAII (Michael W. Deem and Ramdas Pophale) SiO2 
 PCOD9218069
Probable space group: C 2/M
;
_chemical_formula_sum "Si O2"
_cell_formula_units_Z 56
_cell_length_a 19.212787
_cell_length_b 7.971502
_cell_length_c 27.188280
_cell_angle_alpha 90.000000
_cell_angle_beta 37.554414
_cell_angle_gamma 90.000000
_cell_volume 2538.027817
_symmetry_space_group_name_H-M "C 2/M"
_symmetry_group_IT_number 12
_symmetry_cell_setting 'monoclinic'
loop_
_space_group_symop_operation_xyz
x,y,z
-x,y,-z
-x,-y,-z
x,-y,z
1/2+x,1/2+y,z
1/2-x,1/2+y,-z
1/2-x,1/2-y,-z
1/2+x,1/2-y,z
loop_
_atom_site_type_symbol
_atom_site_label
_atom_site_fract_x
_atom_site_fract_y
_atom_site_fract_z
Si Si1 0.313302 0.205070 0.695924
Si Si2 0.276139 0.699916 0.361127
Si Si3 0.723481 0.703697 0.913478
Si Si4 0.048999 0.304581 0.528702
Si Si5 0.117458 0.307646 0.875242
Si Si6 0.029089 0.692726 0.217983
Si Si7 0.579001 0.306971 0.082472
O O1 0.252139 0.256615 0.678787
O O2 0.444848 0.264426 0.619288
O O3 0.239399 0.276896 0.781156
O O4 0.311981 0.000000 0.699128
O O5 0.259354 0.500000 0.369514
O O6 0.176255 0.769117 0.452763
O O7 0.407250 0.732022 0.299982
O O8 0.724709 0.500000 0.913455
O O9 0.635518 0.761842 0.921670
O O10 0.851077 0.765592 0.830075
O O11 0.682133 0.758200 0.990668
O O12 0.059530 0.500000 0.537363
O O13 0.000000 0.302133 0.500000
O O14 0.082180 0.500000 0.889958
O O15 0.027950 0.198317 0.894981
O O16 0.024592 0.500000 0.235690
O O17 0.045746 0.706240 0.149590
O O18 0.598674 0.500000 0.086097
#
# Coordination Sequence:
#
# PCOD9218069 Si02
#       7
#     8   8   8   8   8   8   8
#     4   9  16  30  53  78 108 144 179 217 262 316
#     4   9  16  29  52  80 109 143 179 215 261 318
#     4  10  24  42  57  76 106 146 186 222 268 323
#     4   7  12  24  46  77 106 136 178 218 254 306
#     4  12  24  36  55  83 113 141 177 227 274 319
#     4  11  22  36  56  83 113 141 176 225 272 318
#     4  11  22  39  61  80 103 141 185 225 268 323
#
# _framework density 22.064374999999998
#
# number of rings (size 3 to 8) (size 9 to 14) (size 15 to 20)
#    0.000    2.143    1.429    4.714    0.000    4.000 
#    0.000    0.714    0.000    3.429    0.000    0.000 
#    0.000    0.000    0.000    0.000    0.000    0.000 
#
# Total GULP energy -156294.541355 kJ/mol
# GULP energy per Si atom -5581.947906 kJ/mol
# Density = 2.201416 g / cm^3
# Si number density = 22.064375 Si / 1000 Ang^3
#
#
#
# Elastic Constant Matrix: (Units=GPa)
#
#
# Indices 1 2 3 4 5 6 
#
# 1 56.1629 -3.1259 2.9763 0.0001 -18.8344 -0.0001
# 2 -3.1259 31.0581 1.3432 0.0005 -2.3428 -0.0007
# 3 2.9763 1.3432 103.1992 0.0002 -34.0771 -0.0001
# 4 0.0001 0.0005 0.0002 11.4884 0.0000 6.4926
# 5 -18.8344 -2.3428 -34.0771 0.0000 33.4783 0.0000
# 6 -0.0001 -0.0007 -0.0001 6.4926 0.0000 9.0674
#
#
#
# Elastic Compliance Matrix: (Units=1/GPa)
#
#
# Indices 1 2 3 4 5 6 
#
# 1 0.024375 0.003702 0.005818 -0.000001 0.019894 0.000002
# 2 0.003702 0.032947 0.001376 -0.000005 0.005789 0.000006
# 3 0.005818 0.001376 0.015992 -0.000001 0.019647 0.000001
# 4 -0.000001 -0.000005 -0.000001 0.146212 -0.000002 -0.104694
# 5 0.019894 0.005789 0.019647 -0.000002 0.061466 0.000002
# 6 0.000002 0.000006 0.000001 -0.104694 0.000002 0.185251
#
#
# Mechanical properties :
#
#
# Convention : Reuss Voigt Hill
#
# Bulk Modulus (GPa) = 10.51455 21.42305 15.96880
# Shear Modulus (GPa) = 10.50082 23.42192 16.96137
#
# Velocity S-wave (km/s) = 2.18392 3.26164 2.77559
# Velocity P-wave (km/s) = 3.33693 4.89028 4.18628
#
# Compressibility (1/GPa) = 0.09510634
#
# Stress axis : x y z
#
# Youngs Moduli (GPa) = 41.02639 30.35132 62.53123
#
# Poissons Ratio (x) = -0.11237 -0.36380
# Poissons Ratio (y) = -0.15189 -0.08604
# Poissons Ratio (z) = -0.23869 -0.04176
#
# Static dielectric constant tensor:
#      x y z
#    x 1.802440 0.000000 -0.042060 
#    y 0.000000 1.779580 0.000000 
#    z -0.042060 0.000000 1.868690 
# 
# From -- ./inp_files/275554.got.cif
#   From: 2010.05.17/outbox.cif.g08.bks.cpg/sg12_138_cif.got.tgz:275554.got - 2010.06.03 13:09:07.
