data_PCOD9218167
_publ_section_title
;
Structure prediction by ZEFSAII (Michael W. Deem and Ramdas Pophale) SiO2 
 PCOD9218167
Probable space group: C 2/M
;
_chemical_formula_sum "Si O2"
_cell_formula_units_Z 56
_cell_length_a 28.414979
_cell_length_b 20.277826
_cell_length_c 9.505490
_cell_angle_alpha 90.000000
_cell_angle_beta 30.658930
_cell_angle_gamma 90.000000
_cell_volume 2792.870321
_symmetry_space_group_name_H-M "C 2/M"
_symmetry_group_IT_number 12
_symmetry_cell_setting 'monoclinic'
loop_
_space_group_symop_operation_xyz
x,y,z
-x,y,-z
-x,-y,-z
x,-y,z
1/2+x,1/2+y,z
1/2-x,1/2+y,-z
1/2-x,1/2-y,-z
1/2+x,1/2-y,z
loop_
_atom_site_type_symbol
_atom_site_label
_atom_site_fract_x
_atom_site_fract_y
_atom_site_fract_z
Si Si1 0.515871 0.133477 0.116834
Si Si2 0.233775 0.073393 0.253547
Si Si3 0.367251 0.293152 0.449573
Si Si4 0.428866 0.730569 0.969786
Si Si5 0.305632 0.070195 0.384077
Si Si6 0.228797 0.827658 0.802104
Si Si7 0.170075 0.577901 0.268969
O O1 0.572976 0.190507 0.048617
O O2 0.422141 0.111242 0.431462
O O3 0.500000 0.161702 0.000000
O O4 0.584590 0.073770 0.913400
O O5 0.166879 0.135188 0.417127
O O6 0.265979 0.072974 0.330810
O O7 0.194575 0.000000 0.322114
O O8 0.318324 0.082806 0.928330
O O9 0.462213 0.281613 0.289489
O O10 0.290705 0.236851 0.675112
O O11 0.385184 0.288975 0.234280
O O12 0.371685 0.694515 0.994251
O O13 0.273652 0.131989 0.556914
O O14 0.277205 0.000000 0.521402
O O15 0.244287 0.880404 0.886764
O O16 0.170696 0.500000 0.302322
#
# Coordination Sequence:
#
# PCOD9218167 Si02
#       7
#     8   8   8   8   8   8   8
#     4  12  20  37  60  97 126 161 207 262 324 368
#     4  10  24  43  61  85 126 174 206 252 320 377
#     4  11  20  40  63  90 127 159 209 262 311 373
#     4  11  20  35  63  95 123 155 209 266 309 366
#     4  11  21  35  60  92 126 165 211 255 312 381
#     4  12  21  37  64  96 123 165 209 262 315 363
#     4  11  24  42  63  92 131 167 206 259 320 381
#
# _framework density 20.051057
#
# number of rings (size 3 to 8) (size 9 to 14) (size 15 to 20)
#    0.000    0.857    7.143    2.143    0.000    1.714 
#    0.000    5.714    0.000    1.714    0.000    0.000 
#    0.000    0.000    0.000    0.000    0.000    0.000 
#
# Total GULP energy -156191.298709 kJ/mol
# GULP energy per Si atom -5578.260668 kJ/mol
# Density = 2.000542 g / cm^3
# Si number density = 20.051057 Si / 1000 Ang^3
#
#
#
# Elastic Constant Matrix: (Units=GPa)
#
#
# Indices 1 2 3 4 5 6 
#
# 1 25.7309 25.6743 13.2659 0.0000 -14.9562 0.0000
# 2 25.6743 144.6839 38.8930 0.0000 -7.5101 0.0000
# 3 13.2659 38.8930 42.3885 0.0000 0.7676 0.0000
# 4 0.0000 0.0000 0.0000 -6.4236 0.0000 16.3081
# 5 -14.9562 -7.5101 0.7676 0.0000 29.4076 0.0000
# 6 0.0000 0.0000 0.0000 16.3081 0.0000 2.9035
#
#
#
# Elastic Compliance Matrix: (Units=1/GPa)
#
#
# Indices 1 2 3 4 5 6 
#
# 1 0.077400 -0.006714 -0.018754 0.000000 0.038139 0.000000
# 2 -0.006714 0.009954 -0.007020 0.000000 -0.000689 0.000000
# 3 -0.018754 -0.007020 0.036124 0.000000 -0.012273 0.000000
# 4 0.000000 0.000000 0.000000 -0.010202 0.000000 0.057301
# 5 0.038139 -0.000689 -0.012273 0.000000 0.053546 0.000000
# 6 0.000000 0.000000 0.000000 0.057301 0.000000 0.022570
#
#
# Mechanical properties :
#
#
# Convention : Reuss Voigt Hill
#
# Bulk Modulus (GPa) = 17.09299 40.94108 29.01703
# Shear Modulus (GPa) = 18.25694 14.17551 16.21622
#
# Velocity S-wave (km/s) = 3.02076 2.66178 2.84693
# Velocity P-wave (km/s) = 4.55081 5.46896 5.03087
#
# Compressibility (1/GPa) = 0.05850352
#
# Stress axis : x y z
#
# Youngs Moduli (GPa) = 12.91984 100.46013 27.68278
#
# Poissons Ratio (x) = 0.67447 0.51916
# Poissons Ratio (y) = 0.08674 0.19432
# Poissons Ratio (z) = 0.24230 0.70520
#
# Static dielectric constant tensor:
#      x y z
#    x 1.748340 0.000000 0.007390 
#    y 0.000000 1.741390 0.000000 
#    z 0.007390 0.000000 1.709070 
# 
# From -- ./inp_files/113355.got.cif
#   From: 2010.05.17/outbox.cif.g08.bks.cpg/sg12_57_cif.got.tgz:113355.got - 2010.06.03 13:09:07.
