data_PCOD9218879
_publ_section_title
;
Structure prediction by ZEFSAII (Michael W. Deem and Ramdas Pophale) SiO2 
 PCOD9218879
Probable space group: C 2/M
;
_chemical_formula_sum "Si O2"
_cell_formula_units_Z 52
_cell_length_a 21.264383
_cell_length_b 19.220932
_cell_length_c 13.011824
_cell_angle_alpha 90.000000
_cell_angle_beta 144.797342
_cell_angle_gamma 90.000000
_cell_volume 3065.789187
_symmetry_space_group_name_H-M "C 2/M"
_symmetry_group_IT_number 12
_symmetry_cell_setting 'monoclinic'
loop_
_space_group_symop_operation_xyz
x,y,z
-x,y,-z
-x,-y,-z
x,-y,z
1/2+x,1/2+y,z
1/2-x,1/2+y,-z
1/2-x,1/2-y,-z
1/2+x,1/2-y,z
loop_
_atom_site_type_symbol
_atom_site_label
_atom_site_fract_x
_atom_site_fract_y
_atom_site_fract_z
Si Si1 0.353377 0.500000 0.000000
Si Si2 0.867381 0.650598 0.203011
Si Si3 0.901371 0.500000 0.288919
Si Si4 0.198747 0.275368 0.691452
Si Si5 0.887548 0.000000 0.288919
Si Si6 0.664370 0.650597 0.796990
Si Si7 0.992705 0.775368 0.691452
Si Si8 0.074750 0.146901 1.000000
O O1 0.394530 0.500000 0.173565
O O2 0.394170 0.570185 0.000000
O O3 0.220965 0.500000 0.826436
O O4 0.907020 0.572719 0.236793
O O5 0.869624 0.671290 0.326413
O O6 0.932266 0.707447 0.225081
O O7 0.741414 0.654981 0.000000
O O8 0.000000 0.500000 0.500000
O O9 0.207185 0.207447 0.774920
O O10 0.127367 0.250000 0.500000
O O11 0.314045 0.311103 0.825817
O O12 0.829773 0.927281 0.236792
O O13 0.000000 0.000000 0.500000
O O14 0.543212 0.671290 0.673588
O O15 0.011771 0.811103 0.825816
O O16 0.000000 0.141418 0.000000
#
# Coordination Sequence:
#
# PCOD9218879 Si02
#       8
#     4   8   4   8   4   8   8   8
#     4  12  23  42  56  86 120 148 195 230 278 352
#     4  11  18  33  55  86 118 149 176 221 298 352
#     4  12  20  31  55  88 118 149 173 219 293 358
#     4  11  20  35  57  83 112 143 183 239 283 339
#     4  12  20  31  55  88 118 149 173 219 293 358
#     4  11  18  33  55  86 118 149 176 221 298 352
#     4  11  20  35  57  83 112 143 183 239 283 339
#     4  12  25  42  59  78 110 160 204 239 275 324
#
# _framework density 16.961375
#
# number of rings (size 3 to 8) (size 9 to 14) (size 15 to 20)
#    0.000    0.615    7.692    4.846    0.000    0.615 
#    0.000    0.000    0.000    0.000    0.000    2.154 
#    0.000    0.000    0.000    0.000    0.000    0.000 
#
# Total GULP energy -145100.474465 kJ/mol
# GULP energy per Si atom -5580.787479 kJ/mol
# Density = 1.692277 g / cm^3
# Si number density = 16.961375 Si / 1000 Ang^3
#
#
#
# Elastic Constant Matrix: (Units=GPa)
#
#
# Indices 1 2 3 4 5 6 
#
# 1 76.4964 36.6193 37.7758 0.0000 2.3000 0.0000
# 2 36.6193 142.5001 31.4531 0.0000 0.8877 0.0000
# 3 37.7758 31.4531 121.5069 0.0000 -10.0353 0.0000
# 4 0.0000 0.0000 0.0000 25.8588 0.0000 -1.7551
# 5 2.3000 0.8877 -10.0353 0.0000 14.7879 0.0000
# 6 0.0000 0.0000 0.0000 -1.7551 0.0000 15.6462
#
#
#
# Elastic Compliance Matrix: (Units=1/GPa)
#
#
# Indices 1 2 3 4 5 6 
#
# 1 0.017307 -0.003304 -0.005012 0.000000 -0.005895 0.000000
# 2 -0.003304 0.008122 -0.001137 0.000000 -0.000745 0.000000
# 3 -0.005012 -0.001137 0.010755 0.000000 0.008146 0.000000
# 4 0.000000 0.000000 0.000000 0.038968 0.000000 0.004371
# 5 -0.005895 -0.000745 0.008146 0.000000 0.074112 0.000000
# 6 0.000000 0.000000 0.000000 0.004371 0.000000 0.064404
#
#
# Mechanical properties :
#
#
# Convention : Reuss Voigt Hill
#
# Bulk Modulus (GPa) = 57.87752 61.35551 59.61652
# Shear Modulus (GPa) = 20.97897 26.90226 23.94061
#
# Velocity S-wave (km/s) = 3.52073 3.98689 3.76104
# Velocity P-wave (km/s) = 7.12212 7.57931 7.35427
#
# Compressibility (1/GPa) = 0.01727787
#
# Stress axis : x y z
#
# Youngs Moduli (GPa) = 57.78132 123.11866 92.97797
#
# Poissons Ratio (x) = 0.40684 0.46600
# Poissons Ratio (y) = 0.19093 0.10569
# Poissons Ratio (z) = 0.28960 0.13995
#
# Static dielectric constant tensor:
#      x y z
#    x 1.543650 0.000000 -0.014810 
#    y 0.000000 1.603670 0.000000 
#    z -0.014810 0.000000 1.629810 
# 
# From -- ./inp_files/234518.got.cif
#   From: 2010.05.17/outbox.cif.g08.bks.cpg/sg12_118_cif.got.tgz:234518.got - 2010.06.03 13:09:07.
