data_PCOD9218632
_publ_section_title
;
Structure prediction by ZEFSAII (Michael W. Deem and Ramdas Pophale) SiO2 
 PCOD9218632
Probable space group: C 2/M
;
_chemical_formula_sum "Si O2"
_cell_formula_units_Z 48
_cell_length_a 18.126514
_cell_length_b 18.208224
_cell_length_c 18.124794
_cell_angle_alpha 90.000000
_cell_angle_beta 158.225749
_cell_angle_gamma 90.000000
_cell_volume 2219.069763
_symmetry_space_group_name_H-M "C 2/M"
_symmetry_group_IT_number 12
_symmetry_cell_setting 'monoclinic'
loop_
_space_group_symop_operation_xyz
x,y,z
-x,y,-z
-x,-y,-z
x,-y,z
1/2+x,1/2+y,z
1/2-x,1/2+y,-z
1/2-x,1/2-y,-z
1/2+x,1/2-y,z
loop_
_atom_site_type_symbol
_atom_site_label
_atom_site_fract_x
_atom_site_fract_y
_atom_site_fract_z
Si Si1 0.715167 0.746417 0.616655
Si Si2 0.660698 0.582653 0.083702
Si Si3 0.585088 0.306570 0.879890
Si Si4 0.000000 0.627312 0.500000
Si Si5 0.041057 0.616793 0.116745
Si Si6 0.091449 0.863272 0.734040
Si Si7 0.338452 0.500000 0.453764
O O1 0.652421 0.819568 0.599203
O O2 0.520162 0.707220 0.403236
O O3 0.883386 0.763563 0.712575
O O4 0.821329 0.687990 0.768848
O O5 0.626032 0.500000 0.020922
O O6 0.873581 0.584567 0.322036
O O7 0.500000 0.594276 0.000000
O O8 0.649100 0.646490 0.011334
O O9 0.538277 0.363734 0.771012
O O10 0.750000 0.250000 0.000000
O O11 0.828114 0.639748 0.949182
O O12 0.000000 0.580770 0.000000
O O13 0.165656 0.564056 0.284839
O O14 0.009058 0.935257 0.617598
#
# Coordination Sequence:
#
# PCOD9218632 Si02
#       7
#     8   8   8   4   8   8   4
#     4  11  24  40  69 105 135 179 236 292 354 430
#     4  11  26  48  73 106 145 191 242 299 367 434
#     4  12  24  46  74 102 143 187 234 297 362 432
#     4  12  23  44  74 107 140 178 240 300 361 426
#     4  11  23  41  66  96 139 180 235 286 356 421
#     4  11  24  43  66  97 140 180 235 288 359 424
#     4  10  25  43  63  97 133 187 232 285 347 434
#
# _framework density 21.630685
#
# number of rings (size 3 to 8) (size 9 to 14) (size 15 to 20)
#    0.000    0.833    3.333    3.500    3.500    2.667 
#    0.000    0.000    0.000    0.000    0.000    0.000 
#    0.000    0.000    0.000    0.000    0.000    0.000 
#
# Total GULP energy -133615.863828 kJ/mol
# GULP energy per Si atom -5567.327660 kJ/mol
# Density = 2.158145 g / cm^3
# Si number density = 21.630685 Si / 1000 Ang^3
#
#
#
# Elastic Constant Matrix: (Units=GPa)
#
#
# Indices 1 2 3 4 5 6 
#
# 1 60.1078 25.6425 8.7861 0.0370 12.4478 0.0030
# 2 25.6425 102.1886 29.3480 0.0307 8.2999 0.0191
# 3 8.7861 29.3480 111.1573 0.0630 13.4340 0.0265
# 4 0.0370 0.0307 0.0630 -10.2419 0.0233 6.2464
# 5 12.4478 8.2999 13.4340 0.0233 35.0132 0.0044
# 6 0.0030 0.0191 0.0265 6.2464 0.0044 3.5359
#
#
#
# Elastic Compliance Matrix: (Units=1/GPa)
#
#
# Indices 1 2 3 4 5 6 
#
# 1 0.019799 -0.004583 0.000382 0.000026 -0.006099 -0.000033
# 2 -0.004583 0.011726 -0.002721 -0.000011 -0.000107 -0.000020
# 3 0.000382 -0.002721 0.010091 0.000006 -0.003363 -0.000068
# 4 0.000026 -0.000011 0.000006 -0.047000 0.000012 0.083028
# 5 -0.006099 -0.000107 -0.003363 0.000012 0.032044 -0.000030
# 6 -0.000033 -0.000020 -0.000068 0.083028 -0.000030 0.136138
#
#
# Mechanical properties :
#
#
# Convention : Reuss Voigt Hill
#
# Bulk Modulus (GPa) = 36.00619 44.55631 40.28125
# Shear Modulus (GPa) = 26.89644 19.63992 23.26818
#
# Velocity S-wave (km/s) = 3.53007 3.01652 3.28335
# Velocity P-wave (km/s) = 5.77037 5.72502 5.74774
#
# Compressibility (1/GPa) = 0.02777300
#
# Stress axis : x y z
#
# Youngs Moduli (GPa) = 50.50770 85.28210 99.10020
#
# Poissons Ratio (x) = 0.39081 -0.03786
# Poissons Ratio (y) = 0.23145 0.26963
# Poissons Ratio (z) = -0.01930 0.23203
#
# Static dielectric constant tensor:
#      x y z
#    x 1.835740 -0.000010 -0.029570 
#    y -0.000010 1.774540 -0.000020 
#    z -0.029570 -0.000020 1.790250 
# 
# From -- ./inp_files/279255.got.cif
#   From: 2010.05.17/outbox.cif.g08.bks.cpg/sg12_140_cif.got.tgz:279255.got - 2010.06.03 13:09:07.
