data_PCOD9218080
_publ_section_title
;
Structure prediction by ZEFSAII (Michael W. Deem and Ramdas Pophale) SiO2 
 PCOD9218080
Probable space group: C 2/M
;
_chemical_formula_sum "Si O2"
_cell_formula_units_Z 52
_cell_length_a 23.574144
_cell_length_b 22.521232
_cell_length_c 5.549656
_cell_angle_alpha 90.000000
_cell_angle_beta 123.984472
_cell_angle_gamma 90.000000
_cell_volume 2443.136435
_symmetry_space_group_name_H-M "C 2/M"
_symmetry_group_IT_number 12
_symmetry_cell_setting 'monoclinic'
loop_
_space_group_symop_operation_xyz
x,y,z
-x,y,-z
-x,-y,-z
x,-y,z
1/2+x,1/2+y,z
1/2-x,1/2+y,-z
1/2-x,1/2-y,-z
1/2+x,1/2-y,z
loop_
_atom_site_type_symbol
_atom_site_label
_atom_site_fract_x
_atom_site_fract_y
_atom_site_fract_z
Si Si1 0.427934 0.245959 0.288618
Si Si2 0.067158 0.134421 0.987502
Si Si3 0.957867 0.000000 0.152125
Si Si4 0.766297 0.434459 0.543729
Si Si5 0.707708 0.196977 0.264391
Si Si6 0.656473 0.679293 0.601078
Si Si7 0.319641 0.436574 0.154766
O O1 0.500000 0.213381 0.500000
O O2 0.388634 0.264433 0.439851
O O3 0.447596 0.308216 0.209978
O O4 0.367563 0.216150 0.992194
O O5 0.134851 0.155818 0.290092
O O6 0.000000 0.132537 0.000000
O O7 0.077227 0.065114 0.944181
O O8 0.000000 0.000000 0.500000
O O9 0.000000 0.000000 0.000000
O O10 0.803048 0.500000 0.633438
O O11 0.798396 0.368124 0.628002
O O12 0.725775 0.435505 0.193396
O O13 0.723465 0.435968 0.694803
O O14 0.750000 0.250000 0.500000
O O15 0.762721 0.188375 0.177764
O O16 0.637953 0.623764 0.726814
O O17 0.356725 0.500000 0.253509
#
# Coordination Sequence:
#
# PCOD9218080 Si02
#       7
#     8   8   4   8   8   8   8
#     4  12  24  41  62  87 124 164 213 264 329 388
#     4  11  23  42  60  86 128 174 217 264 314 375
#     4  10  24  42  62  86 126 180 227 259 303 375
#     4   9  19  38  60  88 125 161 199 255 318 381
#     4  11  22  40  64  94 125 163 213 267 325 382
#     4  11  23  38  61  89 123 164 212 264 318 377
#     4   9  19  35  57  87 123 160 201 249 308 367
#
# _framework density 21.284116000000001
#
# number of rings (size 3 to 8) (size 9 to 14) (size 15 to 20)
#    0.000    1.538    3.077    1.846    5.385    1.231 
#    1.385    0.000    0.000    0.462    0.000    0.000 
#    0.000   13.231    0.000    0.000    0.000    1.692 
#
# Total GULP energy -144783.481363 kJ/mol
# GULP energy per Si atom -5568.595437 kJ/mol
# Density = 2.123567 g / cm^3
# Si number density = 21.284116 Si / 1000 Ang^3
#
#
#
# Elastic Constant Matrix: (Units=GPa)
#
#
# Indices 1 2 3 4 5 6 
#
# 1 50.9584 15.8324 34.1658 0.0000 13.1101 0.0000
# 2 15.8324 135.0514 58.0577 0.0000 14.4049 0.0000
# 3 34.1658 58.0577 136.3379 0.0000 13.6203 0.0000
# 4 0.0000 0.0000 0.0000 26.5669 0.0000 -6.5519
# 5 13.1101 14.4049 13.6203 0.0000 40.6731 0.0000
# 6 0.0000 0.0000 0.0000 -6.5519 0.0000 19.4382
#
#
#
# Elastic Compliance Matrix: (Units=1/GPa)
#
#
# Indices 1 2 3 4 5 6 
#
# 1 0.025001 0.000193 -0.005727 0.000000 -0.006209 0.000000
# 2 0.000193 0.009223 -0.003769 0.000000 -0.002066 0.000000
# 3 -0.005727 -0.003769 0.010405 0.000000 -0.000303 0.000000
# 4 0.000000 0.000000 0.000000 0.041053 0.000000 0.013838
# 5 -0.006209 -0.002066 -0.000303 0.000000 0.027421 0.000000
# 6 0.000000 0.000000 0.000000 0.013838 0.000000 0.056109
#
#
# Mechanical properties :
#
#
# Convention : Reuss Voigt Hill
#
# Bulk Modulus (GPa) = 38.42780 59.82882 49.12831
# Shear Modulus (GPa) = 25.44610 31.62176 28.53393
#
# Velocity S-wave (km/s) = 3.46142 3.85866 3.66542
# Velocity P-wave (km/s) = 5.83687 6.92986 6.40672
#
# Compressibility (1/GPa) = 0.02602283
#
# Stress axis : x y z
#
# Youngs Moduli (GPa) = 39.99817 108.42725 96.10366
#
# Poissons Ratio (x) = -0.02098 0.55041
# Poissons Ratio (y) = -0.00774 0.36226
# Poissons Ratio (z) = 0.22908 0.40871
#
# Static dielectric constant tensor:
#      x y z
#    x 1.973390 0.000000 -0.079740 
#    y 0.000000 1.862570 0.000000 
#    z -0.079740 0.000000 1.848490 
# 
# From -- ./inp_files/26247.got.cif
#   From: 2010.05.17/outbox.cif.g08.bks.cpg/sg12_14_cif.got.tgz:26247.got - 2010.06.03 13:09:07.
