data_PCOD9218970
_publ_section_title
;
Structure prediction by ZEFSAII (Michael W. Deem and Ramdas Pophale) SiO2 
 PCOD9218970
Probable space group: C 2/M
;
_chemical_formula_sum "Si O2"
_cell_formula_units_Z 44
_cell_length_a 15.495972
_cell_length_b 7.308182
_cell_length_c 16.726889
_cell_angle_alpha 90.000000
_cell_angle_beta 116.508444
_cell_angle_gamma 90.000000
_cell_volume 1695.128471
_symmetry_space_group_name_H-M "C 2/M"
_symmetry_group_IT_number 12
_symmetry_cell_setting 'monoclinic'
loop_
_space_group_symop_operation_xyz
x,y,z
-x,y,-z
-x,-y,-z
x,-y,z
1/2+x,1/2+y,z
1/2-x,1/2+y,-z
1/2-x,1/2-y,-z
1/2+x,1/2-y,z
loop_
_atom_site_type_symbol
_atom_site_label
_atom_site_fract_x
_atom_site_fract_y
_atom_site_fract_z
Si Si1 0.610175 0.718755 0.456464
Si Si2 0.096101 0.794531 0.989479
Si Si3 0.424680 0.000000 0.153138
Si Si4 0.421925 0.716657 0.724392
Si Si5 0.381642 0.721566 0.367356
Si Si6 0.280419 0.783603 0.813394
O O1 0.624302 0.500000 0.466027
O O2 0.638571 0.777386 0.379339
O O3 0.495086 0.755641 0.407993
O O4 0.648024 0.790946 0.556611
O O5 0.182585 0.798299 0.089073
O O6 0.076083 0.000000 0.952550
O O7 0.000000 0.733653 0.000000
O O8 0.114461 0.658623 0.925545
O O9 0.484756 0.160059 0.226773
O O10 0.443306 0.500000 0.724903
O O11 0.360994 0.748916 0.779250
O O12 0.370840 0.500000 0.361960
O O13 0.316181 0.790286 0.267869
O O14 0.272546 0.000000 0.823407
#
# Coordination Sequence:
#
# PCOD9218970 Si02
#       6
#     8   8   4   8   8   8
#     4   8  16  34  56  86 111 152 192 231 277 339
#     4  11  20  33  54  80 113 148 187 233 281 332
#     4  12  21  36  54  85 114 148 190 232 281 343
#     4  11  21  33  57  85 117 149 185 230 288 333
#     4   8  16  32  59  83 113 148 197 231 275 337
#     4  11  19  32  54  88 114 149 187 235 284 330
#
# _framework density 25.956733
#
# number of rings (size 3 to 8) (size 9 to 14) (size 15 to 20)
#    0.000    2.000    3.636    2.455    0.000    0.727 
#    0.000    0.000    8.000    2.182    0.000    0.000 
#    0.000    0.000    0.000    0.000    0.000    0.000 
#
# Total GULP energy -122611.107101 kJ/mol
# GULP energy per Si atom -5573.232141 kJ/mol
# Density = 2.589765 g / cm^3
# Si number density = 25.956733 Si / 1000 Ang^3
#
#
#
# Elastic Constant Matrix: (Units=GPa)
#
#
# Indices 1 2 3 4 5 6 
#
# 1 170.1353 -70.5382 -247.5131 0.0000 86.7969 0.0000
# 2 -70.5382 190.9102 219.2495 0.0000 -55.7641 0.0000
# 3 -247.5131 219.2495 957.5739 0.0000 -212.7397 0.0000
# 4 0.0000 0.0000 0.0000 -907.9751 0.0000 341.5973
# 5 86.7969 -55.7641 -212.7397 0.0000 91.9560 0.0000
# 6 0.0000 0.0000 0.0000 341.5973 0.0000 -129.8618
#
#
#
# Elastic Compliance Matrix: (Units=1/GPa)
#
#
# Indices 1 2 3 4 5 6 
#
# 1 0.012054 0.000764 0.001062 0.000000 -0.008458 0.000000
# 2 0.000764 0.007212 -0.001322 0.000000 0.000595 0.000000
# 3 0.001062 -0.001322 0.002512 0.000000 0.004007 0.000000
# 4 0.000000 0.000000 0.000000 -0.106222 0.000000 -0.279414
# 5 -0.008458 0.000595 0.004007 0.000000 0.028489 0.000000
# 6 0.000000 0.000000 0.000000 -0.279414 0.000000 -0.742690
#
#
# Mechanical properties :
#
#
# Convention : Reuss Voigt Hill
#
# Bulk Modulus (GPa) = 43.88835 124.55731 84.22283
# Shear Modulus (GPa) = -6.31267 -94.68143 -50.49705
#
# Velocity S-wave (km/s) = -1.56118 -6.04614 -4.41549
# Velocity P-wave (km/s) = 3.70071 0.80648 2.55391
#
# Compressibility (1/GPa) = 0.02278509
#
# Stress axis : x y z
#
# Youngs Moduli (GPa) = 82.95965 138.65957 398.16756
#
# Poissons Ratio (x) = -0.10591 -0.42272
# Poissons Ratio (y) = -0.06337 0.52626
# Poissons Ratio (z) = -0.08808 0.18327
#
# Static dielectric constant tensor:
#      x y z
#    x 2.171070 0.000000 -0.052190 
#    y 0.000000 1.991870 0.000000 
#    z -0.052190 0.000000 2.057840 
# 
# From -- ./inp_files/287153.got.cif
#   From: 2010.05.17/outbox.cif.g08.bks.cpg/sg12_144_cif.got.tgz:287153.got - 2010.06.03 13:09:07.
