data_PCOD9218900
_publ_section_title
;
Structure prediction by ZEFSAII (Michael W. Deem and Ramdas Pophale) SiO2 
 PCOD9218900
Probable space group: C 2/M
;
_chemical_formula_sum "Si O2"
_cell_formula_units_Z 56
_cell_length_a 17.332924
_cell_length_b 12.289273
_cell_length_c 13.372456
_cell_angle_alpha 90.000000
_cell_angle_beta 85.291611
_cell_angle_gamma 90.000000
_cell_volume 2838.841495
_symmetry_space_group_name_H-M "C 2/M"
_symmetry_group_IT_number 12
_symmetry_cell_setting 'monoclinic'
loop_
_space_group_symop_operation_xyz
x,y,z
-x,y,-z
-x,-y,-z
x,-y,z
1/2+x,1/2+y,z
1/2-x,1/2+y,-z
1/2-x,1/2-y,-z
1/2+x,1/2-y,z
loop_
_atom_site_type_symbol
_atom_site_label
_atom_site_fract_x
_atom_site_fract_y
_atom_site_fract_z
Si Si1 0.826304 0.125348 0.016993
Si Si2 0.916427 0.132197 0.467045
Si Si3 0.924660 0.500000 0.889371
Si Si4 0.955119 0.724362 0.907878
Si Si5 0.278789 0.188937 0.156890
Si Si6 0.980550 0.873386 0.256613
Si Si7 0.107131 0.500000 0.873091
Si Si8 0.844268 0.127797 0.670708
O O1 0.803980 0.192268 0.117886
O O2 0.841497 0.000000 0.035079
O O3 0.898194 0.185470 0.957765
O O4 0.760630 0.137646 0.938967
O O5 0.853011 0.167348 0.554978
O O6 0.000000 0.168761 0.500000
O O7 0.919501 0.158263 0.349571
O O8 0.916749 0.000000 0.471533
O O9 0.907869 0.625646 0.860512
O O10 0.016856 0.500000 0.857118
O O11 0.892180 0.500000 0.005947
O O12 0.014982 0.787090 0.831788
O O13 0.000000 0.677989 0.000000
O O14 0.216468 0.187495 0.252094
O O15 0.348952 0.106716 0.170878
O O16 0.068439 0.868687 0.293046
O O17 0.968218 0.000000 0.228657
O O18 0.822061 0.000000 0.673874
#
# Coordination Sequence:
#
# PCOD9218900 Si02
#       8
#     8   8   4   8   8   8   4   8
#     4  11  22  32  44  71 105 133 165 195 246 304
#     4   7  12  23  41  66 100 128 151 196 253 295
#     4  11  22  38  50  68  95 130 183 210 234 280
#     4  12  21  34  50  69 100 138 170 205 237 294
#     4  11  19  30  50  72  99 131 161 207 250 289
#     4   9  17  28  43  71 106 131 155 197 251 302
#     4  11  18  36  52  66  96 128 166 216 241 274
#     4   9  14  25  46  74  99 124 160 205 252 291
#
# _framework density 19.726355999999999
#
# number of rings (size 3 to 8) (size 9 to 14) (size 15 to 20)
#    0.000    2.000    5.714    2.143    0.000    1.143 
#    0.000    0.000    0.000    0.000    1.857    5.500 
#    0.000    0.000    0.000    0.000    0.000    0.000 
#
# Total GULP energy -156030.136427 kJ/mol
# GULP energy per Si atom -5572.504872 kJ/mol
# Density = 1.968146 g / cm^3
# Si number density = 19.726356 Si / 1000 Ang^3
#
#
#
# Elastic Constant Matrix: (Units=GPa)
#
#
# Indices 1 2 3 4 5 6 
#
# 1 39.4727 18.9891 19.8093 0.0000 -21.9925 0.0000
# 2 18.9891 135.7365 57.9009 0.0000 -21.9495 0.0000
# 3 19.8093 57.9009 139.1863 0.0000 -42.4233 0.0000
# 4 0.0000 0.0000 0.0000 9.3090 0.0000 -4.9504
# 5 -21.9925 -21.9495 -42.4233 0.0000 30.5004 0.0000
# 6 0.0000 0.0000 0.0000 -4.9504 0.0000 18.8345
#
#
#
# Elastic Compliance Matrix: (Units=1/GPa)
#
#
# Indices 1 2 3 4 5 6 
#
# 1 0.045994 -0.002846 0.007155 0.000000 0.041069 0.000000
# 2 -0.002846 0.009218 -0.003529 0.000000 -0.000327 0.000000
# 3 0.007155 -0.003529 0.014639 0.000000 0.022981 0.000000
# 4 0.000000 0.000000 0.000000 0.124877 0.000000 0.032823
# 5 0.041069 -0.000327 0.022981 0.000000 0.094128 0.000000
# 6 0.000000 0.000000 0.000000 0.032823 0.000000 0.061721
#
#
# Mechanical properties :
#
#
# Convention : Reuss Voigt Hill
#
# Bulk Modulus (GPa) = 14.00339 56.42159 35.21249
# Shear Modulus (GPa) = 13.41131 26.24186 19.82658
#
# Velocity S-wave (km/s) = 2.61026 3.65128 3.17374
# Velocity P-wave (km/s) = 4.02477 6.81469 5.59637
#
# Compressibility (1/GPa) = 0.07141130
#
# Stress axis : x y z
#
# Youngs Moduli (GPa) = 21.74213 108.48460 68.31122
#
# Poissons Ratio (x) = 0.30870 -0.48879
# Poissons Ratio (y) = 0.06187 0.24109
# Poissons Ratio (z) = -0.15557 0.38288
#
# Static dielectric constant tensor:
#      x y z
#    x 1.759980 0.000000 0.021210 
#    y 0.000000 1.733600 0.000000 
#    z 0.021210 0.000000 1.734740 
# 
# From -- ./inp_files/231829.got.cif
#   From: 2010.05.17/outbox.cif.g08.bks.cpg/sg12_116_cif.got.tgz:231829.got - 2010.06.03 13:09:07.
