data_PCOD9218318
_publ_section_title
;
Structure prediction by ZEFSAII (Michael W. Deem and Ramdas Pophale) SiO2 
 PCOD9218318
Probable space group: C 2/M
;
_chemical_formula_sum "Si O2"
_cell_formula_units_Z 52
_cell_length_a 15.672575
_cell_length_b 14.386816
_cell_length_c 19.408083
_cell_angle_alpha 90.000000
_cell_angle_beta 36.125720
_cell_angle_gamma 90.000000
_cell_volume 2579.971824
_symmetry_space_group_name_H-M "C 2/M"
_symmetry_group_IT_number 12
_symmetry_cell_setting 'monoclinic'
loop_
_space_group_symop_operation_xyz
x,y,z
-x,y,-z
-x,-y,-z
x,-y,z
1/2+x,1/2+y,z
1/2-x,1/2+y,-z
1/2-x,1/2-y,-z
1/2+x,1/2-y,z
loop_
_atom_site_type_symbol
_atom_site_label
_atom_site_fract_x
_atom_site_fract_y
_atom_site_fract_z
Si Si1 0.000000 0.253126 0.500000
Si Si2 0.209414 0.858257 0.028122
Si Si3 0.644396 0.394269 0.227777
Si Si4 0.508455 0.103231 0.772861
Si Si5 0.581169 0.228301 0.597515
Si Si6 0.572253 0.394175 0.877773
Si Si7 0.206640 0.702511 0.752221
O O1 0.046263 0.301764 0.541577
O O2 0.142624 0.195570 0.387251
O O3 0.197710 0.888453 0.114682
O O4 0.057939 0.881626 0.091411
O O5 0.250000 0.750000 0.000000
O O6 0.339775 0.902405 0.900569
O O7 0.601995 0.500000 0.271529
O O8 0.514065 0.320900 0.324736
O O9 0.772911 0.359836 0.193727
O O10 0.532585 0.151826 0.684155
O O11 0.581888 0.166291 0.783832
O O12 0.572555 0.000000 0.732611
O O13 0.750000 0.250000 0.500000
O O14 0.630479 0.500000 0.835283
O O15 0.680919 0.309478 0.791390
O O16 0.500000 0.382174 0.000000
#
# Coordination Sequence:
#
# PCOD9218318 Si02
#       7
#     4   8   8   8   8   8   8
#     4  10  24  44  68  92 130 174 222 280 318 394
#     4  12  22  43  67  97 135 173 214 275 335 397
#     4  11  24  42  68  99 133 173 219 276 339 399
#     4  12  25  42  69  99 133 174 221 276 341 403
#     4  11  23  45  66  96 134 175 228 277 332 397
#     4  11  24  41  65  94 129 176 222 269 333 403
#     4  11  23  44  66  96 135 172 221 277 333 392
#
# _framework density 20.155259000000001
#
# number of rings (size 3 to 8) (size 9 to 14) (size 15 to 20)
#    0.000    0.769    4.615    2.769    2.154    0.615 
#    0.000    5.000    0.000    0.000    0.000    0.000 
#    0.000    0.000    0.000    0.000    0.000    0.000 
#
# Total GULP energy -145250.927852 kJ/mol
# GULP energy per Si atom -5586.574148 kJ/mol
# Density = 2.010938 g / cm^3
# Si number density = 20.155259 Si / 1000 Ang^3
#
#
#
# Elastic Constant Matrix: (Units=GPa)
#
#
# Indices 1 2 3 4 5 6 
#
# 1 105.1949 11.1233 33.3815 -0.0001 33.2174 0.0000
# 2 11.1233 150.8947 24.2414 -0.0001 13.8376 0.0000
# 3 33.3815 24.2414 89.7733 -0.0002 13.5947 0.0001
# 4 -0.0001 -0.0001 -0.0002 -18.5430 0.0001 -5.9469
# 5 33.2174 13.8376 13.5947 0.0001 41.9847 -0.0001
# 6 0.0000 0.0000 0.0001 -5.9469 -0.0001 15.0445
#
#
#
# Elastic Compliance Matrix: (Units=1/GPa)
#
#
# Indices 1 2 3 4 5 6 
#
# 1 0.013748 0.000491 -0.003757 0.000000 -0.009822 0.000000
# 2 0.000491 0.007072 -0.001767 0.000000 -0.002147 0.000000
# 3 -0.003757 -0.001767 0.013118 0.000000 -0.000693 0.000000
# 4 0.000000 0.000000 0.000000 -0.047861 0.000000 -0.018919
# 5 -0.009822 -0.002147 -0.000693 0.000000 0.032521 0.000000
# 6 0.000000 0.000000 0.000000 -0.018919 0.000000 0.058991
#
#
# Mechanical properties :
#
#
# Convention : Reuss Voigt Hill
#
# Bulk Modulus (GPa) = 41.89092 53.70616 47.79854
# Shear Modulus (GPa) = 52.29401 26.17169 39.23285
#
# Velocity S-wave (km/s) = 5.09921 3.60739 4.41674
# Velocity P-wave (km/s) = 7.44973 6.63740 7.05526
#
# Compressibility (1/GPa) = 0.02387152
#
# Stress axis : x y z
#
# Youngs Moduli (GPa) = 72.73688 141.40863 76.22928
#
# Poissons Ratio (x) = -0.06942 0.28641
# Poissons Ratio (y) = -0.03571 0.13470
# Poissons Ratio (z) = 0.27329 0.24987
#
# Static dielectric constant tensor:
#      x y z
#    x 1.721430 0.000000 0.002590 
#    y 0.000000 1.713990 0.000000 
#    z 0.002590 0.000000 1.693160 
# 
# From -- ./inp_files/270585.got.cif
#   From: 2010.05.17/outbox.cif.g08.bks.cpg/sg12_136_cif.got.tgz:270585.got - 2010.06.03 13:09:07.
