data_PCOD9218780
_publ_section_title
;
Structure prediction by ZEFSAII (Michael W. Deem and Ramdas Pophale) SiO2 
 PCOD9218780
Probable space group: C 2/M
;
_chemical_formula_sum "Si O2"
_cell_formula_units_Z 30
_cell_length_a 9.122879
_cell_length_b 24.620388
_cell_length_c 5.043587
_cell_angle_alpha 90.000000
_cell_angle_beta 80.562572
_cell_angle_gamma 90.000000
_cell_volume 1117.501512
_symmetry_space_group_name_H-M "C 2/M"
_symmetry_group_IT_number 12
_symmetry_cell_setting 'monoclinic'
loop_
_space_group_symop_operation_xyz
x,y,z
-x,y,-z
-x,-y,-z
x,-y,z
1/2+x,1/2+y,z
1/2-x,1/2+y,-z
1/2-x,1/2-y,-z
1/2+x,1/2-y,z
loop_
_atom_site_type_symbol
_atom_site_label
_atom_site_fract_x
_atom_site_fract_y
_atom_site_fract_z
Si Si1 0.186810 0.404668 0.684912
Si Si2 0.000000 0.500000 0.500000
Si Si3 0.500000 0.266589 0.000000
Si Si4 0.792905 0.300130 0.668391
Si Si5 0.832669 0.061496 0.146947
O O1 0.158338 0.348272 0.542206
O O2 0.232589 0.402536 0.977649
O O3 0.066755 0.451154 0.672927
O O4 0.322641 0.425211 0.458852
O O5 0.631281 0.306178 0.857721
O O6 0.415918 0.225319 0.825745
O O7 0.750000 0.250000 0.500000
O O8 0.768237 0.000000 0.146068
O O9 0.000000 0.061568 0.000000
#
# Coordination Sequence:
#
# PCOD9218780 Si02
#       5
#     8   2   4   8   8
#     4  12  28  46  77 109 154 204 255 323 388 473
#     4  12  28  50  74 114 152 206 260 314 400 462
#     4  10  26  50  74 112 154 208 270 318 406 466
#     4  11  27  48  77 113 156 208 264 333 395 476
#     4  11  24  47  72 108 147 197 257 318 388 464
#
# _framework density 26.845602
#
# number of rings (size 3 to 8) (size 9 to 14) (size 15 to 20)
#    0.000    0.800    2.667    1.600   13.067    6.400 
#    0.000    0.000    0.000    0.000    0.000    0.000 
#    0.000    0.000    0.000    0.000    0.000    0.000 
#
# Total GULP energy -83736.041679 kJ/mol
# GULP energy per Si atom -5582.402779 kJ/mol
# Density = 2.678450 g / cm^3
# Si number density = 26.845602 Si / 1000 Ang^3
#
#
#
# Elastic Constant Matrix: (Units=GPa)
#
#
# Indices 1 2 3 4 5 6 
#
# 1 114.1056 46.7782 42.0633 0.0000 21.3770 0.0000
# 2 46.7782 185.9992 19.7753 0.0000 15.4220 0.0000
# 3 42.0633 19.7753 99.5862 0.0000 15.5403 0.0000
# 4 0.0000 0.0000 0.0000 39.2025 0.0000 6.0062
# 5 21.3770 15.4220 15.5403 0.0000 60.8311 0.0000
# 6 0.0000 0.0000 0.0000 6.0062 0.0000 32.2800
#
#
#
# Elastic Compliance Matrix: (Units=1/GPa)
#
#
# Indices 1 2 3 4 5 6 
#
# 1 0.011677 -0.002297 -0.004090 0.000000 -0.002476 0.000000
# 2 -0.002297 0.006024 -0.000118 0.000000 -0.000690 0.000000
# 3 -0.004090 -0.000118 0.012044 0.000000 -0.001610 0.000000
# 4 0.000000 0.000000 0.000000 0.026257 0.000000 -0.004886
# 5 -0.002476 -0.000690 -0.001610 0.000000 0.017895 0.000000
# 6 0.000000 0.000000 0.000000 -0.004886 0.000000 0.031888
#
#
# Mechanical properties :
#
#
# Convention : Reuss Voigt Hill
#
# Bulk Modulus (GPa) = 59.75533 68.54718 64.15125
# Shear Modulus (GPa) = 40.20197 45.86766 43.03481
#
# Velocity S-wave (km/s) = 3.87399 4.13797 4.00815
# Velocity P-wave (km/s) = 6.50520 6.95843 6.73562
#
# Compressibility (1/GPa) = 0.01673491
#
# Stress axis : x y z
#
# Youngs Moduli (GPa) = 85.63989 166.00991 83.03154
#
# Poissons Ratio (x) = 0.38125 0.33956
# Poissons Ratio (y) = 0.19668 0.00984
# Poissons Ratio (z) = 0.35023 0.01967
#
# Static dielectric constant tensor:
#      x y z
#    x 16.369200 0.000000 -6.007890 
#    y 0.000000 2.124330 0.000000 
#    z -6.007890 0.000000 4.533560 
# 
# From -- ./inp_files/3544.got.cif
#   From: 2010.05.17/outbox.cif.g08.bks.cpg/sg12_2_cif.got.tgz:3544.got - 2010.06.03 13:09:07.
