data_PCOD9218958
_publ_section_title
;
Structure prediction by ZEFSAII (Michael W. Deem and Ramdas Pophale) SiO2 
 PCOD9218958
Probable space group: C 2/M
;
_chemical_formula_sum "Si O2"
_cell_formula_units_Z 50
_cell_length_a 15.445610
_cell_length_b 23.018608
_cell_length_c 7.953954
_cell_angle_alpha 90.000000
_cell_angle_beta 63.268385
_cell_angle_gamma 90.000000
_cell_volume 2525.681762
_symmetry_space_group_name_H-M "C 2/M"
_symmetry_group_IT_number 12
_symmetry_cell_setting 'monoclinic'
loop_
_space_group_symop_operation_xyz
x,y,z
-x,y,-z
-x,-y,-z
x,-y,z
1/2+x,1/2+y,z
1/2-x,1/2+y,-z
1/2-x,1/2-y,-z
1/2+x,1/2-y,z
loop_
_atom_site_type_symbol
_atom_site_label
_atom_site_fract_x
_atom_site_fract_y
_atom_site_fract_z
Si Si1 0.581967 0.718075 0.821450
Si Si2 0.006725 0.096503 0.234512
Si Si3 0.613074 0.753559 0.434605
Si Si4 0.715087 0.565985 0.547049
Si Si5 0.740813 0.150045 0.185493
Si Si6 0.696020 0.366515 0.239109
Si Si7 0.000000 0.000000 0.000000
O O1 0.526481 0.660537 0.797159
O O2 0.623747 0.752745 0.627213
O O3 0.667735 0.693178 0.860598
O O4 0.500000 0.750403 0.000000
O O5 0.903307 0.065600 0.354170
O O6 0.088859 0.106113 0.300587
O O7 0.054288 0.052442 0.059184
O O8 0.500000 0.743243 0.500000
O O9 0.648158 0.811747 0.314589
O O10 0.674327 0.699639 0.309880
O O11 0.748692 0.500000 0.517504
O O12 0.746817 0.599837 0.686507
O O13 0.743526 0.600929 0.354736
O O14 0.747954 0.131004 0.986254
#
# Coordination Sequence:
#
# PCOD9218958 Si02
#       7
#     8   8   8   8   8   8   2
#     4  11  19  35  56  84 119 160 191 237 294 344
#     4  11  19  31  52  80 124 162 194 229 269 344
#     4  12  22  40  60  86 121 152 203 256 294 348
#     4  11  24  38  56  86 122 157 201 239 285 356
#     4  11  24  39  60  86 121 160 196 241 299 352
#     4  12  22  37  58  87 124 159 194 236 294 359
#     4  12  20  28  50  80 120 174 214 208 268 348
#
# _framework density 19.796635999999999
#
# number of rings (size 3 to 8) (size 9 to 14) (size 15 to 20)
#    0.000    0.640    8.000    2.400    1.120    1.280 
#    0.000    0.000    0.000    0.480    0.000    1.120 
#    0.000    0.000    0.000    0.000    0.000    0.000 
#
# Total GULP energy -139376.682069 kJ/mol
# GULP energy per Si atom -5575.067283 kJ/mol
# Density = 1.975158 g / cm^3
# Si number density = 19.796636 Si / 1000 Ang^3
#
#
#
# Elastic Constant Matrix: (Units=GPa)
#
#
# Indices 1 2 3 4 5 6 
#
# 1 20.2829 19.5291 26.0061 0.0000 8.6870 0.0000
# 2 19.5291 105.1097 61.5488 0.0000 8.7409 0.0000
# 3 26.0061 61.5488 144.1953 0.0000 32.2429 0.0000
# 4 0.0000 0.0000 0.0000 62.2588 0.0000 -4.5031
# 5 8.6870 8.7409 32.2429 0.0000 21.7712 0.0000
# 6 0.0000 0.0000 0.0000 -4.5031 0.0000 15.3107
#
#
#
# Elastic Compliance Matrix: (Units=1/GPa)
#
#
# Indices 1 2 3 4 5 6 
#
# 1 0.072069 -0.008804 -0.005383 0.000000 -0.017250 0.000000
# 2 -0.008804 0.014045 -0.005878 0.000000 0.006580 0.000000
# 3 -0.005383 -0.005878 0.014065 0.000000 -0.016322 0.000000
# 4 0.000000 0.000000 0.000000 0.016411 0.000000 0.004827
# 5 -0.017250 0.006580 -0.016322 0.000000 0.074345 0.000000
# 6 0.000000 0.000000 0.000000 0.004827 0.000000 0.066733
#
#
# Mechanical properties :
#
#
# Convention : Reuss Voigt Hill
#
# Bulk Modulus (GPa) = 16.65336 53.75067 35.20202
# Shear Modulus (GPa) = 15.73250 30.70172 23.21711
#
# Velocity S-wave (km/s) = 2.82211 3.94236 3.42830
# Velocity P-wave (km/s) = 4.36458 6.92339 5.78718
#
# Compressibility (1/GPa) = 0.06004794
#
# Stress axis : x y z
#
# Youngs Moduli (GPa) = 13.87566 71.20198 71.10046
#
# Poissons Ratio (x) = 0.62684 0.38273
# Poissons Ratio (y) = 0.12216 0.41795
# Poissons Ratio (z) = 0.07469 0.41855
#
# Static dielectric constant tensor:
#      x y z
#    x 1.708310 0.000000 0.037250 
#    y 0.000000 1.691510 0.000000 
#    z 0.037250 0.000000 1.866450 
# 
# From -- ./inp_files/65222.got.cif
#   From: 2010.05.17/outbox.cif.g08.bks.cpg/sg12_33_cif.got.tgz:65222.got - 2010.06.03 13:09:07.
