data_PCOD9218871
_publ_section_title
;
Structure prediction by ZEFSAII (Michael W. Deem and Ramdas Pophale) SiO2 
 PCOD9218871
Probable space group: C 2/M
;
_chemical_formula_sum "Si O2"
_cell_formula_units_Z 52
_cell_length_a 14.561218
_cell_length_b 18.013431
_cell_length_c 17.233599
_cell_angle_alpha 90.000000
_cell_angle_beta 138.892708
_cell_angle_gamma 90.000000
_cell_volume 2971.986453
_symmetry_space_group_name_H-M "C 2/M"
_symmetry_group_IT_number 12
_symmetry_cell_setting 'monoclinic'
loop_
_space_group_symop_operation_xyz
x,y,z
-x,y,-z
-x,-y,-z
x,-y,z
1/2+x,1/2+y,z
1/2-x,1/2+y,-z
1/2-x,1/2-y,-z
1/2+x,1/2-y,z
loop_
_atom_site_type_symbol
_atom_site_label
_atom_site_fract_x
_atom_site_fract_y
_atom_site_fract_z
Si Si1 0.671137 0.173336 0.476370
Si Si2 0.882265 0.086270 0.991922
Si Si3 0.729172 0.238434 0.668965
Si Si4 0.035439 0.197106 0.817689
Si Si5 0.000000 0.136397 0.500000
Si Si6 0.642603 0.817514 0.781265
Si Si7 0.568816 0.417134 0.378199
O O1 0.750000 0.250000 0.500000
O O2 0.667093 0.179608 0.567171
O O3 0.519153 0.169041 0.342946
O O4 0.768705 0.105431 0.515134
O O5 0.733583 0.111822 0.862817
O O6 0.881630 0.000000 0.015871
O O7 0.916449 0.143014 0.083131
O O8 0.000000 0.094478 0.000000
O O9 0.637242 0.311336 0.593526
O O10 0.707241 0.216161 0.743744
O O11 0.893754 0.238992 0.754940
O O12 0.140906 0.257651 0.849982
O O13 0.997039 0.143889 0.720656
O O14 0.009672 0.091372 0.426895
O O15 0.548405 0.500000 0.335576
#
# Coordination Sequence:
#
# PCOD9218871 Si02
#       7
#     8   8   8   8   4   8   8
#     4  11  18  35  56  84 117 148 186 237 286 341
#     4  11  25  41  57  82 119 156 197 250 292 332
#     4  11  18  32  59  87 112 144 192 239 284 337
#     4  11  21  39  60  85 111 152 199 241 281 339
#     4  12  17  34  54  88 123 146 184 240 289 348
#     4  12  20  37  63  85 110 153 199 234 291 347
#     4  11  22  33  55  87 121 154 184 230 295 354
#
# _framework density 17.496714999999998
#
# number of rings (size 3 to 8) (size 9 to 14) (size 15 to 20)
#    0.000    0.769    9.231    1.154    0.000    0.615 
#    0.000    0.000    0.000    2.769    0.000    1.077 
#    0.000    0.000    0.000    0.000    0.000    0.000 
#
# Total GULP energy -145056.413633 kJ/mol
# GULP energy per Si atom -5579.092832 kJ/mol
# Density = 1.745689 g / cm^3
# Si number density = 17.496715 Si / 1000 Ang^3
#
#
#
# Elastic Constant Matrix: (Units=GPa)
#
#
# Indices 1 2 3 4 5 6 
#
# 1 96.8551 30.3521 31.1432 -0.0001 -3.8714 0.0000
# 2 30.3521 70.8853 15.6757 0.0000 9.2114 0.0000
# 3 31.1432 15.6757 68.5935 -0.0002 1.5718 -0.0001
# 4 -0.0001 0.0000 -0.0002 14.5604 -0.0001 -5.4068
# 5 -3.8714 9.2114 1.5718 -0.0001 26.3241 0.0000
# 6 0.0000 0.0000 -0.0001 -5.4068 0.0000 15.4679
#
#
#
# Elastic Compliance Matrix: (Units=1/GPa)
#
#
# Indices 1 2 3 4 5 6 
#
# 1 0.013818 -0.005323 -0.005153 0.000000 0.004203 0.000000
# 2 -0.005323 0.017597 -0.001448 0.000000 -0.006854 0.000000
# 3 -0.005153 -0.001448 0.017279 0.000000 -0.001283 0.000000
# 4 0.000000 0.000000 0.000000 0.078924 0.000000 0.027588
# 5 0.004203 -0.006854 -0.001283 0.000000 0.041081 0.000000
# 6 0.000000 0.000000 0.000000 0.027588 0.000000 0.074293
#
#
# Mechanical properties :
#
#
# Convention : Reuss Voigt Hill
#
# Bulk Modulus (GPa) = 40.24875 43.40845 41.82860
# Shear Modulus (GPa) = 18.17373 21.88133 20.02753
#
# Velocity S-wave (km/s) = 3.22637 3.54021 3.38693
# Velocity P-wave (km/s) = 6.07724 6.44780 6.26526
#
# Compressibility (1/GPa) = 0.02484549
#
# Stress axis : x y z
#
# Youngs Moduli (GPa) = 72.37004 56.82661 57.87475
#
# Poissons Ratio (x) = 0.30249 0.29826
# Poissons Ratio (y) = 0.38523 0.08378
# Poissons Ratio (z) = 0.37296 0.08227
#
# Static dielectric constant tensor:
#      x y z
#    x 1.624530 0.000000 -0.006190 
#    y 0.000000 1.572980 0.000000 
#    z -0.006190 0.000000 1.616120 
# 
# From -- ./inp_files/271218.got.cif
#   From: 2010.05.17/outbox.cif.g08.bks.cpg/sg12_136_cif.got.tgz:271218.got - 2010.06.03 13:09:07.
