data_PCOD9218248
_publ_section_title
;
Structure prediction by ZEFSAII (Michael W. Deem and Ramdas Pophale) SiO2 
 PCOD9218248
Probable space group: C 2/M
;
_chemical_formula_sum "Si O2"
_cell_formula_units_Z 52
_cell_length_a 19.006392
_cell_length_b 7.682101
_cell_length_c 23.941140
_cell_angle_alpha 90.000000
_cell_angle_beta 36.064610
_cell_angle_gamma 90.000000
_cell_volume 2057.863058
_symmetry_space_group_name_H-M "C 2/M"
_symmetry_group_IT_number 12
_symmetry_cell_setting 'monoclinic'
loop_
_space_group_symop_operation_xyz
x,y,z
-x,y,-z
-x,-y,-z
x,-y,z
1/2+x,1/2+y,z
1/2-x,1/2+y,-z
1/2-x,1/2-y,-z
1/2+x,1/2-y,z
loop_
_atom_site_type_symbol
_atom_site_label
_atom_site_fract_x
_atom_site_fract_y
_atom_site_fract_z
Si Si1 0.619744 0.798294 0.860405
Si Si2 0.762888 0.801039 0.876041
Si Si3 0.473578 0.801800 0.316526
Si Si4 0.577846 0.209085 0.533112
Si Si5 0.181763 0.709537 0.351433
Si Si6 0.590251 0.311644 0.072547
Si Si7 0.464697 0.000000 0.221568
O O1 0.696489 0.732546 0.863238
O O2 0.706388 0.794911 0.750668
O O3 0.502620 0.693634 0.920178
O O4 0.587256 0.000000 0.890486
O O5 0.903363 0.793915 0.774852
O O6 0.725146 0.000000 0.906899
O O7 0.718133 0.708665 0.960605
O O8 0.404020 0.731020 0.414786
O O9 0.409669 0.846232 0.299689
O O10 0.516305 0.000000 0.304758
O O11 0.651925 0.275210 0.432684
O O12 0.438658 0.242457 0.607203
O O13 0.596612 0.000000 0.519395
O O14 0.200353 0.500000 0.339877
O O15 0.583086 0.500000 0.105632
O O16 0.541013 0.152177 0.139690
#
# Coordination Sequence:
#
# PCOD9218248 Si02
#       7
#     8   8   8   8   8   8   4
#     4  11  22  37  59  88 128 160 195 257 304 365
#     4  11  22  38  59  90 125 157 199 252 310 364
#     4   9  19  36  60  83 117 160 193 250 300 355
#     4   8  14  29  53  87 119 149 195 241 303 361
#     4   9  16  28  55  87 119 150 193 245 298 373
#     4  12  25  43  63  86 118 166 213 251 303 363
#     4  10  24  44  61  89 121 163 211 260 287 359
#
# _framework density 25.268932
#
# number of rings (size 3 to 8) (size 9 to 14) (size 15 to 20)
#    0.462    1.538    3.077    2.308    0.000    4.923 
#    0.000    2.308    0.000    0.923    0.000    0.000 
#    0.000    0.000    0.000    0.000    0.000    0.000 
#
# Total GULP energy -144745.017585 kJ/mol
# GULP energy per Si atom -5567.116061 kJ/mol
# Density = 2.521142 g / cm^3
# Si number density = 25.268932 Si / 1000 Ang^3
#
#
#
# Elastic Constant Matrix: (Units=GPa)
#
#
# Indices 1 2 3 4 5 6 
#
# 1 68.5785 0.1903 25.8798 0.0477 4.3514 -0.0052
# 2 0.1903 102.7982 8.2030 -0.1638 6.8508 0.0158
# 3 25.8798 8.2030 115.0138 -0.0014 20.0570 0.0002
# 4 0.0477 -0.1638 -0.0014-1490.5949 -0.0486 157.4916
# 5 4.3514 6.8508 20.0570 -0.0486 39.9785 0.0050
# 6 -0.0052 0.0158 0.0002 157.4916 0.0050 -12.0634
#
#
#
# Elastic Compliance Matrix: (Units=1/GPa)
#
#
# Indices 1 2 3 4 5 6 
#
# 1 0.015942 0.000256 -0.003611 0.000001 0.000033 0.000001
# 2 0.000256 0.009865 -0.000506 -0.000001 -0.001465 0.000003
# 3 -0.003611 -0.000506 0.010367 0.000000 -0.004721 0.000000
# 4 0.000001 -0.000001 0.000000 0.001768 -0.000001 0.023086
# 5 0.000033 -0.001465 -0.004721 -0.000001 0.027629 0.000000
# 6 0.000001 0.000003 0.000000 0.023086 0.000000 0.218499
#
#
# Mechanical properties :
#
#
# Convention : Reuss Voigt Hill
#
# Bulk Modulus (GPa) = 35.14621 39.43742 37.29181
# Shear Modulus (GPa) = 16.59612 -275.72815 -129.56601
#
# Velocity S-wave (km/s) = 2.56555 -10.45726 -7.16841
# Velocity P-wave (km/s) = 4.76604 11.40898 7.32972
#
# Compressibility (1/GPa) = 0.02845257
#
# Stress axis : x y z
#
# Youngs Moduli (GPa) = 62.72817 101.36537 96.46418
#
# Poissons Ratio (x) = -0.02600 0.34834
# Poissons Ratio (y) = -0.01609 0.04880
# Poissons Ratio (z) = 0.22652 0.05128
#
# Static dielectric constant tensor:
#      x y z
#    x 2.155550 0.000000 0.072810 
#    y 0.000000 1.946900 0.000000 
#    z 0.072810 0.000000 1.957770 
# 
# From -- ./inp_files/367362.got.cif
#   From: 2010.05.17/outbox.cif.g08.bks.cpg/sg12_184_cif.got.tgz:367362.got - 2010.06.03 13:09:07.
