data_PCOD9218366
_publ_section_title
;
Structure prediction by ZEFSAII (Michael W. Deem and Ramdas Pophale) SiO2 
 PCOD9218366
Probable space group: C 2/M
;
_chemical_formula_sum "Si O2"
_cell_formula_units_Z 42
_cell_length_a 18.212017
_cell_length_b 13.881315
_cell_length_c 9.202640
_cell_angle_alpha 90.000000
_cell_angle_beta 128.883064
_cell_angle_gamma 90.000000
_cell_volume 1811.006245
_symmetry_space_group_name_H-M "C 2/M"
_symmetry_group_IT_number 12
_symmetry_cell_setting 'monoclinic'
loop_
_space_group_symop_operation_xyz
x,y,z
-x,y,-z
-x,-y,-z
x,-y,z
1/2+x,1/2+y,z
1/2-x,1/2+y,-z
1/2-x,1/2-y,-z
1/2+x,1/2-y,z
loop_
_atom_site_type_symbol
_atom_site_label
_atom_site_fract_x
_atom_site_fract_y
_atom_site_fract_z
Si Si1 0.891327 0.363742 0.087514
Si Si2 0.659885 0.281786 0.197181
Si Si3 0.589939 0.500000 0.507660
Si Si4 0.000000 0.326510 0.500000
Si Si5 0.868244 0.792466 0.529378
Si Si6 0.276550 0.500000 0.063742
Si Si7 0.000000 0.500000 0.000000
Si Si8 0.388845 0.500000 0.913233
O O1 0.960932 0.378760 0.309911
O O2 0.935474 0.418723 0.005268
O O3 0.874969 0.257506 0.001014
O O4 0.793252 0.408260 0.024557
O O5 0.759649 0.230613 0.357273
O O6 0.604348 0.254301 0.276471
O O7 0.658978 0.398585 0.195457
O O8 0.500000 0.500000 0.500000
O O9 0.599568 0.402739 0.430552
O O10 0.678991 0.500000 0.723485
O O11 0.919567 0.258925 0.461929
O O12 0.360112 0.500000 0.049179
O O13 0.500000 0.500000 0.000000
#
# Coordination Sequence:
#
# PCOD9218366 Si02
#       8
#     8   8   4   4   8   4   2   4
#     4  11  25  49  76 108 154 196 256 308 388 449
#     4  11  26  49  69 106 150 201 246 308 384 454
#     4  12  24  43  74 117 154 190 257 311 372 457
#     4  12  26  42  74 112 142 198 250 318 356 450
#     4  11  25  44  74 107 151 198 248 308 375 449
#     4  11  26  47  74 109 144 207 240 313 389 449
#     4  10  24  44  76 108 138 204 240 308 370 458
#     4  12  30  43  74 107 145 197 253 314 371 450
#
# _framework density 23.191527000000001
#
# number of rings (size 3 to 8) (size 9 to 14) (size 15 to 20)
#    0.000    0.762    2.857    2.857    9.333    3.048 
#    0.000    5.714    0.000    0.000    0.000    0.000 
#    0.000    0.000    0.000    0.000    0.000    0.000 
#
# Total GULP energy -116942.242568 kJ/mol
# GULP energy per Si atom -5568.678218 kJ/mol
# Density = 2.313874 g / cm^3
# Si number density = 23.191527 Si / 1000 Ang^3
#
#
#
# Elastic Constant Matrix: (Units=GPa)
#
#
# Indices 1 2 3 4 5 6 
#
# 1 148.7616 36.5222 14.4328 0.0000 -11.2993 0.0000
# 2 36.5222 121.2149 9.5022 0.0000 2.6582 0.0000
# 3 14.4328 9.5022 82.8814 0.0000 -8.0878 0.0000
# 4 0.0000 0.0000 0.0000 29.9480 0.0000 -7.0506
# 5 -11.2993 2.6582 -8.0878 0.0000 36.5668 0.0000
# 6 0.0000 0.0000 0.0000 -7.0506 0.0000 37.4021
#
#
#
# Elastic Compliance Matrix: (Units=1/GPa)
#
#
# Indices 1 2 3 4 5 6 
#
# 1 0.007531 -0.002255 -0.000828 0.000000 0.002308 0.000000
# 2 -0.002255 0.009025 -0.000791 0.000000 -0.001528 0.000000
# 3 -0.000828 -0.000791 0.012552 0.000000 0.002578 0.000000
# 4 0.000000 0.000000 0.000000 0.034942 0.000000 0.006587
# 5 0.002308 -0.001528 0.002578 0.000000 0.028742 0.000000
# 6 0.000000 0.000000 0.000000 0.006587 0.000000 0.027978
#
#
# Mechanical properties :
#
#
# Convention : Reuss Voigt Hill
#
# Bulk Modulus (GPa) = 46.81559 52.64138 49.72849
# Shear Modulus (GPa) = 36.86301 40.27677 38.56989
#
# Velocity S-wave (km/s) = 3.99118 4.17190 4.08254
# Velocity P-wave (km/s) = 6.43970 6.77895 6.61150
#
# Compressibility (1/GPa) = 0.02136041
#
# Stress axis : x y z
#
# Youngs Moduli (GPa) = 132.77761 110.80646 79.66967
#
# Poissons Ratio (x) = 0.24986 0.06595
# Poissons Ratio (y) = 0.29941 0.06303
# Poissons Ratio (z) = 0.10991 0.08766
#
# Static dielectric constant tensor:
#      x y z
#    x 1.788280 0.000000 -0.162360 
#    y 0.000000 48.950290 0.000000 
#    z -0.162360 0.000000 1.316610 
# 
# From -- ./inp_files/73781.got.cif
#   From: 2010.05.17/outbox.cif.g08.bks.cpg/sg12_37_cif.got.tgz:73781.got - 2010.06.03 13:09:07.
