data_PCOD9218948
_publ_section_title
;
Structure prediction by ZEFSAII (Michael W. Deem and Ramdas Pophale) SiO2 
 PCOD9218948
Probable space group: C 2/M
;
_chemical_formula_sum "Si O2"
_cell_formula_units_Z 44
_cell_length_a 8.170048
_cell_length_b 20.101154
_cell_length_c 15.692407
_cell_angle_alpha 90.000000
_cell_angle_beta 64.501230
_cell_angle_gamma 90.000000
_cell_volume 2326.097196
_symmetry_space_group_name_H-M "C 2/M"
_symmetry_group_IT_number 12
_symmetry_cell_setting 'monoclinic'
loop_
_space_group_symop_operation_xyz
x,y,z
-x,y,-z
-x,-y,-z
x,-y,z
1/2+x,1/2+y,z
1/2-x,1/2+y,-z
1/2-x,1/2-y,-z
1/2+x,1/2-y,z
loop_
_atom_site_type_symbol
_atom_site_label
_atom_site_fract_x
_atom_site_fract_y
_atom_site_fract_z
Si Si1 0.666882 0.694651 0.736979
Si Si2 0.694710 0.707570 0.428283
Si Si3 0.133438 0.426511 0.596725
Si Si4 0.781848 0.927877 0.373479
Si Si5 0.655928 0.207763 0.134398
Si Si6 0.500000 0.795887 0.000000
O O1 0.800732 0.740344 0.650228
O O2 0.611569 0.633255 0.689985
O O3 0.496331 0.739829 0.800659
O O4 0.769347 0.670384 0.799221
O O5 0.500000 0.682037 0.500000
O O6 0.750000 0.750000 0.500000
O O7 0.812412 0.643634 0.374702
O O8 0.171977 0.500000 0.626726
O O9 0.242331 0.423702 0.482594
O O10 0.920769 0.424944 0.621291
O O11 0.862581 0.000000 0.336446
O O12 0.831042 0.249578 0.064501
O O13 0.570442 0.170001 0.071689
#
# Coordination Sequence:
#
# PCOD9218948 Si02
#       6
#     8   8   8   8   8   4
#     4  11  19  29  47  76 100 124 168 205 246 277
#     4  12  22  31  46  69 104 140 169 209 244 278
#     4   9  18  32  46  62  91 142 185 208 237 277
#     4   9  17  30  48  66  94 133 177 210 236 278
#     4   9  18  30  51  74 100 119 148 201 248 316
#     4   8  16  34  50  74  96 122 146 182 272 314
#
# _framework density 18.915804999999999
#
# number of rings (size 3 to 8) (size 9 to 14) (size 15 to 20)
#    0.000    2.182    1.818    4.364    0.000    0.364 
#    0.000    0.000    0.000    0.000    0.000   24.182 
#    0.000    0.000    0.000    0.000    0.000    0.000 
#
# Total GULP energy -122507.254577 kJ/mol
# GULP energy per Si atom -5568.511572 kJ/mol
# Density = 1.887275 g / cm^3
# Si number density = 18.915805 Si / 1000 Ang^3
#
#
#
# Elastic Constant Matrix: (Units=GPa)
#
#
# Indices 1 2 3 4 5 6 
#
# 1 40.0929 -7.2620 8.6982 0.0000 1.2848 0.0000
# 2 -7.2620 77.8115 3.4397 0.0000 3.6198 0.0000
# 3 8.6982 3.4397 66.6476 0.0000 2.3222 0.0000
# 4 0.0000 0.0000 0.0000 7.6451 0.0000 2.0707
# 5 1.2848 3.6198 2.3222 0.0000 37.7184 0.0000
# 6 0.0000 0.0000 0.0000 2.0707 0.0000 19.7883
#
#
#
# Elastic Compliance Matrix: (Units=1/GPa)
#
#
# Indices 1 2 3 4 5 6 
#
# 1 0.026216 0.002646 -0.003526 0.000000 -0.000930 0.000000
# 2 0.002646 0.013202 -0.000981 0.000000 -0.001297 0.000000
# 3 -0.003526 -0.000981 0.015541 0.000000 -0.000743 0.000000
# 4 0.000000 0.000000 0.000000 0.134618 0.000000 -0.014087
# 5 -0.000930 -0.001297 -0.000743 0.000000 0.026714 0.000000
# 6 0.000000 0.000000 0.000000 -0.014087 0.000000 0.052009
#
#
# Mechanical properties :
#
#
# Convention : Reuss Voigt Hill
#
# Bulk Modulus (GPa) = 19.51732 21.58931 20.55332
# Shear Modulus (GPa) = 17.29494 25.00876 21.15185
#
# Velocity S-wave (km/s) = 3.02704 3.64003 3.34759
# Velocity P-wave (km/s) = 4.74949 5.39486 5.08243
#
# Compressibility (1/GPa) = 0.05123654
#
# Stress axis : x y z
#
# Youngs Moduli (GPa) = 38.14465 75.74491 64.34616
#
# Poissons Ratio (x) = -0.20041 0.22686
# Poissons Ratio (y) = -0.10092 0.06315
# Poissons Ratio (z) = 0.13448 0.07434
#
# Static dielectric constant tensor:
#      x y z
#    x 1.744520 0.000000 0.046440 
#    y 0.000000 1.675570 0.000000 
#    z 0.046440 0.000000 1.679540 
# 
# From -- ./inp_files/196858.got.cif
#   From: 2010.05.17/outbox.cif.g08.bks.cpg/sg12_99_cif.got.tgz:196858.got - 2010.06.03 13:09:07.
