data_PCOD9218530
_publ_section_title
;
Structure prediction by ZEFSAII (Michael W. Deem and Ramdas Pophale) SiO2 
 PCOD9218530
Probable space group: C 2/M
;
_chemical_formula_sum "Si O2"
_cell_formula_units_Z 40
_cell_length_a 28.993485
_cell_length_b 8.841626
_cell_length_c 8.283901
_cell_angle_alpha 90.000000
_cell_angle_beta 120.573479
_cell_angle_gamma 90.000000
_cell_volume 1828.349818
_symmetry_space_group_name_H-M "C 2/M"
_symmetry_group_IT_number 12
_symmetry_cell_setting 'monoclinic'
loop_
_space_group_symop_operation_xyz
x,y,z
-x,y,-z
-x,-y,-z
x,-y,z
1/2+x,1/2+y,z
1/2-x,1/2+y,-z
1/2-x,1/2-y,-z
1/2+x,1/2-y,z
loop_
_atom_site_type_symbol
_atom_site_label
_atom_site_fract_x
_atom_site_fract_y
_atom_site_fract_z
Si Si1 0.586014 0.678590 0.224149
Si Si2 0.773654 0.169590 0.890259
Si Si3 0.059682 0.823022 0.536199
Si Si4 0.802722 0.671102 0.526412
Si Si5 0.886298 0.680051 0.055300
O O1 0.575919 0.500000 0.186551
O O2 0.559603 0.730736 0.347874
O O3 0.647772 0.718118 0.371012
O O4 0.578619 0.755803 0.034452
O O5 0.719221 0.155583 0.691619
O O6 0.794607 0.000000 0.953366
O O7 0.750000 0.250000 0.000000
O O8 0.824895 0.263764 0.918241
O O9 0.095521 0.740457 0.735938
O O10 0.000000 0.813893 0.500000
O O11 0.076192 0.000000 0.559632
O O12 0.814149 0.500000 0.607287
O O13 0.750000 0.750000 0.500000
O O14 0.889276 0.500000 0.060413
#
# Coordination Sequence:
#
# PCOD9218530 Si02
#       5
#     8   8   8   8   8
#     4  11  23  41  67  96 130 171 217 268 322 384
#     4  11  23  38  59  89 127 169 214 261 313 378
#     4  10  24  47  72  96 125 165 216 274 332 390
#     4  11  22  36  58  88 125 166 208 252 305 371
#     4  12  25  41  65  95 131 171 214 266 323 389
#
# _framework density 21.877651
#
# number of rings (size 3 to 8) (size 9 to 14) (size 15 to 20)
#    0.000    1.000    2.000    4.800    0.000    8.400 
#    0.000    4.000    0.000    0.000    0.000    0.000 
#    0.000    0.000    0.000    0.000    0.000    0.000 
#
# Total GULP energy -111479.413234 kJ/mol
# GULP energy per Si atom -5573.970662 kJ/mol
# Density = 2.182786 g / cm^3
# Si number density = 21.877651 Si / 1000 Ang^3
#
#
#
# Elastic Constant Matrix: (Units=GPa)
#
#
# Indices 1 2 3 4 5 6 
#
# 1 81.3397 4.9218 15.4513 0.0000 -35.1212 0.0000
# 2 4.9218 82.2895 30.4688 0.0000 -20.7529 0.0000
# 3 15.4513 30.4688 74.1632 0.0000 -20.2751 0.0000
# 4 0.0000 0.0000 0.0000 31.8113 0.0000 -8.6394
# 5 -35.1212 -20.7529 -20.2751 0.0000 45.7411 0.0000
# 6 0.0000 0.0000 0.0000 -8.6394 0.0000 16.5524
#
#
#
# Elastic Compliance Matrix: (Units=1/GPa)
#
#
# Indices 1 2 3 4 5 6 
#
# 1 0.019031 0.003168 -0.001000 0.000000 0.015607 0.000000
# 2 0.003168 0.015694 -0.005116 0.000000 0.007285 0.000000
# 3 -0.001000 -0.005116 0.017011 0.000000 0.004451 0.000000
# 4 0.000000 0.000000 0.000000 0.036627 0.000000 0.019117
# 5 0.015607 0.007285 0.004451 0.000000 0.039124 0.000000
# 6 0.000000 0.000000 0.000000 0.019117 0.000000 0.070392
#
#
# Mechanical properties :
#
#
# Convention : Reuss Voigt Hill
#
# Bulk Modulus (GPa) = 21.81498 37.71957 29.76727
# Shear Modulus (GPa) = 22.82523 31.28433 27.05478
#
# Velocity S-wave (km/s) = 3.23354 3.78559 3.52040
# Velocity P-wave (km/s) = 4.89224 6.03210 5.49182
#
# Compressibility (1/GPa) = 0.04584005
#
# Stress axis : x y z
#
# Youngs Moduli (GPa) = 52.54574 63.71731 58.78594
#
# Poissons Ratio (x) = -0.20185 0.05877
# Poissons Ratio (y) = -0.16646 0.30076
# Poissons Ratio (z) = 0.05254 0.32598
#
# Static dielectric constant tensor:
#      x y z
#    x 1.820710 0.000000 -0.100680 
#    y 0.000000 1.878940 0.000000 
#    z -0.100680 0.000000 1.901690 
# 
# From -- ./inp_files/101208.got.cif
#   From: 2010.05.17/outbox.cif.g08.bks.cpg/sg12_51_cif.got.tgz:101208.got - 2010.06.03 13:09:07.
