data_PCOD9218591
_publ_section_title
;
Structure prediction by ZEFSAII (Michael W. Deem and Ramdas Pophale) SiO2 
 PCOD9218591
Probable space group: C 2/M
;
_chemical_formula_sum "Si O2"
_cell_formula_units_Z 40
_cell_length_a 7.048713
_cell_length_b 13.643057
_cell_length_c 18.535235
_cell_angle_alpha 90.000000
_cell_angle_beta 50.843309
_cell_angle_gamma 90.000000
_cell_volume 1382.158158
_symmetry_space_group_name_H-M "C 2/M"
_symmetry_group_IT_number 12
_symmetry_cell_setting 'monoclinic'
loop_
_space_group_symop_operation_xyz
x,y,z
-x,y,-z
-x,-y,-z
x,-y,z
1/2+x,1/2+y,z
1/2-x,1/2+y,-z
1/2-x,1/2-y,-z
1/2+x,1/2-y,z
loop_
_atom_site_type_symbol
_atom_site_label
_atom_site_fract_x
_atom_site_fract_y
_atom_site_fract_z
Si Si1 0.474705 0.193237 0.349669
Si Si2 0.995829 0.883416 0.217120
Si Si3 0.722508 0.391116 0.534844
Si Si4 0.500275 0.117549 0.817468
Si Si5 0.256271 0.616647 0.981099
O O1 0.425032 0.299030 0.397961
O O2 0.743565 0.156378 0.307351
O O3 0.273316 0.125610 0.437516
O O4 0.487373 0.172162 0.261253
O O5 0.240853 0.866719 0.204189
O O6 0.042776 0.847696 0.123824
O O7 0.969043 0.000000 0.219865
O O8 0.623599 0.500000 0.574770
O O9 0.000000 0.386653 0.500000
O O10 0.472386 0.000000 0.811973
O O11 0.291222 0.148902 0.925657
O O12 0.293482 0.500000 0.978294
O O13 0.000000 0.629659 0.000000
#
# Coordination Sequence:
#
# PCOD9218591 Si02
#       5
#     8   8   8   8   8
#     4  11  22  41  75 111 141 191 257 315 377 461
#     4   9  17  32  60 107 165 214 253 307 377 445
#     4  10  24  50  77 103 146 193 242 318 400 454
#     4   9  17  32  60 108 165 212 255 307 370 446
#     4   7  12  25  49  93 161 219 250 296 370 439
#
# _framework density 28.940245999999998
#
# number of rings (size 3 to 8) (size 9 to 14) (size 15 to 20)
#    0.000    2.800    0.000    4.200    0.000    0.800 
#    7.200    6.000    0.000   20.400    0.000    8.400 
#    0.000    4.800    0.000    0.000    0.000    0.000 
#
# Total GULP energy -112245.766034 kJ/mol
# GULP energy per Si atom -5612.288302 kJ/mol
# Density = 2.887438 g / cm^3
# Si number density = 28.940246 Si / 1000 Ang^3
#
#
#
# Elastic Constant Matrix: (Units=GPa)
#
#
# Indices 1 2 3 4 5 6 
#
# 1 111.2875 26.8944 69.9875 -0.0020 -10.7876 0.0005
# 2 26.8944 204.4941 61.9216 -0.0007 -20.4505 0.0002
# 3 69.9875 61.9216 306.4626 -0.0008 -8.2364 0.0007
# 4 -0.0020 -0.0007 -0.0008 136.0792 0.0010 -76.7696
# 5 -10.7876 -20.4505 -8.2364 0.0010 64.7708 -0.0008
# 6 0.0005 0.0002 0.0007 -76.7696 -0.0008 93.2982
#
#
#
# Elastic Compliance Matrix: (Units=1/GPa)
#
#
# Indices 1 2 3 4 5 6 
#
# 1 0.010693 -0.000583 -0.002289 0.000000 0.001306 0.000000
# 2 -0.000583 0.005393 -0.000917 0.000000 0.001489 0.000000
# 3 -0.002289 -0.000917 0.003967 0.000000 -0.000166 0.000000
# 4 0.000000 0.000000 0.000000 0.013716 0.000000 0.011286
# 5 0.001306 0.001489 -0.000166 0.000000 0.016106 0.000000
# 6 0.000000 0.000000 0.000000 0.011286 0.000000 0.020005
#
#
# Mechanical properties :
#
#
# Convention : Reuss Voigt Hill
#
# Bulk Modulus (GPa) = 80.15464 104.42791 92.29128
# Shear Modulus (GPa) = 61.26436 89.72569 75.49503
#
# Velocity S-wave (km/s) = 4.60600 5.57414 5.11304
# Velocity P-wave (km/s) = 7.48623 8.80854 8.17417
#
# Compressibility (1/GPa) = 0.01247588
#
# Stress axis : x y z
#
# Youngs Moduli (GPa) = 93.52182 185.41761 252.10785
#
# Poissons Ratio (x) = 0.10801 0.57710
# Poissons Ratio (y) = 0.05448 0.23110
# Poissons Ratio (z) = 0.21408 0.16997
#
# Static dielectric constant tensor:
#      x y z
#    x 2.295570 0.000000 0.101560 
#    y 0.000000 2.241990 0.000000 
#    z 0.101560 0.000000 2.274620 
# 
# From -- ./inp_files/262328.got.cif
#   From: 2010.05.17/outbox.cif.g08.bks.cpg/sg12_132_cif.got.tgz:262328.got - 2010.06.03 13:09:07.
