data_PCOD9218380
_publ_section_title
;
Structure prediction by ZEFSAII (Michael W. Deem and Ramdas Pophale) SiO2 
 PCOD9218380
Probable space group: C 2/M
;
_chemical_formula_sum "Si O2"
_cell_formula_units_Z 34
_cell_length_a 7.265994
_cell_length_b 25.287239
_cell_length_c 8.977609
_cell_angle_alpha 90.000000
_cell_angle_beta 92.063269
_cell_angle_gamma 90.000000
_cell_volume 1648.448872
_symmetry_space_group_name_H-M "C 2/M"
_symmetry_group_IT_number 12
_symmetry_cell_setting 'monoclinic'
loop_
_space_group_symop_operation_xyz
x,y,z
-x,y,-z
-x,-y,-z
x,-y,z
1/2+x,1/2+y,z
1/2-x,1/2+y,-z
1/2-x,1/2-y,-z
1/2+x,1/2-y,z
loop_
_atom_site_type_symbol
_atom_site_label
_atom_site_fract_x
_atom_site_fract_y
_atom_site_fract_z
Si Si1 0.800242 0.192370 0.059491
Si Si2 0.933261 0.140930 0.335894
Si Si3 0.244034 0.404334 0.867969
Si Si4 0.096607 0.560568 0.341189
Si Si5 0.000000 0.000000 0.000000
O O1 0.827762 0.185660 0.236377
O O2 0.750000 0.250000 0.000000
O O3 0.698721 0.142863 0.982003
O O4 0.000000 0.183172 0.000000
O O5 0.781146 0.094944 0.345030
O O6 0.000000 0.158291 0.500000
O O7 0.110045 0.118491 0.250811
O O8 0.348754 0.453008 0.949532
O O9 0.058437 0.422058 0.780450
O O10 0.149674 0.500000 0.313377
O O11 0.000000 0.564016 0.500000
#
# Coordination Sequence:
#
# PCOD9218380 Si02
#       5
#     8   8   8   8   2
#     4  10  24  45  66  94 127 172 218 272 331 388
#     4  11  23  42  66  94 128 173 215 267 334 385
#     4  11  23  43  64  94 137 171 216 271 324 396
#     4  11  24  37  62  99 133 171 214 267 323 391
#     4  12  20  44  66  92 144 170 216 272 324 394
#
# _framework density 20.625450000000001
#
# number of rings (size 3 to 8) (size 9 to 14) (size 15 to 20)
#    0.000    1.176    7.059    0.000    4.941    0.471 
#    0.000    8.235    0.000    0.000    0.000    0.000 
#    0.000    0.000    0.000    0.000    0.000    0.000 
#
# Total GULP energy -94667.001491 kJ/mol
# GULP energy per Si atom -5568.647147 kJ/mol
# Density = 2.057851 g / cm^3
# Si number density = 20.625450 Si / 1000 Ang^3
#
#
#
# Elastic Constant Matrix: (Units=GPa)
#
#
# Indices 1 2 3 4 5 6 
#
# 1 78.0644 16.6871 39.0062 0.0000 14.6565 0.0000
# 2 16.6871 143.5810 88.2412 0.0000 27.2867 0.0000
# 3 39.0062 88.2412 156.6946 0.0000 39.8986 0.0000
# 4 0.0000 0.0000 0.0000 26.3390 0.0000 11.0003
# 5 14.6565 27.2867 39.8986 0.0000 39.2071 0.0000
# 6 0.0000 0.0000 0.0000 11.0003 0.0000 29.6578
#
#
#
# Elastic Compliance Matrix: (Units=1/GPa)
#
#
# Indices 1 2 3 4 5 6 
#
# 1 0.014883 0.000969 -0.003593 0.000000 -0.002581 0.000000
# 2 0.000969 0.010805 -0.005830 0.000000 -0.001950 0.000000
# 3 -0.003593 -0.005830 0.012396 0.000000 -0.007214 0.000000
# 4 0.000000 0.000000 0.000000 0.044926 0.000000 -0.016663
# 5 -0.002581 -0.001950 -0.007214 0.000000 0.035169 0.000000
# 6 0.000000 0.000000 0.000000 -0.016663 0.000000 0.039899
#
#
# Mechanical properties :
#
#
# Convention : Reuss Voigt Hill
#
# Bulk Modulus (GPa) = 47.22122 74.02322 60.62222
# Shear Modulus (GPa) = 27.46573 34.66781 31.06677
#
# Velocity S-wave (km/s) = 3.65313 4.10424 3.88523
# Velocity P-wave (km/s) = 6.38264 7.64375 7.04148
#
# Compressibility (1/GPa) = 0.02117692
#
# Stress axis : x y z
#
# Youngs Moduli (GPa) = 67.19129 92.54571 80.66926
#
# Poissons Ratio (x) = -0.08970 0.28987
# Poissons Ratio (y) = -0.06513 0.47028
# Poissons Ratio (z) = 0.24144 0.53952
#
# Static dielectric constant tensor:
#      x y z
#    x 1.696680 0.000000 0.024260 
#    y 0.000000 1.424250 0.000000 
#    z 0.024260 0.000000 1.798910 
# 
# From -- ./inp_files/38878.got.cif
#   From: 2010.05.17/outbox.cif.g08.bks.cpg/sg12_20_cif.got.tgz:38878.got - 2010.06.03 13:09:07.
