data_PCOD9218477
_publ_section_title
;
Structure prediction by ZEFSAII (Michael W. Deem and Ramdas Pophale) SiO2 
 PCOD9218477
Probable space group: C 2/M
;
_chemical_formula_sum "Si O2"
_cell_formula_units_Z 56
_cell_length_a 13.850547
_cell_length_b 18.270367
_cell_length_c 21.005498
_cell_angle_alpha 90.000000
_cell_angle_beta 32.383797
_cell_angle_gamma 90.000000
_cell_volume 2846.938056
_symmetry_space_group_name_H-M "C 2/M"
_symmetry_group_IT_number 12
_symmetry_cell_setting 'monoclinic'
loop_
_space_group_symop_operation_xyz
x,y,z
-x,y,-z
-x,-y,-z
x,-y,z
1/2+x,1/2+y,z
1/2-x,1/2+y,-z
1/2-x,1/2-y,-z
1/2+x,1/2-y,z
loop_
_atom_site_type_symbol
_atom_site_label
_atom_site_fract_x
_atom_site_fract_y
_atom_site_fract_z
Si Si1 0.954745 0.582423 0.334141
Si Si2 0.327180 0.581267 0.959191
Si Si3 0.445417 0.658729 0.778854
Si Si4 0.855542 0.707920 0.137411
Si Si5 0.860470 0.116683 0.133457
Si Si6 0.834137 0.411958 0.544717
Si Si7 0.478047 0.180954 0.819295
O O1 0.894437 0.500000 0.351721
O O2 0.169414 0.582315 0.226348
O O3 0.879404 0.603402 0.445401
O O4 0.924765 0.638162 0.292537
O O5 0.259206 0.500000 0.009976
O O6 0.326958 0.602079 0.885743
O O7 0.536215 0.587957 0.862415
O O8 0.211909 0.640213 0.062425
O O9 0.336478 0.674388 0.775166
O O10 0.647788 0.629687 0.661317
O O11 0.444916 0.735841 0.816856
O O12 0.838317 0.795978 0.150142
O O13 0.922791 0.680199 0.168157
O O14 0.000000 0.693565 0.000000
O O15 0.000000 0.098418 0.000000
O O16 0.810010 0.500000 0.564837
O O17 0.000000 0.391547 0.500000
#
# Coordination Sequence:
#
# PCOD9218477 Si02
#       7
#     8   8   8   8   8   8   8
#     4  11  23  41  63  95 134 169 211 278 339 385
#     4  12  23  37  62  96 131 173 218 268 333 394
#     4  12  23  42  68  93 131 176 224 267 326 395
#     4  11  22  40  63  97 136 172 215 263 328 391
#     4  11  20  34  63  96 128 163 210 273 331 394
#     4  10  24  46  70  97 131 172 222 278 332 389
#     4  12  23  40  63  96 136 171 214 273 330 389
#
# _framework density 19.670254
#
# number of rings (size 3 to 8) (size 9 to 14) (size 15 to 20)
#    0.000    0.714    5.714    3.429    0.000    2.286 
#    0.000    4.286    0.000    1.714    0.000    0.000 
#    0.000    0.000    0.000    0.000    0.000    0.000 
#
# Total GULP energy -156460.911347 kJ/mol
# GULP energy per Si atom -5587.889691 kJ/mol
# Density = 1.962548 g / cm^3
# Si number density = 19.670254 Si / 1000 Ang^3
#
#
#
# Elastic Constant Matrix: (Units=GPa)
#
#
# Indices 1 2 3 4 5 6 
#
# 1 136.6200 37.0107 27.6202 0.0021 4.8247 0.0014
# 2 37.0107 72.8697 45.9002 0.0023 2.7571 0.0000
# 3 27.6202 45.9002 93.3695 0.0026 3.2012 -0.0052
# 4 0.0021 0.0023 0.0026 17.4894 -0.0025 -2.3186
# 5 4.8247 2.7571 3.2012 -0.0025 31.8538 -0.0015
# 6 0.0014 0.0000 -0.0052 -2.3186 -0.0015 48.3932
#
#
#
# Elastic Compliance Matrix: (Units=1/GPa)
#
#
# Indices 1 2 3 4 5 6 
#
# 1 0.008533 -0.003954 -0.000550 -0.000001 -0.000895 0.000000
# 2 -0.003954 0.021728 -0.009501 -0.000001 -0.000327 -0.000001
# 3 -0.000550 -0.009501 0.015566 -0.000001 -0.000659 0.000002
# 4 -0.000001 -0.000001 -0.000001 0.057543 0.000005 0.002757
# 5 -0.000895 -0.000327 -0.000659 0.000005 0.031624 0.000001
# 6 0.000000 -0.000001 0.000002 0.002757 0.000001 0.020796
#
#
# Mechanical properties :
#
#
# Convention : Reuss Voigt Hill
#
# Bulk Modulus (GPa) = 56.12140 58.21350 57.16745
# Shear Modulus (GPa) = 26.35202 32.36913 29.36058
#
# Velocity S-wave (km/s) = 3.66415 4.06099 3.86766
# Velocity P-wave (km/s) = 6.81868 7.18664 7.00507
#
# Compressibility (1/GPa) = 0.01781852
#
# Stress axis : x y z
#
# Youngs Moduli (GPa) = 117.18539 46.02332 64.24301
#
# Poissons Ratio (x) = 0.18197 0.03533
# Poissons Ratio (y) = 0.46334 0.61035
# Poissons Ratio (z) = 0.06444 0.43725
#
# Static dielectric constant tensor:
#      x y z
#    x 1.738450 0.000000 0.032150 
#    y 0.000000 1.702340 0.000000 
#    z 0.032150 0.000000 1.698870 
# 
# From -- ./inp_files/311682.got.cif
#   From: 2010.05.17/outbox.cif.g08.bks.cpg/sg12_156_cif.got.tgz:311682.got - 2010.06.03 13:09:07.
