data_PCOD9218444
_publ_section_title
;
Structure prediction by ZEFSAII (Michael W. Deem and Ramdas Pophale) SiO2 
 PCOD9218444
Probable space group: C 2/M
;
_chemical_formula_sum "Si O2"
_cell_formula_units_Z 34
_cell_length_a 13.675392
_cell_length_b 14.648570
_cell_length_c 9.948913
_cell_angle_alpha 90.000000
_cell_angle_beta 53.361296
_cell_angle_gamma 90.000000
_cell_volume 1599.224501
_symmetry_space_group_name_H-M "C 2/M"
_symmetry_group_IT_number 12
_symmetry_cell_setting 'monoclinic'
loop_
_space_group_symop_operation_xyz
x,y,z
-x,y,-z
-x,-y,-z
x,-y,z
1/2+x,1/2+y,z
1/2-x,1/2+y,-z
1/2-x,1/2-y,-z
1/2+x,1/2-y,z
loop_
_atom_site_type_symbol
_atom_site_label
_atom_site_fract_x
_atom_site_fract_y
_atom_site_fract_z
Si Si1 0.388562 0.500000 0.187396
Si Si2 0.193180 0.649409 0.309892
Si Si3 0.305376 0.156436 0.254252
Si Si4 0.879430 0.000000 0.507570
Si Si5 0.000000 0.500000 0.500000
Si Si6 0.574090 0.111062 0.129791
O O1 0.312944 0.588893 0.210833
O O2 0.416554 0.500000 0.321743
O O3 0.500000 0.500000 0.000000
O O4 0.236642 0.747229 0.324089
O O5 0.136732 0.655829 0.207022
O O6 0.098017 0.581678 0.461356
O O7 0.208687 0.084680 0.389090
O O8 0.437715 0.147953 0.216526
O O9 0.343805 0.131124 0.068859
O O10 0.000000 0.000000 0.500000
O O11 0.568431 0.000000 0.160312
#
# Coordination Sequence:
#
# PCOD9218444 Si02
#       6
#     4   8   8   4   2   8
#     4  11  29  48  69 104 145 198 250 305 364 441
#     4  11  26  45  77 100 146 195 250 302 362 447
#     4  11  25  44  72 114 138 194 246 304 371 436
#     4  12  29  45  70 106 157 186 237 313 373 431
#     4  10  24  46  66 100 130 194 240 290 364 414
#     4  11  21  46  78 103 150 194 246 304 366 450
#
# _framework density 21.260304000000001
#
# number of rings (size 3 to 8) (size 9 to 14) (size 15 to 20)
#    0.000    0.941    4.706    1.412   14.824    2.824 
#    0.000    0.000    0.000    0.000    0.000    0.000 
#    0.000    0.000    0.000    0.000    0.000    0.000 
#
# Total GULP energy -94764.811557 kJ/mol
# GULP energy per Si atom -5574.400680 kJ/mol
# Density = 2.121191 g / cm^3
# Si number density = 21.260304 Si / 1000 Ang^3
#
#
#
# Elastic Constant Matrix: (Units=GPa)
#
#
# Indices 1 2 3 4 5 6 
#
# 1 140.7939 39.3137 63.2382 0.0000 -1.4601 0.0000
# 2 39.3137 201.9037 53.2627 0.0000 -33.7278 0.0000
# 3 63.2382 53.2627 138.3107 0.0000 -16.6886 0.0000
# 4 0.0000 0.0000 0.0000 543.0807 0.0000 -644.7372
# 5 -1.4601 -33.7278 -16.6886 0.0000 32.1193 0.0000
# 6 0.0000 0.0000 0.0000 -644.7372 0.0000 805.3240
#
#
#
# Elastic Compliance Matrix: (Units=1/GPa)
#
#
# Indices 1 2 3 4 5 6 
#
# 1 0.009266 -0.001216 -0.004131 0.000000 -0.003002 0.000000
# 2 -0.001216 0.006544 -0.001218 0.000000 0.006184 0.000000
# 3 -0.004131 -0.001218 0.010040 0.000000 0.003750 0.000000
# 4 0.000000 0.000000 0.000000 0.037163 0.000000 0.029753
# 5 -0.003002 0.006184 0.003750 0.000000 0.039439 0.000000
# 6 0.000000 0.000000 0.000000 0.029753 0.000000 0.025062
#
#
# Mechanical properties :
#
#
# Convention : Reuss Voigt Hill
#
# Bulk Modulus (GPa) = 78.60928 88.07083 83.34005
# Shear Modulus (GPa) = 34.51040 297.78439 166.14739
#
# Velocity S-wave (km/s) = 4.03331 11.84778 8.84979
# Velocity P-wave (km/s) = 7.66453 15.12200 11.98791
#
# Compressibility (1/GPa) = 0.01272114
#
# Stress axis : x y z
#
# Youngs Moduli (GPa) = 107.91785 152.81452 99.59980
#
# Poissons Ratio (x) = 0.18584 0.41141
# Poissons Ratio (y) = 0.13124 0.12130
# Poissons Ratio (z) = 0.44577 0.18611
#
# Static dielectric constant tensor:
#      x y z
#    x 1.792850 0.000000 0.339240 
#    y 0.000000 1.729270 0.000000 
#    z 0.339240 0.000000 4.448860 
# 
# From -- ./inp_files/143491.got.cif
#   From: 2010.05.17/outbox.cif.g08.bks.cpg/sg12_72_cif.got.tgz:143491.got - 2010.06.03 13:09:07.
