data_PCOD9218566
_publ_section_title
;
Structure prediction by ZEFSAII (Michael W. Deem and Ramdas Pophale) SiO2 
 PCOD9218566
Probable space group: C 2/M
;
_chemical_formula_sum "Si O2"
_cell_formula_units_Z 26
_cell_length_a 12.922515
_cell_length_b 18.827324
_cell_length_c 5.132083
_cell_angle_alpha 90.000000
_cell_angle_beta 116.644959
_cell_angle_gamma 90.000000
_cell_volume 1116.017315
_symmetry_space_group_name_H-M "C 2/M"
_symmetry_group_IT_number 12
_symmetry_cell_setting 'monoclinic'
loop_
_space_group_symop_operation_xyz
x,y,z
-x,y,-z
-x,-y,-z
x,-y,z
1/2+x,1/2+y,z
1/2-x,1/2+y,-z
1/2-x,1/2-y,-z
1/2+x,1/2-y,z
loop_
_atom_site_type_symbol
_atom_site_label
_atom_site_fract_x
_atom_site_fract_y
_atom_site_fract_z
Si Si1 0.919450 0.500000 0.158754
Si Si2 0.131640 0.860346 0.410186
Si Si3 0.212570 0.355464 0.922884
Si Si4 0.500000 0.500000 0.500000
Si Si5 0.000000 0.257716 0.500000
O O1 0.840395 0.431738 0.077193
O O2 0.000000 0.500000 0.500000
O O3 0.000000 0.500000 0.000000
O O4 0.197051 0.863500 0.210802
O O5 0.040292 0.796545 0.321649
O O6 0.222575 0.836392 0.737699
O O7 0.073563 0.935609 0.426738
O O8 0.106206 0.305852 0.717554
#
# Coordination Sequence:
#
# PCOD9218566 Si02
#       5
#     4   8   8   2   4
#     4  12  24  43  68  97 130 177 220 284 340 391
#     4  11  26  44  70 103 133 185 227 280 339 404
#     4  12  25  45  69 101 138 178 232 278 342 404
#     4  10  24  48  72  98 138 174 234 282 334 398
#     4  11  26  44  70  99 148 178 226 283 340 408
#
# _framework density 23.297129000000002
#
# number of rings (size 3 to 8) (size 9 to 14) (size 15 to 20)
#    0.000    0.615    1.538    5.538    0.000    8.615 
#    0.000    0.000    0.000    0.000    0.000    0.000 
#    0.000    0.000    0.000    0.000    0.000    0.000 
#
# Total GULP energy -72607.949298 kJ/mol
# GULP energy per Si atom -5585.226869 kJ/mol
# Density = 2.324410 g / cm^3
# Si number density = 23.297129 Si / 1000 Ang^3
#
#
#
# Elastic Constant Matrix: (Units=GPa)
#
#
# Indices 1 2 3 4 5 6 
#
# 1 167.0650 73.4737 44.8269 0.0000 -33.1261 0.0000
# 2 73.4737 201.6550 10.2942 0.0000 7.2421 0.0000
# 3 44.8269 10.2942 126.0136 0.0000 -13.5994 0.0000
# 4 0.0000 0.0000 0.0000 9.4933 0.0000 21.8673
# 5 -33.1261 7.2421 -13.5994 0.0000 45.5455 0.0000
# 6 0.0000 0.0000 0.0000 21.8673 0.0000 71.4638
#
#
#
# Elastic Compliance Matrix: (Units=1/GPa)
#
#
# Indices 1 2 3 4 5 6 
#
# 1 0.009560 -0.003607 -0.002370 0.000000 0.006819 0.000000
# 2 -0.003607 0.006380 0.000382 0.000000 -0.003524 0.000000
# 3 -0.002370 0.000382 0.008840 0.000000 0.000855 0.000000
# 4 0.000000 0.000000 0.000000 0.356874 0.000000 -0.109200
# 5 0.006819 -0.003524 0.000855 0.000000 0.027731 0.000000
# 6 0.000000 0.000000 0.000000 -0.109200 0.000000 0.047407
#
#
# Mechanical properties :
#
#
# Convention : Reuss Voigt Hill
#
# Bulk Modulus (GPa) = 73.58977 83.54701 78.56839
# Shear Modulus (GPa) = 10.58168 49.70979 30.14573
#
# Velocity S-wave (km/s) = 2.13352 4.62424 3.60108
# Velocity P-wave (km/s) = 6.14209 8.02813 7.14759
#
# Compressibility (1/GPa) = 0.01358884
#
# Stress axis : x y z
#
# Youngs Moduli (GPa) = 104.60009 156.73142 113.12339
#
# Poissons Ratio (x) = 0.56536 0.26813
# Poissons Ratio (y) = 0.37731 -0.04317
# Poissons Ratio (z) = 0.24793 -0.05982
#
# Static dielectric constant tensor:
#      x y z
#    x 1.911940 0.000000 0.061240 
#    y 0.000000 1.745580 0.000000 
#    z 0.061240 0.000000 1.907020 
# 
# From -- ./inp_files/5823.got.cif
#   From: 2010.05.17/outbox.cif.g08.bks.cpg/sg12_3_cif.got.tgz:5823.got - 2010.06.03 13:09:07.
