data_PCOD9218399
_publ_section_title
;
Structure prediction by ZEFSAII (Michael W. Deem and Ramdas Pophale) SiO2 
 PCOD9218399
Probable space group: C 2/M
;
_chemical_formula_sum "Si O2"
_cell_formula_units_Z 48
_cell_length_a 13.927420
_cell_length_b 18.472919
_cell_length_c 10.814330
_cell_angle_alpha 90.000000
_cell_angle_beta 39.780311
_cell_angle_gamma 90.000000
_cell_volume 1780.250180
_symmetry_space_group_name_H-M "C 2/M"
_symmetry_group_IT_number 12
_symmetry_cell_setting 'monoclinic'
loop_
_space_group_symop_operation_xyz
x,y,z
-x,y,-z
-x,-y,-z
x,-y,z
1/2+x,1/2+y,z
1/2-x,1/2+y,-z
1/2-x,1/2-y,-z
1/2+x,1/2-y,z
loop_
_atom_site_type_symbol
_atom_site_label
_atom_site_fract_x
_atom_site_fract_y
_atom_site_fract_z
Si Si1 0.100597 0.874268 0.026187
Si Si2 0.335820 0.219239 0.100292
Si Si3 0.829235 0.080677 0.418869
Si Si4 0.160171 0.703497 0.486809
Si Si5 0.823749 0.916362 0.702621
Si Si6 0.563190 0.919227 0.298723
O O1 0.126439 0.788482 0.020228
O O2 0.259103 0.912447 0.867284
O O3 0.000000 0.884306 0.000000
O O4 0.005107 0.904437 0.235048
O O5 0.199934 0.251722 0.324005
O O6 0.267042 0.142595 0.129997
O O7 0.500000 0.205617 0.000000
O O8 0.760261 0.132362 0.386974
O O9 0.762605 0.092155 0.620733
O O10 0.803510 0.000000 0.406875
O O11 0.250000 0.750000 0.500000
O O12 0.005518 0.661067 0.674618
O O13 0.000000 0.904065 0.500000
O O14 0.803298 0.000000 0.759295
O O15 0.500000 0.922116 0.500000
O O16 0.528546 0.000000 0.275336
#
# Coordination Sequence:
#
# PCOD9218399 Si02
#       6
#     8   8   8   8   8   8
#     4  11  22  40  66 102 142 174 215 280 354 421
#     4  11  22  40  65  95 129 167 221 272 338 408
#     4  11  22  41  66  94 132 178 220 269 339 408
#     4  12  23  41  62  95 136 180 228 277 335 405
#     4  10  24  45  68  91 124 177 232 282 330 391
#     4  11  23  39  64  98 136 185 232 279 347 420
#
# _framework density 26.962503000000002
#
# number of rings (size 3 to 8) (size 9 to 14) (size 15 to 20)
#    0.000    1.000    6.667    1.000    2.333    3.000 
#    3.000    1.667    0.000    0.000    0.000    0.000 
#    0.000    0.000    0.000    0.000    0.000    0.000 
#
# Total GULP energy -133984.799899 kJ/mol
# GULP energy per Si atom -5582.699996 kJ/mol
# Density = 2.690113 g / cm^3
# Si number density = 26.962503 Si / 1000 Ang^3
#
#
#
# Elastic Constant Matrix: (Units=GPa)
#
#
# Indices 1 2 3 4 5 6 
#
# 1 68.0903 48.2879 38.1908 0.0001 -14.3757 0.0000
# 2 48.2879 203.2600 40.7502 0.0001 -24.9822 0.0003
# 3 38.1908 40.7502 128.9293 -0.0005 -25.1088 0.0006
# 4 0.0001 0.0001 -0.0005 40.1575 0.0000 -4.1448
# 5 -14.3757 -24.9822 -25.1088 0.0000 47.1091 -0.0001
# 6 0.0000 0.0003 0.0006 -4.1448 -0.0001 4.4497
#
#
#
# Elastic Compliance Matrix: (Units=1/GPa)
#
#
# Indices 1 2 3 4 5 6 
#
# 1 0.020181 -0.003675 -0.004459 0.000000 0.001833 0.000001
# 2 -0.003675 0.006119 -0.000482 0.000000 0.001867 0.000000
# 3 -0.004459 -0.000482 0.009947 0.000000 0.003685 -0.000001
# 4 0.000000 0.000000 0.000000 0.027551 0.000000 0.025663
# 5 0.001833 0.001867 0.003685 0.000000 0.024741 0.000000
# 6 0.000001 0.000000 -0.000001 0.025663 0.000000 0.248640
#
#
# Mechanical properties :
#
#
# Convention : Reuss Voigt Hill
#
# Bulk Modulus (GPa) = 52.59214 72.74858 62.67036
# Shear Modulus (GPa) = 13.86006 36.54665 25.20336
#
# Velocity S-wave (km/s) = 2.26973 3.68565 3.06069
# Velocity P-wave (km/s) = 5.13974 6.71953 5.98201
#
# Compressibility (1/GPa) = 0.01901425
#
# Stress axis : x y z
#
# Youngs Moduli (GPa) = 49.55226 163.42827 100.53122
#
# Poissons Ratio (x) = 0.60060 0.44831
# Poissons Ratio (y) = 0.18210 0.04844
# Poissons Ratio (z) = 0.22097 0.07875
#
# Static dielectric constant tensor:
#      x y z
#    x 2.373000 0.000000 0.608560 
#    y 0.000000 2.428580 0.000040 
#    z 0.608560 0.000040 6.478380 
# 
# From -- ./inp_files/75448.got.cif
#   From: 2010.05.17/outbox.cif.g08.bks.cpg/sg12_38_cif.got.tgz:75448.got - 2010.06.03 13:09:07.
