data_PCOD9218772
_publ_section_title
;
Structure prediction by ZEFSAII (Michael W. Deem and Ramdas Pophale) SiO2 
 PCOD9218772
Probable space group: C 2/M
;
_chemical_formula_sum "Si O2"
_cell_formula_units_Z 28
_cell_length_a 7.483384
_cell_length_b 23.538964
_cell_length_c 8.096725
_cell_angle_alpha 90.000000
_cell_angle_beta 56.442635
_cell_angle_gamma 90.000000
_cell_volume 1188.538464
_symmetry_space_group_name_H-M "C 2/M"
_symmetry_group_IT_number 12
_symmetry_cell_setting 'monoclinic'
loop_
_space_group_symop_operation_xyz
x,y,z
-x,y,-z
-x,-y,-z
x,-y,z
1/2+x,1/2+y,z
1/2-x,1/2+y,-z
1/2-x,1/2-y,-z
1/2+x,1/2-y,z
loop_
_atom_site_type_symbol
_atom_site_label
_atom_site_fract_x
_atom_site_fract_y
_atom_site_fract_z
Si Si1 0.500000 0.785979 0.500000
Si Si2 0.533078 0.293459 0.806853
Si Si3 0.164047 0.000000 0.274981
Si Si4 0.722310 0.100238 0.989800
Si Si5 0.087517 0.500000 0.271391
O O1 0.496463 0.747003 0.336644
O O2 0.273486 0.817316 0.644277
O O3 0.356342 0.342253 0.921141
O O4 0.500000 0.261303 0.000000
O O5 0.137466 0.943794 0.185735
O O6 0.398644 0.000000 0.232560
O O7 0.000000 0.000000 0.500000
O O8 0.500000 0.109235 0.000000
O O9 0.692246 0.061380 0.170406
O O10 0.000000 0.500000 0.500000
#
# Coordination Sequence:
#
# PCOD9218772 Si02
#       5
#     4   8   4   8   4
#     4  10  26  48  72  96 134 190 222 296 354 398
#     4  11  24  46  71 100 137 177 237 282 349 410
#     4   9  19  37  62  93 138 177 214 268 341 398
#     4   9  21  41  66  99 138 179 218 281 337 406
#     4   9  19  41  66  98 142 176 222 269 338 410
#
# _framework density 23.558344999999999
#
# number of rings (size 3 to 8) (size 9 to 14) (size 15 to 20)
#    0.000    2.286    0.000    2.571    2.000    8.000 
#   12.857    2.857    0.000    2.571    0.000    0.000 
#    0.000    0.000    0.000    0.000    0.000    0.000 
#
# Total GULP energy -78036.683579 kJ/mol
# GULP energy per Si atom -5574.048827 kJ/mol
# Density = 2.350472 g / cm^3
# Si number density = 23.558345 Si / 1000 Ang^3
#
#
#
# Elastic Constant Matrix: (Units=GPa)
#
#
# Indices 1 2 3 4 5 6 
#
# 1 87.3916 46.5684 50.2311 0.0000 -7.8895 0.0000
# 2 46.5684 113.6077 65.4878 0.0000 -0.8612 0.0000
# 3 50.2311 65.4878 221.7871 0.0000 17.5063 0.0000
# 4 0.0000 0.0000 0.0000 78.4521 0.0000 -73.6134
# 5 -7.8895 -0.8612 17.5063 0.0000 54.7994 0.0000
# 6 0.0000 0.0000 0.0000 -73.6134 0.0000 77.2653
#
#
#
# Elastic Compliance Matrix: (Units=1/GPa)
#
#
# Indices 1 2 3 4 5 6 
#
# 1 0.015745 -0.005114 -0.002286 0.000000 0.002917 0.000000
# 2 -0.005114 0.012346 -0.002508 0.000000 0.000259 0.000000
# 3 -0.002286 -0.002508 0.005946 0.000000 -0.002268 0.000000
# 4 0.000000 0.000000 0.000000 0.120220 0.000000 0.114538
# 5 0.002917 0.000259 -0.002268 0.000000 0.019397 0.000000
# 6 0.000000 0.000000 0.000000 0.114538 0.000000 0.122067
#
#
# Mechanical properties :
#
#
# Convention : Reuss Voigt Hill
#
# Bulk Modulus (GPa) = 70.31620 83.04011 76.67816
# Shear Modulus (GPa) = 15.61148 59.46997 37.54072
#
# Velocity S-wave (km/s) = 2.57704 5.02976 3.99622
# Velocity P-wave (km/s) = 6.22634 8.31003 7.34247
#
# Compressibility (1/GPa) = 0.01422147
#
# Stress axis : x y z
#
# Youngs Moduli (GPa) = 63.51101 80.99813 168.17813
#
# Poissons Ratio (x) = 0.41423 0.38449
# Poissons Ratio (y) = 0.32480 0.42172
# Poissons Ratio (z) = 0.14520 0.20311
#
# Static dielectric constant tensor:
#      x y z
#    x 2.057360 0.000000 0.013830 
#    y 0.000000 1.882560 0.000000 
#    z 0.013830 0.000000 1.844000 
# 
# From -- ./inp_files/37951.got.cif
#   From: 2010.05.17/outbox.cif.g08.bks.cpg/sg12_19_cif.got.tgz:37951.got - 2010.06.03 13:09:07.
