data_PCOD9218776
_publ_section_title
;
Structure prediction by ZEFSAII (Michael W. Deem and Ramdas Pophale) SiO2 
 PCOD9218776
Probable space group: C 2/M
;
_chemical_formula_sum "Si O2"
_cell_formula_units_Z 30
_cell_length_a 10.048005
_cell_length_b 26.659358
_cell_length_c 5.320332
_cell_angle_alpha 90.000000
_cell_angle_beta 96.757886
_cell_angle_gamma 90.000000
_cell_volume 1415.273490
_symmetry_space_group_name_H-M "C 2/M"
_symmetry_group_IT_number 12
_symmetry_cell_setting 'monoclinic'
loop_
_space_group_symop_operation_xyz
x,y,z
-x,y,-z
-x,-y,-z
x,-y,z
1/2+x,1/2+y,z
1/2-x,1/2+y,-z
1/2-x,1/2-y,-z
1/2+x,1/2-y,z
loop_
_atom_site_type_symbol
_atom_site_label
_atom_site_fract_x
_atom_site_fract_y
_atom_site_fract_z
Si Si1 0.165921 0.260556 0.236411
Si Si2 0.083719 0.623645 0.264983
Si Si3 0.000000 0.000000 0.000000
Si Si4 0.500000 0.679426 0.000000
Si Si5 0.620268 0.594546 0.730983
O O1 0.250000 0.250000 0.500000
O O2 0.110861 0.316810 0.232928
O O3 0.053161 0.217767 0.216631
O O4 0.250000 0.250000 0.000000
O O5 0.227864 0.596650 0.331506
O O6 0.000000 0.616828 0.500000
O O7 0.000000 0.606496 0.000000
O O8 0.914791 0.044131 0.129370
O O9 0.389913 0.642017 0.084506
O O10 0.500000 0.600586 0.500000
#
# Coordination Sequence:
#
# PCOD9218776 Si02
#       5
#     8   8   2   4   8
#     4  12  24  40  62 100 147 198 243 282 339 417
#     4  12  27  45  70 108 155 193 237 300 368 429
#     4  10  26  48  84 104 136 172 264 302 384 436
#     4  11  24  39  68 102 140 197 252 287 340 424
#     4  11  25  48  77 103 139 190 247 308 365 443
#
# _framework density 21.197315
#
# number of rings (size 3 to 8) (size 9 to 14) (size 15 to 20)
#    0.000    0.533    4.000    3.600    7.467    0.000 
#    0.000    1.333    0.000    0.000    0.000    0.000 
#    0.000    0.000    0.000    0.000    0.000    0.000 
#
# Total GULP energy -83610.406150 kJ/mol
# GULP energy per Si atom -5574.027077 kJ/mol
# Density = 2.114907 g / cm^3
# Si number density = 21.197315 Si / 1000 Ang^3
#
#
#
# Elastic Constant Matrix: (Units=GPa)
#
#
# Indices 1 2 3 4 5 6 
#
# 1 165.3103 55.2257 81.4999 0.0000 -17.4008 0.0000
# 2 55.2257 141.5392 27.8924 0.0000 -5.2289 0.0000
# 3 81.4999 27.8924 140.9249 0.0000 -4.4275 0.0000
# 4 0.0000 0.0000 0.0000 0.2353 0.0000 -6.2642
# 5 -17.4008 -5.2289 -4.4275 0.0000 58.9571 0.0000
# 6 0.0000 0.0000 0.0000 -6.2642 0.0000 0.2977
#
#
#
# Elastic Compliance Matrix: (Units=1/GPa)
#
#
# Indices 1 2 3 4 5 6 
#
# 1 0.009635 -0.002698 -0.004968 0.000000 0.002231 0.000000
# 2 -0.002698 0.008125 -0.000050 0.000000 -0.000079 0.000000
# 3 -0.004968 -0.000050 0.009956 0.000000 -0.000723 0.000000
# 4 0.000000 0.000000 0.000000 -0.007601 0.000000 -0.159923
# 5 0.002231 -0.000079 -0.000723 0.000000 0.017559 0.000000
# 6 0.000000 0.000000 0.000000 -0.159923 0.000000 -0.006007
#
#
# Mechanical properties :
#
#
# Convention : Reuss Voigt Hill
#
# Bulk Modulus (GPa) = 81.40947 86.33448 83.87197
# Shear Modulus (GPa) = 97.66935 30.77511 64.22223
#
# Velocity S-wave (km/s) = 6.79532 3.81444 5.51027
# Velocity P-wave (km/s) = 10.00287 7.75998 8.95194
#
# Compressibility (1/GPa) = 0.01228358
#
# Stress axis : x y z
#
# Youngs Moduli (GPa) = 103.79338 123.07993 100.43975
#
# Poissons Ratio (x) = 0.33204 0.49896
# Poissons Ratio (y) = 0.28001 0.00506
# Poissons Ratio (z) = 0.51562 0.00620
#
# Static dielectric constant tensor:
#      x y z
#    x 1.628500 0.000000 -0.271310 
#    y 0.000000 1.679940 0.000000 
#    z -0.271310 0.000000 1.472840 
# 
# From -- ./inp_files/3572.got.cif
#   From: 2010.05.17/outbox.cif.g08.bks.cpg/sg12_2_cif.got.tgz:3572.got - 2010.06.03 13:09:07.
