data_PCOD9218955
_publ_section_title
;
Structure prediction by ZEFSAII (Michael W. Deem and Ramdas Pophale) SiO2 
 PCOD9218955
Probable space group: C 2/M
;
_chemical_formula_sum "Si O2"
_cell_formula_units_Z 64
_cell_length_a 17.867773
_cell_length_b 31.990768
_cell_length_c 12.396683
_cell_angle_alpha 90.000000
_cell_angle_beta 147.084446
_cell_angle_gamma 90.000000
_cell_volume 3850.544164
_symmetry_space_group_name_H-M "C 2/M"
_symmetry_group_IT_number 12
_symmetry_cell_setting 'monoclinic'
loop_
_space_group_symop_operation_xyz
x,y,z
-x,y,-z
-x,-y,-z
x,-y,z
1/2+x,1/2+y,z
1/2-x,1/2+y,-z
1/2-x,1/2-y,-z
1/2+x,1/2-y,z
loop_
_atom_site_type_symbol
_atom_site_label
_atom_site_fract_x
_atom_site_fract_y
_atom_site_fract_z
Si Si1 0.110562 0.230132 0.552118
Si Si2 0.740254 0.368059 0.347021
Si Si3 0.983653 0.315432 0.304514
Si Si4 0.645349 0.046261 0.530825
Si Si5 0.827079 0.453014 0.174648
Si Si6 0.956454 0.814547 0.739588
Si Si7 0.281007 0.635627 0.934419
Si Si8 0.918277 0.730579 0.007334
O O1 0.040273 0.273688 0.430644
O O2 0.126411 0.203055 0.462940
O O3 0.000000 0.210347 0.500000
O O4 0.257875 0.236712 0.785357
O O5 0.889300 0.347026 0.541108
O O6 0.761848 0.416627 0.401714
O O7 0.635169 0.342813 0.293387
O O8 0.699699 0.365706 0.171939
O O9 0.855653 0.337291 0.208235
O O10 0.937827 0.301136 0.129972
O O11 0.659844 0.047042 0.678849
O O12 0.481727 0.052486 0.315413
O O13 0.683915 0.000000 0.539687
O O14 0.778493 0.500000 0.085590
O O15 0.740643 0.411307 0.047152
O O16 0.015230 0.774503 0.874916
O O17 0.087564 0.840960 0.859226
O O18 0.000000 0.716476 0.000000
#
# Coordination Sequence:
#
# PCOD9218955 Si02
#       8
#     8   8   8   8   8   8   8   8
#     4  11  22  37  52  68  96 130 165 209 249 280
#     4  11  19  31  49  74 104 133 159 199 242 287
#     4  11  21  32  53  74  91 125 177 204 235 289
#     4   8  14  26  45  70  99 131 160 189 234 286
#     4   8  14  26  45  70  99 130 160 192 233 282
#     4  11  23  34  49  72  99 131 166 200 244 297
#     4  11  19  31  49  74 102 131 164 202 233 284
#     4  11  22  37  50  68  98 132 163 208 250 285
#
# _framework density 16.621027999999999
#
# number of rings (size 3 to 8) (size 9 to 14) (size 15 to 20)
#    0.000    1.750    1.250    6.750    0.000    4.000 
#    0.000    0.625    0.000    3.000    0.000    0.000 
#    0.000   20.000    0.000    0.000    0.000    0.000 
#
# Total GULP energy -178572.905293 kJ/mol
# GULP energy per Si atom -5580.403290 kJ/mol
# Density = 1.658320 g / cm^3
# Si number density = 16.621028 Si / 1000 Ang^3
#
#
#
# Elastic Constant Matrix: (Units=GPa)
#
#
# Indices 1 2 3 4 5 6 
#
# 1 52.3921 13.3650 12.4310 0.0000 2.2282 0.0000
# 2 13.3650 83.2556 -0.3191 0.0000 -6.9544 0.0000
# 3 12.4310 -0.3191 40.0087 0.0000 -9.9630 0.0000
# 4 0.0000 0.0000 0.0000 6.7727 0.0000 -2.4144
# 5 2.2282 -6.9544 -9.9630 0.0000 20.9870 0.0000
# 6 0.0000 0.0000 0.0000 -2.4144 0.0000 15.4106
#
#
#
# Elastic Compliance Matrix: (Units=1/GPa)
#
#
# Indices 1 2 3 4 5 6 
#
# 1 0.022716 -0.004366 -0.009133 0.000000 -0.008194 0.000000
# 2 -0.004366 0.013249 0.003029 0.000000 0.006292 0.000000
# 3 -0.009133 0.003029 0.032148 0.000000 0.017235 0.000000
# 4 0.000000 0.000000 0.000000 0.156387 0.000000 0.024502
# 5 -0.008194 0.006292 0.017235 0.000000 0.058785 0.000000
# 6 0.000000 0.000000 0.000000 0.024502 0.000000 0.068729
#
#
# Mechanical properties :
#
#
# Convention : Reuss Voigt Hill
#
# Bulk Modulus (GPa) = 21.19865 25.17890 23.18877
# Shear Modulus (GPa) = 12.86404 18.64602 15.75503
#
# Velocity S-wave (km/s) = 2.78504 3.35301 3.08213
# Velocity P-wave (km/s) = 4.80871 5.49290 5.16215
#
# Compressibility (1/GPa) = 0.04717282
#
# Stress axis : x y z
#
# Youngs Moduli (GPa) = 44.02141 75.47582 31.10577
#
# Poissons Ratio (x) = 0.32954 0.28410
# Poissons Ratio (y) = 0.19220 -0.09422
# Poissons Ratio (z) = 0.40207 -0.22862
#
# Static dielectric constant tensor:
#      x y z
#    x 1.564930 0.000000 0.001180 
#    y 0.000000 1.589560 0.000000 
#    z 0.001180 0.000000 1.551420 
# 
# From -- ./inp_files/161259.got.cif
#   From: 2010.05.17/outbox.cif.g08.bks.cpg/sg12_81_cif.got.tgz:161259.got - 2010.06.03 13:09:07.
