data_PCOD9218675
_publ_section_title
;
Structure prediction by ZEFSAII (Michael W. Deem and Ramdas Pophale) SiO2 
 PCOD9218675
Probable space group: C 2/M
;
_chemical_formula_sum "Si O2"
_cell_formula_units_Z 44
_cell_length_a 21.903058
_cell_length_b 16.832403
_cell_length_c 13.399701
_cell_angle_alpha 90.000000
_cell_angle_beta 22.946623
_cell_angle_gamma 90.000000
_cell_volume 1926.059064
_symmetry_space_group_name_H-M "C 2/M"
_symmetry_group_IT_number 12
_symmetry_cell_setting 'monoclinic'
loop_
_space_group_symop_operation_xyz
x,y,z
-x,y,-z
-x,-y,-z
x,-y,z
1/2+x,1/2+y,z
1/2-x,1/2+y,-z
1/2-x,1/2-y,-z
1/2+x,1/2-y,z
loop_
_atom_site_type_symbol
_atom_site_label
_atom_site_fract_x
_atom_site_fract_y
_atom_site_fract_z
Si Si1 0.500000 0.331659 0.000000
Si Si2 0.320916 0.590319 0.638471
Si Si3 0.828548 0.909420 0.868047
Si Si4 0.332878 0.905375 0.539856
Si Si5 0.166157 0.694608 0.259808
Si Si6 0.064270 0.701157 0.058624
O O1 0.345416 0.384829 0.222798
O O2 0.483390 0.270897 0.117915
O O3 0.297764 0.500000 0.638339
O O4 0.499761 0.614569 0.348719
O O5 0.318839 0.588722 0.763102
O O6 0.181911 0.647383 0.813677
O O7 0.804008 0.000000 0.938194
O O8 0.701969 0.853741 0.107036
O O9 0.346303 0.867033 0.629837
O O10 0.448835 0.856243 0.292553
O O11 0.364004 0.000000 0.491504
O O12 0.000000 0.737863 0.500000
O O13 0.309283 0.752520 0.064376
#
# Coordination Sequence:
#
# PCOD9218675 Si02
#       6
#     4   8   8   8   8   8
#     4  10  25  46  67  94 122 162 216 270 321 366
#     4   9  19  36  60  88 124 167 206 253 308 367
#     4   9  19  36  58  88 129 169 208 248 300 374
#     4  11  24  45  69  93 126 168 210 261 318 380
#     4  11  25  37  62  97 134 167 207 252 310 379
#     4  11  24  41  67  90 128 164 213 262 315 371
#
# _framework density 22.844574999999999
#
# number of rings (size 3 to 8) (size 9 to 14) (size 15 to 20)
#    0.000    1.818    0.000    4.091    7.636    4.364 
#    0.000    1.818    0.000    0.000    0.000    0.000 
#    0.000    0.000    0.000    0.000    0.000    0.000 
#
# Total GULP energy -123046.740067 kJ/mol
# GULP energy per Si atom -5593.033639 kJ/mol
# Density = 2.279258 g / cm^3
# Si number density = 22.844575 Si / 1000 Ang^3
#
#
#
# Elastic Constant Matrix: (Units=GPa)
#
#
# Indices 1 2 3 4 5 6 
#
# 1 45.3613 23.0780 19.7084 -0.0001 -7.1721 0.0001
# 2 23.0780 135.0042 48.0187 0.0003 6.5996 0.0003
# 3 19.7084 48.0187 100.3813 -0.0003 -8.7759 0.0002
# 4 -0.0001 0.0003 -0.0003 29.2731 -0.0001 -14.6530
# 5 -7.1721 6.5996 -8.7759 -0.0001 25.5066 0.0001
# 6 0.0001 0.0003 0.0002 -14.6530 0.0001 24.6977
#
#
#
# Elastic Compliance Matrix: (Units=1/GPa)
#
#
# Indices 1 2 3 4 5 6 
#
# 1 0.026387 -0.003941 -0.002637 0.000000 0.007532 0.000000
# 2 -0.003941 0.009906 -0.004419 0.000000 -0.005192 0.000000
# 3 -0.002637 -0.004419 0.013020 0.000000 0.004882 0.000000
# 4 0.000000 0.000000 0.000000 0.048592 0.000000 0.028829
# 5 0.007532 -0.005192 0.004882 0.000000 0.044346 0.000000
# 6 0.000000 0.000000 0.000000 0.028829 0.000000 0.057594
#
#
# Mechanical properties :
#
#
# Convention : Reuss Voigt Hill
#
# Bulk Modulus (GPa) = 36.60344 51.37298 43.98821
# Shear Modulus (GPa) = 21.65011 28.55828 25.10420
#
# Velocity S-wave (km/s) = 3.08184 3.53953 3.31858
# Velocity P-wave (km/s) = 5.35922 6.26428 5.82934
#
# Compressibility (1/GPa) = 0.02731984
#
# Stress axis : x y z
#
# Youngs Moduli (GPa) = 37.89777 100.94483 76.80235
#
# Poissons Ratio (x) = 0.39781 0.20253
# Poissons Ratio (y) = 0.14935 0.33939
# Poissons Ratio (z) = 0.09994 0.44608
#
# Static dielectric constant tensor:
#      x y z
#    x 1.865590 0.000000 -0.017600 
#    y 0.000000 1.875440 0.000000 
#    z -0.017600 0.000000 1.864700 
# 
# From -- ./inp_files/241403.got.cif
#   From: 2010.05.17/outbox.cif.g08.bks.cpg/sg12_121_cif.got.tgz:241403.got - 2010.06.03 13:09:07.
