data_PCOD9218751
_publ_section_title
;
Structure prediction by ZEFSAII (Michael W. Deem and Ramdas Pophale) SiO2 
 PCOD9218751
Probable space group: C 2/M
;
_chemical_formula_sum "Si O2"
_cell_formula_units_Z 38
_cell_length_a 14.813990
_cell_length_b 13.995981
_cell_length_c 8.597360
_cell_angle_alpha 90.000000
_cell_angle_beta 67.191864
_cell_angle_gamma 90.000000
_cell_volume 1643.164452
_symmetry_space_group_name_H-M "C 2/M"
_symmetry_group_IT_number 12
_symmetry_cell_setting 'monoclinic'
loop_
_space_group_symop_operation_xyz
x,y,z
-x,y,-z
-x,-y,-z
x,-y,z
1/2+x,1/2+y,z
1/2-x,1/2+y,-z
1/2-x,1/2-y,-z
1/2+x,1/2-y,z
loop_
_atom_site_type_symbol
_atom_site_label
_atom_site_fract_x
_atom_site_fract_y
_atom_site_fract_z
Si Si1 0.440533 0.000000 0.702471
Si Si2 0.228689 0.288210 0.685106
Si Si3 0.404881 0.500000 0.458384
Si Si4 0.078143 0.715416 0.306663
Si Si5 0.500000 0.000000 0.000000
Si Si6 0.190941 0.500000 0.739981
Si Si7 0.444850 0.338190 0.180471
O O1 0.500000 0.000000 0.500000
O O2 0.390042 0.104664 0.736535
O O3 0.513599 0.000000 0.801998
O O4 0.250000 0.250000 0.500000
O O5 0.329039 0.280775 0.713636
O O6 0.179543 0.390653 0.692575
O O7 0.149822 0.218513 0.814498
O O8 0.500000 0.500000 0.500000
O O9 0.310979 0.500000 0.633621
O O10 0.411091 0.409331 0.338952
O O11 0.000000 0.718155 0.500000
O O12 0.018648 0.759177 0.202633
O O13 0.378780 0.000000 0.060508
O O14 0.500000 0.386220 0.000000
#
# Coordination Sequence:
#
# PCOD9218751 Si02
#       7
#     4   8   4   8   2   4   8
#     4  10  26  44  74 107 158 200 252 323 379 463
#     4  12  25  45  77 106 148 205 252 313 394 458
#     4  12  25  51  80 102 152 207 257 316 384 467
#     4  11  23  45  72 108 148 200 259 311 380 461
#     4  12  28  48  78 116 152 198 254 326 404 458
#     4  12  26  45  77 109 144 201 255 309 392 463
#     4  12  27  46  73 112 152 198 259 323 384 457
#
# _framework density 23.126109
#
# number of rings (size 3 to 8) (size 9 to 14) (size 15 to 20)
#    0.000    0.421    4.211    3.474    8.842    1.684 
#    3.789    0.000    0.000    0.000    0.000    0.000 
#    0.000    0.000    0.000    0.000    0.000    0.000 
#
# Total GULP energy -105807.826437 kJ/mol
# GULP energy per Si atom -5568.832970 kJ/mol
# Density = 2.307347 g / cm^3
# Si number density = 23.126109 Si / 1000 Ang^3
#
#
#
# Elastic Constant Matrix: (Units=GPa)
#
#
# Indices 1 2 3 4 5 6 
#
# 1 89.3231 14.8275 38.1174 0.0000 -23.0495 0.0000
# 2 14.8275 155.5521 25.6658 0.0000 -20.3604 0.0000
# 3 38.1174 25.6658 92.4008 0.0000 -22.9916 0.0000
# 4 0.0000 0.0000 0.0000 7.9781 0.0000 2.9965
# 5 -23.0495 -20.3604 -22.9916 0.0000 39.6052 0.0000
# 6 0.0000 0.0000 0.0000 2.9965 0.0000 35.3901
#
#
#
# Elastic Compliance Matrix: (Units=1/GPa)
#
#
# Indices 1 2 3 4 5 6 
#
# 1 0.014672 0.000139 -0.004616 0.000000 0.005931 0.000000
# 2 0.000139 0.007011 -0.001272 0.000000 0.002947 0.000000
# 3 -0.004616 -0.001272 0.014317 0.000000 0.004971 0.000000
# 4 0.000000 0.000000 0.000000 0.129460 0.000000 -0.010962
# 5 0.005931 0.002947 0.004971 0.000000 0.033102 0.000000
# 6 0.000000 0.000000 0.000000 -0.010962 0.000000 0.029185
#
#
# Mechanical properties :
#
#
# Convention : Reuss Voigt Hill
#
# Bulk Modulus (GPa) = 40.80904 54.94415 47.87660
# Shear Modulus (GPa) = 20.20935 33.83904 27.02419
#
# Velocity S-wave (km/s) = 2.95935 3.82938 3.42213
# Velocity P-wave (km/s) = 5.41863 6.58500 6.03009
#
# Compressibility (1/GPa) = 0.02450437
#
# Stress axis : x y z
#
# Youngs Moduli (GPa) = 68.15548 142.63299 69.84912
#
# Poissons Ratio (x) = -0.01987 0.32239
# Poissons Ratio (y) = -0.00949 0.08882
# Poissons Ratio (z) = 0.31457 0.18137
#
# Static dielectric constant tensor:
#      x y z
#    x 2.059530 0.000000 -0.175270 
#    y 0.000000 1.914040 0.000000 
#    z -0.175270 0.000000 1.811460 
# 
# From -- ./inp_files/59033.got.cif
#   From: 2010.05.17/outbox.cif.g08.bks.cpg/sg12_30_cif.got.tgz:59033.got - 2010.06.03 13:09:07.
