data_PCOD9218003
_publ_section_title
;
Structure prediction by ZEFSAII (Michael W. Deem and Ramdas Pophale) SiO2 
 PCOD9218003
Probable space group: C 2/M
;
_chemical_formula_sum "Si O2"
_cell_formula_units_Z 42
_cell_length_a 8.490969
_cell_length_b 16.872839
_cell_length_c 11.629444
_cell_angle_alpha 90.000000
_cell_angle_beta 67.968402
_cell_angle_gamma 90.000000
_cell_volume 1544.448337
_symmetry_space_group_name_H-M "C 2/M"
_symmetry_group_IT_number 12
_symmetry_cell_setting 'monoclinic'
loop_
_space_group_symop_operation_xyz
x,y,z
-x,y,-z
-x,-y,-z
x,-y,z
1/2+x,1/2+y,z
1/2-x,1/2+y,-z
1/2-x,1/2-y,-z
1/2+x,1/2-y,z
loop_
_atom_site_type_symbol
_atom_site_label
_atom_site_fract_x
_atom_site_fract_y
_atom_site_fract_z
Si Si1 0.384696 0.885328 0.801468
Si Si2 0.381564 0.587970 0.325393
Si Si3 0.000000 0.788842 0.500000
Si Si4 0.183739 0.798208 0.216045
Si Si5 0.310415 0.859255 0.429472
Si Si6 0.500000 0.869934 0.000000
Si Si7 0.500000 0.000000 0.500000
O O1 0.245700 0.914689 0.749940
O O2 0.356519 0.790624 0.809226
O O3 0.568704 0.904753 0.696206
O O4 0.393459 0.912876 0.929722
O O5 0.449709 0.500000 0.332784
O O6 0.187820 0.807166 0.356816
O O7 0.535036 0.641283 0.226598
O O8 0.117365 0.861798 0.548231
O O9 0.084264 0.717599 0.559242
O O10 0.360026 0.820702 0.109298
O O11 0.352707 0.930109 0.521177
#
# Coordination Sequence:
#
# PCOD9218003 Si02
#       7
#     8   8   4   8   8   4   2
#     4  12  24  43  75 103 148 193 250 298 363 439
#     4  11  24  46  75 108 147 191 243 304 374 436
#     4  10  24  40  66 108 140 176 238 314 352 415
#     4  11  26  45  74 107 148 190 247 303 367 434
#     4  11  21  40  68 106 140 183 238 298 365 426
#     4  12  26  50  65 106 145 202 236 296 374 438
#     4  12  20  40  72 106 144 192 236 302 386 432
#
# _framework density 27.194175000000001
#
# number of rings (size 3 to 8) (size 9 to 14) (size 15 to 20)
#    0.000    0.762    4.762    1.714    2.667    2.667 
#    1.714    3.810    0.000    0.000    0.000    0.000 
#    0.000    0.000    0.000    0.000    0.000    0.000 
#
# Total GULP energy -117067.682544 kJ/mol
# GULP energy per Si atom -5574.651550 kJ/mol
# Density = 2.713228 g / cm^3
# Si number density = 27.194175 Si / 1000 Ang^3
#
#
#
# Elastic Constant Matrix: (Units=GPa)
#
#
# Indices 1 2 3 4 5 6 
#
# 1 251.5530 76.1633 72.2816 0.0000 19.5462 0.0000
# 2 76.1633 244.2233 34.3990 0.0000 18.9682 0.0000
# 3 72.2816 34.3990 175.4782 0.0000 22.0450 0.0000
# 4 0.0000 0.0000 0.0000 -10.4217 0.0000 -24.7279
# 5 19.5462 18.9682 22.0450 0.0000 44.3435 0.0000
# 6 0.0000 0.0000 0.0000 -24.7279 0.0000 63.2741
#
#
#
# Elastic Compliance Matrix: (Units=1/GPa)
#
#
# Indices 1 2 3 4 5 6 
#
# 1 0.004890 -0.001227 -0.001673 0.000000 -0.000799 0.000000
# 2 -0.001227 0.004612 -0.000233 0.000000 -0.001316 0.000000
# 3 -0.001673 -0.000233 0.006750 0.000000 -0.002518 0.000000
# 4 0.000000 0.000000 0.000000 -0.049787 0.000000 -0.019457
# 5 -0.000799 -0.001316 -0.002518 0.000000 0.024718 0.000000
# 6 0.000000 0.000000 0.000000 -0.019457 0.000000 0.008200
#
#
# Mechanical properties :
#
#
# Convention : Reuss Voigt Hill
#
# Bulk Modulus (GPa) = 100.15407 115.21580 107.68494
# Shear Modulus (GPa) = 556.84341 51.99989 304.42165
#
# Velocity S-wave (km/s) = 14.32516 4.37758 10.59182
# Velocity P-wave (km/s) = 17.62166 8.24686 13.75743
#
# Compressibility (1/GPa) = 0.00998462
#
# Stress axis : x y z
#
# Youngs Moduli (GPa) = 204.51117 216.80655 148.14678
#
# Poissons Ratio (x) = 0.26607 0.24789
# Poissons Ratio (y) = 0.25098 0.03457
# Poissons Ratio (z) = 0.34220 0.05059
#
# Static dielectric constant tensor:
#      x y z
#    x 1.557310 0.000000 1.237340 
#    y 0.000000 1.962470 0.000000 
#    z 1.237340 0.000000 0.091350 
# 
# From -- ./inp_files/195891.got.cif
#   From: 2010.05.17/outbox.cif.g08.bks.cpg/sg12_98_cif.got.tgz:195891.got - 2010.06.03 13:09:07.
