data_PCOD9218572
_publ_section_title
;
Structure prediction by ZEFSAII (Michael W. Deem and Ramdas Pophale) SiO2 
 PCOD9218572
Probable space group: C 2/M
;
_chemical_formula_sum "Si O2"
_cell_formula_units_Z 56
_cell_length_a 8.980798
_cell_length_b 30.783804
_cell_length_c 19.672063
_cell_angle_alpha 90.000000
_cell_angle_beta 30.108256
_cell_angle_gamma 90.000000
_cell_volume 2728.194272
_symmetry_space_group_name_H-M "C 2/M"
_symmetry_group_IT_number 12
_symmetry_cell_setting 'monoclinic'
loop_
_space_group_symop_operation_xyz
x,y,z
-x,y,-z
-x,-y,-z
x,-y,z
1/2+x,1/2+y,z
1/2-x,1/2+y,-z
1/2-x,1/2-y,-z
1/2+x,1/2-y,z
loop_
_atom_site_type_symbol
_atom_site_label
_atom_site_fract_x
_atom_site_fract_y
_atom_site_fract_z
Si Si1 0.843561 0.117561 0.385330
Si Si2 0.802912 0.392194 0.836298
Si Si3 0.405507 0.792837 0.963162
Si Si4 0.055957 0.729244 0.404924
Si Si5 0.135077 0.948358 0.372277
Si Si6 0.914199 0.148375 0.208591
Si Si7 0.738112 0.318223 0.300413
O O1 0.500000 0.113410 0.500000
O O2 0.985444 0.128933 0.255083
O O3 0.967710 0.075382 0.375738
O O4 0.938173 0.154347 0.404562
O O5 0.739291 0.385753 0.781201
O O6 0.024115 0.432105 0.762560
O O7 0.003638 0.350370 0.777552
O O8 0.500000 0.394002 0.000000
O O9 0.677710 0.801774 0.807331
O O10 0.500000 0.781633 0.000000
O O11 0.250000 0.750000 0.000000
O O12 0.196660 0.834529 0.054620
O O13 0.219696 0.692426 0.296928
O O14 0.238873 0.774131 0.343167
O O15 0.000000 0.708729 0.500000
O O16 0.750000 0.750000 0.500000
O O17 0.000000 0.935506 0.500000
O O18 0.112391 0.000000 0.375164
#
# Coordination Sequence:
#
# PCOD9218572 Si02
#       7
#     8   8   8   8   8   8   8
#     4  11  23  41  66  97 129 166 213 274 332 391
#     4  11  24  40  70 102 130 174 219 273 333 403
#     4  12  25  38  60  84 125 181 238 279 317 377
#     4  12  25  37  53  81 125 174 221 273 318 366
#     4  10  24  48  75 102 133 168 208 262 336 424
#     4  12  23  39  62  91 130 171 225 270 329 382
#     4  11  23  41  58  89 128 178 227 273 328 382
#
# _framework density 20.526398
#
# number of rings (size 3 to 8) (size 9 to 14) (size 15 to 20)
#    0.000    0.714    4.286    3.857    2.000    4.000 
#    0.000    0.714    0.000    0.857    0.000    0.000 
#    0.000    0.000    0.000    0.000    0.000    0.000 
#
# Total GULP energy -156312.557511 kJ/mol
# GULP energy per Si atom -5582.591340 kJ/mol
# Density = 2.047968 g / cm^3
# Si number density = 20.526398 Si / 1000 Ang^3
#
#
#
# Elastic Constant Matrix: (Units=GPa)
#
#
# Indices 1 2 3 4 5 6 
#
# 1 106.1736 39.7481 16.1659 0.0000 -4.1426 0.0000
# 2 39.7481 98.2511 26.3055 0.0000 -3.4793 0.0000
# 3 16.1659 26.3055 74.0747 0.0001 -9.0096 -0.0002
# 4 0.0000 0.0000 0.0001 24.6627 0.0000 2.9197
# 5 -4.1426 -3.4793 -9.0096 0.0000 32.5813 0.0000
# 6 0.0000 0.0000 -0.0002 2.9197 0.0000 32.5258
#
#
#
# Elastic Compliance Matrix: (Units=1/GPa)
#
#
# Indices 1 2 3 4 5 6 
#
# 1 0.011173 -0.004271 -0.000832 0.000000 0.000734 0.000000
# 2 -0.004271 0.012881 -0.003664 0.000000 -0.000181 0.000000
# 3 -0.000832 -0.003664 0.015442 0.000000 0.003773 0.000000
# 4 0.000000 0.000000 0.000000 0.040983 0.000000 -0.003679
# 5 0.000734 -0.000181 0.003773 0.000000 0.031810 0.000000
# 6 0.000000 0.000000 0.000000 -0.003679 0.000000 0.031075
#
#
# Mechanical properties :
#
#
# Convention : Reuss Voigt Hill
#
# Bulk Modulus (GPa) = 45.53712 49.21537 47.37625
# Shear Modulus (GPa) = 29.72340 31.03927 30.38134
#
# Velocity S-wave (km/s) = 3.80946 3.89287 3.85139
# Velocity P-wave (km/s) = 6.44842 6.65091 6.55045
#
# Compressibility (1/GPa) = 0.02196010
#
# Stress axis : x y z
#
# Youngs Moduli (GPa) = 89.50210 77.63641 64.76026
#
# Poissons Ratio (x) = 0.33160 0.05389
# Poissons Ratio (y) = 0.38229 0.23728
# Poissons Ratio (z) = 0.07449 0.28446
#
# Static dielectric constant tensor:
#      x y z
#    x 1.747000 0.000000 -0.024540 
#    y 0.000000 1.738060 0.000000 
#    z -0.024540 0.000000 1.802830 
# 
# From -- ./inp_files/303004.got.cif
#   From: 2010.05.17/outbox.cif.g08.bks.cpg/sg12_152_cif.got.tgz:303004.got - 2010.06.03 13:09:07.
