data_PCOD9218622
_publ_section_title
;
Structure prediction by ZEFSAII (Michael W. Deem and Ramdas Pophale) SiO2 
 PCOD9218622
Probable space group: C 2/M
;
_chemical_formula_sum "Si O2"
_cell_formula_units_Z 44
_cell_length_a 33.217747
_cell_length_b 7.629219
_cell_length_c 25.817159
_cell_angle_alpha 90.000000
_cell_angle_beta 161.249536
_cell_angle_gamma 90.000000
_cell_volume 2103.140380
_symmetry_space_group_name_H-M "C 2/M"
_symmetry_group_IT_number 12
_symmetry_cell_setting 'monoclinic'
loop_
_space_group_symop_operation_xyz
x,y,z
-x,y,-z
-x,-y,-z
x,-y,z
1/2+x,1/2+y,z
1/2-x,1/2+y,-z
1/2-x,1/2-y,-z
1/2+x,1/2-y,z
loop_
_atom_site_type_symbol
_atom_site_label
_atom_site_fract_x
_atom_site_fract_y
_atom_site_fract_z
Si Si1 0.550232 0.500000 0.151125
Si Si2 0.117488 0.296175 0.313414
Si Si3 0.888899 0.791114 0.110428
Si Si4 0.716725 0.000000 0.630528
Si Si5 0.166369 0.196951 0.765846
Si Si6 0.476670 0.708841 0.622247
Si Si7 0.249512 0.500000 0.789998
O O1 0.591097 0.670405 0.233322
O O2 0.637174 0.500000 0.206382
O O3 0.400248 0.500000 0.967703
O O4 0.113225 0.500000 0.294268
O O5 0.250000 0.250000 0.500000
O O6 0.011142 0.254300 0.225966
O O7 0.923524 0.741663 0.211258
O O8 0.866798 0.000000 0.081639
O O9 0.773817 0.702563 0.941041
O O10 0.644749 0.170184 0.520600
O O11 0.699838 0.000000 0.671455
O O12 0.203891 0.333411 0.767610
O O13 0.040714 0.239726 0.644571
O O14 0.157622 0.000000 0.734319
O O15 0.451442 0.500000 0.597071
#
# Coordination Sequence:
#
# PCOD9218622 Si02
#       7
#     4   8   8   4   8   8   4
#     4  12  25  46  64  96 130 174 229 271 330 387
#     4  12  22  36  61  95 136 173 209 265 330 396
#     4  11  20  38  63  99 141 171 210 264 331 409
#     4  12  28  46  71  89 128 188 228 281 327 379
#     4  11  22  41  68 100 134 174 213 271 342 398
#     4  10  25  42  65 101 136 171 219 273 331 399
#     4  12  26  48  67  97 132 174 238 273 320 394
#
# _framework density 20.921095999999999
#
# number of rings (size 3 to 8) (size 9 to 14) (size 15 to 20)
#    0.000    0.727    4.545    3.000    2.545    4.364 
#    0.000    1.818    0.000    3.273    0.000    0.000 
#    0.000    0.000    0.000    0.000    0.000    0.000 
#
# Total GULP energy -123103.316276 kJ/mol
# GULP energy per Si atom -5595.605285 kJ/mol
# Density = 2.087348 g / cm^3
# Si number density = 20.921096 Si / 1000 Ang^3
#
#
#
# Elastic Constant Matrix: (Units=GPa)
#
#
# Indices 1 2 3 4 5 6 
#
# 1 99.5841 21.9234 -19.0507 0.0000 3.4472 0.0000
# 2 21.9234 -39.7415 -91.2064 -0.0001 -15.6128 0.0000
# 3 -19.0507 -91.2064 -40.6289 0.0000 0.7401 0.0000
# 4 0.0000 -0.0001 0.0000 15.0022 0.0000 2.8033
# 5 3.4472 -15.6128 0.7401 0.0000 40.0100 0.0000
# 6 0.0000 0.0000 0.0000 2.8033 0.0000 7.2203
#
#
#
# Elastic Compliance Matrix: (Units=1/GPa)
#
#
# Indices 1 2 3 4 5 6 
#
# 1 0.012406 -0.005199 0.005796 0.000000 -0.003205 0.000000
# 2 -0.005199 0.008526 -0.016628 0.000000 0.004083 0.000000
# 3 0.005796 -0.016628 0.009866 0.000000 -0.007170 0.000000
# 4 0.000000 0.000000 0.000000 0.071871 0.000000 -0.027904
# 5 -0.003205 0.004083 -0.007170 0.000000 0.026996 0.000000
# 6 0.000000 0.000000 0.000000 -0.027904 0.000000 0.149332
#
#
# Mechanical properties :
#
#
# Convention : Reuss Voigt Hill
#
# Bulk Modulus (GPa) = -791.36618 -17.49486 -404.43052
# Shear Modulus (GPa) = 16.09590 19.61632 17.85611
#
# Velocity S-wave (km/s) = 2.77675 3.06540 2.92464
# Velocity P-wave (km/s) = 19.20425 2.03678 13.50286
#
# Compressibility (1/GPa) = -0.00126364
#
# Stress axis : x y z
#
# Youngs Moduli (GPa) = 80.60495 117.28519 101.35820
#
# Poissons Ratio (x) = 0.60981 -0.58750
# Poissons Ratio (y) = 0.41909 1.68538
# Poissons Ratio (z) = -0.46721 1.95021
#
# Static dielectric constant tensor:
#      x y z
#    x 1.737880 0.000000 0.003190 
#    y 0.000000 1.728270 0.000000 
#    z 0.003190 0.000000 1.726880 
# 
# From -- ./inp_files/353648.got.cif
#   From: 2010.05.17/outbox.cif.g08.bks.cpg/sg12_177_cif.got.tgz:353648.got - 2010.06.03 13:09:07.
