data_PCOD9218533
_publ_section_title
;
Structure prediction by ZEFSAII (Michael W. Deem and Ramdas Pophale) SiO2 
 PCOD9218533
Probable space group: C 2/M
;
_chemical_formula_sum "Si O2"
_cell_formula_units_Z 32
_cell_length_a 11.796749
_cell_length_b 24.807109
_cell_length_c 11.551282
_cell_angle_alpha 90.000000
_cell_angle_beta 25.112530
_cell_angle_gamma 90.000000
_cell_volume 1434.635084
_symmetry_space_group_name_H-M "C 2/M"
_symmetry_group_IT_number 12
_symmetry_cell_setting 'monoclinic'
loop_
_space_group_symop_operation_xyz
x,y,z
-x,y,-z
-x,-y,-z
x,-y,z
1/2+x,1/2+y,z
1/2-x,1/2+y,-z
1/2-x,1/2-y,-z
1/2+x,1/2-y,z
loop_
_atom_site_type_symbol
_atom_site_label
_atom_site_fract_x
_atom_site_fract_y
_atom_site_fract_z
Si Si1 0.996168 0.211949 0.239027
Si Si2 0.151820 0.000000 0.232321
Si Si3 0.000000 0.155882 0.000000
Si Si4 0.000000 0.409716 0.500000
Si Si5 0.651864 0.500000 0.731413
Si Si6 0.229077 0.120684 0.192731
O O1 0.093477 0.160585 0.224902
O O2 0.750000 0.250000 0.500000
O O3 0.250000 0.250000 0.000000
O O4 0.925121 0.190063 0.179230
O O5 0.293662 0.941181 0.095008
O O6 0.000000 0.000000 0.500000
O O7 0.996313 0.000000 0.253273
O O8 0.267584 0.122411 0.779578
O O9 0.839186 0.447776 0.561734
O O10 0.500000 0.500000 0.000000
O O11 0.000000 0.116061 0.500000
O O12 0.500000 0.143527 0.000000
#
# Coordination Sequence:
#
# PCOD9218533 Si02
#       6
#     8   4   4   4   4   8
#     4  12  28  47  76 104 146 197 249 316 378 443
#     4  10  24  47  73 111 147 198 244 304 379 460
#     4  12  26  47  72 104 142 183 262 302 376 446
#     4  11  24  44  72 108 142 198 234 319 362 452
#     4  11  23  44  72 108 157 192 247 299 375 449
#     4  11  25  47  74 106 148 189 241 302 370 449
#
# _framework density 22.305323000000001
#
# number of rings (size 3 to 8) (size 9 to 14) (size 15 to 20)
#    0.000    0.750    1.250    4.875    5.250    4.000 
#    9.000    0.000    0.000    0.000    0.000    0.000 
#    0.000    0.000    0.000    0.000    0.000    0.000 
#
# Total GULP energy -89304.984260 kJ/mol
# GULP energy per Si atom -5581.561516 kJ/mol
# Density = 2.225456 g / cm^3
# Si number density = 22.305323 Si / 1000 Ang^3
#
#
#
# Elastic Constant Matrix: (Units=GPa)
#
#
# Indices 1 2 3 4 5 6 
#
# 1 167.7229 58.7112 44.2129 0.0006 -1.6925 0.0000
# 2 58.7112 145.9368 52.6405 0.0000 7.3560 0.0003
# 3 44.2129 52.6405 134.9741 0.0090 -19.0364 -0.0040
# 4 0.0006 0.0000 0.0090 76.3235 -0.0006 -7.9225
# 5 -1.6925 7.3560 -19.0364 -0.0006 33.0167 -0.0003
# 6 0.0000 0.0003 -0.0040 -7.9225 -0.0003 1.1871
#
#
#
# Elastic Compliance Matrix: (Units=1/GPa)
#
#
# Indices 1 2 3 4 5 6 
#
# 1 0.007167 -0.002380 -0.001407 -0.000001 0.000086 -0.000011
# 2 -0.002380 0.009250 -0.003413 -0.000004 -0.004151 -0.000040
# 3 -0.001407 -0.003413 0.010121 0.000009 0.006524 0.000095
# 4 -0.000001 -0.000004 0.000009 0.042642 0.000009 0.284583
# 5 0.000086 -0.004151 0.006524 0.000009 0.034978 0.000096
# 6 -0.000011 -0.000040 0.000095 0.284583 0.000096 2.741623
#
#
# Mechanical properties :
#
#
# Convention : Reuss Voigt Hill
#
# Bulk Modulus (GPa) = 82.39314 84.41808 83.40561
# Shear Modulus (GPa) = 1.74567 41.64341 21.69454
#
# Velocity S-wave (km/s) = 0.88562 4.32553 3.12206
# Velocity P-wave (km/s) = 6.16966 7.92942 7.10424
#
# Compressibility (1/GPa) = 0.01213693
#
# Stress axis : x y z
#
# Youngs Moduli (GPa) = 139.52404 108.10437 98.80254
#
# Poissons Ratio (x) = 0.25730 0.13904
# Poissons Ratio (y) = 0.33209 0.33726
# Poissons Ratio (z) = 0.19635 0.36901
#
# Static dielectric constant tensor:
#      x y z
#    x 1.853570 -0.000020 -0.122550 
#    y -0.000020 1.906150 0.000020 
#    z -0.122550 0.000020 2.031780 
# 
# From -- ./inp_files/135109.got.cif
#   From: 2010.05.17/outbox.cif.g08.bks.cpg/sg12_68_cif.got.tgz:135109.got - 2010.06.03 13:09:07.
