data_PCOD9218851
_publ_section_title
;
Structure prediction by ZEFSAII (Michael W. Deem and Ramdas Pophale) SiO2 
 PCOD9218851
Probable space group: C 2/M
;
_chemical_formula_sum "Si O2"
_cell_formula_units_Z 32
_cell_length_a 21.360824
_cell_length_b 17.641670
_cell_length_c 8.244982
_cell_angle_alpha 90.000000
_cell_angle_beta 24.861375
_cell_angle_gamma 90.000000
_cell_volume 1306.276653
_symmetry_space_group_name_H-M "C 2/M"
_symmetry_group_IT_number 12
_symmetry_cell_setting 'monoclinic'
loop_
_space_group_symop_operation_xyz
x,y,z
-x,y,-z
-x,-y,-z
x,-y,z
1/2+x,1/2+y,z
1/2-x,1/2+y,-z
1/2-x,1/2-y,-z
1/2+x,1/2-y,z
loop_
_atom_site_type_symbol
_atom_site_label
_atom_site_fract_x
_atom_site_fract_y
_atom_site_fract_z
Si Si1 0.719247 0.351851 0.741954
Si Si2 0.776782 0.824230 0.622133
Si Si3 0.327461 0.587673 0.815900
Si Si4 0.020267 0.415716 0.705978
O O1 0.772781 0.266071 0.649399
O O2 0.657021 0.349098 0.707374
O O3 0.867256 0.403376 0.406529
O O4 0.625345 0.382146 0.115939
O O5 0.850445 0.861787 0.604505
O O6 0.606051 0.853242 0.011201
O O7 0.367492 0.500000 0.697614
O O8 0.145568 0.589831 0.270020
O O9 0.954907 0.500000 0.858514
#
# Coordination Sequence:
#
# PCOD9218851 Si02
#       4
#     8   8   8   8
#     4   9  21  31  44  73 104 130 162 199 245 292
#     4  11  18  31  49  69 102 137 158 196 251 291
#     4   9  19  32  48  72 100 127 162 203 243 289
#     4   9  19  33  50  76 102 125 161 205 243 287
#
# _framework density 24.497108000000001
#
# number of rings (size 3 to 8) (size 9 to 14) (size 15 to 20)
#    1.500    1.000    0.000    3.000    0.000    7.000 
#    0.000    0.000    0.000    0.000    0.000    8.750 
#    0.000   32.000    0.000    0.000    0.000    0.000 
#
# Total GULP energy -89360.691161 kJ/mol
# GULP energy per Si atom -5585.043198 kJ/mol
# Density = 2.444135 g / cm^3
# Si number density = 24.497108 Si / 1000 Ang^3
#
#
#
# Elastic Constant Matrix: (Units=GPa)
#
#
# Indices 1 2 3 4 5 6 
#
# 1 165.4290 51.2657 20.9276 -0.0001 29.0626 0.0001
# 2 51.2657 100.7201 24.4657 -0.0001 30.5895 0.0001
# 3 20.9276 24.4657 66.4942 0.0002 15.0829 0.0002
# 4 -0.0001 -0.0001 0.0002 -6.0952 0.0000 -2.7036
# 5 29.0626 30.5895 15.0829 0.0000 53.6530 -0.0001
# 6 0.0001 0.0001 0.0002 -2.7036 -0.0001 33.5300
#
#
#
# Elastic Compliance Matrix: (Units=1/GPa)
#
#
# Indices 1 2 3 4 5 6 
#
# 1 0.007430 -0.002948 -0.000771 0.000000 -0.002127 0.000000
# 2 -0.002948 0.013791 -0.002911 0.000000 -0.005447 0.000000
# 3 -0.000771 -0.002911 0.016963 0.000000 -0.002692 0.000000
# 4 0.000000 0.000000 0.000000 -0.158399 0.000000 -0.012772
# 5 -0.002127 -0.005447 -0.002692 0.000000 0.023653 0.000000
# 6 0.000000 0.000000 0.000000 -0.012772 0.000000 0.028794
#
#
# Mechanical properties :
#
#
# Convention : Reuss Voigt Hill
#
# Bulk Modulus (GPa) = 40.12327 58.44013 49.28170
# Shear Modulus (GPa) = -108.22159 31.94988 -38.13585
#
# Velocity S-wave (km/s) = -6.65381 3.61533 -3.94985
# Velocity P-wave (km/s) = 6.52814 6.42925 0.80043
#
# Compressibility (1/GPa) = 0.02492319
#
# Stress axis : x y z
#
# Youngs Moduli (GPa) = 134.59342 72.51320 58.95185
#
# Poissons Ratio (x) = 0.21380 0.04546
# Poissons Ratio (y) = 0.39685 0.17158
# Poissons Ratio (z) = 0.10378 0.21105
#
# Static dielectric constant tensor:
#      x y z
#    x 1.995730 0.000000 -0.007630 
#    y 0.000000 1.791690 0.000000 
#    z -0.007630 0.000000 2.098970 
# 
# From -- ./inp_files/73845.got.cif
#   From: 2010.05.17/outbox.cif.g08.bks.cpg/sg12_37_cif.got.tgz:73845.got - 2010.06.03 13:09:07.
