data_PCOD9218002
_publ_section_title
;
Structure prediction by ZEFSAII (Michael W. Deem and Ramdas Pophale) SiO2 
 PCOD9218002
Probable space group: C 2/M
;
_chemical_formula_sum "Si O2"
_cell_formula_units_Z 46
_cell_length_a 20.314742
_cell_length_b 12.065010
_cell_length_c 10.767083
_cell_angle_alpha 90.000000
_cell_angle_beta 53.596942
_cell_angle_gamma 90.000000
_cell_volume 2124.019740
_symmetry_space_group_name_H-M "C 2/M"
_symmetry_group_IT_number 12
_symmetry_cell_setting 'monoclinic'
loop_
_space_group_symop_operation_xyz
x,y,z
-x,y,-z
-x,-y,-z
x,-y,z
1/2+x,1/2+y,z
1/2-x,1/2+y,-z
1/2-x,1/2-y,-z
1/2+x,1/2-y,z
loop_
_atom_site_type_symbol
_atom_site_label
_atom_site_fract_x
_atom_site_fract_y
_atom_site_fract_z
Si Si1 0.762226 0.500000 0.227573
Si Si2 0.412206 0.500000 0.662649
Si Si3 0.808136 0.270484 0.049345
Si Si4 0.427771 0.000000 0.184714
Si Si5 0.723786 0.630160 0.680744
Si Si6 0.462697 0.667280 0.807001
Si Si7 0.883570 0.286717 0.378949
Si Si8 0.500000 0.500000 0.000000
O O1 0.663718 0.500000 0.348075
O O2 0.783723 0.387087 0.134289
O O3 0.829480 0.500000 0.260467
O O4 0.500000 0.500000 0.500000
O O5 0.411196 0.601238 0.761357
O O6 0.794684 0.170097 0.160623
O O7 0.750000 0.250000 0.000000
O O8 0.903588 0.266989 0.911817
O O9 0.430523 0.114285 0.256877
O O10 0.500000 0.000000 0.000000
O O11 0.704848 0.500000 0.685003
O O12 0.817566 0.658919 0.544070
O O13 0.668439 0.708245 0.655493
O O14 0.545863 0.707758 0.649133
O O15 0.484971 0.596124 0.905907
#
# Coordination Sequence:
#
# PCOD9218002 Si02
#       8
#     4   4   8   4   8   8   8   2
#     4  12  25  47  68  99 143 183 230 290 349 418
#     4  11  27  43  68  98 139 189 233 280 340 415
#     4  12  26  44  70 100 134 183 237 282 346 412
#     4  12  24  45  72 107 146 179 232 290 357 435
#     4  11  26  44  69 100 144 180 230 292 353 424
#     4  11  25  43  69 101 135 178 236 287 340 414
#     4  11  25  44  69 106 136 183 224 287 363 413
#     4  10  24  40  66 106 134 170 226 298 344 384
#
# _framework density 21.657048
#
# number of rings (size 3 to 8) (size 9 to 14) (size 15 to 20)
#    0.000    0.696    4.348    2.087   12.174    0.000 
#    0.000    0.000    0.000    1.043    0.000    0.000 
#    0.000    0.000    0.000    0.000    0.000    0.000 
#
# Total GULP energy -128218.115336 kJ/mol
# GULP energy per Si atom -5574.700667 kJ/mol
# Density = 2.160776 g / cm^3
# Si number density = 21.657048 Si / 1000 Ang^3
#
#
#
# Elastic Constant Matrix: (Units=GPa)
#
#
# Indices 1 2 3 4 5 6 
#
# 1 77.6577 7.9634 14.4087 0.0000 -20.1414 0.0000
# 2 7.9634 105.3204 9.1710 0.0000 -14.0145 0.0000
# 3 14.4087 9.1710 76.4842 0.0000 -29.6035 0.0000
# 4 0.0000 0.0000 0.0000 246.8127 0.0000 95.8215
# 5 -20.1414 -14.0145 -29.6035 0.0000 37.9203 0.0000
# 6 0.0000 0.0000 0.0000 95.8215 0.0000 64.1240
#
#
#
# Elastic Compliance Matrix: (Units=1/GPa)
#
#
# Indices 1 2 3 4 5 6 
#
# 1 0.014942 -0.000071 0.000366 0.000000 0.008196 0.000000
# 2 -0.000071 0.009992 0.000330 0.000000 0.003912 0.000000
# 3 0.000366 0.000330 0.018756 0.000000 0.014958 0.000000
# 4 0.000000 0.000000 0.000000 0.009650 0.000000 -0.014420
# 5 0.008196 0.003912 0.014958 0.000000 0.043848 0.000000
# 6 0.000000 0.000000 0.000000 -0.014420 0.000000 0.037143
#
#
# Mechanical properties :
#
#
# Convention : Reuss Voigt Hill
#
# Bulk Modulus (GPa) = 22.25250 35.83874 29.04562
# Shear Modulus (GPa) = 33.76956 84.96603 59.36779
#
# Velocity S-wave (km/s) = 3.95307 6.27038 5.24139
# Velocity P-wave (km/s) = 5.57969 8.30709 7.07604
#
# Compressibility (1/GPa) = 0.04493877
#
# Stress axis : x y z
#
# Youngs Moduli (GPa) = 66.92488 100.07894 53.31674
#
# Poissons Ratio (x) = 0.00711 -0.01951
# Poissons Ratio (y) = 0.00476 -0.01757
# Poissons Ratio (z) = -0.02448 -0.03298
#
# Static dielectric constant tensor:
#      x y z
#    x 1.867740 0.000000 -0.033910 
#    y 0.000000 1.867090 0.000000 
#    z -0.033910 0.000000 1.826160 
# 
# From -- ./inp_files/165514.got.cif
#   From: 2010.05.17/outbox.cif.g08.bks.cpg/sg12_83_cif.got.tgz:165514.got - 2010.06.03 13:09:07.
