data_PCOD9218077
_publ_section_title
;
Structure prediction by ZEFSAII (Michael W. Deem and Ramdas Pophale) SiO2 
 PCOD9218077
Probable space group: C 2/M
;
_chemical_formula_sum "Si O2"
_cell_formula_units_Z 38
_cell_length_a 13.736192
_cell_length_b 14.154421
_cell_length_c 9.705554
_cell_angle_alpha 90.000000
_cell_angle_beta 72.483381
_cell_angle_gamma 90.000000
_cell_volume 1799.527779
_symmetry_space_group_name_H-M "C 2/M"
_symmetry_group_IT_number 12
_symmetry_cell_setting 'monoclinic'
loop_
_space_group_symop_operation_xyz
x,y,z
-x,y,-z
-x,-y,-z
x,-y,z
1/2+x,1/2+y,z
1/2-x,1/2+y,-z
1/2-x,1/2-y,-z
1/2+x,1/2-y,z
loop_
_atom_site_type_symbol
_atom_site_label
_atom_site_fract_x
_atom_site_fract_y
_atom_site_fract_z
Si Si1 0.890740 0.359526 0.713741
Si Si2 0.616149 0.889645 0.964377
Si Si3 0.880271 0.000000 0.521861
Si Si4 0.173197 0.151058 0.239453
Si Si5 0.772063 0.000000 0.290780
Si Si6 0.500000 0.000000 0.500000
Si Si7 0.394916 0.500000 0.959189
O O1 0.886139 0.247769 0.709541
O O2 0.803399 0.410769 0.659886
O O3 0.989949 0.416117 0.623069
O O4 0.865466 0.385033 0.881128
O O5 0.707824 0.834450 0.851419
O O6 0.621144 0.000000 0.917256
O O7 0.500000 0.854303 0.000000
O O8 0.833122 0.910719 0.620483
O O9 0.000000 0.000000 0.500000
O O10 0.856903 0.000000 0.371017
O O11 0.124396 0.089382 0.134458
O O12 0.816125 0.000000 0.119169
O O13 0.500000 0.500000 0.000000
#
# Coordination Sequence:
#
# PCOD9218077 Si02
#       7
#     8   8   4   8   4   2   4
#     4  11  23  43  69  98 136 182 237 293 354 419
#     4  11  21  40  69 101 136 181 234 295 353 416
#     4  11  26  45  61  97 141 185 230 291 362 430
#     4  11  23  45  70  98 142 180 246 293 349 426
#     4  11  22  43  66  89 141 173 224 294 354 408
#     4  10  24  42  62 100 140 184 230 286 362 422
#     4  11  22  42  70 101 136 186 226 291 354 413
#
# _framework density 21.116651999999998
#
# number of rings (size 3 to 8) (size 9 to 14) (size 15 to 20)
#    0.000    1.053    6.316    1.895    1.474    5.053 
#    3.789    0.000    0.000    0.000    0.000    0.000 
#    0.000    0.000    0.000    0.000    0.000    0.000 
#
# Total GULP energy -105804.321732 kJ/mol
# GULP energy per Si atom -5568.648512 kJ/mol
# Density = 2.106859 g / cm^3
# Si number density = 21.116652 Si / 1000 Ang^3
#
#
#
# Elastic Constant Matrix: (Units=GPa)
#
#
# Indices 1 2 3 4 5 6 
#
# 1 87.7331 19.8380 -4.0044 0.0000 15.4941 0.0000
# 2 19.8380 151.4000 42.5718 0.0000 4.4159 0.0000
# 3 -4.0044 42.5718 83.7442 0.0000 1.7642 0.0000
# 4 0.0000 0.0000 0.0000 -2.4884 0.0000 3.6637
# 5 15.4941 4.4159 1.7642 0.0000 35.3881 0.0000
# 6 0.0000 0.0000 0.0000 3.6637 0.0000 5.8446
#
#
#
# Elastic Compliance Matrix: (Units=1/GPa)
#
#
# Indices 1 2 3 4 5 6 
#
# 1 0.012906 -0.002027 0.001763 0.000000 -0.005486 0.000000
# 2 -0.002027 0.008046 -0.004189 0.000000 0.000092 0.000000
# 3 0.001763 -0.004189 0.014175 0.000000 -0.000956 0.000000
# 4 0.000000 0.000000 0.000000 -0.208987 0.000000 0.131005
# 5 -0.005486 0.000092 -0.000956 0.000000 0.030696 0.000000
# 6 0.000000 0.000000 0.000000 0.131005 0.000000 0.088978
#
#
# Mechanical properties :
#
#
# Convention : Reuss Voigt Hill
#
# Bulk Modulus (GPa) = 38.13724 48.85423 43.49573
# Shear Modulus (GPa) = -136.83213 25.38033 -55.72590
#
# Velocity S-wave (km/s) = -8.05847 3.47062 -5.14265
# Velocity P-wave (km/s) = 8.27561 6.26465 3.82360
#
# Compressibility (1/GPa) = 0.02622109
#
# Stress axis : x y z
#
# Youngs Moduli (GPa) = 77.48483 124.28860 70.54642
#
# Poissons Ratio (x) = 0.25191 -0.12437
# Poissons Ratio (y) = 0.15705 0.29552
# Poissons Ratio (z) = -0.13661 0.52064
#
# Static dielectric constant tensor:
#      x y z
#    x 1.860920 0.000000 -0.058680 
#    y 0.000000 1.759250 0.000000 
#    z -0.058680 0.000000 1.779320 
# 
# From -- ./inp_files/59025.got.cif
#   From: 2010.05.17/outbox.cif.g08.bks.cpg/sg12_30_cif.got.tgz:59025.got - 2010.06.03 13:09:07.
