data_PCOD9218196
_publ_section_title
;
Structure prediction by ZEFSAII (Michael W. Deem and Ramdas Pophale) SiO2 
 PCOD9218196
Probable space group: C 2/M
;
_chemical_formula_sum "Si O2"
_cell_formula_units_Z 38
_cell_length_a 7.590830
_cell_length_b 21.115455
_cell_length_c 14.111118
_cell_angle_alpha 90.000000
_cell_angle_beta 50.054056
_cell_angle_gamma 90.000000
_cell_volume 1733.997954
_symmetry_space_group_name_H-M "C 2/M"
_symmetry_group_IT_number 12
_symmetry_cell_setting 'monoclinic'
loop_
_space_group_symop_operation_xyz
x,y,z
-x,y,-z
-x,-y,-z
x,-y,z
1/2+x,1/2+y,z
1/2-x,1/2+y,-z
1/2-x,1/2-y,-z
1/2+x,1/2-y,z
loop_
_atom_site_type_symbol
_atom_site_label
_atom_site_fract_x
_atom_site_fract_y
_atom_site_fract_z
Si Si1 0.733342 0.102376 0.460821
Si Si2 0.933605 0.322627 0.311474
Si Si3 0.000000 0.617306 0.000000
Si Si4 0.896201 0.820032 0.749796
Si Si5 0.772003 0.428651 0.889339
Si Si6 0.500000 0.500000 0.500000
O O1 0.500000 0.074047 0.500000
O O2 0.652845 0.161188 0.554325
O O3 0.893252 0.131220 0.323618
O O4 0.873896 0.054757 0.477899
O O5 0.724953 0.328840 0.309933
O O6 0.028958 0.252208 0.267264
O O7 0.119029 0.375116 0.214695
O O8 0.209085 0.660481 0.891796
O O9 0.905541 0.577846 0.943574
O O10 0.810915 0.500000 0.838348
O O11 0.500000 0.419899 0.000000
#
# Coordination Sequence:
#
# PCOD9218196 Si02
#       6
#     8   8   4   8   8   2
#     4  12  26  46  73 104 141 184 228 288 345 409
#     4  11  24  42  73  99 142 176 235 290 346 408
#     4  10  25  42  70  98 135 184 226 290 342 413
#     4  11  24  44  68 106 140 181 233 291 346 411
#     4  10  24  43  65  96 135 181 227 283 342 416
#     4  12  26  52  68 108 142 180 236 274 346 412
#
# _framework density 21.914674999999999
#
# number of rings (size 3 to 8) (size 9 to 14) (size 15 to 20)
#    0.000    1.053    2.105    2.526    8.842    1.684 
#    1.895    0.000    0.000    0.000    0.000    0.000 
#    0.000    0.000    0.000    0.000    0.000    0.000 
#
# Total GULP energy -106072.590044 kJ/mol
# GULP energy per Si atom -5582.767897 kJ/mol
# Density = 2.186480 g / cm^3
# Si number density = 21.914675 Si / 1000 Ang^3
#
#
#
# Elastic Constant Matrix: (Units=GPa)
#
#
# Indices 1 2 3 4 5 6 
#
# 1 107.7839 44.5211 25.7961 0.0000 -11.5360 0.0000
# 2 44.5211 145.1003 42.9680 0.0000 -33.4633 0.0000
# 3 25.7961 42.9680 101.5564 0.0000 -21.7970 0.0000
# 4 0.0000 0.0000 0.0000 5.3847 0.0000 1.7911
# 5 -11.5360 -33.4633 -21.7970 0.0000 29.2391 0.0000
# 6 0.0000 0.0000 0.0000 1.7911 0.0000 8.7536
#
#
#
# Elastic Compliance Matrix: (Units=1/GPa)
#
#
# Indices 1 2 3 4 5 6 
#
# 1 0.010831 -0.002912 -0.001568 0.000000 -0.000228 0.000000
# 2 -0.002912 0.010492 -0.001630 0.000000 0.009644 0.000000
# 3 -0.001568 -0.001630 0.012383 0.000000 0.006747 0.000000
# 4 0.000000 0.000000 0.000000 0.199275 0.000000 -0.040774
# 5 -0.000228 0.009644 0.006747 0.000000 0.050178 0.000000
# 6 0.000000 0.000000 0.000000 -0.040774 0.000000 0.122582
#
#
# Mechanical properties :
#
#
# Convention : Reuss Voigt Hill
#
# Bulk Modulus (GPa) = 46.53954 64.55677 55.54815
# Shear Modulus (GPa) = 11.76131 24.75250 18.25690
#
# Velocity S-wave (km/s) = 2.31916 3.36444 2.88946
# Velocity P-wave (km/s) = 5.33424 6.67943 6.04438
#
# Compressibility (1/GPa) = 0.02148711
#
# Stress axis : x y z
#
# Youngs Moduli (GPa) = 92.32406 95.31237 80.75753
#
# Poissons Ratio (x) = 0.27751 0.12665
# Poissons Ratio (y) = 0.26880 0.13160
# Poissons Ratio (z) = 0.14479 0.15532
#
# Static dielectric constant tensor:
#      x y z
#    x 1.820240 0.000000 -0.025210 
#    y 0.000000 1.746400 0.000000 
#    z -0.025210 0.000000 1.816260 
# 
# From -- ./inp_files/198207.got.cif
#   From: 2010.05.17/outbox.cif.g08.bks.cpg/sg12_100_cif.got.tgz:198207.got - 2010.06.03 13:09:07.
