data_PCOD9218030
_publ_section_title
;
Structure prediction by ZEFSAII (Michael W. Deem and Ramdas Pophale) SiO2 
 PCOD9218030
Probable space group: C 2/M
;
_chemical_formula_sum "Si O2"
_cell_formula_units_Z 52
_cell_length_a 8.285676
_cell_length_b 17.107526
_cell_length_c 22.957353
_cell_angle_alpha 90.000000
_cell_angle_beta 134.184252
_cell_angle_gamma 90.000000
_cell_volume 2333.554897
_symmetry_space_group_name_H-M "C 2/M"
_symmetry_group_IT_number 12
_symmetry_cell_setting 'monoclinic'
loop_
_space_group_symop_operation_xyz
x,y,z
-x,y,-z
-x,-y,-z
x,-y,z
1/2+x,1/2+y,z
1/2-x,1/2+y,-z
1/2-x,1/2-y,-z
1/2+x,1/2-y,z
loop_
_atom_site_type_symbol
_atom_site_label
_atom_site_fract_x
_atom_site_fract_y
_atom_site_fract_z
Si Si1 0.962475 0.407849 0.388233
Si Si2 0.052586 0.908416 0.699485
Si Si3 0.430114 0.405096 0.546913
Si Si4 0.151436 0.348787 0.762195
Si Si5 0.261020 0.000000 0.006055
Si Si6 0.874536 0.193735 0.175911
Si Si7 0.722201 0.000000 0.855553
Si Si8 0.000000 0.359654 0.000000
O O1 0.992862 0.500000 0.381514
O O2 0.713929 0.400909 0.352039
O O3 0.975081 0.361692 0.330739
O O4 0.164576 0.386448 0.482117
O O5 0.067946 0.876334 0.637552
O O6 0.172898 0.864003 0.781775
O O7 0.111216 0.000000 0.715512
O O8 0.500000 0.379776 0.500000
O O9 0.451616 0.500000 0.554719
O O10 0.076357 0.275969 0.781673
O O11 0.410264 0.335079 0.806575
O O12 0.140868 0.425193 0.799305
O O13 0.340532 0.000000 0.092736
O O14 0.352968 0.079404 0.000557
O O15 0.994187 0.000000 0.928005
O O16 0.660049 0.192531 0.080271
#
# Coordination Sequence:
#
# PCOD9218030 Si02
#       8
#     8   8   8   8   4   8   4   4
#     4   9  17  34  62  86 118 166 211 253 302 380
#     4   9  19  36  60  87 120 168 211 254 314 381
#     4   9  17  31  53  91 127 156 201 261 314 370
#     4  11  24  43  64  95 130 170 215 262 320 376
#     4  10  24  40  72  96 122 160 224 263 317 383
#     4  11  26  41  64  91 135 166 215 267 324 378
#     4  11  22  46  68  96 124 168 215 268 315 384
#     4  11  24  44  64  99 130 168 210 267 326 372
#
# _framework density 22.283598999999999
#
# number of rings (size 3 to 8) (size 9 to 14) (size 15 to 20)
#    0.000    2.000    2.308    0.462    5.385    4.923 
#    0.000    0.769    0.000    0.000    0.000    0.000 
#    0.000    0.000    0.000    0.000    0.000    0.000 
#
# Total GULP energy -145378.076443 kJ/mol
# GULP energy per Si atom -5591.464479 kJ/mol
# Density = 2.223288 g / cm^3
# Si number density = 22.283599 Si / 1000 Ang^3
#
#
#
# Elastic Constant Matrix: (Units=GPa)
#
#
# Indices 1 2 3 4 5 6 
#
# 1 43.5218 8.4662 24.2652 0.0000 -15.8741 -0.0001
# 2 8.4662 70.1337 23.5985 0.0000 -23.1003 0.0000
# 3 24.2652 23.5985 130.5000 0.0000 -20.7262 -0.0001
# 4 0.0000 0.0000 0.0000 11.4760 0.0000 13.1445
# 5 -15.8741 -23.1003 -20.7262 0.0000 34.9844 0.0000
# 6 -0.0001 0.0000 -0.0001 13.1445 0.0000 -80.0656
#
#
#
# Elastic Compliance Matrix: (Units=1/GPa)
#
#
# Indices 1 2 3 4 5 6 
#
# 1 0.029194 0.001762 -0.003817 0.000000 0.012148 0.000000
# 2 0.001762 0.018608 -0.001782 0.000000 0.012031 0.000000
# 3 -0.003817 -0.001782 0.009088 0.000000 0.002475 0.000000
# 4 0.000000 0.000000 0.000000 0.073346 0.000000 0.012041
# 5 0.012148 0.012031 0.002475 0.000000 0.043507 0.000000
# 6 0.000000 0.000000 0.000000 0.012041 0.000000 -0.010513
#
#
# Mechanical properties :
#
#
# Convention : Reuss Voigt Hill
#
# Bulk Modulus (GPa) = 20.31923 39.64616 29.98270
# Shear Modulus (GPa) = 26.69382 5.80069 16.24725
#
# Velocity S-wave (km/s) = 3.46484 1.61517 2.70314
# Velocity P-wave (km/s) = 5.01449 4.61613 4.81943
#
# Compressibility (1/GPa) = 0.04921445
#
# Stress axis : x y z
#
# Youngs Moduli (GPa) = 34.25415 53.74058 110.03526
#
# Poissons Ratio (x) = -0.09467 0.42005
# Poissons Ratio (y) = -0.06034 0.19605
# Poissons Ratio (z) = 0.13076 0.09575
#
# Static dielectric constant tensor:
#      x y z
#    x 1.880910 0.000000 0.014620 
#    y 0.000000 1.777280 0.000000 
#    z 0.014620 0.000000 1.783250 
# 
# From -- ./inp_files/301215.got.cif
#   From: 2010.05.17/outbox.cif.g08.bks.cpg/sg12_151_cif.got.tgz:301215.got - 2010.06.03 13:09:07.
