data_PCOD9218771
_publ_section_title
;
Structure prediction by ZEFSAII (Michael W. Deem and Ramdas Pophale) SiO2 
 PCOD9218771
Probable space group: C 2/M
;
_chemical_formula_sum "Si O2"
_cell_formula_units_Z 34
_cell_length_a 10.614288
_cell_length_b 14.704986
_cell_length_c 14.396736
_cell_angle_alpha 90.000000
_cell_angle_beta 42.001909
_cell_angle_gamma 90.000000
_cell_volume 1503.649065
_symmetry_space_group_name_H-M "C 2/M"
_symmetry_group_IT_number 12
_symmetry_cell_setting 'monoclinic'
loop_
_space_group_symop_operation_xyz
x,y,z
-x,y,-z
-x,-y,-z
x,-y,z
1/2+x,1/2+y,z
1/2-x,1/2+y,-z
1/2-x,1/2-y,-z
1/2+x,1/2-y,z
loop_
_atom_site_type_symbol
_atom_site_label
_atom_site_fract_x
_atom_site_fract_y
_atom_site_fract_z
Si Si1 0.513883 0.500000 0.099372
Si Si2 0.000000 0.000000 0.500000
Si Si3 0.717278 0.000000 0.397418
Si Si4 0.801072 0.644966 0.239316
Si Si5 0.223974 0.346917 0.966818
Si Si6 0.713861 0.199686 0.423231
O O1 0.303385 0.500000 0.249482
O O2 0.619895 0.413783 0.080761
O O3 0.500000 0.500000 0.000000
O O4 0.851204 0.079903 0.625272
O O5 0.500000 0.000000 0.500000
O O6 0.775859 0.095331 0.409660
O O7 0.751014 0.659858 0.158259
O O8 0.811355 0.739868 0.290409
O O9 0.019023 0.613733 0.109478
O O10 0.250000 0.250000 0.000000
O O11 0.500000 0.195451 0.500000
O O12 0.750000 0.250000 0.500000
#
# Coordination Sequence:
#
# PCOD9218771 Si02
#       6
#     4   2   4   8   8   8
#     4  12  28  45  74 112 149 196 251 313 395 456
#     4  12  24  46  78 110 154 192 270 334 392 458
#     4  10  26  48  72 104 156 195 250 318 388 471
#     4  11  26  46  76 111 150 207 260 325 397 470
#     4  11  27  48  77 107 159 202 264 320 391 484
#     4  11  26  46  75 112 153 200 261 322 401 469
#
# _framework density 22.611657999999998
#
# number of rings (size 3 to 8) (size 9 to 14) (size 15 to 20)
#    0.000    0.941    1.176    2.824   13.176    6.588 
#    0.000    0.000    0.000    0.000    0.000    0.000 
#    0.000    0.000    0.000    0.000    0.000    0.000 
#
# Total GULP energy -94705.416887 kJ/mol
# GULP energy per Si atom -5570.906876 kJ/mol
# Density = 2.256019 g / cm^3
# Si number density = 22.611658 Si / 1000 Ang^3
#
#
#
# Elastic Constant Matrix: (Units=GPa)
#
#
# Indices 1 2 3 4 5 6 
#
# 1 114.9395 47.6016 72.8760 -0.0003 18.3257 0.0001
# 2 47.6016 205.3248 77.3158 -0.0003 17.9713 0.0002
# 3 72.8760 77.3158 207.4740 -0.0006 -4.3628 0.0004
# 4 -0.0003 -0.0003 -0.0006 32.0545 0.0004 0.9200
# 5 18.3257 17.9713 -4.3628 0.0004 39.1189 -0.0003
# 6 0.0001 0.0002 0.0004 0.9200 -0.0003 -18.3555
#
#
#
# Elastic Compliance Matrix: (Units=1/GPa)
#
#
# Indices 1 2 3 4 5 6 
#
# 1 0.012726 -0.000800 -0.004300 0.000000 -0.006074 0.000000
# 2 -0.000800 0.006050 -0.002029 0.000000 -0.002631 0.000000
# 3 -0.004300 -0.002029 0.007165 0.000000 0.003746 0.000000
# 4 0.000000 0.000000 0.000000 0.031152 0.000000 0.001561
# 5 -0.006074 -0.002631 0.003746 0.000000 0.030035 0.000000
# 6 0.000000 0.000000 0.000000 0.001561 0.000000 -0.054401
#
#
# Mechanical properties :
#
#
# Convention : Reuss Voigt Hill
#
# Bulk Modulus (GPa) = 85.58524 102.59168 94.08846
# Shear Modulus (GPa) = 98.27351 32.55990 65.41671
#
# Velocity S-wave (km/s) = 6.59968 3.79880 5.38455
# Velocity P-wave (km/s) = 9.79830 8.04430 8.96430
#
# Compressibility (1/GPa) = 0.01168426
#
# Stress axis : x y z
#
# Youngs Moduli (GPa) = 78.57913 165.28823 139.56564
#
# Poissons Ratio (x) = 0.13217 0.60011
# Poissons Ratio (y) = 0.06283 0.28318
# Poissons Ratio (z) = 0.33787 0.33537
#
# Static dielectric constant tensor:
#      x y z
#    x 1.698770 0.000000 -0.111710 
#    y 0.000000 1.885550 0.000000 
#    z -0.111710 0.000000 1.831270 
# 
# From -- ./inp_files/204813.got.cif
#   From: 2010.05.17/outbox.cif.g08.bks.cpg/sg12_103_cif.got.tgz:204813.got - 2010.06.03 13:09:07.
