data_PCOD9218569
_publ_section_title
;
Structure prediction by ZEFSAII (Michael W. Deem and Ramdas Pophale) SiO2 
 PCOD9218569
Probable space group: C 2/M
;
_chemical_formula_sum "Si O2"
_cell_formula_units_Z 42
_cell_length_a 12.094724
_cell_length_b 20.616910
_cell_length_c 9.534923
_cell_angle_alpha 90.000000
_cell_angle_beta 120.840474
_cell_angle_gamma 90.000000
_cell_volume 2041.392837
_symmetry_space_group_name_H-M "C 2/M"
_symmetry_group_IT_number 12
_symmetry_cell_setting 'monoclinic'
loop_
_space_group_symop_operation_xyz
x,y,z
-x,y,-z
-x,-y,-z
x,-y,z
1/2+x,1/2+y,z
1/2-x,1/2+y,-z
1/2-x,1/2-y,-z
1/2+x,1/2-y,z
loop_
_atom_site_type_symbol
_atom_site_label
_atom_site_fract_x
_atom_site_fract_y
_atom_site_fract_z
Si Si1 0.209715 0.398947 0.026988
Si Si2 0.641249 0.663402 0.633509
Si Si3 0.646537 0.000000 0.534487
Si Si4 0.882518 0.694955 0.255254
Si Si5 0.847047 0.000000 0.923432
Si Si6 0.500000 0.000000 0.000000
Si Si7 0.330505 0.143891 0.517318
O O1 0.279834 0.385431 0.218562
O O2 0.172949 0.332133 0.925234
O O3 0.304889 0.437988 0.987121
O O4 0.085942 0.443370 0.975175
O O5 0.500000 0.639864 0.500000
O O6 0.627619 0.729968 0.711951
O O7 0.721083 0.673480 0.543184
O O8 0.500000 0.000000 0.500000
O O9 0.662383 0.066255 0.458803
O O10 0.755902 0.000000 0.726134
O O11 0.815160 0.657621 0.341922
O O12 0.032043 0.674562 0.355824
O O13 0.000000 0.000000 0.000000
#
# Coordination Sequence:
#
# PCOD9218569 Si02
#       7
#     8   8   4   8   4   2   8
#     4  11  24  45  73  96 134 181 230 281 355 400
#     4  12  27  42  64 103 147 181 219 284 351 418
#     4  12  21  43  76 101 125 178 244 291 340 416
#     4  11  22  44  70  98 134 180 232 280 335 413
#     4  11  25  42  63  98 137 171 226 291 339 424
#     4  10  24  48  74 104 132 166 240 318 316 398
#     4  11  23  42  70 102 133 174 232 290 338 403
#
# _framework density 20.574187999999999
#
# number of rings (size 3 to 8) (size 9 to 14) (size 15 to 20)
#    0.000    0.762    5.714    2.286    2.667    5.333 
#    0.000    2.381    0.000    0.000    0.000    0.000 
#    0.000    0.000    0.000    0.000    0.000    0.000 
#
# Total GULP energy -117152.803551 kJ/mol
# GULP energy per Si atom -5578.704931 kJ/mol
# Density = 2.052736 g / cm^3
# Si number density = 20.574188 Si / 1000 Ang^3
#
#
#
# Elastic Constant Matrix: (Units=GPa)
#
#
# Indices 1 2 3 4 5 6 
#
# 1 134.0115 -6.2089 46.3606 0.0000 -9.7522 0.0000
# 2 -6.2089 42.6815 -6.2060 0.0000 2.0886 0.0000
# 3 46.3606 -6.2060 87.7912 0.0000 8.0067 0.0000
# 4 0.0000 0.0000 0.0000 -78.9786 0.0000 41.4546
# 5 -9.7522 2.0886 8.0067 0.0000 15.2239 0.0000
# 6 0.0000 0.0000 0.0000 41.4546 0.0000 -17.5324
#
#
#
# Elastic Compliance Matrix: (Units=1/GPa)
#
#
# Indices 1 2 3 4 5 6 
#
# 1 0.010412 0.000093 -0.006406 0.000000 0.010027 0.000000
# 2 0.000093 0.023949 0.002036 0.000000 -0.004297 0.000000
# 3 -0.006406 0.002036 0.016089 0.000000 -0.012845 0.000000
# 4 0.000000 0.000000 0.000000 0.052523 0.000000 0.124189
# 5 0.010027 -0.004297 -0.012845 0.000000 0.079454 0.000000
# 6 0.000000 0.000000 0.000000 0.124189 0.000000 0.236603
#
#
# Mechanical properties :
#
#
# Convention : Reuss Voigt Hill
#
# Bulk Modulus (GPa) = 23.86928 36.93061 30.39995
# Shear Modulus (GPa) = 11.32370 -0.88818 5.21776
#
# Velocity S-wave (km/s) = 2.34857 -0.65775 1.59423
# Velocity P-wave (km/s) = 4.35673 4.17278 4.26575
#
# Compressibility (1/GPa) = 0.04189485
#
# Stress axis : x y z
#
# Youngs Moduli (GPa) = 96.04092 41.75518 62.15373
#
# Poissons Ratio (x) = -0.00386 0.39818
# Poissons Ratio (y) = -0.00889 -0.12654
# Poissons Ratio (z) = 0.61527 -0.08501
#
# Static dielectric constant tensor:
#      x y z
#    x 1.681210 0.000000 0.010520 
#    y 0.000000 1.709670 0.000000 
#    z 0.010520 0.000000 1.783490 
# 
# From -- ./inp_files/49217.got.cif
#   From: 2010.05.17/outbox.cif.g08.bks.cpg/sg12_25_cif.got.tgz:49217.got - 2010.06.03 13:09:07.
