data_PCOD9218349
_publ_section_title
;
Structure prediction by ZEFSAII (Michael W. Deem and Ramdas Pophale) SiO2 
 PCOD9218349
Probable space group: C 2/M
;
_chemical_formula_sum "Si O2"
_cell_formula_units_Z 34
_cell_length_a 9.592815
_cell_length_b 23.577331
_cell_length_c 10.833698
_cell_angle_alpha 90.000000
_cell_angle_beta 142.783612
_cell_angle_gamma 90.000000
_cell_volume 1482.001166
_symmetry_space_group_name_H-M "C 2/M"
_symmetry_group_IT_number 12
_symmetry_cell_setting 'monoclinic'
loop_
_space_group_symop_operation_xyz
x,y,z
-x,y,-z
-x,-y,-z
x,-y,z
1/2+x,1/2+y,z
1/2-x,1/2+y,-z
1/2-x,1/2-y,-z
1/2+x,1/2-y,z
loop_
_atom_site_type_symbol
_atom_site_label
_atom_site_fract_x
_atom_site_fract_y
_atom_site_fract_z
Si Si1 0.750414 0.239958 0.645794
Si Si2 0.411108 0.638560 0.066035
Si Si3 0.000000 0.500000 0.500000
Si Si4 0.588969 0.138572 0.194750
Si Si5 0.157391 0.062189 0.435925
O O1 0.500000 0.215678 0.500000
O O2 0.750000 0.250000 0.500000
O O3 0.787192 0.300860 0.735583
O O4 0.951843 0.197307 0.823958
O O5 0.486511 0.599465 0.233342
O O6 0.500000 0.611937 0.000000
O O7 0.138889 0.647851 0.882183
O O8 0.125364 0.548299 0.500434
O O9 0.752789 0.095692 0.382404
O O10 0.500000 0.117727 0.000000
O O11 0.057701 0.000000 0.394395
#
# Coordination Sequence:
#
# PCOD9218349 Si02
#       5
#     8   8   2   8   8
#     4  12  24  43  73  99 143 187 226 284 352 409
#     4  12  25  43  74 105 135 184 235 288 342 406
#     4   8  20  44  68  98 130 172 228 288 322 402
#     4  12  26  45  69 104 146 183 227 285 353 417
#     4  10  24  44  71  98 140 176 233 284 342 403
#
# _framework density 22.941949999999999
#
# number of rings (size 3 to 8) (size 9 to 14) (size 15 to 20)
#    0.706    0.000    2.353    5.647    1.647    1.882 
#    0.000    1.176    0.000    0.000    0.000    0.000 
#    0.000    0.000    0.000    0.000    0.000    0.000 
#
# Total GULP energy -94923.199836 kJ/mol
# GULP energy per Si atom -5583.717637 kJ/mol
# Density = 2.288973 g / cm^3
# Si number density = 22.941950 Si / 1000 Ang^3
#
#
#
# Elastic Constant Matrix: (Units=GPa)
#
#
# Indices 1 2 3 4 5 6 
#
# 1 87.5689 -13.4239 19.6887 0.0000 8.8009 0.0000
# 2 -13.4239 133.8597 49.2055 0.0000 -5.0648 0.0000
# 3 19.6887 49.2055 111.4095 0.0000 -20.1928 0.0000
# 4 0.0000 0.0000 0.0000 -34.5346 0.0000 5.7499
# 5 8.8009 -5.0648 -20.1928 0.0000 45.7597 0.0000
# 6 0.0000 0.0000 0.0000 5.7499 0.0000 26.2434
#
#
#
# Elastic Compliance Matrix: (Units=1/GPa)
#
#
# Indices 1 2 3 4 5 6 
#
# 1 0.013224 0.002751 -0.004302 0.000000 -0.004137 0.000000
# 2 0.002751 0.009519 -0.004995 0.000000 -0.001680 0.000000
# 3 -0.004302 -0.004995 0.013034 0.000000 0.006026 0.000000
# 4 0.000000 0.000000 0.000000 -0.027937 0.000000 0.006121
# 5 -0.004137 -0.001680 0.006026 0.000000 0.025122 0.000000
# 6 0.000000 0.000000 0.000000 0.006121 0.000000 0.036764
#
#
# Mechanical properties :
#
#
# Convention : Reuss Voigt Hill
#
# Bulk Modulus (GPa) = 44.07952 49.30872 46.69412
# Shear Modulus (GPa) = 55.32212 25.98490 40.65351
#
# Velocity S-wave (km/s) = 4.91592 3.36912 4.21410
# Velocity P-wave (km/s) = 7.17474 6.05591 6.63894
#
# Compressibility (1/GPa) = 0.02268627
#
# Stress axis : x y z
#
# Youngs Moduli (GPa) = 75.61817 105.05472 76.72006
#
# Poissons Ratio (x) = -0.28901 0.33004
# Poissons Ratio (y) = -0.20803 0.38319
# Poissons Ratio (z) = 0.32530 0.52472
#
# Static dielectric constant tensor:
#      x y z
#    x 1.915160 0.000000 0.001390 
#    y 0.000000 1.835790 0.000000 
#    z 0.001390 0.000000 1.829380 
# 
# From -- ./inp_files/136160.got.cif
#   From: 2010.05.17/outbox.cif.g08.bks.cpg/sg12_69_cif.got.tgz:136160.got - 2010.06.03 13:09:07.
