data_PCOD9218796
_publ_section_title
;
Structure prediction by ZEFSAII (Michael W. Deem and Ramdas Pophale) SiO2 
 PCOD9218796
Probable space group: C 2/M
;
_chemical_formula_sum "Si O2"
_cell_formula_units_Z 52
_cell_length_a 9.292761
_cell_length_b 29.076196
_cell_length_c 16.227040
_cell_angle_alpha 90.000000
_cell_angle_beta 35.402665
_cell_angle_gamma 90.000000
_cell_volume 2540.033818
_symmetry_space_group_name_H-M "C 2/M"
_symmetry_group_IT_number 12
_symmetry_cell_setting 'monoclinic'
loop_
_space_group_symop_operation_xyz
x,y,z
-x,y,-z
-x,-y,-z
x,-y,z
1/2+x,1/2+y,z
1/2-x,1/2+y,-z
1/2-x,1/2-y,-z
1/2+x,1/2-y,z
loop_
_atom_site_type_symbol
_atom_site_label
_atom_site_fract_x
_atom_site_fract_y
_atom_site_fract_z
Si Si1 0.000000 0.356427 0.500000
Si Si2 0.380621 0.000000 0.962315
Si Si3 0.326208 0.399275 0.936596
Si Si4 0.219876 0.664743 0.231955
Si Si5 0.909022 0.000000 0.637016
Si Si6 0.986834 0.903050 0.335320
Si Si7 0.381618 0.152230 0.238257
Si Si8 0.525808 0.238760 0.900089
O O1 0.871049 0.328343 0.632438
O O2 0.789768 0.386839 0.554678
O O3 0.610683 0.000000 0.790822
O O4 0.500000 0.000000 0.000000
O O5 0.223093 0.953338 0.024447
O O6 0.569436 0.375034 0.862953
O O7 0.364373 0.395846 0.820197
O O8 0.092869 0.371716 0.082329
O O9 0.333048 0.713403 0.152197
O O10 0.998180 0.651230 0.274513
O O11 0.005499 0.955188 0.639097
O O12 0.000000 0.000000 0.500000
O O13 0.128148 0.874166 0.339210
O O14 0.352071 0.204478 0.221520
O O15 0.500000 0.214224 0.000000
O O16 0.250000 0.250000 0.000000
#
# Coordination Sequence:
#
# PCOD9218796 Si02
#       8
#     4   4   8   8   4   8   8   8
#     4  10  28  45  66  90 140 184 228 265 338 418
#     4  12  20  40  66 102 130 169 235 277 339 401
#     4  11  20  40  69 102 131 171 223 291 334 392
#     4  11  25  44  62 101 141 177 227 278 338 408
#     4  12  26  41  67 102 141 179 229 276 333 423
#     4  11  24  44  68  95 133 180 227 277 336 403
#     4  12  23  39  71  99 133 171 224 287 346 389
#     4  12  22  40  68 103 135 168 219 285 344 397
#
# _framework density 20.472168
#
# number of rings (size 3 to 8) (size 9 to 14) (size 15 to 20)
#    0.000    0.615    6.154    1.846    4.308    0.308 
#    0.000    6.154    0.000    0.000    0.000    0.000 
#    0.000    0.000    0.000    0.000    0.000    0.000 
#
# Total GULP energy -145344.254385 kJ/mol
# GULP energy per Si atom -5590.163630 kJ/mol
# Density = 2.042557 g / cm^3
# Si number density = 20.472168 Si / 1000 Ang^3
#
#
#
# Elastic Constant Matrix: (Units=GPa)
#
#
# Indices 1 2 3 4 5 6 
#
# 1 142.4763 44.1718 22.0182 0.0000 -5.9488 0.0000
# 2 44.1718 111.3799 13.3425 0.0000 -0.8219 0.0000
# 3 22.0182 13.3425 73.9991 0.0000 6.9646 0.0000
# 4 0.0000 0.0000 0.0000 -8.3907 0.0000 20.1670
# 5 -5.9488 -0.8219 6.9646 0.0000 34.1034 0.0000
# 6 0.0000 0.0000 0.0000 20.1670 0.0000 15.8773
#
#
#
# Elastic Compliance Matrix: (Units=1/GPa)
#
#
# Indices 1 2 3 4 5 6 
#
# 1 0.008367 -0.003052 -0.002110 0.000000 0.001817 0.000000
# 2 -0.003052 0.010301 -0.000941 0.000000 -0.000092 0.000000
# 3 -0.002110 -0.000941 0.014629 0.000000 -0.003378 0.000000
# 4 0.000000 0.000000 0.000000 -0.029406 0.000000 0.037351
# 5 0.001817 -0.000092 -0.003378 0.000000 0.030327 0.000000
# 6 0.000000 0.000000 0.000000 0.037351 0.000000 0.015540
#
#
# Mechanical properties :
#
#
# Convention : Reuss Voigt Hill
#
# Bulk Modulus (GPa) = 47.41320 54.10225 50.75773
# Shear Modulus (GPa) = 72.47025 24.87286 48.67155
#
# Velocity S-wave (km/s) = 5.95619 3.48941 4.88120
# Velocity P-wave (km/s) = 8.39713 6.53599 7.52433
#
# Compressibility (1/GPa) = 0.02109117
#
# Stress axis : x y z
#
# Youngs Moduli (GPa) = 119.51868 97.08124 68.35686
#
# Poissons Ratio (x) = 0.29629 0.14425
# Poissons Ratio (y) = 0.36477 0.06429
# Poissons Ratio (z) = 0.25221 0.09130
#
# Static dielectric constant tensor:
#      x y z
#    x 1.688850 0.000000 0.008560 
#    y 0.000000 1.706580 0.000000 
#    z 0.008560 0.000000 1.756270 
# 
# From -- ./inp_files/201219.got.cif
#   From: 2010.05.17/outbox.cif.g08.bks.cpg/sg12_101_cif.got.tgz:201219.got - 2010.06.03 13:09:07.
