data_PCOD9218070
_publ_section_title
;
Structure prediction by ZEFSAII (Michael W. Deem and Ramdas Pophale) SiO2 
 PCOD9218070
Probable space group: C 2/M
;
_chemical_formula_sum "Si O2"
_cell_formula_units_Z 48
_cell_length_a 20.090571
_cell_length_b 9.000674
_cell_length_c 19.775057
_cell_angle_alpha 90.000000
_cell_angle_beta 44.862062
_cell_angle_gamma 90.000000
_cell_volume 2522.446624
_symmetry_space_group_name_H-M "C 2/M"
_symmetry_group_IT_number 12
_symmetry_cell_setting 'monoclinic'
loop_
_space_group_symop_operation_xyz
x,y,z
-x,y,-z
-x,-y,-z
x,-y,z
1/2+x,1/2+y,z
1/2-x,1/2+y,-z
1/2-x,1/2-y,-z
1/2+x,1/2-y,z
loop_
_atom_site_type_symbol
_atom_site_label
_atom_site_fract_x
_atom_site_fract_y
_atom_site_fract_z
Si Si1 0.659143 0.676209 0.760298
Si Si2 0.152906 0.176257 0.414633
Si Si3 0.965749 0.323427 0.881751
Si Si4 0.972180 0.823162 0.629858
Si Si5 0.669167 0.822450 0.900785
Si Si6 0.354187 0.175989 0.828138
O O1 0.660567 0.500000 0.763009
O O2 0.750377 0.734938 0.654682
O O3 0.561065 0.734360 0.800753
O O4 0.664720 0.745226 0.831558
O O5 0.099452 0.201590 0.381492
O O6 0.076284 0.213625 0.527263
O O7 0.172070 0.000000 0.404712
O O8 0.986281 0.500000 0.865941
O O9 0.889077 0.293595 0.878830
O O10 0.919953 0.287697 0.987285
O O11 0.936543 0.727740 0.717949
O O12 0.969062 0.000000 0.647366
O O13 0.762026 0.766312 0.872734
O O14 0.673730 0.000000 0.888272
O O15 0.336550 0.000000 0.833799
#
# Coordination Sequence:
#
# PCOD9218070 Si02
#       6
#     8   8   8   8   8   8
#     4  12  24  37  58  89 118 147 190 242 289 333
#     4   9  18  35  59  85 114 149 190 231 277 340
#     4  10  24  42  58  80 116 159 194 230 283 343
#     4   9  18  34  59  87 113 149 190 229 279 339
#     4  11  22  39  62  83 111 155 198 233 280 341
#     4  11  22  37  59  89 119 147 188 240 287 333
#
# _framework density 19.029145
#
# number of rings (size 3 to 8) (size 9 to 14) (size 15 to 20)
#    0.000    1.667    1.667    4.500    0.000    5.333 
#    0.000    2.500    0.000    0.000    0.000    0.000 
#    0.000    0.000    0.000    0.000    0.000    0.000 
#
# Total GULP energy -134141.763662 kJ/mol
# GULP energy per Si atom -5589.240153 kJ/mol
# Density = 1.898583 g / cm^3
# Si number density = 19.029145 Si / 1000 Ang^3
#
#
#
# Elastic Constant Matrix: (Units=GPa)
#
#
# Indices 1 2 3 4 5 6 
#
# 1 32.6274 10.3338 -2.0547 -0.0001 -13.7548 0.0001
# 2 10.3338 30.6700 13.5580 -0.0001 -11.4461 0.0001
# 3 -2.0547 13.5580 55.5097 -0.0001 -12.5345 0.0001
# 4 -0.0001 -0.0001 -0.0001 14.6040 0.0001 6.0207
# 5 -13.7548 -11.4461 -12.5345 0.0001 26.2097 -0.0001
# 6 0.0001 0.0001 0.0001 6.0207 -0.0001 22.8638
#
#
#
# Elastic Compliance Matrix: (Units=1/GPa)
#
#
# Indices 1 2 3 4 5 6 
#
# 1 0.044341 -0.010445 0.009436 0.000000 0.023221 0.000000
# 2 -0.010445 0.043526 -0.008927 0.000000 0.009257 0.000000
# 3 0.009436 -0.008927 0.023298 0.000000 0.012195 0.000000
# 4 0.000000 0.000000 0.000000 0.076813 0.000000 -0.020227
# 5 0.023221 0.009257 0.012195 0.000000 0.060215 0.000000
# 6 0.000000 0.000000 0.000000 -0.020227 0.000000 0.049064
#
#
# Mechanical properties :
#
#
# Convention : Reuss Voigt Hill
#
# Bulk Modulus (GPa) = 10.95386 18.05348 14.50367
# Shear Modulus (GPa) = 14.38599 19.20017 16.79308
#
# Velocity S-wave (km/s) = 2.75252 3.17990 2.97390
# Velocity P-wave (km/s) = 3.98381 4.79482 4.40800
#
# Compressibility (1/GPa) = 0.09129198
#
# Stress axis : x y z
#
# Youngs Moduli (GPa) = 22.55261 22.97493 42.92143
#
# Poissons Ratio (x) = 0.23998 -0.40500
# Poissons Ratio (y) = 0.23557 0.38317
# Poissons Ratio (z) = -0.21280 0.20510
#
# Static dielectric constant tensor:
#      x y z
#    x 1.651070 0.000000 -0.005470 
#    y 0.000000 1.625140 0.000000 
#    z -0.005470 0.000000 1.663860 
# 
# From -- ./inp_files/248818.got.cif
#   From: 2010.05.17/outbox.cif.g08.bks.cpg/sg12_125_cif.got.tgz:248818.got - 2010.06.03 13:09:07.
