data_PCOD9218799
_publ_section_title
;
Structure prediction by ZEFSAII (Michael W. Deem and Ramdas Pophale) SiO2 
 PCOD9218799
Probable space group: C 2/M
;
_chemical_formula_sum "Si O2"
_cell_formula_units_Z 26
_cell_length_a 15.120680
_cell_length_b 13.764353
_cell_length_c 5.185641
_cell_angle_alpha 90.000000
_cell_angle_beta 73.965147
_cell_angle_gamma 90.000000
_cell_volume 1037.278483
_symmetry_space_group_name_H-M "C 2/M"
_symmetry_group_IT_number 12
_symmetry_cell_setting 'monoclinic'
loop_
_space_group_symop_operation_xyz
x,y,z
-x,y,-z
-x,-y,-z
x,-y,z
1/2+x,1/2+y,z
1/2-x,1/2+y,-z
1/2-x,1/2-y,-z
1/2+x,1/2-y,z
loop_
_atom_site_type_symbol
_atom_site_label
_atom_site_fract_x
_atom_site_fract_y
_atom_site_fract_z
Si Si1 0.262025 0.000000 0.936520
Si Si2 0.000000 0.500000 0.500000
Si Si3 0.141026 0.220371 0.576458
Si Si4 0.160364 0.000000 0.518336
Si Si5 0.907794 0.665429 0.885754
O O1 0.250741 0.000000 0.635825
O O2 0.316604 0.096915 0.964560
O O3 0.176409 0.000000 0.198254
O O4 0.019905 0.584953 0.268307
O O5 0.250000 0.250000 0.500000
O O6 0.121634 0.105558 0.618394
O O7 0.105821 0.257490 0.331087
O O8 0.092612 0.276728 0.848069
#
# Coordination Sequence:
#
# PCOD9218799 Si02
#       5
#     4   2   8   4   8
#     4  11  18  33  56  88 122 161 195 256 310 385
#     4  10  28  46  72  96 124 182 226 268 316 382
#     4  12  22  38  61  94 132 171 205 272 330 390
#     4  12  22  32  58  90 128 158 202 244 336 390
#     4  11  23  40  62  91 130 164 219 267 318 379
#
# _framework density 25.065595999999999
#
# number of rings (size 3 to 8) (size 9 to 14) (size 15 to 20)
#    0.000    0.615    6.154    2.769    0.000    6.154 
#    0.000    0.000    0.000    5.538    0.000    0.000 
#    0.000    0.000    0.000    0.000    0.000    0.000 
#
# Total GULP energy -72447.607084 kJ/mol
# GULP energy per Si atom -5572.892853 kJ/mol
# Density = 2.500855 g / cm^3
# Si number density = 25.065596 Si / 1000 Ang^3
#
#
#
# Elastic Constant Matrix: (Units=GPa)
#
#
# Indices 1 2 3 4 5 6 
#
# 1 32.8375 35.2115 31.9638 0.0000 7.0810 0.0000
# 2 35.2115 288.3113 88.4922 0.0000 11.3210 0.0000
# 3 31.9638 88.4922 194.8490 0.0000 10.9930 0.0000
# 4 0.0000 0.0000 0.0000 57.4502 0.0000 18.8483
# 5 7.0810 11.3210 10.9930 0.0000 38.1479 0.0000
# 6 0.0000 0.0000 0.0000 18.8483 0.0000 72.2449
#
#
#
# Elastic Compliance Matrix: (Units=1/GPa)
#
#
# Indices 1 2 3 4 5 6 
#
# 1 0.039582 -0.003173 -0.004768 0.000000 -0.005031 0.000000
# 2 -0.003173 0.004302 -0.001418 0.000000 -0.000279 0.000000
# 3 -0.004768 -0.001418 0.006592 0.000000 -0.000594 0.000000
# 4 0.000000 0.000000 0.000000 0.019036 0.000000 -0.004966
# 5 -0.005031 -0.000279 -0.000594 0.000000 0.027402 0.000000
# 6 0.000000 0.000000 0.000000 -0.004966 0.000000 0.015137
#
#
# Mechanical properties :
#
#
# Convention : Reuss Voigt Hill
#
# Bulk Modulus (GPa) = 31.48823 91.92585 61.70704
# Shear Modulus (GPa) = 35.37220 57.59062 46.48141
#
# Velocity S-wave (km/s) = 3.76065 4.79852 4.31094
# Velocity P-wave (km/s) = 5.60770 8.21309 7.03211
#
# Compressibility (1/GPa) = 0.03175789
#
# Stress axis : x y z
#
# Youngs Moduli (GPa) = 25.26415 232.44735 151.70683
#
# Poissons Ratio (x) = 0.73756 0.72337
# Poissons Ratio (y) = 0.08016 0.21505
# Poissons Ratio (z) = 0.12047 0.32950
#
# Static dielectric constant tensor:
#      x y z
#    x 2.324840 0.000000 0.002780 
#    y 0.000000 1.881260 0.000000 
#    z 0.002780 0.000000 1.929990 
# 
# From -- ./inp_files/5495.got.cif
#   From: 2010.05.17/outbox.cif.g08.bks.cpg/sg12_3_cif.got.tgz:5495.got - 2010.06.03 13:09:07.
