data_PCOD9218608
_publ_section_title
;
Structure prediction by ZEFSAII (Michael W. Deem and Ramdas Pophale) SiO2 
 PCOD9218608
Probable space group: C 2/M
;
_chemical_formula_sum "Si O2"
_cell_formula_units_Z 42
_cell_length_a 21.863029
_cell_length_b 8.130628
_cell_length_c 10.003890
_cell_angle_alpha 90.000000
_cell_angle_beta 72.652565
_cell_angle_gamma 90.000000
_cell_volume 1697.406099
_symmetry_space_group_name_H-M "C 2/M"
_symmetry_group_IT_number 12
_symmetry_cell_setting 'monoclinic'
loop_
_space_group_symop_operation_xyz
x,y,z
-x,y,-z
-x,-y,-z
x,-y,z
1/2+x,1/2+y,z
1/2-x,1/2+y,-z
1/2-x,1/2-y,-z
1/2+x,1/2-y,z
loop_
_atom_site_type_symbol
_atom_site_label
_atom_site_fract_x
_atom_site_fract_y
_atom_site_fract_z
Si Si1 0.652279 0.189510 0.685646
Si Si2 0.211011 0.816168 0.898518
Si Si3 0.887605 0.682346 0.862791
Si Si4 0.514100 0.677199 0.833437
Si Si5 0.000000 0.000000 0.500000
Si Si6 0.107416 0.302056 0.436632
O O1 0.706073 0.230013 0.758911
O O2 0.587680 0.288015 0.762540
O O3 0.658548 0.216958 0.523356
O O4 0.635770 0.000000 0.716453
O O5 0.230850 0.000000 0.860294
O O6 0.250000 0.750000 0.000000
O O7 0.139656 0.805579 0.010259
O O8 0.869820 0.500000 0.920304
O O9 0.964297 0.695891 0.804264
O O10 0.863010 0.714106 0.730373
O O11 0.497374 0.500000 0.780263
O O12 0.500000 0.675100 0.000000
O O13 0.944376 0.847318 0.519251
O O14 0.085401 0.500000 0.458141
#
# Coordination Sequence:
#
# PCOD9218608 Si02
#       6
#     8   8   8   8   2   8
#     4  11  23  42  64  92 132 173 217 268 327 389
#     4  12  26  45  70  97 124 162 220 278 338 398
#     4  11  23  42  64  92 132 173 217 268 327 389
#     4  11  22  34  55  91 129 168 210 258 314 388
#     4  12  22  36  68  92 144 184 230 250 344 376
#     4  10  25  41  60  95 138 182 225 268 321 396
#
# _framework density 24.743638000000001
#
# number of rings (size 3 to 8) (size 9 to 14) (size 15 to 20)
#    0.000    0.952    1.905    4.857    8.000    3.810 
#    0.000    0.952    0.000    0.000    0.000    0.000 
#    0.000    0.000    0.000    0.000    0.000    0.000 
#
# Total GULP energy -117069.134789 kJ/mol
# GULP energy per Si atom -5574.720704 kJ/mol
# Density = 2.468732 g / cm^3
# Si number density = 24.743638 Si / 1000 Ang^3
#
#
#
# Elastic Constant Matrix: (Units=GPa)
#
#
# Indices 1 2 3 4 5 6 
#
# 1 69.3669 11.2960 24.2755 0.0000 26.0354 0.0000
# 2 11.2960 129.7320 26.3618 0.0000 11.8845 0.0000
# 3 24.2755 26.3618 124.2096 0.0000 32.5263 0.0000
# 4 0.0000 0.0000 0.0000 30.8910 0.0000 8.8365
# 5 26.0354 11.8845 32.5263 0.0000 42.4323 0.0000
# 6 0.0000 0.0000 0.0000 8.8365 0.0000 34.6590
#
#
#
# Elastic Compliance Matrix: (Units=1/GPa)
#
#
# Indices 1 2 3 4 5 6 
#
# 1 0.018826 -0.000496 -0.000733 0.000000 -0.010850 0.000000
# 2 -0.000496 0.008116 -0.001389 0.000000 -0.000904 0.000000
# 3 -0.000733 -0.001389 0.010346 0.000000 -0.007092 0.000000
# 4 0.000000 0.000000 0.000000 0.034919 0.000000 -0.008903
# 5 -0.010850 -0.000904 -0.007092 0.000000 0.035914 0.000000
# 6 0.000000 0.000000 0.000000 -0.008903 0.000000 0.031122
#
#
# Mechanical properties :
#
#
# Convention : Reuss Voigt Hill
#
# Bulk Modulus (GPa) = 31.19858 49.68611 40.44234
# Shear Modulus (GPa) = 32.22411 39.02146 35.62278
#
# Velocity S-wave (km/s) = 3.61268 3.97549 3.79842
# Velocity P-wave (km/s) = 5.48070 6.41846 5.96803
#
# Compressibility (1/GPa) = 0.03205275
#
# Stress axis : x y z
#
# Youngs Moduli (GPa) = 53.11864 123.20652 96.65511
#
# Poissons Ratio (x) = 0.06115 0.07081
# Poissons Ratio (y) = 0.02636 0.13424
# Poissons Ratio (z) = 0.03892 0.17111
#
# Static dielectric constant tensor:
#      x y z
#    x 2.134710 0.000000 0.148330 
#    y 0.000000 1.911300 0.000000 
#    z 0.148330 0.000000 2.194100 
# 
# From -- ./inp_files/171504.got.cif
#   From: 2010.05.17/outbox.cif.g08.bks.cpg/sg12_86_cif.got.tgz:171504.got - 2010.06.03 13:09:07.
