data_PCOD9218830
_publ_section_title
;
Structure prediction by ZEFSAII (Michael W. Deem and Ramdas Pophale) SiO2 
 PCOD9218830
Probable space group: C 2/M
;
_chemical_formula_sum "Si O2"
_cell_formula_units_Z 40
_cell_length_a 21.371946
_cell_length_b 10.765057
_cell_length_c 19.612380
_cell_angle_alpha 90.000000
_cell_angle_beta 153.796353
_cell_angle_gamma 90.000000
_cell_volume 1992.431235
_symmetry_space_group_name_H-M "C 2/M"
_symmetry_group_IT_number 12
_symmetry_cell_setting 'monoclinic'
loop_
_space_group_symop_operation_xyz
x,y,z
-x,y,-z
-x,-y,-z
x,-y,z
1/2+x,1/2+y,z
1/2-x,1/2+y,-z
1/2-x,1/2-y,-z
1/2+x,1/2-y,z
loop_
_atom_site_type_symbol
_atom_site_label
_atom_site_fract_x
_atom_site_fract_y
_atom_site_fract_z
Si Si1 0.491269 0.748310 0.750227
Si Si2 0.656069 0.209543 0.627077
Si Si3 0.723298 0.353124 0.570954
Si Si4 0.984707 0.000000 0.155000
Si Si5 0.734862 0.500000 0.165544
Si Si6 0.414452 0.000000 0.201317
Si Si7 0.683335 0.000000 0.543592
O O1 0.411875 0.703179 0.603099
O O2 0.363068 0.792082 0.674425
O O3 0.559590 0.625427 0.849929
O O4 0.597181 0.865228 0.845266
O O5 0.500000 0.241944 0.500000
O O6 0.723556 0.324012 0.652401
O O7 0.732884 0.124482 0.759219
O O8 0.645708 0.114545 0.554109
O O9 0.721438 0.500000 0.558535
O O10 0.154317 0.000000 0.317956
O O11 0.922732 0.000000 0.018441
O O12 0.832719 0.500000 0.193365
O O13 0.583040 0.000000 0.381532
#
# Coordination Sequence:
#
# PCOD9218830 Si02
#       7
#     8   8   8   4   4   4   4
#     4  11  21  36  61  93 123 159 203 255 313 360
#     4  11  20  37  61  89 117 159 212 252 298 356
#     4  11  20  34  61  94 124 153 203 268 309 348
#     4  12  24  39  60  98 127 158 205 259 308 362
#     4  11  25  40  63  90 124 169 208 244 305 376
#     4  12  20  41  68  88 124 165 204 259 305 367
#     4  11  17  34  61  86 112 152 199 252 287 349
#
# _framework density 20.075975
#
# number of rings (size 3 to 8) (size 9 to 14) (size 15 to 20)
#    0.000    0.800    8.000    1.800    0.000    2.800 
#    0.000    0.000    2.200    1.200    0.000    0.000 
#    0.000    0.000    0.000    0.000    0.000    0.000 
#
# Total GULP energy -111545.317361 kJ/mol
# GULP energy per Si atom -5577.265868 kJ/mol
# Density = 2.003028 g / cm^3
# Si number density = 20.075975 Si / 1000 Ang^3
#
#
#
# Elastic Constant Matrix: (Units=GPa)
#
#
# Indices 1 2 3 4 5 6 
#
# 1 87.7853 40.0297 12.7187 0.0000 -5.3201 0.0000
# 2 40.0297 147.6327 5.3179 0.0000 -14.3157 0.0000
# 3 12.7187 5.3179 46.3939 -0.0001 -7.6572 -0.0001
# 4 0.0000 0.0000 -0.0001 7.7898 -0.0001 -13.5531
# 5 -5.3201 -14.3157 -7.6572 -0.0001 25.8029 0.0000
# 6 0.0000 0.0000 -0.0001 -13.5531 0.0000 40.0155
#
#
#
# Elastic Compliance Matrix: (Units=1/GPa)
#
#
# Indices 1 2 3 4 5 6 
#
# 1 0.013482 -0.003553 -0.003318 0.000000 -0.000176 0.000000
# 2 -0.003553 0.008096 0.000701 0.000000 0.003967 0.000000
# 3 -0.003318 0.000701 0.023485 0.000001 0.006674 0.000000
# 4 0.000000 0.000000 0.000001 0.312553 0.000001 0.105860
# 5 -0.000176 0.003967 0.006674 0.000001 0.042901 0.000000
# 6 0.000000 0.000000 0.000000 0.105860 0.000000 0.060845
#
#
# Mechanical properties :
#
#
# Convention : Reuss Voigt Hill
#
# Bulk Modulus (GPa) = 30.55912 44.21605 37.38758
# Shear Modulus (GPa) = 10.31758 29.63800 19.97779
#
# Velocity S-wave (km/s) = 2.26945 3.84642 3.15796
# Velocity P-wave (km/s) = 4.70340 6.46520 5.65335
#
# Compressibility (1/GPa) = 0.03272346
#
# Stress axis : x y z
#
# Youngs Moduli (GPa) = 74.17508 123.51142 42.57971
#
# Poissons Ratio (x) = 0.43884 0.14127
# Poissons Ratio (y) = 0.26355 -0.02984
# Poissons Ratio (z) = 0.24609 -0.08656
#
# Static dielectric constant tensor:
#      x y z
#    x 1.748310 0.000000 0.031570 
#    y 0.000000 0.721700 0.000000 
#    z 0.031570 0.000000 1.739020 
# 
# From -- ./inp_files/283438.got.cif
#   From: 2010.05.17/outbox.cif.g08.bks.cpg/sg12_142_cif.got.tgz:283438.got - 2010.06.03 13:09:07.
