data_PCOD9218870
_publ_section_title
;
Structure prediction by ZEFSAII (Michael W. Deem and Ramdas Pophale) SiO2 
 PCOD9218870
Probable space group: C 2/M
;
_chemical_formula_sum "Si O2"
_cell_formula_units_Z 42
_cell_length_a 12.068541
_cell_length_b 20.803325
_cell_length_c 11.492501
_cell_angle_alpha 90.000000
_cell_angle_beta 134.354696
_cell_angle_gamma 90.000000
_cell_volume 2063.116326
_symmetry_space_group_name_H-M "C 2/M"
_symmetry_group_IT_number 12
_symmetry_cell_setting 'monoclinic'
loop_
_space_group_symop_operation_xyz
x,y,z
-x,y,-z
-x,-y,-z
x,-y,z
1/2+x,1/2+y,z
1/2-x,1/2+y,-z
1/2-x,1/2-y,-z
1/2+x,1/2-y,z
loop_
_atom_site_type_symbol
_atom_site_label
_atom_site_fract_x
_atom_site_fract_y
_atom_site_fract_z
Si Si1 0.243559 0.611018 0.856616
Si Si2 0.711513 0.179019 0.602751
Si Si3 0.500000 0.500000 0.000000
Si Si4 0.565451 0.705972 0.855241
Si Si5 0.458992 0.150578 0.764623
Si Si6 0.661448 0.322032 0.666303
O O1 0.174136 0.631583 0.681101
O O2 0.099575 0.602142 0.839988
O O3 0.368254 0.555502 0.933765
O O4 0.338341 0.672905 0.972626
O O5 0.626710 0.163172 0.421384
O O6 0.675395 0.252460 0.612680
O O7 0.895624 0.174976 0.721898
O O8 0.536870 0.781185 0.854895
O O9 0.644419 0.692082 0.789665
O O10 0.317638 0.139088 0.749666
O O11 0.500000 0.351354 0.500000
#
# Coordination Sequence:
#
# PCOD9218870 Si02
#       6
#     8   8   2   8   8   8
#     4  12  24  42  61  91 121 172 218 262 312 359
#     4  11  19  36  59  94 134 167 200 248 315 393
#     4  12  28  48  66  78 128 176 222 276 302 356
#     4  11  20  35  60  92 135 168 199 250 325 393
#     4  11  22  34  62  97 134 163 203 259 316 399
#     4  11  18  32  57  92 137 168 185 239 327 394
#
# _framework density 20.357551999999998
#
# number of rings (size 3 to 8) (size 9 to 14) (size 15 to 20)
#    0.000    0.762    7.619    2.286    0.000    0.762 
#    0.000    1.905    0.000    2.286    0.000    2.667 
#    0.000    0.000    0.000    0.000    0.000    0.000 
#
# Total GULP energy -117089.615915 kJ/mol
# GULP energy per Si atom -5575.695996 kJ/mol
# Density = 2.031122 g / cm^3
# Si number density = 20.357552 Si / 1000 Ang^3
#
#
#
# Elastic Constant Matrix: (Units=GPa)
#
#
# Indices 1 2 3 4 5 6 
#
# 1 169.6075 23.8886 13.8913 0.0000 35.7967 0.0000
# 2 23.8886 36.9346 12.0973 0.0000 13.2120 0.0000
# 3 13.8913 12.0973 71.7773 0.0000 8.9850 0.0000
# 4 0.0000 0.0000 0.0000 2.2320 0.0000 13.3928
# 5 35.7967 13.2120 8.9850 0.0000 42.9170 0.0000
# 6 0.0000 0.0000 0.0000 13.3928 0.0000 21.1085
#
#
#
# Elastic Compliance Matrix: (Units=1/GPa)
#
#
# Indices 1 2 3 4 5 6 
#
# 1 0.007429 -0.002823 -0.000303 0.000000 -0.005264 0.000000
# 2 -0.002823 0.032697 -0.004107 0.000000 -0.006851 0.000000
# 3 -0.000303 -0.004107 0.014883 0.000000 -0.001599 0.000000
# 4 0.000000 0.000000 0.000000 -0.159606 0.000000 0.101266
# 5 -0.005264 -0.006851 -0.001599 0.000000 0.030136 0.000000
# 6 0.000000 0.000000 0.000000 0.101266 0.000000 -0.016877
#
#
# Mechanical properties :
#
#
# Convention : Reuss Voigt Hill
#
# Bulk Modulus (GPa) = 24.66475 42.00818 33.33646
# Shear Modulus (GPa) = -78.91612 28.48098 -25.21757
#
# Velocity S-wave (km/s) = -6.23291 3.74443 -3.52338
# Velocity P-wave (km/s) = 6.29737 6.27490 0.37585
#
# Compressibility (1/GPa) = 0.04054369
#
# Stress axis : x y z
#
# Youngs Moduli (GPa) = 134.59940 30.58431 67.19113
#
# Poissons Ratio (x) = 0.08633 0.02037
# Poissons Ratio (y) = 0.37995 0.27593
# Poissons Ratio (z) = 0.04080 0.12560
#
# Static dielectric constant tensor:
#      x y z
#    x 1.838030 0.000000 0.035660 
#    y 0.000000 1.658320 0.000000 
#    z 0.035660 0.000000 1.743310 
# 
# From -- ./inp_files/132898.got.cif
#   From: 2010.05.17/outbox.cif.g08.bks.cpg/sg12_67_cif.got.tgz:132898.got - 2010.06.03 13:09:07.
