data_PCOD9218245
_publ_section_title
;
Structure prediction by ZEFSAII (Michael W. Deem and Ramdas Pophale) SiO2 
 PCOD9218245
Probable space group: C 2/M
;
_chemical_formula_sum "Si O2"
_cell_formula_units_Z 42
_cell_length_a 17.899902
_cell_length_b 20.757598
_cell_length_c 4.949909
_cell_angle_alpha 90.000000
_cell_angle_beta 73.933501
_cell_angle_gamma 90.000000
_cell_volume 1767.346688
_symmetry_space_group_name_H-M "C 2/M"
_symmetry_group_IT_number 12
_symmetry_cell_setting 'monoclinic'
loop_
_space_group_symop_operation_xyz
x,y,z
-x,y,-z
-x,-y,-z
x,-y,z
1/2+x,1/2+y,z
1/2-x,1/2+y,-z
1/2-x,1/2-y,-z
1/2+x,1/2-y,z
loop_
_atom_site_type_symbol
_atom_site_label
_atom_site_fract_x
_atom_site_fract_y
_atom_site_fract_z
Si Si1 0.920267 0.106857 0.190705
Si Si2 0.500000 0.500000 0.500000
Si Si3 0.587177 0.200337 0.394328
Si Si4 0.677267 0.500000 0.000698
Si Si5 0.787925 0.500000 0.388373
Si Si6 0.301099 0.301039 0.620040
Si Si7 0.649522 0.867856 0.858027
O O1 0.857370 0.155296 0.379563
O O2 0.952623 0.055977 0.375475
O O3 0.876531 0.061892 0.011570
O O4 0.000000 0.138700 0.000000
O O5 0.500000 0.223220 0.500000
O O6 0.643441 0.258272 0.248448
O O7 0.613223 0.176231 0.661246
O O8 0.598803 0.142231 0.173806
O O9 0.749869 0.500000 0.721691
O O10 0.714180 0.500000 0.258485
O O11 0.839192 0.438087 0.273036
O O12 0.250000 0.250000 0.500000
O O13 0.237713 0.344624 0.831947
#
# Coordination Sequence:
#
# PCOD9218245 Si02
#       7
#     8   2   8   4   4   8   8
#     4  11  25  41  66 100 145 189 231 289 352 423
#     4  10  24  44  60 106 146 184 228 284 366 434
#     4  11  25  47  70 100 138 183 228 294 347 414
#     4  11  24  42  67 101 144 182 226 283 349 427
#     4  12  24  43  76 101 136 184 228 292 352 411
#     4  10  24  44  66 100 137 186 239 282 344 418
#     4  11  24  46  71 103 136 177 238 284 350 419
#
# _framework density 23.764436
#
# number of rings (size 3 to 8) (size 9 to 14) (size 15 to 20)
#    0.000    1.143    1.905    3.429    9.333    3.048 
#    0.000    2.857    0.000    0.000    0.000    0.000 
#    0.000    0.000    0.000    0.000    0.000    0.000 
#
# Total GULP energy -117378.946523 kJ/mol
# GULP energy per Si atom -5589.473644 kJ/mol
# Density = 2.371035 g / cm^3
# Si number density = 23.764436 Si / 1000 Ang^3
#
#
#
# Elastic Constant Matrix: (Units=GPa)
#
#
# Indices 1 2 3 4 5 6 
#
# 1 -62.6067 24.9528 19.9282 0.0000 59.3220 0.0000
# 2 24.9528 81.2628 -5.8142 0.0000 -17.1938 0.0000
# 3 19.9282 -5.8142 75.1072 0.0000 -13.7723 0.0000
# 4 0.0000 0.0000 0.0000 -14.6152 0.0000 33.4475
# 5 59.3220 -17.1938 -13.7723 0.0000 14.9678 0.0000
# 6 0.0000 0.0000 0.0000 33.4475 0.0000 -31.9324
#
#
#
# Elastic Compliance Matrix: (Units=1/GPa)
#
#
# Indices 1 2 3 4 5 6 
#
# 1 -0.001542 0.003395 0.003017 0.000000 0.012788 0.000000
# 2 0.003395 0.011039 -0.000227 0.000000 -0.000984 0.000000
# 3 0.003017 -0.000227 0.012338 0.000000 -0.000865 0.000000
# 4 0.000000 0.000000 0.000000 0.048973 0.000000 0.051297
# 5 0.012788 -0.000984 -0.000865 0.000000 0.014201 0.000000
# 6 0.000000 0.000000 0.000000 0.051297 0.000000 0.022415
#
#
# Mechanical properties :
#
#
# Convention : Reuss Voigt Hill
#
# Bulk Modulus (GPa) = 29.23558 19.09966 24.16762
# Shear Modulus (GPa) = 46.96861 -2.66952 22.14954
#
# Velocity S-wave (km/s) = 4.45052 -1.06102 3.05625
# Velocity P-wave (km/s) = 6.22402 2.55998 4.75878
#
# Compressibility (1/GPa) = 0.03420489
#
# Stress axis : x y z
#
# Youngs Moduli (GPa) = -648.44254 90.58941 81.05299
#
# Poissons Ratio (x) = -0.30756 -0.24453
# Poissons Ratio (y) = 2.20154 0.01838
# Poissons Ratio (z) = 1.95630 0.02054
#
# Static dielectric constant tensor:
#      x y z
#    x 1.889580 0.000000 -0.030930 
#    y 0.000000 2.048750 0.000000 
#    z -0.030930 0.000000 1.933580 
# 
# From -- ./inp_files/16040.got.cif
#   From: 2010.05.17/outbox.cif.g08.bks.cpg/sg12_9_cif.got.tgz:16040.got - 2010.06.03 13:09:07.
