data_PCOD9218471
_publ_section_title
;
Structure prediction by ZEFSAII (Michael W. Deem and Ramdas Pophale) SiO2 
 PCOD9218471
Probable space group: C 2/M
;
_chemical_formula_sum "Si O2"
_cell_formula_units_Z 44
_cell_length_a 19.972921
_cell_length_b 9.897587
_cell_length_c 9.987325
_cell_angle_alpha 90.000000
_cell_angle_beta 114.298938
_cell_angle_gamma 90.000000
_cell_volume 1799.427340
_symmetry_space_group_name_H-M "C 2/M"
_symmetry_group_IT_number 12
_symmetry_cell_setting 'monoclinic'
loop_
_space_group_symop_operation_xyz
x,y,z
-x,y,-z
-x,-y,-z
x,-y,z
1/2+x,1/2+y,z
1/2-x,1/2+y,-z
1/2-x,1/2-y,-z
1/2+x,1/2-y,z
loop_
_atom_site_type_symbol
_atom_site_label
_atom_site_fract_x
_atom_site_fract_y
_atom_site_fract_z
Si Si1 0.684575 0.000000 0.411335
Si Si2 0.573599 0.500000 0.735969
Si Si3 0.913069 0.701961 0.173859
Si Si4 0.711325 0.667684 0.389333
Si Si5 0.027125 0.500000 0.374151
Si Si6 0.738098 0.847624 0.864870
Si Si7 0.099595 0.000000 0.452400
Si Si8 0.089247 0.500000 0.058173
O O1 0.717346 0.836735 0.433761
O O2 0.613643 0.000000 0.446643
O O3 0.639667 0.000000 0.229980
O O4 0.587097 0.362592 0.826727
O O5 0.615481 0.500000 0.625686
O O6 0.486962 0.500000 0.633426
O O7 0.990084 0.632432 0.276446
O O8 0.850167 0.660558 0.228333
O O9 0.893443 0.630234 0.018701
O O10 0.740978 0.500000 0.409058
O O11 0.720335 0.687839 0.236863
O O12 0.635875 0.628067 0.406461
O O13 0.000000 0.500000 0.500000
O O14 0.757265 0.000000 0.920449
O O15 0.750000 0.750000 0.000000
O O16 0.000000 0.500000 0.000000
#
# Coordination Sequence:
#
# PCOD9218471 Si02
#       8
#     4   4   8   8   4   8   4   4
#     4  11  23  42  74  98 146 189 245 323 374 438
#     4  11  26  46  72 108 153 210 238 330 396 463
#     4  11  25  46  70 105 150 192 262 305 389 478
#     4  11  25  45  75 111 146 196 259 311 379 459
#     4  11  22  39  75 102 133 189 251 320 372 451
#     4  12  26  50  75 111 154 198 256 317 387 465
#     4  10  24  46  70 104 159 194 259 307 397 460
#     4  11  23  46  72 109 143 193 259 314 382 461
#
# _framework density 24.452223
#
# number of rings (size 3 to 8) (size 9 to 14) (size 15 to 20)
#    0.000    0.909    5.455    2.182    8.909    0.000 
#    1.636    0.455    0.000    0.000    0.000    0.000 
#    0.000    0.000    0.000    0.000    0.000    0.000 
#
# Total GULP energy -122932.628207 kJ/mol
# GULP energy per Si atom -5587.846737 kJ/mol
# Density = 2.439657 g / cm^3
# Si number density = 24.452223 Si / 1000 Ang^3
#
#
#
# Elastic Constant Matrix: (Units=GPa)
#
#
# Indices 1 2 3 4 5 6 
#
# 1 138.0472 51.1856 57.3350 0.0000 -8.4033 0.0000
# 2 51.1856 236.5317 103.3337 0.0000 -15.1581 0.0000
# 3 57.3350 103.3337 155.4261 0.0000 -25.5208 0.0000
# 4 0.0000 0.0000 0.0000 38.1398 0.0000 8.4447
# 5 -8.4033 -15.1581 -25.5208 0.0000 47.5987 0.0000
# 6 0.0000 0.0000 0.0000 8.4447 0.0000 42.7985
#
#
#
# Elastic Compliance Matrix: (Units=1/GPa)
#
#
# Indices 1 2 3 4 5 6 
#
# 1 0.008631 -0.000670 -0.002767 0.000000 -0.000173 0.000000
# 2 -0.000670 0.006013 -0.003789 0.000000 -0.000235 0.000000
# 3 -0.002767 -0.003789 0.010631 0.000000 0.004005 0.000000
# 4 0.000000 0.000000 0.000000 0.027417 0.000000 -0.005410
# 5 -0.000173 -0.000235 0.004005 0.000000 0.023051 0.000000
# 6 0.000000 0.000000 0.000000 -0.005410 0.000000 0.024433
#
#
# Mechanical properties :
#
#
# Convention : Reuss Voigt Hill
#
# Bulk Modulus (GPa) = 92.39281 105.96816 99.18049
# Shear Modulus (GPa) = 42.28831 46.91744 44.60288
#
# Velocity S-wave (km/s) = 4.16315 4.38509 4.27556
# Velocity P-wave (km/s) = 7.80872 8.31081 8.06368
#
# Compressibility (1/GPa) = 0.01082335
#
# Stress axis : x y z
#
# Youngs Moduli (GPa) = 115.86215 166.30417 94.06140
#
# Poissons Ratio (x) = 0.11144 0.26025
# Poissons Ratio (y) = 0.07764 0.35641
# Poissons Ratio (z) = 0.32056 0.63015
#
# Static dielectric constant tensor:
#      x y z
#    x 1.960650 0.000000 0.056480 
#    y 0.000000 2.000000 0.000000 
#    z 0.056480 0.000000 1.943300 
# 
# From -- ./inp_files/163266.got.cif
#   From: 2010.05.17/outbox.cif.g08.bks.cpg/sg12_82_cif.got.tgz:163266.got - 2010.06.03 13:09:07.
