data_PCOD9218928
_publ_section_title
;
Structure prediction by ZEFSAII (Michael W. Deem and Ramdas Pophale) SiO2 
 PCOD9218928
Probable space group: C 2/M
;
_chemical_formula_sum "Si O2"
_cell_formula_units_Z 56
_cell_length_a 8.861335
_cell_length_b 17.908928
_cell_length_c 20.605460
_cell_angle_alpha 90.000000
_cell_angle_beta 117.537681
_cell_angle_gamma 90.000000
_cell_volume 2899.553869
_symmetry_space_group_name_H-M "C 2/M"
_symmetry_group_IT_number 12
_symmetry_cell_setting 'monoclinic'
loop_
_space_group_symop_operation_xyz
x,y,z
-x,y,-z
-x,-y,-z
x,-y,z
1/2+x,1/2+y,z
1/2-x,1/2+y,-z
1/2-x,1/2-y,-z
1/2+x,1/2-y,z
loop_
_atom_site_type_symbol
_atom_site_label
_atom_site_fract_x
_atom_site_fract_y
_atom_site_fract_z
Si Si1 0.675009 0.087295 0.735140
Si Si2 0.990930 0.639894 0.423537
Si Si3 0.495996 0.704193 0.632259
Si Si4 0.335499 0.414927 0.512608
Si Si5 0.178720 0.283185 0.052852
Si Si6 0.882620 0.689396 0.727009
Si Si7 0.549282 0.696187 0.149561
O O1 0.642715 0.104723 0.652510
O O2 0.507896 0.121405 0.736848
O O3 0.833084 0.133986 0.794148
O O4 0.693332 0.000000 0.749075
O O5 0.981085 0.729048 0.415472
O O6 0.178351 0.613830 0.438501
O O7 0.000000 0.615612 0.500000
O O8 0.372318 0.642496 0.578119
O O9 0.682685 0.672550 0.684524
O O10 0.425870 0.747691 0.681044
O O11 0.500000 0.413489 0.500000
O O12 0.306162 0.500000 0.528294
O O13 0.348902 0.324110 0.111964
O O14 0.122309 0.219234 0.093261
O O15 0.250000 0.250000 0.000000
O O16 0.000000 0.323713 0.000000
O O17 0.927501 0.728466 0.803679
#
# Coordination Sequence:
#
# PCOD9218928 Si02
#       7
#     8   8   8   8   8   8   8
#     4  11  24  38  60  89 126 166 205 255 321 366
#     4  11  22  39  57  77 109 158 219 269 309 360
#     4  11  21  35  56  79 107 150 210 264 314 367
#     4  11  23  36  50  72 108 149 198 263 329 371
#     4   9  19  34  65 104 124 153 199 245 284 348
#     4  11  20  37  60  86 115 155 203 250 296 359
#     4  11  18  38  62  93 128 158 199 248 286 365
#
# _framework density 19.313316
#
# number of rings (size 3 to 8) (size 9 to 14) (size 15 to 20)
#    0.000    1.286    4.286    3.857    0.000    2.857 
#    0.000    0.000    0.000    6.857    0.000    0.000 
#    0.000    0.000    0.000    0.000    0.000    0.000 
#
# Total GULP energy -156294.619211 kJ/mol
# GULP energy per Si atom -5581.950686 kJ/mol
# Density = 1.926936 g / cm^3
# Si number density = 19.313316 Si / 1000 Ang^3
#
#
#
# Elastic Constant Matrix: (Units=GPa)
#
#
# Indices 1 2 3 4 5 6 
#
# 1 95.7076 20.9511 50.2786 0.0000 25.5186 0.0000
# 2 20.9511 85.1510 32.4105 0.0000 13.7847 0.0000
# 3 50.2786 32.4105 111.1367 0.0000 18.8421 0.0000
# 4 0.0000 0.0000 0.0000 6.0265 0.0000 4.2119
# 5 25.5186 13.7847 18.8421 0.0000 57.5418 0.0000
# 6 0.0000 0.0000 0.0000 4.2119 0.0000 15.9396
#
#
#
# Elastic Compliance Matrix: (Units=1/GPa)
#
#
# Indices 1 2 3 4 5 6 
#
# 1 0.014823 -0.000736 -0.005724 0.000000 -0.004523 0.000000
# 2 -0.000736 0.013471 -0.003286 0.000000 -0.001825 0.000000
# 3 -0.005724 -0.003286 0.012686 0.000000 -0.000828 0.000000
# 4 0.000000 0.000000 0.000000 0.203518 0.000000 -0.053777
# 5 -0.004523 -0.001825 -0.000828 0.000000 0.020093 0.000000
# 6 0.000000 0.000000 0.000000 -0.053777 0.000000 0.076947
#
#
# Mechanical properties :
#
#
# Convention : Reuss Voigt Hill
#
# Bulk Modulus (GPa) = 46.53978 55.47506 51.00742
# Shear Modulus (GPa) = 13.57980 28.45859 21.01920
#
# Velocity S-wave (km/s) = 2.65454 3.84281 3.30256
# Velocity P-wave (km/s) = 5.79180 6.96245 6.40393
#
# Compressibility (1/GPa) = 0.02148699
#
# Stress axis : x y z
#
# Youngs Moduli (GPa) = 67.46375 74.23275 78.82432
#
# Poissons Ratio (x) = 0.05464 0.45122
# Poissons Ratio (y) = 0.04966 0.25903
# Poissons Ratio (z) = 0.38619 0.24394
#
# Static dielectric constant tensor:
#      x y z
#    x 1.775560 0.000000 -0.006020 
#    y 0.000000 1.626920 0.000000 
#    z -0.006020 0.000000 1.732660 
# 
# From -- ./inp_files/300866.got.cif
#   From: 2010.05.17/outbox.cif.g08.bks.cpg/sg12_151_cif.got.tgz:300866.got - 2010.06.03 13:09:07.
