data_PCOD9218855
_publ_section_title
;
Structure prediction by ZEFSAII (Michael W. Deem and Ramdas Pophale) SiO2 
 PCOD9218855
Probable space group: C 2/M
;
_chemical_formula_sum "Si O2"
_cell_formula_units_Z 64
_cell_length_a 21.215341
_cell_length_b 27.359549
_cell_length_c 11.792538
_cell_angle_alpha 90.000000
_cell_angle_beta 30.624557
_cell_angle_gamma 90.000000
_cell_volume 3486.855444
_symmetry_space_group_name_H-M "C 2/M"
_symmetry_group_IT_number 12
_symmetry_cell_setting 'monoclinic'
loop_
_space_group_symop_operation_xyz
x,y,z
-x,y,-z
-x,-y,-z
x,-y,z
1/2+x,1/2+y,z
1/2-x,1/2+y,-z
1/2-x,1/2-y,-z
1/2+x,1/2-y,z
loop_
_atom_site_type_symbol
_atom_site_label
_atom_site_fract_x
_atom_site_fract_y
_atom_site_fract_z
Si Si1 0.466081 0.656780 0.350711
Si Si2 0.228677 0.798330 0.186134
Si Si3 0.509525 0.444769 0.789654
Si Si4 0.668353 0.847005 0.454173
Si Si5 0.485641 0.196216 0.902003
Si Si6 0.611342 0.300890 0.755245
Si Si7 0.795888 0.055034 0.308706
Si Si8 0.250251 0.312678 0.094465
O O1 0.390315 0.675776 0.575656
O O2 0.486755 0.598848 0.306356
O O3 0.381716 0.672170 0.374345
O O4 0.599693 0.682777 0.126812
O O5 0.270790 0.824445 0.004595
O O6 0.342364 0.795139 0.097499
O O7 0.203295 0.742352 0.190439
O O8 0.509043 0.500000 0.743599
O O9 0.624133 0.440773 0.700027
O O10 0.390774 0.439477 0.056060
O O11 0.541871 0.829986 0.705913
O O12 0.769348 0.809574 0.353132
O O13 0.701708 0.900823 0.445040
O O14 0.685691 0.843903 0.292546
O O15 0.564984 0.246134 0.799373
O O16 0.500000 0.168916 0.000000
O O17 0.500000 0.324551 0.000000
O O18 0.744456 0.000000 0.383818
#
# Coordination Sequence:
#
# PCOD9218855 Si02
#       8
#     8   8   8   8   8   8   8   8
#     4  12  19  36  59  81 116 148 186 233 284 330
#     4  11  25  39  52  79 115 153 189 232 269 337
#     4   9  17  30  54  86 116 141 178 234 293 337
#     4  12  20  34  59  81 110 148 186 230 276 336
#     4  11  23  37  51  81 115 147 184 228 282 332
#     4  11  18  31  53  82 109 139 182 228 271 331
#     4   9  17  30  51  86 116 138 178 233 284 336
#     4  11  23  38  56  79 108 153 198 222 276 325
#
# _framework density 18.354645999999999
#
# number of rings (size 3 to 8) (size 9 to 14) (size 15 to 20)
#    0.000    1.250    5.000    3.750    0.000    0.500 
#    0.000    0.000    0.000    3.375    0.000    0.875 
#    0.000    0.000    0.000    0.000    0.000    0.000 
#
# Total GULP energy -178535.946452 kJ/mol
# GULP energy per Si atom -5579.248327 kJ/mol
# Density = 1.831287 g / cm^3
# Si number density = 18.354646 Si / 1000 Ang^3
#
#
#
# Elastic Constant Matrix: (Units=GPa)
#
#
# Indices 1 2 3 4 5 6 
#
# 1 46.3747 7.1049 14.4453 0.0008 18.3837 -0.0013
# 2 7.1049 107.8027 37.9456 0.0034 2.2027 -0.0043
# 3 14.4453 37.9456 81.6360 0.0046 15.0073 -0.0038
# 4 0.0008 0.0034 0.0046 15.6829 -0.0013 -0.3984
# 5 18.3837 2.2027 15.0073 -0.0013 21.7487 0.0006
# 6 -0.0013 -0.0043 -0.0038 -0.3984 0.0006 13.3998
#
#
#
# Elastic Compliance Matrix: (Units=1/GPa)
#
#
# Indices 1 2 3 4 5 6 
#
# 1 0.032701 -0.001597 0.000008 -0.000004 -0.027486 0.000004
# 2 -0.001597 0.011318 -0.005744 0.000000 0.004167 0.000002
# 3 0.000008 -0.005744 0.016964 -0.000005 -0.011131 0.000003
# 4 -0.000004 0.000000 -0.000005 0.063812 0.000010 0.001897
# 5 -0.027486 0.004167 -0.011131 0.000010 0.076471 -0.000007
# 6 0.000004 0.000002 0.000003 0.001897 -0.000007 0.074684
#
#
# Mechanical properties :
#
#
# Convention : Reuss Voigt Hill
#
# Bulk Modulus (GPa) = 21.58954 39.42279 30.50616
# Shear Modulus (GPa) = 16.33687 21.92080 19.12883
#
# Velocity S-wave (km/s) = 2.98664 3.45960 3.23178
# Velocity P-wave (km/s) = 4.86634 6.12237 5.53013
#
# Compressibility (1/GPa) = 0.04631872
#
# Stress axis : x y z
#
# Youngs Moduli (GPa) = 30.57990 88.35264 58.94707
#
# Poissons Ratio (x) = 0.14106 -0.00050
# Poissons Ratio (y) = 0.04882 0.33862
# Poissons Ratio (z) = -0.00026 0.50754
#
# Static dielectric constant tensor:
#      x y z
#    x 1.667260 0.000000 0.019620 
#    y 0.000000 1.648010 0.000000 
#    z 0.019620 0.000000 1.660590 
# 
# From -- ./inp_files/178521.got.cif
#   From: 2010.05.17/outbox.cif.g08.bks.cpg/sg12_90_cif.got.tgz:178521.got - 2010.06.03 13:09:07.
