data_PCOD9218856
_publ_section_title
;
Structure prediction by ZEFSAII (Michael W. Deem and Ramdas Pophale) SiO2 
 PCOD9218856
Probable space group: C 2/M
;
_chemical_formula_sum "Si O2"
_cell_formula_units_Z 56
_cell_length_a 17.234768
_cell_length_b 24.964632
_cell_length_c 9.179078
_cell_angle_alpha 90.000000
_cell_angle_beta 137.015335
_cell_angle_gamma 90.000000
_cell_volume 2692.702157
_symmetry_space_group_name_H-M "C 2/M"
_symmetry_group_IT_number 12
_symmetry_cell_setting 'monoclinic'
loop_
_space_group_symop_operation_xyz
x,y,z
-x,y,-z
-x,-y,-z
x,-y,z
1/2+x,1/2+y,z
1/2-x,1/2+y,-z
1/2-x,1/2-y,-z
1/2+x,1/2-y,z
loop_
_atom_site_type_symbol
_atom_site_label
_atom_site_fract_x
_atom_site_fract_y
_atom_site_fract_z
Si Si1 0.098251 0.903400 0.735707
Si Si2 0.064191 0.314491 0.721538
Si Si3 0.700954 0.852841 0.156763
Si Si4 0.273132 0.346979 0.564653
Si Si5 0.873620 0.060571 0.894932
Si Si6 0.506902 0.701371 0.758183
Si Si7 0.257285 0.727914 0.785985
O O1 0.211934 0.893553 0.799574
O O2 0.052355 0.844509 0.714606
O O3 0.000000 0.929080 0.500000
O O4 0.119352 0.930219 0.921474
O O5 0.001134 0.258518 0.670299
O O6 0.186050 0.297171 0.820400
O O7 0.000000 0.342563 0.500000
O O8 0.089702 0.347333 0.902586
O O9 0.697347 0.864367 0.323215
O O10 0.749625 0.791660 0.222110
O O11 0.298009 0.395375 0.709516
O O12 0.393126 0.323420 0.669475
O O13 0.219549 0.299343 0.584569
O O14 0.835211 0.000000 0.813340
O O15 0.000000 0.066520 0.000000
O O16 0.609941 0.711877 0.012947
#
# Coordination Sequence:
#
# PCOD9218856 Si02
#       7
#     8   8   8   8   8   8   8
#     4  12  19  34  56  77 106 145 188 217 260 316
#     4  11  21  34  49  71 109 148 188 222 259 309
#     4  11  21  32  52  78 102 141 187 224 258 319
#     4  12  21  36  55  79 112 149 183 220 268 325
#     4  11  22  36  52  76 109 145 181 223 272 319
#     4  11  18  31  54  75 104 151 187 207 257 318
#     4  11  20  33  52  78 108 145 186 223 258 320
#
# _framework density 20.796952999999998
#
# number of rings (size 3 to 8) (size 9 to 14) (size 15 to 20)
#    0.000    0.714    7.143    3.000    0.000    0.286 
#    0.000    2.857    0.000    0.000    0.000    0.000 
#    0.000   18.857    0.000    0.000    0.000    0.143 
#
# Total GULP energy -156475.341055 kJ/mol
# GULP energy per Si atom -5588.405038 kJ/mol
# Density = 2.074962 g / cm^3
# Si number density = 20.796953 Si / 1000 Ang^3
#
#
#
# Elastic Constant Matrix: (Units=GPa)
#
#
# Indices 1 2 3 4 5 6 
#
# 1 41.4317 14.0231 26.3902 0.0000 -12.6588 0.0000
# 2 14.0231 48.9055 34.6600 0.0000 -3.8082 0.0000
# 3 26.3902 34.6600 149.3426 0.0000 -31.5507 0.0000
# 4 0.0000 0.0000 0.0000 1.8901 0.0000 5.2236
# 5 -12.6588 -3.8082 -31.5507 0.0000 36.1302 0.0000
# 6 0.0000 0.0000 0.0000 5.2236 0.0000 3.0379
#
#
#
# Elastic Compliance Matrix: (Units=1/GPa)
#
#
# Indices 1 2 3 4 5 6 
#
# 1 0.030143 -0.006517 -0.002119 0.000000 0.008024 0.000000
# 2 -0.006517 0.026135 -0.005904 0.000000 -0.004684 0.000000
# 3 -0.002119 -0.005904 0.009996 0.000000 0.007365 0.000000
# 4 0.000000 0.000000 0.000000 -0.141013 0.000000 0.242464
# 5 0.008024 -0.004684 0.007365 0.000000 0.036427 0.000000
# 6 0.000000 0.000000 0.000000 0.242464 0.000000 -0.087732
#
#
# Mechanical properties :
#
#
# Convention : Reuss Voigt Hill
#
# Bulk Modulus (GPa) = 26.88422 43.31404 35.09913
# Shear Modulus (GPa) = -59.12527 19.18542 -19.96992
#
# Velocity S-wave (km/s) = -5.33774 3.04058 -3.10212
# Velocity P-wave (km/s) = 5.00336 5.76187 2.02059
#
# Compressibility (1/GPa) = 0.03719654
#
# Stress axis : x y z
#
# Youngs Moduli (GPa) = 33.17520 38.26233 100.03511
#
# Poissons Ratio (x) = 0.24934 0.21197
# Poissons Ratio (y) = 0.21619 0.59056
# Poissons Ratio (z) = 0.07030 0.22588
#
# Static dielectric constant tensor:
#      x y z
#    x 1.775100 0.000000 0.001870 
#    y 0.000000 1.702570 0.000000 
#    z 0.001870 0.000000 1.895830 
# 
# From -- ./inp_files/79174.got.cif
#   From: 2010.05.17/outbox.cif.g08.bks.cpg/sg12_40_cif.got.tgz:79174.got - 2010.06.03 13:09:07.
