data_PCOD9218891
_publ_section_title
;
Structure prediction by ZEFSAII (Michael W. Deem and Ramdas Pophale) SiO2 
 PCOD9218891
Probable space group: C 2/M
;
_chemical_formula_sum "Si O2"
_cell_formula_units_Z 64
_cell_length_a 24.671054
_cell_length_b 18.447094
_cell_length_c 15.733049
_cell_angle_alpha 90.000000
_cell_angle_beta 152.114966
_cell_angle_gamma 90.000000
_cell_volume 3348.844315
_symmetry_space_group_name_H-M "C 2/M"
_symmetry_group_IT_number 12
_symmetry_cell_setting 'monoclinic'
loop_
_space_group_symop_operation_xyz
x,y,z
-x,y,-z
-x,-y,-z
x,-y,z
1/2+x,1/2+y,z
1/2-x,1/2+y,-z
1/2-x,1/2-y,-z
1/2+x,1/2-y,z
loop_
_atom_site_type_symbol
_atom_site_label
_atom_site_fract_x
_atom_site_fract_y
_atom_site_fract_z
Si Si1 0.006327 0.352740 0.105548
Si Si2 0.526436 0.419240 0.436045
Si Si3 0.624472 0.853605 0.439935
Si Si4 0.750175 0.344267 0.743464
Si Si5 0.816803 0.756166 0.680810
Si Si6 0.207649 0.279598 0.810918
Si Si7 0.442190 0.731564 0.240985
Si Si8 0.616475 0.079237 0.605062
O O1 0.089600 0.380214 0.296764
O O2 0.051404 0.268866 0.155138
O O3 0.000000 0.384180 0.000000
O O4 0.875593 0.360005 0.956327
O O5 0.500000 0.411924 0.500000
O O6 0.487291 0.500000 0.355331
O O7 0.664727 0.410935 0.617241
O O8 0.476224 0.350236 0.315422
O O9 0.760581 0.830801 0.636013
O O10 0.546799 0.780790 0.350144
O O11 0.593145 0.906767 0.473143
O O12 0.776641 0.305830 0.690736
O O13 0.689464 0.284578 0.718491
O O14 0.750000 0.750000 0.500000
O O15 0.111080 0.270619 0.749742
O O16 0.194360 0.355582 0.746356
O O17 0.334656 0.271953 0.027299
O O18 0.500000 0.081870 0.500000
O O19 0.669206 0.000000 0.689727
#
# Coordination Sequence:
#
# PCOD9218891 Si02
#       8
#     8   8   8   8   8   8   8   8
#     4   9  20  34  54  91 115 135 192 260 296 325
#     4  11  23  37  55  83 121 159 190 225 282 356
#     4  11  18  34  60  86 113 153 193 238 297 342
#     4  11  18  34  58  82 114 147 186 236 289 334
#     4   9  18  30  55  85 108 138 187 254 285 326
#     4  11  21  34  58  86 111 150 188 239 281 339
#     4  11  21  34  58  86 112 144 198 237 283 342
#     4  11  23  37  55  84 125 161 188 225 285 363
#
# _framework density 19.111070999999999
#
# number of rings (size 3 to 8) (size 9 to 14) (size 15 to 20)
#    0.000    1.500    6.250    0.000    0.000    0.500 
#    0.000    0.625    0.000   10.500    0.000    1.750 
#    0.000    0.000    0.000    0.000    0.000    0.000 
#
# Total GULP energy -178175.738143 kJ/mol
# GULP energy per Si atom -5567.991817 kJ/mol
# Density = 1.906757 g / cm^3
# Si number density = 19.111071 Si / 1000 Ang^3
#
#
#
# Elastic Constant Matrix: (Units=GPa)
#
#
# Indices 1 2 3 4 5 6 
#
# 1 63.7292 4.2482 7.1251 0.0000 -14.2175 0.0000
# 2 4.2482 74.2366 8.4950 0.0000 -11.4799 0.0000
# 3 7.1251 8.4950 45.3798 0.0000 -4.2602 0.0000
# 4 0.0000 0.0000 0.0000 8.3436 0.0000 0.8653
# 5 -14.2175 -11.4799 -4.2602 0.0000 36.8216 0.0000
# 6 0.0000 0.0000 0.0000 0.8653 0.0000 -1.9841
#
#
#
# Elastic Compliance Matrix: (Units=1/GPa)
#
#
# Indices 1 2 3 4 5 6 
#
# 1 0.017375 0.000265 -0.002164 0.000000 0.006541 0.000000
# 2 0.000265 0.014390 -0.002330 0.000000 0.004319 0.000000
# 3 -0.002164 -0.002330 0.022914 0.000000 0.001089 0.000000
# 4 0.000000 0.000000 0.000000 0.114666 0.000000 0.050008
# 5 0.006541 0.004319 0.001089 0.000000 0.031156 0.000000
# 6 0.000000 0.000000 0.000000 0.050008 0.000000 -0.482208
#
#
# Mechanical properties :
#
#
# Convention : Reuss Voigt Hill
#
# Bulk Modulus (GPa) = 21.63482 24.78692 23.21087
# Shear Modulus (GPa) = -19.39171 19.53471 0.07150
#
# Velocity S-wave (km/s) = -3.18887 3.20060 0.19363
# Velocity P-wave (km/s) = 1.48773 5.16300 3.49594
#
# Compressibility (1/GPa) = 0.04622178
#
# Stress axis : x y z
#
# Youngs Moduli (GPa) = 57.55435 69.49378 43.64078
#
# Poissons Ratio (x) = -0.01840 0.09442
# Poissons Ratio (y) = -0.01524 0.10168
# Poissons Ratio (z) = 0.12452 0.16191
#
# Static dielectric constant tensor:
#      x y z
#    x 1.738780 0.000000 0.015420 
#    y 0.000000 1.650020 0.000000 
#    z 0.015420 0.000000 1.704510 
# 
# From -- ./inp_files/241513.got.cif
#   From: 2010.05.17/outbox.cif.g08.bks.cpg/sg12_121_cif.got.tgz:241513.got - 2010.06.03 13:09:07.
