data_PCOD9218179
_publ_section_title
;
Structure prediction by ZEFSAII (Michael W. Deem and Ramdas Pophale) SiO2 
 PCOD9218179
Probable space group: C 2/M
;
_chemical_formula_sum "Si O2"
_cell_formula_units_Z 36
_cell_length_a 24.749250
_cell_length_b 7.818336
_cell_length_c 9.596502
_cell_angle_alpha 90.000000
_cell_angle_beta 49.527933
_cell_angle_gamma 90.000000
_cell_volume 1412.588254
_symmetry_space_group_name_H-M "C 2/M"
_symmetry_group_IT_number 12
_symmetry_cell_setting 'monoclinic'
loop_
_space_group_symop_operation_xyz
x,y,z
-x,y,-z
-x,-y,-z
x,-y,z
1/2+x,1/2+y,z
1/2-x,1/2+y,-z
1/2-x,1/2-y,-z
1/2+x,1/2-y,z
loop_
_atom_site_type_symbol
_atom_site_label
_atom_site_fract_x
_atom_site_fract_y
_atom_site_fract_z
Si Si1 0.137997 0.311993 0.609704
Si Si2 0.334070 0.814462 0.965082
Si Si3 0.746686 0.500000 0.755475
Si Si4 0.423231 0.297435 0.571353
Si Si5 0.432118 0.694644 0.024404
O O1 0.112937 0.500000 0.700151
O O2 0.212006 0.352017 0.411021
O O3 0.087219 0.242604 0.573044
O O4 0.131880 0.194536 0.754856
O O5 0.289996 0.651578 0.087252
O O6 0.405118 0.803002 0.941427
O O7 0.299689 0.000000 0.043748
O O8 0.362242 0.797655 0.760582
O O9 0.500000 0.244501 0.500000
O O10 0.415989 0.500000 0.606861
O O11 0.444642 0.500000 0.955071
O O12 0.500000 0.748912 0.000000
#
# Coordination Sequence:
#
# PCOD9218179 Si02
#       5
#     8   8   4   8   8
#     4  10  24  43  64 100 131 182 220 278 333 399
#     4  12  25  45  71 100 136 183 223 282 336 401
#     4  10  26  50  62 100 142 174 240 272 330 402
#     4  11  23  43  71 103 138 174 222 284 346 401
#     4  11  23  43  71 103 138 174 222 284 346 401
#
# _framework density 25.485135
#
# number of rings (size 3 to 8) (size 9 to 14) (size 15 to 20)
#    0.667    0.444    2.222    3.333    0.000   12.444 
#    0.000    0.000    0.000    0.000    0.000    0.000 
#    0.000    0.000    0.000    0.000    0.000    0.000 
#
# Total GULP energy -100267.877374 kJ/mol
# GULP energy per Si atom -5570.437632 kJ/mol
# Density = 2.542713 g / cm^3
# Si number density = 25.485135 Si / 1000 Ang^3
#
#
#
# Elastic Constant Matrix: (Units=GPa)
#
#
# Indices 1 2 3 4 5 6 
#
# 1 107.2142 -1.7971 -0.3787 0.0000 3.5842 0.0000
# 2 -1.7971 152.7586 15.2951 0.0000 -19.1447 0.0000
# 3 -0.3787 15.2951 82.8772 0.0000 3.5876 0.0000
# 4 0.0000 0.0000 0.0000 46.7109 0.0000 -7.2767
# 5 3.5842 -19.1447 3.5876 0.0000 44.7791 0.0000
# 6 0.0000 0.0000 0.0000 -7.2767 0.0000 4.6069
#
#
#
# Elastic Compliance Matrix: (Units=1/GPa)
#
#
# Indices 1 2 3 4 5 6 
#
# 1 0.009353 0.000009 0.000074 0.000000 -0.000751 0.000000
# 2 0.000009 0.007085 -0.001444 0.000000 0.003144 0.000000
# 3 0.000074 -0.001444 0.012403 0.000000 -0.001617 0.000000
# 4 0.000000 0.000000 0.000000 0.028395 0.000000 0.044851
# 5 -0.000751 0.003144 -0.001617 0.000000 0.023866 0.000000
# 6 0.000000 0.000000 0.000000 0.044851 0.000000 0.287911
#
#
# Mechanical properties :
#
#
# Convention : Reuss Voigt Hill
#
# Bulk Modulus (GPa) = 38.28840 41.00987 39.64913
# Shear Modulus (GPa) = 13.14265 41.20142 27.17203
#
# Velocity S-wave (km/s) = 2.27336 4.02516 3.26880
# Velocity P-wave (km/s) = 4.68480 6.14241 5.46244
#
# Compressibility (1/GPa) = 0.02611757
#
# Stress axis : x y z
#
# Youngs Moduli (GPa) = 106.92186 141.14426 80.62707
#
# Poissons Ratio (x) = -0.00121 -0.00594
# Poissons Ratio (y) = -0.00091 0.11639
# Poissons Ratio (z) = -0.00788 0.20376
#
# Static dielectric constant tensor:
#      x y z
#    x 2.107790 0.000000 -0.066600 
#    y 0.000000 1.936330 0.000000 
#    z -0.066600 0.000000 1.944780 
# 
# From -- ./inp_files/107730.got.cif
#   From: 2010.05.17/outbox.cif.g08.bks.cpg/sg12_54_cif.got.tgz:107730.got - 2010.06.03 13:09:07.
