data_PCOD9218193
_publ_section_title
;
Structure prediction by ZEFSAII (Michael W. Deem and Ramdas Pophale) SiO2 
 PCOD9218193
Probable space group: C 2/M
;
_chemical_formula_sum "Si O2"
_cell_formula_units_Z 44
_cell_length_a 10.544838
_cell_length_b 23.700647
_cell_length_c 9.007269
_cell_angle_alpha 90.000000
_cell_angle_beta 104.291621
_cell_angle_gamma 90.000000
_cell_volume 2181.424862
_symmetry_space_group_name_H-M "C 2/M"
_symmetry_group_IT_number 12
_symmetry_cell_setting 'monoclinic'
loop_
_space_group_symop_operation_xyz
x,y,z
-x,y,-z
-x,-y,-z
x,-y,z
1/2+x,1/2+y,z
1/2-x,1/2+y,-z
1/2-x,1/2-y,-z
1/2+x,1/2-y,z
loop_
_atom_site_type_symbol
_atom_site_label
_atom_site_fract_x
_atom_site_fract_y
_atom_site_fract_z
Si Si1 0.784365 0.000000 0.610760
Si Si2 0.082911 0.000000 0.803217
Si Si3 0.869270 0.626125 0.056946
Si Si4 0.769095 0.299749 0.772457
Si Si5 0.717446 0.000000 0.908505
Si Si6 0.649979 0.594216 0.592234
Si Si7 0.961553 0.291614 0.315596
O O1 0.779116 0.944615 0.508677
O O2 0.694468 0.000000 0.726531
O O3 0.930824 0.000000 0.721411
O O4 0.139051 0.054705 0.734054
O O5 0.135119 0.000000 0.983952
O O6 0.833398 0.560481 0.051538
O O7 0.900743 0.651344 0.227708
O O8 0.778700 0.669648 0.936742
O O9 0.000000 0.629122 0.000000
O O10 0.726558 0.349526 0.648540
O O11 0.653328 0.254372 0.736857
O O12 0.908964 0.278098 0.748177
O O13 0.500000 0.605602 0.500000
O O14 0.000000 0.295418 0.500000
#
# Coordination Sequence:
#
# PCOD9218193 Si02
#       7
#     4   4   8   8   4   8   8
#     4   9  21  32  57  97 130 159 210 267 310 371
#     4   9  17  36  56  89 126 168 205 253 310 390
#     4  10  24  43  65  90 128 168 212 258 317 392
#     4  11  22  44  68  92 128 171 215 260 322 377
#     4  12  20  38  62  93 128 161 214 252 333 362
#     4   9  18  36  62  89 127 170 209 253 320 380
#     4  11  25  43  66  96 128 165 220 268 314 371
#
# _framework density 20.170300999999998
#
# number of rings (size 3 to 8) (size 9 to 14) (size 15 to 20)
#    0.000    1.818    1.818    3.273    2.545    0.000 
#    3.273    0.455    0.000    0.000    0.000    0.000 
#    0.000    0.000    0.000    0.000    0.000    0.000 
#
# Total GULP energy -122649.635585 kJ/mol
# GULP energy per Si atom -5574.983436 kJ/mol
# Density = 2.012439 g / cm^3
# Si number density = 20.170301 Si / 1000 Ang^3
#
#
#
# Elastic Constant Matrix: (Units=GPa)
#
#
# Indices 1 2 3 4 5 6 
#
# 1 67.6297 54.4403 24.4261 0.0000 9.3458 0.0000
# 2 54.4403 126.1453 49.2539 0.0000 13.8322 0.0000
# 3 24.4261 49.2539 112.4851 0.0000 5.5932 0.0000
# 4 0.0000 0.0000 0.0000 19.5303 0.0000 5.9386
# 5 9.3458 13.8322 5.5932 0.0000 22.2200 0.0000
# 6 0.0000 0.0000 0.0000 5.9386 0.0000 17.5717
#
#
#
# Elastic Compliance Matrix: (Units=1/GPa)
#
#
# Indices 1 2 3 4 5 6 
#
# 1 0.023000 -0.009213 -0.000774 0.000000 -0.003744 0.000000
# 2 -0.009213 0.013825 -0.003866 0.000000 -0.003758 0.000000
# 3 -0.000774 -0.003866 0.010750 0.000000 0.000026 0.000000
# 4 0.000000 0.000000 0.000000 0.057067 0.000000 -0.019287
# 5 -0.003744 -0.003758 0.000026 0.000000 0.048912 0.000000
# 6 0.000000 0.000000 0.000000 -0.019287 0.000000 0.063428
#
#
# Mechanical properties :
#
#
# Convention : Reuss Voigt Hill
#
# Bulk Modulus (GPa) = 50.33269 62.50009 56.41639
# Shear Modulus (GPa) = 19.89571 23.74040 21.81805
#
# Velocity S-wave (km/s) = 3.14409 3.43446 3.29248
# Velocity P-wave (km/s) = 6.17968 6.83965 6.51802
#
# Compressibility (1/GPa) = 0.01986780
#
# Stress axis : x y z
#
# Youngs Moduli (GPa) = 43.47877 72.33214 93.02599
#
# Poissons Ratio (x) = 0.66641 0.07200
# Poissons Ratio (y) = 0.40058 0.35965
# Poissons Ratio (z) = 0.03365 0.27964
#
# Static dielectric constant tensor:
#      x y z
#    x 1.723710 0.000000 0.007650 
#    y 0.000000 1.716740 0.000000 
#    z 0.007650 0.000000 1.757500 
# 
# From -- ./inp_files/49422.got.cif
#   From: 2010.05.17/outbox.cif.g08.bks.cpg/sg12_25_cif.got.tgz:49422.got - 2010.06.03 13:09:07.
