data_PCOD9218142
_publ_section_title
;
Structure prediction by ZEFSAII (Michael W. Deem and Ramdas Pophale) SiO2 
 PCOD9218142
Probable space group: C 2/M
;
_chemical_formula_sum "Si O2"
_cell_formula_units_Z 32
_cell_length_a 17.612808
_cell_length_b 10.835650
_cell_length_c 23.285315
_cell_angle_alpha 90.000000
_cell_angle_beta 20.279787
_cell_angle_gamma 90.000000
_cell_volume 1540.281883
_symmetry_space_group_name_H-M "C 2/M"
_symmetry_group_IT_number 12
_symmetry_cell_setting 'monoclinic'
loop_
_space_group_symop_operation_xyz
x,y,z
-x,y,-z
-x,-y,-z
x,-y,z
1/2+x,1/2+y,z
1/2-x,1/2+y,-z
1/2-x,1/2-y,-z
1/2+x,1/2-y,z
loop_
_atom_site_type_symbol
_atom_site_label
_atom_site_fract_x
_atom_site_fract_y
_atom_site_fract_z
Si Si1 0.691212 0.138674 0.997285
Si Si2 0.700018 0.500000 0.776973
Si Si3 0.430388 0.245962 0.322968
Si Si4 0.685644 0.000000 0.171794
Si Si5 0.741898 0.743536 0.329528
O O1 0.871528 0.155011 0.819504
O O2 0.711736 0.000000 0.006366
O O3 0.750000 0.250000 0.000000
O O4 0.438781 0.165265 0.161295
O O5 0.809719 0.500000 0.762003
O O6 0.761291 0.376669 0.698994
O O7 0.437846 0.500000 0.972923
O O8 0.250000 0.250000 0.500000
O O9 0.558004 0.117988 0.239444
O O10 0.307748 0.257873 0.349307
O O11 0.500000 0.687686 0.500000
#
# Coordination Sequence:
#
# PCOD9218142 Si02
#       5
#     8   4   8   4   8
#     4  10  24  42  69  98 141 186 235 286 355 427
#     4  11  23  44  74 104 141 185 248 295 350 426
#     4  11  25  41  69  99 144 183 240 290 357 416
#     4  11  24  44  71 106 142 185 239 303 357 420
#     4  11  24  41  70 101 140 184 240 287 354 421
#
# _framework density 20.775417000000001
#
# number of rings (size 3 to 8) (size 9 to 14) (size 15 to 20)
#    0.000    1.250    2.500    1.875   15.750    0.500 
#    0.000    0.000    0.000    6.000    0.000    0.000 
#    0.000    0.000    0.000    0.000    0.000    0.000 
#
# Total GULP energy -89356.734533 kJ/mol
# GULP energy per Si atom -5584.795908 kJ/mol
# Density = 2.072813 g / cm^3
# Si number density = 20.775417 Si / 1000 Ang^3
#
#
#
# Elastic Constant Matrix: (Units=GPa)
#
#
# Indices 1 2 3 4 5 6 
#
# 1 90.5440 25.3895 38.9420 -0.0066 7.6151 -0.0081
# 2 25.3895 135.0135 27.6778 -0.0043 -1.2382 -0.0014
# 3 38.9420 27.6778 193.2361 0.0143 0.4432 0.0070
# 4 -0.0066 -0.0043 0.0143 12.7544 0.0108 -6.0358
# 5 7.6151 -1.2382 0.4432 0.0108 37.4228 0.0038
# 6 -0.0081 -0.0014 0.0070 -6.0358 0.0038 -1.2128
#
#
#
# Elastic Compliance Matrix: (Units=1/GPa)
#
#
# Indices 1 2 3 4 5 6 
#
# 1 0.012803 -0.001962 -0.002293 -0.000012 -0.002643 -0.000047
# 2 -0.001962 0.007934 -0.000743 0.000001 0.000671 -0.000002
# 3 -0.002293 -0.000743 0.005743 0.000005 0.000374 0.000027
# 4 -0.000012 0.000001 0.000005 0.023368 0.000007 -0.116299
# 5 -0.002643 0.000671 0.000374 0.000007 0.027277 0.000068
# 6 -0.000047 -0.000002 0.000027 -0.116299 0.000068 -0.245754
#
#
# Mechanical properties :
#
#
# Convention : Reuss Voigt Hill
#
# Bulk Modulus (GPa) = 60.66237 66.97911 63.82074
# Shear Modulus (GPa) = -32.64994 31.57851 -0.53572
#
# Velocity S-wave (km/s) = -3.96860 3.90294 -0.50835
# Velocity P-wave (km/s) = 2.87451 7.25398 5.51738
#
# Compressibility (1/GPa) = 0.01648468
#
# Stress axis : x y z
#
# Youngs Moduli (GPa) = 78.10693 126.04044 174.13616
#
# Poissons Ratio (x) = 0.24726 0.39931
# Poissons Ratio (y) = 0.15323 0.12931
# Poissons Ratio (z) = 0.17910 0.09360
#
# Static dielectric constant tensor:
#      x y z
#    x 1.726020 0.000000 0.026750 
#    y 0.000000 1.728610 0.000010 
#    z 0.026750 0.000010 1.829870 
# 
# From -- ./inp_files/343242.got.cif
#   From: 2010.05.17/outbox.cif.g08.bks.cpg/sg12_172_cif.got.tgz:343242.got - 2010.06.03 13:09:07.
