data_PCOD9218327
_publ_section_title
;
Structure prediction by ZEFSAII (Michael W. Deem and Ramdas Pophale) SiO2 
 PCOD9218327
Probable space group: C 2/M
;
_chemical_formula_sum "Si O2"
_cell_formula_units_Z 44
_cell_length_a 9.244623
_cell_length_b 24.780715
_cell_length_c 11.928933
_cell_angle_alpha 90.000000
_cell_angle_beta 48.456650
_cell_angle_gamma 90.000000
_cell_volume 2045.360425
_symmetry_space_group_name_H-M "C 2/M"
_symmetry_group_IT_number 12
_symmetry_cell_setting 'monoclinic'
loop_
_space_group_symop_operation_xyz
x,y,z
-x,y,-z
-x,-y,-z
x,-y,z
1/2+x,1/2+y,z
1/2-x,1/2+y,-z
1/2-x,1/2-y,-z
1/2+x,1/2-y,z
loop_
_atom_site_type_symbol
_atom_site_label
_atom_site_fract_x
_atom_site_fract_y
_atom_site_fract_z
Si Si1 0.694463 0.000000 0.471917
Si Si2 0.891351 0.883868 0.847785
Si Si3 0.602055 0.710946 0.841708
Si Si4 0.014344 0.696065 0.736284
Si Si5 0.824655 0.108925 0.501130
Si Si6 0.500000 0.835650 0.000000
Si Si7 0.544440 0.500000 0.109274
O O1 0.500000 0.000000 0.500000
O O2 0.714385 0.052260 0.541175
O O3 0.863387 0.000000 0.289707
O O4 0.707745 0.864426 0.872961
O O5 0.966455 0.840703 0.899676
O O6 0.072069 0.883617 0.670794
O O7 0.853254 0.943210 0.916159
O O8 0.590081 0.744610 0.733050
O O9 0.822819 0.700851 0.759703
O O10 0.500000 0.744355 0.000000
O O11 0.176726 0.657074 0.603618
O O12 0.954708 0.675919 0.889892
O O13 0.000000 0.105627 0.500000
O O14 0.500000 0.500000 0.000000
#
# Coordination Sequence:
#
# PCOD9218327 Si02
#       7
#     4   8   8   8   8   4   4
#     4  10  25  45  73  99 138 184 226 273 343 407
#     4  11  25  44  70 100 141 174 229 281 344 406
#     4  12  24  44  70 101 136 182 227 287 341 402
#     4  12  26  42  72  97 137 181 232 277 343 404
#     4  11  25  46  68 100 140 180 225 282 342 405
#     4  12  22  43  68 104 128 185 226 280 340 408
#     4  10  24  44  69 102 138 174 223 287 335 400
#
# _framework density 21.5121
#
# number of rings (size 3 to 8) (size 9 to 14) (size 15 to 20)
#    0.000    0.727    4.545    2.455    5.091    1.091 
#    0.000    0.000    0.000    0.000    0.000    0.000 
#    0.000    0.000    0.000    0.000    0.000    0.000 
#
# Total GULP energy -122623.539048 kJ/mol
# GULP energy per Si atom -5573.797229 kJ/mol
# Density = 2.146314 g / cm^3
# Si number density = 21.512100 Si / 1000 Ang^3
#
#
#
# Elastic Constant Matrix: (Units=GPa)
#
#
# Indices 1 2 3 4 5 6 
#
# 1 145.4936 -152.7849 -25.5159 0.0000 -26.2085 0.0000
# 2 -152.7849-1017.8685 -129.3930 0.0000 -7.7920 0.0000
# 3 -25.5159 -129.3930 25.0355 0.0000 1.1499 0.0000
# 4 0.0000 0.0000 0.0000 12.7216 0.0000 11.0076
# 5 -26.2085 -7.7920 1.1499 0.0000 32.0853 0.0000
# 6 0.0000 0.0000 0.0000 11.0076 0.0000 11.5099
#
#
#
# Elastic Compliance Matrix: (Units=1/GPa)
#
#
# Indices 1 2 3 4 5 6 
#
# 1 0.006736 -0.001143 0.000721 0.000000 0.005199 0.000000
# 2 -0.001143 -0.000399 -0.003185 0.000000 -0.000916 0.000000
# 3 0.000721 -0.003185 0.024266 0.000000 -0.001054 0.000000
# 4 0.000000 0.000000 0.000000 0.455718 0.000000 -0.435831
# 5 0.005199 -0.000916 -0.001054 0.000000 0.035229 0.000000
# 6 0.000000 0.000000 0.000000 -0.435831 0.000000 0.503694
#
#
# Mechanical properties :
#
#
# Convention : Reuss Voigt Hill
#
# Bulk Modulus (GPa) = 42.75221 -162.52523 -59.88651
# Shear Modulus (GPa) = 4.80652 -24.71300 -9.95324
#
# Velocity S-wave (km/s) = 1.49639 -3.39307 -2.15334
# Velocity P-wave (km/s) = 4.78563 9.54281 5.83793
#
# Compressibility (1/GPa) = 0.02339061
#
# Stress axis : x y z
#
# Youngs Moduli (GPa) = 148.44939 -2505.95367 41.21002
#
# Poissons Ratio (x) = -2.86336 -0.02972
# Poissons Ratio (y) = 0.16962 0.13125
# Poissons Ratio (z) = -0.10707 -7.98125
#
# Static dielectric constant tensor:
#      x y z
#    x 1.733270 0.000000 0.021080 
#    y 0.000000 1.779720 0.000000 
#    z 0.021080 0.000000 1.802320 
# 
# From -- ./inp_files/124103.got.cif
#   From: 2010.05.17/outbox.cif.g08.bks.cpg/sg12_63_cif.got.tgz:124103.got - 2010.06.03 13:09:07.
