data_PCOD9218867
_publ_section_title
;
Structure prediction by ZEFSAII (Michael W. Deem and Ramdas Pophale) SiO2 
 PCOD9218867
Probable space group: C 2/M
;
_chemical_formula_sum "Si O2"
_cell_formula_units_Z 44
_cell_length_a 9.161639
_cell_length_b 25.982446
_cell_length_c 9.626301
_cell_angle_alpha 90.000000
_cell_angle_beta 62.705809
_cell_angle_gamma 90.000000
_cell_volume 2036.339100
_symmetry_space_group_name_H-M "C 2/M"
_symmetry_group_IT_number 12
_symmetry_cell_setting 'monoclinic'
loop_
_space_group_symop_operation_xyz
x,y,z
-x,y,-z
-x,-y,-z
x,-y,z
1/2+x,1/2+y,z
1/2-x,1/2+y,-z
1/2-x,1/2-y,-z
1/2+x,1/2-y,z
loop_
_atom_site_type_symbol
_atom_site_label
_atom_site_fract_x
_atom_site_fract_y
_atom_site_fract_z
Si Si1 0.282193 0.281042 0.704703
Si Si2 0.459944 0.647988 0.797945
Si Si3 0.000000 0.760912 0.000000
Si Si4 0.350911 0.444503 0.176912
Si Si5 0.124598 0.396883 0.069990
Si Si6 0.503025 0.818977 0.644521
O O1 0.407887 0.327380 0.676226
O O2 0.378614 0.227676 0.667867
O O3 0.174252 0.294305 0.618368
O O4 0.153363 0.274501 0.890697
O O5 0.605057 0.606419 0.752280
O O6 0.489472 0.698998 0.877607
O O7 0.294426 0.621491 0.926714
O O8 0.351192 0.500000 0.250444
O O9 0.186692 0.438023 0.157017
O O10 0.500000 0.445704 0.000000
O O11 0.052534 0.351906 0.198909
O O12 0.000000 0.411097 0.000000
O O13 0.500000 0.849151 0.500000
#
# Coordination Sequence:
#
# PCOD9218867 Si02
#       6
#     8   8   4   8   8   8
#     4  12  22  34  54  79 115 154 194 228 267 330
#     4  11  18  32  56  83 109 145 186 229 277 334
#     4  12  18  32  57  84 111 146 194 228 270 322
#     4   9  19  35  57  86 116 136 173 242 302 329
#     4  11  20  35  58  83 111 144 191 232 274 333
#     4  12  25  37  51  79 123 160 186 224 276 331
#
# _framework density 21.607403999999999
#
# number of rings (size 3 to 8) (size 9 to 14) (size 15 to 20)
#    0.000    0.909    8.182    2.182    0.000    0.364 
#    0.000    0.000    0.000    0.545    0.000    1.273 
#    0.000    0.000    0.000    0.000    0.000    0.000 
#
# Total GULP energy -122756.180573 kJ/mol
# GULP energy per Si atom -5579.826390 kJ/mol
# Density = 2.155823 g / cm^3
# Si number density = 21.607404 Si / 1000 Ang^3
#
#
#
# Elastic Constant Matrix: (Units=GPa)
#
#
# Indices 1 2 3 4 5 6 
#
# 1 142.4687 50.8188 40.5732 0.0000 39.8245 0.0000
# 2 50.8188 89.7525 18.8377 0.0000 14.4364 0.0000
# 3 40.5732 18.8377 70.3459 0.0000 14.3060 0.0000
# 4 0.0000 0.0000 0.0000 7.9914 0.0000 6.1879
# 5 39.8245 14.4364 14.3060 0.0000 28.4718 0.0000
# 6 0.0000 0.0000 0.0000 6.1879 0.0000 15.2091
#
#
#
# Elastic Compliance Matrix: (Units=1/GPa)
#
#
# Indices 1 2 3 4 5 6 
#
# 1 0.014067 -0.004704 -0.003717 0.000000 -0.015423 0.000000
# 2 -0.004704 0.014025 -0.001041 0.000000 -0.000009 0.000000
# 3 -0.003717 -0.001041 0.017234 0.000000 -0.002933 0.000000
# 4 0.000000 0.000000 0.000000 0.182687 0.000000 -0.074327
# 5 -0.015423 -0.000009 -0.002933 0.000000 0.058173 0.000000
# 6 0.000000 0.000000 0.000000 -0.074327 0.000000 0.095991
#
#
# Mechanical properties :
#
#
# Convention : Reuss Voigt Hill
#
# Bulk Modulus (GPa) = 37.87516 58.11406 47.99461
# Shear Modulus (GPa) = 12.19806 23.15697 17.67751
#
# Velocity S-wave (km/s) = 2.37856 3.27726 2.86339
# Velocity P-wave (km/s) = 5.01101 6.42451 5.76128
#
# Compressibility (1/GPa) = 0.02640253
#
# Stress axis : x y z
#
# Youngs Moduli (GPa) = 71.08989 71.30120 58.02316
#
# Poissons Ratio (x) = 0.33539 0.21568
# Poissons Ratio (y) = 0.33440 0.06040
# Poissons Ratio (z) = 0.26425 0.07422
#
# Static dielectric constant tensor:
#      x y z
#    x 1.853800 0.000000 -0.016970 
#    y 0.000000 1.819710 0.000000 
#    z -0.016970 0.000000 2.026440 
# 
# From -- ./inp_files/41623.got.cif
#   From: 2010.05.17/outbox.cif.g08.bks.cpg/sg12_21_cif.got.tgz:41623.got - 2010.06.03 13:09:07.
