data_PCOD9218888
_publ_section_title
;
Structure prediction by ZEFSAII (Michael W. Deem and Ramdas Pophale) SiO2 
 PCOD9218888
Probable space group: C 2/M
;
_chemical_formula_sum "Si O2"
_cell_formula_units_Z 44
_cell_length_a 18.307685
_cell_length_b 23.657910
_cell_length_c 15.746046
_cell_angle_alpha 90.000000
_cell_angle_beta 20.496425
_cell_angle_gamma 90.000000
_cell_volume 2387.998964
_symmetry_space_group_name_H-M "C 2/M"
_symmetry_group_IT_number 12
_symmetry_cell_setting 'monoclinic'
loop_
_space_group_symop_operation_xyz
x,y,z
-x,y,-z
-x,-y,-z
x,-y,z
1/2+x,1/2+y,z
1/2-x,1/2+y,-z
1/2-x,1/2-y,-z
1/2+x,1/2-y,z
loop_
_atom_site_type_symbol
_atom_site_label
_atom_site_fract_x
_atom_site_fract_y
_atom_site_fract_z
Si Si1 0.896060 0.433557 0.520155
Si Si2 0.476252 0.666172 0.620791
Si Si3 0.845188 0.363562 0.891893
Si Si4 0.000000 0.863356 0.000000
Si Si5 0.341299 0.201244 0.341122
Si Si6 0.286061 0.722987 0.108123
O O1 0.859606 0.500000 0.547498
O O2 0.670902 0.401303 0.762980
O O3 0.000000 0.425110 0.500000
O O4 0.070199 0.411098 0.264003
O O5 0.500000 0.642897 0.500000
O O6 0.686420 0.672115 0.445164
O O7 0.401337 0.731857 0.690246
O O8 0.317013 0.630859 0.853644
O O9 0.743638 0.313504 0.945271
O O10 0.054628 0.342419 0.708631
O O11 0.155281 0.823222 0.885343
O O12 0.250000 0.250000 0.500000
O O13 0.522501 0.233935 0.095276
#
# Coordination Sequence:
#
# PCOD9218888 Si02
#       6
#     8   8   8   4   8   8
#     4  11  25  43  62  86 118 153 203 257 303 358
#     4  11  23  36  55  86 126 163 198 235 285 356
#     4  11  22  37  56  85 115 158 201 244 295 341
#     4  12  23  36  62  86 120 162 195 236 306 364
#     4  11  18  34  55  80 121 160 195 233 279 356
#     4  11  21  32  52  88 120 159 195 231 282 359
#
# _framework density 18.425469
#
# number of rings (size 3 to 8) (size 9 to 14) (size 15 to 20)
#    0.000    0.909    5.455    3.545    2.545    2.182 
#    0.000    0.000    0.000    0.545    0.000    1.273 
#    0.000    0.000    0.000    0.000    0.000    0.000 
#
# Total GULP energy -122553.016371 kJ/mol
# GULP energy per Si atom -5570.591653 kJ/mol
# Density = 1.838353 g / cm^3
# Si number density = 18.425469 Si / 1000 Ang^3
#
#
#
# Elastic Constant Matrix: (Units=GPa)
#
#
# Indices 1 2 3 4 5 6 
#
# 1 117.6731 28.8938 50.8108 -0.0494 2.1223 -0.0004
# 2 28.8938 64.5760 21.4181 -0.0641 8.1929 0.0089
# 3 50.8108 21.4181 51.0782 -0.2118 9.7999 0.0657
# 4 -0.0494 -0.0641 -0.2118 -0.3540 0.0266 11.9585
# 5 2.1223 8.1929 9.7999 0.0266 40.1670 0.0082
# 6 -0.0004 0.0089 0.0657 11.9585 0.0082 12.5691
#
#
#
# Elastic Compliance Matrix: (Units=1/GPa)
#
#
# Indices 1 2 3 4 5 6 
#
# 1 0.015544 -0.002368 -0.015111 0.000308 0.003348 -0.000214
# 2 -0.002368 0.018490 -0.004929 0.000007 -0.002444 0.000008
# 3 -0.015111 -0.004929 0.038110 -0.000809 -0.007494 0.000579
# 4 0.000308 0.000007 -0.000809 -0.085222 0.000220 0.081086
# 5 0.003348 -0.002444 -0.007494 0.000220 0.027046 -0.000186
# 6 -0.000214 0.000008 0.000579 0.081086 -0.000186 0.002410
#
#
# Mechanical properties :
#
#
# Convention : Reuss Voigt Hill
#
# Bulk Modulus (GPa) = 36.59108 48.39695 42.49402
# Shear Modulus (GPa) = 71.12226 19.29006 45.20616
#
# Velocity S-wave (km/s) = 6.21963 3.23913 4.95862
# Velocity P-wave (km/s) = 8.45461 6.34922 7.47640
#
# Compressibility (1/GPa) = 0.02732906
#
# Stress axis : x y z
#
# Youngs Moduli (GPa) = 64.33396 54.08365 26.24000
#
# Poissons Ratio (x) = 0.12805 0.39650
# Poissons Ratio (y) = 0.15232 0.12934
# Poissons Ratio (z) = 0.97212 0.26658
#
# Static dielectric constant tensor:
#      x y z
#    x 1.630980 0.000020 0.073840 
#    y 0.000020 1.605750 -0.000010 
#    z 0.073840 -0.000010 1.698620 
# 
# From -- ./inp_files/11606.got.cif
#   From: 2010.05.17/outbox.cif.g08.bks.cpg/sg12_6_cif.got.tgz:11606.got - 2010.06.03 13:09:07.
