data_PCOD9218473
_publ_section_title
;
Structure prediction by ZEFSAII (Michael W. Deem and Ramdas Pophale) SiO2 
 PCOD9218473
Probable space group: C 2/M
;
_chemical_formula_sum "Si O2"
_cell_formula_units_Z 40
_cell_length_a 9.500587
_cell_length_b 16.127766
_cell_length_c 29.253448
_cell_angle_alpha 90.000000
_cell_angle_beta 27.350610
_cell_angle_gamma 90.000000
_cell_volume 2059.326135
_symmetry_space_group_name_H-M "C 2/M"
_symmetry_group_IT_number 12
_symmetry_cell_setting 'monoclinic'
loop_
_space_group_symop_operation_xyz
x,y,z
-x,y,-z
-x,-y,-z
x,-y,z
1/2+x,1/2+y,z
1/2-x,1/2+y,-z
1/2-x,1/2-y,-z
1/2+x,1/2-y,z
loop_
_atom_site_type_symbol
_atom_site_label
_atom_site_fract_x
_atom_site_fract_y
_atom_site_fract_z
Si Si1 0.678456 0.328780 0.782923
Si Si2 0.362573 0.500000 0.898542
Si Si3 0.544873 0.166947 0.772139
Si Si4 0.709303 0.500000 0.894798
Si Si5 0.259137 0.328254 0.463034
Si Si6 0.340623 0.092700 0.419221
O O1 0.484326 0.413561 0.841992
O O2 0.508606 0.245236 0.816487
O O3 0.856014 0.318099 0.779691
O O4 0.928039 0.345219 0.671407
O O5 0.491225 0.500000 0.913098
O O6 0.000000 0.500000 0.000000
O O7 0.417550 0.082345 0.830780
O O8 0.903536 0.158725 0.655068
O O9 0.500000 0.500000 0.000000
O O10 0.250000 0.250000 0.500000
O O11 0.167238 0.401529 0.524144
O O12 0.000000 0.318246 0.500000
O O13 0.000000 0.110574 0.500000
O O14 0.419705 0.000000 0.380791
#
# Coordination Sequence:
#
# PCOD9218473 Si02
#       6
#     8   4   8   4   8   8
#     4  11  22  41  65  98 127 167 213 262 322 393
#     4  10  24  46  70  93 120 156 216 273 325 390
#     4  11  24  41  66  95 130 172 216 262 320 387
#     4  10  26  50  68  88 128 170 218 276 335 376
#     4  12  23  37  58  93 134 170 208 257 309 382
#     4  11  22  37  62  90 133 177 215 249 317 389
#
# _framework density 19.423829000000001
#
# number of rings (size 3 to 8) (size 9 to 14) (size 15 to 20)
#    0.000    1.000    5.000    1.800    1.400    2.800 
#    0.000    4.000    0.000    0.000    0.000    0.000 
#    0.000    0.000    0.000    0.000    0.000    0.000 
#
# Total GULP energy -111750.086093 kJ/mol
# GULP energy per Si atom -5587.504305 kJ/mol
# Density = 1.937962 g / cm^3
# Si number density = 19.423829 Si / 1000 Ang^3
#
#
#
# Elastic Constant Matrix: (Units=GPa)
#
#
# Indices 1 2 3 4 5 6 
#
# 1 118.6521 67.1137 60.5110 0.0167 -8.2052 0.0197
# 2 67.1137 168.9851 78.6937 0.0002 -2.7831 -0.0404
# 3 60.5110 78.6937 125.2132 0.0134 -0.0587 0.2776
# 4 0.0167 0.0002 0.0134 19.4171 -0.0141 4.3187
# 5 -8.2052 -2.7831 -0.0587 -0.0141 32.5127 0.0051
# 6 0.0197 -0.0404 0.2776 4.3187 0.0051 27.0115
#
#
#
# Elastic Compliance Matrix: (Units=1/GPa)
#
#
# Indices 1 2 3 4 5 6 
#
# 1 0.012408 -0.002953 -0.004139 -0.000013 0.002871 0.000031
# 2 -0.002953 0.009085 -0.004283 -0.000008 0.000025 0.000061
# 3 -0.004139 -0.004283 0.012678 0.000024 -0.001388 -0.000137
# 4 -0.000013 -0.000008 0.000024 0.053400 0.000021 -0.008538
# 5 0.002871 0.000025 -0.001388 0.000021 0.031481 0.000003
# 6 0.000031 0.000061 -0.000137 -0.008538 0.000003 0.038388
#
#
# Mechanical properties :
#
#
# Convention : Reuss Voigt Hill
#
# Bulk Modulus (GPa) = 87.55747 91.72080 89.63914
# Shear Modulus (GPa) = 27.17427 29.55706 28.36566
#
# Velocity S-wave (km/s) = 3.74440 3.90512 3.82560
# Velocity P-wave (km/s) = 7.99182 8.22536 8.10943
#
# Compressibility (1/GPa) = 0.01142107
#
# Stress axis : x y z
#
# Youngs Moduli (GPa) = 80.59493 110.06574 78.87650
#
# Poissons Ratio (x) = 0.32503 0.32647
# Poissons Ratio (y) = 0.23800 0.33783
# Poissons Ratio (z) = 0.33358 0.47142
#
# Static dielectric constant tensor:
#      x y z
#    x 1.677690 -0.000070 0.033150 
#    y -0.000070 1.747990 -0.000080 
#    z 0.033150 -0.000080 1.681360 
# 
# From -- ./inp_files/256794.got.cif
#   From: 2010.05.17/outbox.cif.g08.bks.cpg/sg12_129_cif.got.tgz:256794.got - 2010.06.03 13:09:07.
