data_PCOD9218791
_publ_section_title
;
Structure prediction by ZEFSAII (Michael W. Deem and Ramdas Pophale) SiO2 
 PCOD9218791
Probable space group: C 2/M
;
_chemical_formula_sum "Si O2"
_cell_formula_units_Z 28
_cell_length_a 12.498777
_cell_length_b 21.306753
_cell_length_c 5.105543
_cell_angle_alpha 90.000000
_cell_angle_beta 121.286096
_cell_angle_gamma 90.000000
_cell_volume 1161.935263
_symmetry_space_group_name_H-M "C 2/M"
_symmetry_group_IT_number 12
_symmetry_cell_setting 'monoclinic'
loop_
_space_group_symop_operation_xyz
x,y,z
-x,y,-z
-x,-y,-z
x,-y,z
1/2+x,1/2+y,z
1/2-x,1/2+y,-z
1/2-x,1/2-y,-z
1/2+x,1/2-y,z
loop_
_atom_site_type_symbol
_atom_site_label
_atom_site_fract_x
_atom_site_fract_y
_atom_site_fract_z
Si Si1 0.247253 0.070639 0.576748
Si Si2 0.915294 0.763389 0.147409
Si Si3 0.000000 0.115637 0.500000
Si Si4 0.856950 0.632524 0.220155
O O1 0.101343 0.077576 0.466368
O O2 0.281270 0.118949 0.390120
O O3 0.274212 0.000000 0.521645
O O4 0.324039 0.086554 0.938511
O O5 0.917936 0.838252 0.207836
O O6 0.825473 0.702202 0.056358
O O7 0.000000 0.744945 0.500000
O O8 0.000000 0.754452 0.000000
O O9 0.000000 0.622533 0.500000
#
# Coordination Sequence:
#
# PCOD9218791 Si02
#       4
#     8   8   4   8
#     4  12  27  44  70  98 138 185 218 275 327 404
#     4   9  20  41  66 100 129 169 216 278 341 376
#     4  10  27  44  70 102 137 172 230 268 346 396
#     4  11  24  46  69 101 134 173 230 276 338 389
#
# _framework density 24.097729999999999
#
# number of rings (size 3 to 8) (size 9 to 14) (size 15 to 20)
#    0.857    0.571    0.000    5.571    4.000    5.714 
#    0.000    2.857    0.000    0.000    0.000    0.000 
#    0.000    0.000    0.000    0.000    0.000    0.000 
#
# Total GULP energy -77954.750705 kJ/mol
# GULP energy per Si atom -5568.196479 kJ/mol
# Density = 2.404288 g / cm^3
# Si number density = 24.097730 Si / 1000 Ang^3
#
#
#
# Elastic Constant Matrix: (Units=GPa)
#
#
# Indices 1 2 3 4 5 6 
#
# 1 84.0576 22.1319 38.5554 0.0000 -16.9900 0.0000
# 2 22.1319 89.4887 5.0379 0.0000 -3.2200 0.0000
# 3 38.5554 5.0379 112.4790 0.0000 -15.3030 0.0000
# 4 0.0000 0.0000 0.0000 18.0580 0.0000 -2.8099
# 5 -16.9900 -3.2200 -15.3030 0.0000 54.7231 0.0000
# 6 0.0000 0.0000 0.0000 -2.8099 0.0000 17.1623
#
#
#
# Elastic Compliance Matrix: (Units=1/GPa)
#
#
# Indices 1 2 3 4 5 6 
#
# 1 0.015673 -0.003488 -0.004763 0.000000 0.003329 0.000000
# 2 -0.003488 0.011995 0.000631 0.000000 -0.000201 0.000000
# 3 -0.004763 0.000631 0.010706 0.000000 0.001552 0.000000
# 4 0.000000 0.000000 0.000000 0.056825 0.000000 0.009304
# 5 0.003329 -0.000201 0.001552 0.000000 0.019730 0.000000
# 6 0.000000 0.000000 0.000000 0.009304 0.000000 0.059790
#
#
# Mechanical properties :
#
#
# Convention : Reuss Voigt Hill
#
# Bulk Modulus (GPa) = 43.22832 46.38616 44.80724
# Shear Modulus (GPa) = 25.29478 32.67535 28.98507
#
# Velocity S-wave (km/s) = 3.24338 3.68632 3.47192
# Velocity P-wave (km/s) = 5.65718 6.11634 5.89124
#
# Compressibility (1/GPa) = 0.02313298
#
# Stress axis : x y z
#
# Youngs Moduli (GPa) = 63.80587 83.37147 93.40418
#
# Poissons Ratio (x) = 0.29081 0.44489
# Poissons Ratio (y) = 0.22256 -0.05895
# Poissons Ratio (z) = 0.30391 -0.05262
#
# Static dielectric constant tensor:
#      x y z
#    x 2.065400 0.000000 0.093030 
#    y 0.000000 2.012310 0.000000 
#    z 0.093030 0.000000 1.846160 
# 
# From -- ./inp_files/5794.got.cif
#   From: 2010.05.17/outbox.cif.g08.bks.cpg/sg12_3_cif.got.tgz:5794.got - 2010.06.03 13:09:07.
