data_PCOD9218704
_publ_section_title
;
Structure prediction by ZEFSAII (Michael W. Deem and Ramdas Pophale) SiO2 
 PCOD9218704
Probable space group: C 2/M
;
_chemical_formula_sum "Si O2"
_cell_formula_units_Z 24
_cell_length_a 8.698205
_cell_length_b 22.309363
_cell_length_c 5.404521
_cell_angle_alpha 90.000000
_cell_angle_beta 83.337746
_cell_angle_gamma 90.000000
_cell_volume 1041.673004
_symmetry_space_group_name_H-M "C 2/M"
_symmetry_group_IT_number 12
_symmetry_cell_setting 'monoclinic'
loop_
_space_group_symop_operation_xyz
x,y,z
-x,y,-z
-x,-y,-z
x,-y,z
1/2+x,1/2+y,z
1/2-x,1/2+y,-z
1/2-x,1/2-y,-z
1/2+x,1/2-y,z
loop_
_atom_site_type_symbol
_atom_site_label
_atom_site_fract_x
_atom_site_fract_y
_atom_site_fract_z
Si Si1 0.649589 0.153176 0.093988
Si Si2 0.362911 0.722368 0.676763
Si Si3 0.396298 0.431067 0.269087
O O1 0.580601 0.215937 0.209003
O O2 0.748624 0.113552 0.268176
O O3 0.500000 0.121567 0.000000
O O4 0.776810 0.177929 0.875755
O O5 0.500000 0.693090 0.500000
O O6 0.250000 0.750000 0.500000
O O7 0.500000 0.427660 0.500000
O O8 0.339410 0.500000 0.269558
O O9 0.500000 0.422098 0.000000
#
# Coordination Sequence:
#
# PCOD9218704 Si02
#       3
#     8   8   8
#     4  11  25  41  67 105 138 182 236 287 345 415
#     4  11  24  41  63  98 147 186 225 280 350 418
#     4  10  25  47  72 102 136 183 237 290 354 419
#
# _framework density 23.039860999999998
#
# number of rings (size 3 to 8) (size 9 to 14) (size 15 to 20)
#    0.000    1.333    3.333    0.000    9.333    0.667 
#    0.000    0.000    0.000    7.000    0.000    0.000 
#    0.000    0.000    0.000    0.000    0.000    0.000 
#
# Total GULP energy -67013.887375 kJ/mol
# GULP energy per Si atom -5584.490615 kJ/mol
# Density = 2.298742 g / cm^3
# Si number density = 23.039861 Si / 1000 Ang^3
#
#
#
# Elastic Constant Matrix: (Units=GPa)
#
#
# Indices 1 2 3 4 5 6 
#
# 1 113.5935 53.0535 36.8037 0.0000 24.3234 0.0000
# 2 53.0535 129.1571 25.9029 0.0000 13.9940 0.0000
# 3 36.8037 25.9029 110.2112 0.0000 17.9622 0.0000
# 4 0.0000 0.0000 0.0000 17.1925 0.0000 33.8120
# 5 24.3234 13.9940 17.9622 0.0000 67.8561 0.0000
# 6 0.0000 0.0000 0.0000 33.8120 0.0000 -18.7035
#
#
#
# Elastic Compliance Matrix: (Units=1/GPa)
#
#
# Indices 1 2 3 4 5 6 
#
# 1 0.012215 -0.004183 -0.002637 0.000000 -0.002818 0.000000
# 2 -0.004183 0.009657 -0.000828 0.000000 -0.000273 0.000000
# 3 -0.002637 -0.000828 0.010416 0.000000 -0.001641 0.000000
# 4 0.000000 0.000000 0.000000 0.012769 0.000000 0.023083
# 5 -0.002818 -0.000273 -0.001641 0.000000 0.016238 0.000000
# 6 0.000000 0.000000 0.000000 0.023083 0.000000 -0.011737
#
#
# Mechanical properties :
#
#
# Convention : Reuss Voigt Hill
#
# Bulk Modulus (GPa) = 58.85355 64.94242 61.89798
# Shear Modulus (GPa) = 70.90542 29.08246 49.99394
#
# Velocity S-wave (km/s) = 5.55355 3.55669 4.66326
# Velocity P-wave (km/s) = 8.16837 6.71677 7.47787
#
# Compressibility (1/GPa) = 0.01699133
#
# Stress axis : x y z
#
# Youngs Moduli (GPa) = 81.86847 103.55697 96.00549
#
# Poissons Ratio (x) = 0.43321 0.25312
# Poissons Ratio (y) = 0.34248 0.07951
# Poissons Ratio (z) = 0.21585 0.08576
#
# Static dielectric constant tensor:
#      x y z
#    x 2.072960 0.000000 0.273530 
#    y 0.000000 1.887400 0.000000 
#    z 0.273530 0.000000 2.214310 
# 
# From -- ./inp_files/2741.got.cif
#   From: 2010.05.17/outbox.cif.g08.bks.cpg/sg12_2_cif.got.tgz:2741.got - 2010.06.03 13:09:07.
