data_PCOD9218051
_publ_section_title
;
Structure prediction by ZEFSAII (Michael W. Deem and Ramdas Pophale) SiO2 
 PCOD9218051
Probable space group: C 2/M
;
_chemical_formula_sum "Si O2"
_cell_formula_units_Z 48
_cell_length_a 20.435903
_cell_length_b 13.541293
_cell_length_c 14.490418
_cell_angle_alpha 90.000000
_cell_angle_beta 145.423835
_cell_angle_gamma 90.000000
_cell_volume 2275.630367
_symmetry_space_group_name_H-M "C 2/M"
_symmetry_group_IT_number 12
_symmetry_cell_setting 'monoclinic'
loop_
_space_group_symop_operation_xyz
x,y,z
-x,y,-z
-x,-y,-z
x,-y,z
1/2+x,1/2+y,z
1/2-x,1/2+y,-z
1/2-x,1/2-y,-z
1/2+x,1/2-y,z
loop_
_atom_site_type_symbol
_atom_site_label
_atom_site_fract_x
_atom_site_fract_y
_atom_site_fract_z
Si Si1 0.137207 0.719529 0.807630
Si Si2 0.141389 0.500000 0.175429
Si Si3 0.547707 0.000000 0.255613
Si Si4 0.622212 0.000000 0.696140
Si Si5 0.034004 0.284634 0.869612
Si Si6 0.728135 0.000000 0.620648
Si Si7 0.757675 0.803052 0.235316
Si Si8 0.296159 0.710264 0.649666
O O1 0.135102 0.603703 0.770007
O O2 0.038069 0.745740 0.766783
O O3 0.142628 0.788358 0.723557
O O4 0.250000 0.750000 0.000000
O O5 0.148738 0.500000 0.295513
O O6 0.206692 0.407529 0.207304
O O7 0.000000 0.500000 0.000000
O O8 0.473444 0.097074 0.151195
O O9 0.605320 0.000000 0.423076
O O10 0.500000 0.000000 0.500000
O O11 0.710401 0.000000 0.710645
O O12 0.924812 0.252275 0.801502
O O13 0.147392 0.253391 0.056305
O O14 0.794173 0.094550 0.659711
O O15 0.782447 0.747734 0.358249
O O16 0.250000 0.750000 0.500000
#
# Coordination Sequence:
#
# PCOD9218051 Si02
#       8
#     8   4   4   4   8   4   8   8
#     4  10  24  41  64  96 137 173 221 274 342 397
#     4  12  18  33  63  95 121 160 219 268 322 381
#     4  12  20  36  63  94 122 150 218 278 317 364
#     4  12  24  43  73 100 133 179 234 288 334 399
#     4  11  21  38  62  92 122 167 212 266 324 383
#     4  12  24  40  60  98 124 169 216 266 329 393
#     4  11  21  39  61  94 128 167 213 271 322 392
#     4  12  23  39  62  88 133 167 214 267 327 391
#
# _framework density 21.093056000000001
#
# number of rings (size 3 to 8) (size 9 to 14) (size 15 to 20)
#    0.000    0.667    6.667    2.000    0.000    2.000 
#    0.000    5.833    0.000    0.000    0.000    5.833 
#    0.000    0.000    0.000    0.000    0.000    0.000 
#
# Total GULP energy -133801.885539 kJ/mol
# GULP energy per Si atom -5575.078564 kJ/mol
# Density = 2.104505 g / cm^3
# Si number density = 21.093056 Si / 1000 Ang^3
#
#
#
# Elastic Constant Matrix: (Units=GPa)
#
#
# Indices 1 2 3 4 5 6 
#
# 1 133.5473 16.9729 -1.2716 0.0000 -45.7197 0.0000
# 2 16.9729 101.3603 4.4982 0.0000 -12.5607 0.0000
# 3 -1.2716 4.4982 54.1844 0.0000 -17.4676 0.0000
# 4 0.0000 0.0000 0.0000 32.0042 0.0000 -38.2175
# 5 -45.7197 -12.5607 -17.4676 0.0000 37.4236 0.0000
# 6 0.0000 0.0000 0.0000 -38.2175 0.0000 92.8022
#
#
#
# Elastic Compliance Matrix: (Units=1/GPa)
#
#
# Indices 1 2 3 4 5 6 
#
# 1 0.015020 -0.000148 0.007374 0.000000 0.021742 0.000000
# 2 -0.000148 0.010300 0.000233 0.000000 0.003385 0.000000
# 3 0.007374 0.000233 0.025353 0.000000 0.020921 0.000000
# 4 0.000000 0.000000 0.000000 0.061479 0.000000 0.025318
# 5 0.021742 0.003385 0.020921 0.000000 0.064184 0.000000
# 6 0.000000 0.000000 0.000000 0.025318 0.000000 0.021202
#
#
# Mechanical properties :
#
#
# Convention : Reuss Voigt Hill
#
# Bulk Modulus (GPa) = 15.24612 36.61009 25.92810
# Shear Modulus (GPa) = 24.45160 50.37217 37.41188
#
# Velocity S-wave (km/s) = 3.40843 4.89211 4.21605
# Velocity P-wave (km/s) = 4.76798 7.02172 6.00159
#
# Compressibility (1/GPa) = 0.06559048
#
# Stress axis : x y z
#
# Youngs Moduli (GPa) = 66.57580 97.09030 39.44233
#
# Poissons Ratio (x) = 0.01438 -0.29085
# Poissons Ratio (y) = 0.00986 -0.00917
# Poissons Ratio (z) = -0.49093 -0.02258
#
# Static dielectric constant tensor:
#      x y z
#    x 1.837590 0.000000 -0.018960 
#    y 0.000000 1.777730 0.000000 
#    z -0.018960 0.000000 1.820180 
# 
# From -- ./inp_files/233504.got.cif
#   From: 2010.05.17/outbox.cif.g08.bks.cpg/sg12_117_cif.got.tgz:233504.got - 2010.06.03 13:09:07.
