data_PCOD9218974
_publ_section_title
;
Structure prediction by ZEFSAII (Michael W. Deem and Ramdas Pophale) SiO2 
 PCOD9218974
Probable space group: C 2/M
;
_chemical_formula_sum "Si O2"
_cell_formula_units_Z 42
_cell_length_a 24.256868
_cell_length_b 14.413736
_cell_length_c 7.015771
_cell_angle_alpha 90.000000
_cell_angle_beta 122.014746
_cell_angle_gamma 90.000000
_cell_volume 2079.875376
_symmetry_space_group_name_H-M "C 2/M"
_symmetry_group_IT_number 12
_symmetry_cell_setting 'monoclinic'
loop_
_space_group_symop_operation_xyz
x,y,z
-x,y,-z
-x,-y,-z
x,-y,z
1/2+x,1/2+y,z
1/2-x,1/2+y,-z
1/2-x,1/2-y,-z
1/2+x,1/2-y,z
loop_
_atom_site_type_symbol
_atom_site_label
_atom_site_fract_x
_atom_site_fract_y
_atom_site_fract_z
Si Si1 0.071290 0.890303 0.058847
Si Si2 0.133998 0.400201 0.721797
Si Si3 0.000000 0.500000 0.500000
Si Si4 0.734707 0.890388 0.608632
Si Si5 0.339386 0.291945 0.062918
Si Si6 0.683559 0.608574 0.582001
O O1 0.123674 0.878902 0.324725
O O2 0.069846 0.000000 0.007208
O O3 0.097486 0.832913 0.927613
O O4 0.000000 0.863139 0.000000
O O5 0.164169 0.500000 0.838566
O O6 0.057650 0.420643 0.581538
O O7 0.162680 0.381787 0.562346
O O8 0.153819 0.317429 0.894916
O O9 0.752833 0.865274 0.426176
O O10 0.753380 0.000000 0.658268
O O11 0.779729 0.829878 0.828908
O O12 0.328954 0.333864 0.252993
O O13 0.687134 0.500000 0.639293
#
# Coordination Sequence:
#
# PCOD9218974 Si02
#       6
#     8   8   2   8   8   8
#     4   9  19  34  50  79 122 152 180 230 294 356
#     4   9  20  37  56  79 112 154 202 243 284 330
#     4   8  20  40  56  76 108 164 206 226 280 336
#     4   9  18  35  57  87 120 145 177 245 304 345
#     4  11  19  32  60  86 107 148 197 237 288 349
#     4   9  18  31  51  85 119 144 182 233 299 356
#
# _framework density 20.193518000000001
#
# number of rings (size 3 to 8) (size 9 to 14) (size 15 to 20)
#    0.571    2.095    0.000    3.429    0.000    3.048 
#    0.000    2.857    0.000    7.429    0.000    0.000 
#    0.000    0.000    0.000    0.000    0.000    0.000 
#
# Total GULP energy -116913.254755 kJ/mol
# GULP energy per Si atom -5567.297845 kJ/mol
# Density = 2.014756 g / cm^3
# Si number density = 20.193518 Si / 1000 Ang^3
#
#
#
# Elastic Constant Matrix: (Units=GPa)
#
#
# Indices 1 2 3 4 5 6 
#
# 1 164.3384 56.0887 55.7676 0.0000 -21.3357 0.0000
# 2 56.0887 107.0287 60.5136 0.0000 -27.5706 0.0000
# 3 55.7676 60.5136 77.6413 0.0000 -27.3512 0.0000
# 4 0.0000 0.0000 0.0000 21.5009 0.0000 -2.1369
# 5 -21.3357 -27.5706 -27.3512 0.0000 25.7348 0.0000
# 6 0.0000 0.0000 0.0000 -2.1369 0.0000 23.0943
#
#
#
# Elastic Compliance Matrix: (Units=1/GPa)
#
#
# Indices 1 2 3 4 5 6 
#
# 1 0.008223 -0.001713 -0.004501 0.000000 0.000198 0.000000
# 2 -0.001713 0.017768 -0.010250 0.000000 0.006721 0.000000
# 3 -0.004501 -0.010250 0.030241 0.000000 0.017427 0.000000
# 4 0.000000 0.000000 0.000000 0.046941 0.000000 0.004343
# 5 0.000198 0.006721 0.017427 0.000000 0.064745 0.000000
# 6 0.000000 0.000000 0.000000 0.004343 0.000000 0.043703
#
#
# Mechanical properties :
#
#
# Convention : Reuss Voigt Hill
#
# Bulk Modulus (GPa) = 42.91350 77.08312 59.99831
# Shear Modulus (GPa) = 19.81636 25.84189 22.82913
#
# Velocity S-wave (km/s) = 3.13601 3.58119 3.36596
# Velocity P-wave (km/s) = 5.86600 7.44009 6.69944
#
# Compressibility (1/GPa) = 0.02330269
#
# Stress axis : x y z
#
# Youngs Moduli (GPa) = 121.61130 56.28172 33.06775
#
# Poissons Ratio (x) = 0.09643 0.14885
# Poissons Ratio (y) = 0.20835 0.33894
# Poissons Ratio (z) = 0.54741 0.57688
#
# Static dielectric constant tensor:
#      x y z
#    x 1.739830 0.000000 -0.009280 
#    y 0.000000 1.756330 0.000000 
#    z -0.009280 0.000000 1.692620 
# 
# From -- ./inp_files/24328.got.cif
#   From: 2010.05.17/outbox.cif.g08.bks.cpg/sg12_13_cif.got.tgz:24328.got - 2010.06.03 13:09:07.
