data_PCOD9218421
_publ_section_title
;
Structure prediction by ZEFSAII (Michael W. Deem and Ramdas Pophale) SiO2 
 PCOD9218421
Probable space group: C 2/M
;
_chemical_formula_sum "Si O2"
_cell_formula_units_Z 56
_cell_length_a 19.043450
_cell_length_b 14.220545
_cell_length_c 18.903436
_cell_angle_alpha 90.000000
_cell_angle_beta 150.755961
_cell_angle_gamma 90.000000
_cell_volume 2500.888181
_symmetry_space_group_name_H-M "C 2/M"
_symmetry_group_IT_number 12
_symmetry_cell_setting 'monoclinic'
loop_
_space_group_symop_operation_xyz
x,y,z
-x,y,-z
-x,-y,-z
x,-y,z
1/2+x,1/2+y,z
1/2-x,1/2+y,-z
1/2-x,1/2-y,-z
1/2+x,1/2-y,z
loop_
_atom_site_type_symbol
_atom_site_label
_atom_site_fract_x
_atom_site_fract_y
_atom_site_fract_z
Si Si1 0.502362 0.393863 0.835295
Si Si2 0.263187 0.773128 0.094080
Si Si3 0.166748 0.114989 0.443875
Si Si4 0.328289 0.217538 0.851209
Si Si5 0.709711 0.105912 0.669444
Si Si6 0.141116 0.112847 0.581659
Si Si7 0.042809 0.387097 0.383172
O O1 0.555315 0.500000 0.872501
O O2 0.458703 0.354369 0.719955
O O3 0.354137 0.396957 0.748157
O O4 0.621339 0.336894 0.980787
O O5 0.236166 0.691752 0.128331
O O6 0.405598 0.830798 0.236627
O O7 0.250000 0.750000 0.000000
O O8 0.147186 0.148485 0.506522
O O9 0.319735 0.140480 0.544262
O O10 0.162541 0.000000 0.439566
O O11 0.247460 0.314566 0.758615
O O12 0.277228 0.146271 0.745845
O O13 0.500000 0.225081 0.000000
O O14 0.585653 0.128565 0.503216
O O15 0.687960 0.000000 0.678931
O O16 0.000000 0.145128 0.500000
O O17 0.137365 0.000000 0.575217
O O18 0.023658 0.500000 0.358549
#
# Coordination Sequence:
#
# PCOD9218421 Si02
#       7
#     8   8   8   8   8   8   8
#     4   9  18  38  64  90 123 164 206 252 310 381
#     4  12  27  39  56  92 131 168 210 261 318 381
#     4   8  17  37  67  93 116 157 211 261 315 375
#     4  12  27  44  63  95 132 170 215 264 320 386
#     4   9  20  41  69  96 126 167 209 256 319 386
#     4  10  24  45  70  94 120 164 222 277 323 367
#     4   9  20  40  65  94 126 165 212 258 314 382
#
# _framework density 22.392043999999999
#
# number of rings (size 3 to 8) (size 9 to 14) (size 15 to 20)
#    0.000    2.143    1.429    2.143    6.000    1.714 
#    0.000    5.000    0.000    0.000    0.000    0.000 
#    0.000    0.000    0.000    0.000    0.000    0.000 
#
# Total GULP energy -156594.988938 kJ/mol
# GULP energy per Si atom -5592.678176 kJ/mol
# Density = 2.234108 g / cm^3
# Si number density = 22.392044 Si / 1000 Ang^3
#
#
#
# Elastic Constant Matrix: (Units=GPa)
#
#
# Indices 1 2 3 4 5 6 
#
# 1 108.6551 10.1365 37.9750 0.0003 -19.9640 0.0002
# 2 10.1365 33.1631 12.5447 0.0004 3.4849 0.0003
# 3 37.9750 12.5447 132.6360 0.0005 10.6701 0.0004
# 4 0.0003 0.0004 0.0005 28.7902 0.0003 -5.2255
# 5 -19.9640 3.4849 10.6701 0.0003 40.1133 0.0002
# 6 0.0002 0.0003 0.0004 -5.2255 0.0002 18.9054
#
#
#
# Elastic Compliance Matrix: (Units=1/GPa)
#
#
# Indices 1 2 3 4 5 6 
#
# 1 0.012154 -0.003054 -0.003780 0.000000 0.007320 0.000000
# 2 -0.003054 0.032194 -0.001863 0.000000 -0.003822 0.000000
# 3 -0.003780 -0.001863 0.009132 0.000000 -0.004148 0.000000
# 4 0.000000 0.000000 0.000000 0.036569 0.000000 0.010108
# 5 0.007320 -0.003822 -0.004148 0.000000 0.030008 0.000000
# 6 0.000000 0.000000 0.000000 0.010108 0.000000 0.055689
#
#
# Mechanical properties :
#
#
# Convention : Reuss Voigt Hill
#
# Bulk Modulus (GPa) = 27.71215 43.97407 35.84311
# Shear Modulus (GPa) = 24.37024 31.81497 28.09261
#
# Velocity S-wave (km/s) = 3.30258 3.77346 3.54585
# Velocity P-wave (km/s) = 5.19091 6.21822 5.72764
#
# Compressibility (1/GPa) = 0.03608526
#
# Stress axis : x y z
#
# Youngs Moduli (GPa) = 82.27471 31.06183 109.51017
#
# Poissons Ratio (x) = 0.09488 0.41394
# Poissons Ratio (y) = 0.25130 0.20401
# Poissons Ratio (z) = 0.31099 0.05787
#
# Static dielectric constant tensor:
#      x y z
#    x 1.880840 0.000000 -0.018220 
#    y 0.000000 1.835670 0.000000 
#    z -0.018220 0.000000 1.786280 
# 
# From -- ./inp_files/284583.got.cif
#   From: 2010.05.17/outbox.cif.g08.bks.cpg/sg12_143_cif.got.tgz:284583.got - 2010.06.03 13:09:07.
