data_PCOD9218375
_publ_section_title
;
Structure prediction by ZEFSAII (Michael W. Deem and Ramdas Pophale) SiO2 
 PCOD9218375
Probable space group: C 2/M
;
_chemical_formula_sum "Si O2"
_cell_formula_units_Z 64
_cell_length_a 30.918083
_cell_length_b 8.241229
_cell_length_c 14.664811
_cell_angle_alpha 90.000000
_cell_angle_beta 127.352927
_cell_angle_gamma 90.000000
_cell_volume 2970.303363
_symmetry_space_group_name_H-M "C 2/M"
_symmetry_group_IT_number 12
_symmetry_cell_setting 'monoclinic'
loop_
_space_group_symop_operation_xyz
x,y,z
-x,y,-z
-x,-y,-z
x,-y,z
1/2+x,1/2+y,z
1/2-x,1/2+y,-z
1/2-x,1/2-y,-z
1/2+x,1/2-y,z
loop_
_atom_site_type_symbol
_atom_site_label
_atom_site_fract_x
_atom_site_fract_y
_atom_site_fract_z
Si Si1 0.994225 0.193437 0.595406
Si Si2 0.051439 0.698279 0.125344
Si Si3 0.804531 0.693879 0.120487
Si Si4 0.759516 0.689336 0.258076
Si Si5 0.409901 0.308796 0.151924
Si Si6 0.702710 0.686165 0.504684
Si Si7 0.860871 0.691342 0.906225
Si Si8 0.916823 0.310001 0.638808
O O1 0.937453 0.227104 0.572923
O O2 0.000000 0.258678 0.500000
O O3 0.040148 0.256516 0.723999
O O4 0.002493 0.000000 0.600553
O O5 0.050439 0.500000 0.125721
O O6 0.106226 0.744513 0.141413
O O7 0.052792 0.754367 0.231499
O O8 0.000000 0.752596 0.000000
O O9 0.811019 0.500000 0.116826
O O10 0.795125 0.728307 0.214903
O O11 0.855871 0.782481 0.142936
O O12 0.750000 0.750000 0.000000
O O13 0.767696 0.500000 0.291337
O O14 0.775878 0.794910 0.365159
O O15 0.696034 0.717596 0.154382
O O16 0.417578 0.500000 0.143654
O O17 0.399196 0.221104 0.042538
O O18 0.690959 0.500000 0.467832
O O19 0.750000 0.750000 0.500000
O O20 0.646874 0.784442 0.425770
O O21 0.849227 0.500000 0.884365
O O22 0.928357 0.500000 0.644603
#
# Coordination Sequence:
#
# PCOD9218375 Si02
#       8
#     8   8   8   8   8   8   8   8
#     4  10  24  45  65  90 125 171 221 269 328 390
#     4   9  19  36  60  90 123 157 198 250 310 372
#     4  11  23  39  62  92 128 166 211 262 325 393
#     4  11  24  41  62  92 127 163 210 264 321 387
#     4  11  23  39  61  89 127 168 214 269 323 381
#     4  12  26  45  69  96 132 175 219 268 325 387
#     4  11  21  36  62  92 123 164 207 255 320 386
#     4  11  23  42  68  98 130 166 216 272 326 386
#
# _framework density 21.546620999999998
#
# number of rings (size 3 to 8) (size 9 to 14) (size 15 to 20)
#    0.000    1.250    1.250    4.500    1.750    4.750 
#    0.000    1.875    0.000    4.500    0.000    0.000 
#    0.000    0.000    0.000    0.000    0.000    0.000 
#
# Total GULP energy -179022.716691 kJ/mol
# GULP energy per Si atom -5594.459897 kJ/mol
# Density = 2.149758 g / cm^3
# Si number density = 21.546621 Si / 1000 Ang^3
#
#
#
# Elastic Constant Matrix: (Units=GPa)
#
#
# Indices 1 2 3 4 5 6 
#
# 1 93.0338 -8.1913 14.5782 0.0000 -15.2982 0.0000
# 2 -8.1913 21.1413 -6.6303 0.0000 -11.4749 0.0000
# 3 14.5782 -6.6303 81.3071 0.0000 -11.9323 0.0000
# 4 0.0000 0.0000 0.0000 24.6302 0.0000 -5.2903
# 5 -15.2982 -11.4749 -11.9323 0.0000 36.4879 0.0000
# 6 0.0000 0.0000 0.0000 -5.2903 0.0000 17.0392
#
#
#
# Elastic Compliance Matrix: (Units=1/GPa)
#
#
# Indices 1 2 3 4 5 6 
#
# 1 0.012999 0.009438 -0.000342 0.000000 0.008306 0.000000
# 2 0.009438 0.068810 0.008062 0.000000 0.028233 0.000000
# 3 -0.000342 0.008062 0.014043 0.000000 0.006984 0.000000
# 4 0.000000 0.000000 0.000000 0.043501 0.000000 0.013506
# 5 0.008306 0.028233 0.006984 0.000000 0.042052 0.000000
# 6 0.000000 0.000000 0.000000 0.013506 0.000000 0.062882
#
#
# Mechanical properties :
#
#
# Convention : Reuss Voigt Hill
#
# Bulk Modulus (GPa) = 7.68235 21.66616 14.67426
# Shear Modulus (GPa) = 19.73470 28.67982 24.20726
#
# Velocity S-wave (km/s) = 3.02968 3.65233 3.35548
# Velocity P-wave (km/s) = 3.97641 5.27857 4.67307
#
# Compressibility (1/GPa) = 0.13016847
#
# Stress axis : x y z
#
# Youngs Moduli (GPa) = 76.92775 14.53270 71.21065
#
# Poissons Ratio (x) = -0.13716 0.02436
# Poissons Ratio (y) = -0.72602 -0.57413
# Poissons Ratio (z) = 0.02632 -0.11717
#
# Static dielectric constant tensor:
#      x y z
#    x 1.773130 0.000000 0.004120 
#    y 0.000000 1.758340 0.000000 
#    z 0.004120 0.000000 1.791820 
# 
# From -- ./inp_files/249976.got.cif
#   From: 2010.05.17/outbox.cif.g08.bks.cpg/sg12_125_cif.got.tgz:249976.got - 2010.06.03 13:09:07.
