data_PCOD9218268
_publ_section_title
;
Structure prediction by ZEFSAII (Michael W. Deem and Ramdas Pophale) SiO2 
 PCOD9218268
Probable space group: C 2/M
;
_chemical_formula_sum "Si O2"
_cell_formula_units_Z 56
_cell_length_a 20.596375
_cell_length_b 8.772538
_cell_length_c 27.775536
_cell_angle_alpha 90.000000
_cell_angle_beta 35.147318
_cell_angle_gamma 90.000000
_cell_volume 2889.084130
_symmetry_space_group_name_H-M "C 2/M"
_symmetry_group_IT_number 12
_symmetry_cell_setting 'monoclinic'
loop_
_space_group_symop_operation_xyz
x,y,z
-x,y,-z
-x,-y,-z
x,-y,z
1/2+x,1/2+y,z
1/2-x,1/2+y,-z
1/2-x,1/2-y,-z
1/2+x,1/2-y,z
loop_
_atom_site_type_symbol
_atom_site_label
_atom_site_fract_x
_atom_site_fract_y
_atom_site_fract_z
Si Si1 0.941355 0.820743 0.483357
Si Si2 0.609034 0.180371 0.304175
Si Si3 0.742549 0.681904 0.057666
Si Si4 0.030555 0.817932 0.251731
Si Si5 0.705338 0.317080 0.655065
Si Si6 0.465022 0.682312 0.966392
Si Si7 0.670786 0.182039 0.782585
O O1 0.816346 0.754235 0.564052
O O2 0.000000 0.805899 0.500000
O O3 0.016358 0.731891 0.399348
O O4 0.938650 0.000000 0.472591
O O5 0.565546 0.229836 0.278335
O O6 0.725252 0.264398 0.247228
O O7 0.627574 0.000000 0.295301
O O8 0.756262 0.500000 0.047282
O O9 0.622254 0.715332 0.154833
O O10 0.750000 0.750000 0.000000
O O11 0.842199 0.752905 0.029037
O O12 0.906288 0.780679 0.307909
O O13 0.034867 0.000000 0.258829
O O14 0.716614 0.500000 0.651196
O O15 0.690727 0.251069 0.717568
O O16 0.465518 0.500000 0.959828
O O17 0.555760 0.755526 0.875339
O O18 0.500000 0.717104 0.000000
O O19 0.668642 0.000000 0.780968
#
# Coordination Sequence:
#
# PCOD9218268 Si02
#       7
#     8   8   8   8   8   8   8
#     4  11  23  41  66  95 128 167 210 258 313 374
#     4  12  25  41  66  95 127 168 211 261 316 374
#     4  11  23  41  66  93 127 171 214 261 317 379
#     4  10  24  44  64  92 130 168 208 258 317 377
#     4  11  23  41  67  96 127 164 210 261 311 371
#     4  11  24  41  62  91 126 163 210 265 316 372
#     4  12  24  40  64  93 126 165 209 259 316 377
#
# _framework density 19.383303999999999
#
# number of rings (size 3 to 8) (size 9 to 14) (size 15 to 20)
#    0.000    0.857    1.429    6.000    0.000    8.000 
#    0.000    0.000    0.000    0.000    0.000    0.000 
#    0.000    0.000    0.000    0.000    0.000    0.000 
#
# Total GULP energy -156755.280557 kJ/mol
# GULP energy per Si atom -5598.402877 kJ/mol
# Density = 1.933919 g / cm^3
# Si number density = 19.383304 Si / 1000 Ang^3
#
#
#
# Elastic Constant Matrix: (Units=GPa)
#
#
# Indices 1 2 3 4 5 6 
#
# 1 59.6151 15.9615 -18.4403 -0.0001 -12.9399 0.0000
# 2 15.9615 47.3538 -2.2526 -0.0003 -1.7080 0.0002
# 3 -18.4403 -2.2526 54.8565 -0.0002 -17.8693 0.0001
# 4 -0.0001 -0.0003 -0.0002 34.8998 0.0001 -0.6537
# 5 -12.9399 -1.7080 -17.8693 0.0001 38.3595 0.0000
# 6 0.0000 0.0002 0.0001 -0.6537 0.0000 34.9278
#
#
#
# Elastic Compliance Matrix: (Units=1/GPa)
#
#
# Indices 1 2 3 4 5 6 
#
# 1 0.026076 -0.007634 0.013212 0.000000 0.014611 0.000000
# 2 -0.007634 0.023476 -0.002476 0.000000 -0.002684 0.000000
# 3 0.013212 -0.002476 0.028275 0.000000 0.017518 0.000000
# 4 0.000000 0.000000 0.000000 0.028663 0.000000 0.000536
# 5 0.014611 -0.002684 0.017518 0.000000 0.039039 0.000000
# 6 0.000000 0.000000 0.000000 0.000536 0.000000 0.028641
#
#
# Mechanical properties :
#
#
# Convention : Reuss Voigt Hill
#
# Bulk Modulus (GPa) = 11.90047 16.92919 14.41483
# Shear Modulus (GPa) = 25.51299 32.74121 29.12710
#
# Velocity S-wave (km/s) = 3.63193 4.11438 3.88066
# Velocity P-wave (km/s) = 4.87245 5.59676 5.24712
#
# Compressibility (1/GPa) = 0.08403028
#
# Stress axis : x y z
#
# Youngs Moduli (GPa) = 38.34899 42.59619 35.36654
#
# Poissons Ratio (x) = 0.32518 -0.46725
# Poissons Ratio (y) = 0.29276 0.08758
# Poissons Ratio (z) = -0.50665 0.10548
#
# Static dielectric constant tensor:
#      x y z
#    x 1.647310 0.000000 -0.003570 
#    y 0.000000 1.648640 0.000000 
#    z -0.003570 0.000000 1.643380 
# 
# From -- ./inp_files/380575.got.cif
#   From: 2010.05.17/outbox.cif.g08.bks.cpg/sg12_191_cif.got.tgz:380575.got - 2010.06.03 13:09:07.
