data_PCOD9218716
_publ_section_title
;
Structure prediction by ZEFSAII (Michael W. Deem and Ramdas Pophale) SiO2 
 PCOD9218716
Probable space group: C 2/M
;
_chemical_formula_sum "Si O2"
_cell_formula_units_Z 56
_cell_length_a 8.800896
_cell_length_b 20.009725
_cell_length_c 15.848928
_cell_angle_alpha 90.000000
_cell_angle_beta 104.497541
_cell_angle_gamma 90.000000
_cell_volume 2702.180233
_symmetry_space_group_name_H-M "C 2/M"
_symmetry_group_IT_number 12
_symmetry_cell_setting 'monoclinic'
loop_
_space_group_symop_operation_xyz
x,y,z
-x,y,-z
-x,-y,-z
x,-y,z
1/2+x,1/2+y,z
1/2-x,1/2+y,-z
1/2-x,1/2-y,-z
1/2+x,1/2-y,z
loop_
_atom_site_type_symbol
_atom_site_label
_atom_site_fract_x
_atom_site_fract_y
_atom_site_fract_z
Si Si1 0.429548 0.769978 0.678336
Si Si2 0.986302 0.877494 0.237776
Si Si3 0.162201 0.702979 0.920313
Si Si4 0.841905 0.305788 0.426097
Si Si5 0.309352 0.190902 0.832139
Si Si6 0.142644 0.076300 0.086848
Si Si7 0.101079 0.922748 0.430302
O O1 0.466468 0.697231 0.724257
O O2 0.286348 0.753278 0.594730
O O3 0.579230 0.803643 0.656198
O O4 0.357653 0.813775 0.741856
O O5 0.813094 0.868972 0.172888
O O6 0.089896 0.904339 0.174835
O O7 0.003999 0.917108 0.328363
O O8 0.214656 0.742023 0.843010
O O9 0.231488 0.629622 0.926715
O O10 0.975565 0.697665 0.901875
O O11 0.250000 0.750000 0.000000
O O12 0.747795 0.372509 0.438279
O O13 0.000000 0.295604 0.500000
O O14 0.197454 0.000000 0.094281
O O15 0.000000 0.081915 0.000000
O O16 0.000000 0.903650 0.500000
O O17 0.149092 0.000000 0.448088
#
# Coordination Sequence:
#
# PCOD9218716 Si02
#       7
#     8   8   8   8   8   8   8
#     4  11  21  38  58  95 135 159 204 270 329 384
#     4  11  22  41  66  94 127 173 214 266 335 392
#     4  12  23  39  66 101 132 172 221 276 332 399
#     4  11  24  37  65  95 128 170 212 270 338 395
#     4  12  21  37  63  93 134 164 209 276 329 391
#     4  11  24  44  66  93 132 176 222 269 326 397
#     4  10  25  48  67  89 127 175 228 274 323 402
#
# _framework density 20.724005999999999
#
# number of rings (size 3 to 8) (size 9 to 14) (size 15 to 20)
#    0.000    0.857    4.286    3.000    4.000    2.571 
#    0.000    1.429    0.000    3.429    0.000    0.000 
#    0.000    0.000    0.000    0.000    0.000    0.000 
#
# Total GULP energy -156192.719316 kJ/mol
# GULP energy per Si atom -5578.311404 kJ/mol
# Density = 2.067684 g / cm^3
# Si number density = 20.724006 Si / 1000 Ang^3
#
#
#
# Elastic Constant Matrix: (Units=GPa)
#
#
# Indices 1 2 3 4 5 6 
#
# 1 126.2739 49.1310 38.1797 0.0000 10.3513 0.0000
# 2 49.1310 78.6559 20.2105 0.0000 -0.3311 0.0000
# 3 38.1797 20.2105 119.1506 0.0000 7.1452 0.0000
# 4 0.0000 0.0000 0.0000 22.6379 0.0000 -5.7295
# 5 10.3513 -0.3311 7.1452 0.0000 43.6023 0.0000
# 6 0.0000 0.0000 0.0000 -5.7295 0.0000 28.7063
#
#
#
# Elastic Compliance Matrix: (Units=1/GPa)
#
#
# Indices 1 2 3 4 5 6 
#
# 1 0.011363 -0.006491 -0.002399 0.000000 -0.002354 0.000000
# 2 -0.006491 0.017011 -0.000915 0.000000 0.001820 0.000000
# 3 -0.002399 -0.000915 0.009375 0.000000 -0.000974 0.000000
# 4 0.000000 0.000000 0.000000 0.046524 0.000000 0.009286
# 5 -0.002354 0.001820 -0.000974 0.000000 0.023667 0.000000
# 6 0.000000 0.000000 0.000000 0.009286 0.000000 0.036689
#
#
# Mechanical properties :
#
#
# Convention : Reuss Voigt Hill
#
# Bulk Modulus (GPa) = 55.12821 59.90255 57.51538
# Shear Modulus (GPa) = 29.36256 33.42658 31.39457
#
# Velocity S-wave (km/s) = 3.76817 4.02050 3.89638
# Velocity P-wave (km/s) = 6.75212 7.10776 6.93222
#
# Compressibility (1/GPa) = 0.01813953
#
# Stress axis : x y z
#
# Youngs Moduli (GPa) = 88.00299 58.78557 106.66727
#
# Poissons Ratio (x) = 0.38160 0.25589
# Poissons Ratio (y) = 0.57126 0.09755
# Poissons Ratio (z) = 0.21111 0.05376
#
# Static dielectric constant tensor:
#      x y z
#    x 1.842720 0.000000 -0.049710 
#    y 0.000000 1.708620 0.000000 
#    z -0.049710 0.000000 1.969710 
# 
# From -- ./inp_files/198530.got.cif
#   From: 2010.05.17/outbox.cif.g08.bks.cpg/sg12_100_cif.got.tgz:198530.got - 2010.06.03 13:09:07.
