data_PCOD9218544
_publ_section_title
;
Structure prediction by ZEFSAII (Michael W. Deem and Ramdas Pophale) SiO2 
 PCOD9218544
Probable space group: C 2/M
;
_chemical_formula_sum "Si O2"
_cell_formula_units_Z 46
_cell_length_a 21.995394
_cell_length_b 21.023111
_cell_length_c 12.874402
_cell_angle_alpha 90.000000
_cell_angle_beta 22.356054
_cell_angle_gamma 90.000000
_cell_volume 2264.393658
_symmetry_space_group_name_H-M "C 2/M"
_symmetry_group_IT_number 12
_symmetry_cell_setting 'monoclinic'
loop_
_space_group_symop_operation_xyz
x,y,z
-x,y,-z
-x,-y,-z
x,-y,z
1/2+x,1/2+y,z
1/2-x,1/2+y,-z
1/2-x,1/2-y,-z
1/2+x,1/2-y,z
loop_
_atom_site_type_symbol
_atom_site_label
_atom_site_fract_x
_atom_site_fract_y
_atom_site_fract_z
Si Si1 0.000000 0.500000 0.000000
Si Si2 0.766165 0.574259 0.603152
Si Si3 0.571660 0.931160 0.269440
Si Si4 0.949195 0.157187 0.914169
Si Si5 0.221166 0.619399 0.649738
Si Si6 0.817848 0.307358 0.827558
Si Si7 0.000000 0.736699 0.000000
O O1 0.125171 0.557535 0.840787
O O2 0.740572 0.500000 0.618106
O O3 0.787446 0.610634 0.461987
O O4 0.925640 0.577784 0.420724
O O5 0.623319 0.604454 0.893941
O O6 0.500000 0.933648 0.500000
O O7 0.680531 0.869734 0.101705
O O8 0.646814 0.000000 0.129947
O O9 0.091389 0.125799 0.623569
O O10 0.016921 0.216092 0.875132
O O11 0.800912 0.179985 0.079984
O O12 0.141257 0.686954 0.801382
O O13 0.000000 0.296861 0.500000
O O14 0.750000 0.250000 0.000000
#
# Coordination Sequence:
#
# PCOD9218544 Si02
#       7
#     2   8   8   8   8   8   4
#     4  10  24  48  58  92 132 168 202 262 342 390
#     4  11  21  37  65  94 122 159 209 265 316 380
#     4   9  18  37  59  88 120 159 206 255 317 366
#     4  12  24  38  66  95 125 163 220 263 319 384
#     4  11  24  41  62  89 129 168 207 257 329 398
#     4  11  25  42  65  95 131 172 220 274 327 384
#     4  11  26  39  59  88 131 168 206 260 319 384
#
# _framework density 20.314488999999998
#
# number of rings (size 3 to 8) (size 9 to 14) (size 15 to 20)
#    0.000    1.217    6.087    0.522    6.087    0.696 
#    0.000    0.000    0.000    0.522    0.000    0.000 
#    0.000    0.000    0.000    0.000    0.000    0.000 
#
# Total GULP energy -128108.238124 kJ/mol
# GULP energy per Si atom -5569.923397 kJ/mol
# Density = 2.026825 g / cm^3
# Si number density = 20.314489 Si / 1000 Ang^3
#
#
#
# Elastic Constant Matrix: (Units=GPa)
#
#
# Indices 1 2 3 4 5 6 
#
# 1 41.2459 10.3541 11.9225 0.0059 -22.5333 0.0205
# 2 10.3541 163.3342 35.1150 0.0089 -10.6866 0.0178
# 3 11.9225 35.1150 74.0886 0.0103 -17.9879 0.0155
# 4 0.0059 0.0089 0.0103 26.4963 -0.0047 11.7032
# 5 -22.5333 -10.6866 -17.9879 -0.0047 21.2315 -0.0188
# 6 0.0205 0.0178 0.0155 11.7032 -0.0188 114.9706
#
#
#
# Elastic Compliance Matrix: (Units=1/GPa)
#
#
# Indices 1 2 3 4 5 6 
#
# 1 0.060882 -0.000909 0.007819 -0.000004 0.070781 0.000000
# 2 -0.000909 0.006844 -0.003141 -0.000001 -0.000182 0.000000
# 3 0.007819 -0.003141 0.019336 -0.000004 0.023099 0.000001
# 4 -0.000004 -0.000001 -0.000004 0.039518 -0.000003 -0.004023
# 5 0.070781 -0.000182 0.023099 -0.000003 0.141699 0.000008
# 6 0.000000 0.000000 0.000001 -0.004023 0.000008 0.009107
#
#
# Mechanical properties :
#
#
# Convention : Reuss Voigt Hill
#
# Bulk Modulus (GPa) = 10.57111 43.71687 27.14399
# Shear Modulus (GPa) = 16.59022 47.29151 31.94087
#
# Velocity S-wave (km/s) = 2.86084 4.83014 3.96955
# Velocity P-wave (km/s) = 4.01592 7.25767 5.86521
#
# Compressibility (1/GPa) = 0.09459745
#
# Stress axis : x y z
#
# Youngs Moduli (GPa) = 16.42526 146.12363 51.71633
#
# Poissons Ratio (x) = 0.13287 -0.40435
# Poissons Ratio (y) = 0.01494 0.16246
# Poissons Ratio (z) = -0.12842 0.45903
#
# Static dielectric constant tensor:
#      x y z
#    x 1.775310 0.000000 0.054470 
#    y 0.000000 1.724790 0.000020 
#    z 0.054470 0.000020 1.793760 
# 
# From -- ./inp_files/241856.got.cif
#   From: 2010.05.17/outbox.cif.g08.bks.cpg/sg12_121_cif.got.tgz:241856.got - 2010.06.03 13:09:07.
