data_PCOD9218230
_publ_section_title
;
Structure prediction by ZEFSAII (Michael W. Deem and Ramdas Pophale) SiO2 
 PCOD9218230
Probable space group: C 2/M
;
_chemical_formula_sum "Si O2"
_cell_formula_units_Z 34
_cell_length_a 23.653094
_cell_length_b 7.811030
_cell_length_c 20.093239
_cell_angle_alpha 90.000000
_cell_angle_beta 25.307041
_cell_angle_gamma 90.000000
_cell_volume 1586.904530
_symmetry_space_group_name_H-M "C 2/M"
_symmetry_group_IT_number 12
_symmetry_cell_setting 'monoclinic'
loop_
_space_group_symop_operation_xyz
x,y,z
-x,y,-z
-x,-y,-z
x,-y,z
1/2+x,1/2+y,z
1/2-x,1/2+y,-z
1/2-x,1/2-y,-z
1/2+x,1/2-y,z
loop_
_atom_site_type_symbol
_atom_site_label
_atom_site_fract_x
_atom_site_fract_y
_atom_site_fract_z
Si Si1 0.644706 0.798426 0.317832
Si Si2 0.864146 0.205214 0.826555
Si Si3 0.163097 0.304102 0.776314
Si Si4 0.654887 0.296448 0.541109
Si Si5 0.500000 0.500000 0.000000
O O1 0.500000 0.747336 0.500000
O O2 0.654911 0.772227 0.228212
O O3 0.758948 0.703335 0.236612
O O4 0.663848 0.000000 0.312456
O O5 0.006293 0.273688 0.700705
O O6 0.868973 0.000000 0.816165
O O7 0.750000 0.250000 0.000000
O O8 0.116562 0.500000 0.813709
O O9 0.272446 0.255040 0.605034
O O10 0.056103 0.154100 0.891202
O O11 0.641643 0.500000 0.556445
O O12 0.750000 0.250000 0.500000
#
# Coordination Sequence:
#
# PCOD9218230 Si02
#       5
#     8   8   8   8   2
#     4  11  22  40  72 103 132 177 229 286 350 418
#     4  11  24  43  66 101 139 179 232 293 348 415
#     4  11  24  45  70 102 137 184 233 287 350 415
#     4  10  24  43  69  96 135 186 234 282 350 424
#     4  12  26  44  66 102 144 176 234 290 338 420
#
# _framework density 21.425359
#
# number of rings (size 3 to 8) (size 9 to 14) (size 15 to 20)
#    0.000    1.176    3.529    1.765    1.647    4.706 
#    4.235    2.353    0.000    0.000    0.000    0.000 
#    0.000    0.000    0.000    0.000    0.000    0.000 
#
# Total GULP energy -94748.407629 kJ/mol
# GULP energy per Si atom -5573.435743 kJ/mol
# Density = 2.137659 g / cm^3
# Si number density = 21.425359 Si / 1000 Ang^3
#
#
#
# Elastic Constant Matrix: (Units=GPa)
#
#
# Indices 1 2 3 4 5 6 
#
# 1 117.6990 -10.2686 46.2229 0.0004 17.4464 -0.0002
# 2 -10.2686 101.1331 36.7733 0.0012 -1.3353 -0.0004
# 3 46.2229 36.7733 140.9084 -0.0009 26.1918 0.0005
# 4 0.0004 0.0012 -0.0009 35.1383 -0.0004 6.7576
# 5 17.4464 -1.3353 26.1918 -0.0004 19.8106 0.0002
# 6 -0.0002 -0.0004 0.0005 6.7576 0.0002 20.8882
#
#
#
# Elastic Compliance Matrix: (Units=1/GPa)
#
#
# Indices 1 2 3 4 5 6 
#
# 1 0.010664 0.002142 -0.003100 0.000000 -0.005148 0.000000
# 2 0.002142 0.011916 -0.004787 -0.000001 0.005246 0.000000
# 3 -0.003100 -0.004787 0.011821 0.000000 -0.013221 0.000000
# 4 0.000000 -0.000001 0.000000 0.030347 0.000001 -0.009818
# 5 -0.005148 0.005246 -0.013221 0.000001 0.072844 -0.000001
# 6 0.000000 0.000000 0.000000 -0.009818 -0.000001 0.051050
#
#
# Mechanical properties :
#
#
# Convention : Reuss Voigt Hill
#
# Bulk Modulus (GPa) = 43.65172 56.13284 49.89228
# Shear Modulus (GPa) = 24.06522 34.30162 29.18342
#
# Velocity S-wave (km/s) = 3.35507 4.00557 3.69466
# Velocity P-wave (km/s) = 5.95204 6.90282 6.44498
#
# Compressibility (1/GPa) = 0.02290861
#
# Stress axis : x y z
#
# Youngs Moduli (GPa) = 93.77586 83.92425 84.59808
#
# Poissons Ratio (x) = -0.17977 0.26227
# Poissons Ratio (y) = -0.20087 0.40501
# Poissons Ratio (z) = 0.29072 0.40178
#
# Static dielectric constant tensor:
#      x y z
#    x 1.748880 0.000000 -0.030920 
#    y 0.000000 1.806850 0.000000 
#    z -0.030920 0.000000 1.834100 
# 
# From -- ./inp_files/281985.got.cif
#   From: 2010.05.17/outbox.cif.g08.bks.cpg/sg12_141_cif.got.tgz:281985.got - 2010.06.03 13:09:07.
