data_PCOD9218159
_publ_section_title
;
Structure prediction by ZEFSAII (Michael W. Deem and Ramdas Pophale) SiO2 
 PCOD9218159
Probable space group: C 2/M
;
_chemical_formula_sum "Si O2"
_cell_formula_units_Z 32
_cell_length_a 23.911847
_cell_length_b 8.092624
_cell_length_c 19.023281
_cell_angle_alpha 90.000000
_cell_angle_beta 22.963525
_cell_angle_gamma 90.000000
_cell_volume 1436.196975
_symmetry_space_group_name_H-M "C 2/M"
_symmetry_group_IT_number 12
_symmetry_cell_setting 'monoclinic'
loop_
_space_group_symop_operation_xyz
x,y,z
-x,y,-z
-x,-y,-z
x,-y,z
1/2+x,1/2+y,z
1/2-x,1/2+y,-z
1/2-x,1/2-y,-z
1/2+x,1/2-y,z
loop_
_atom_site_type_symbol
_atom_site_label
_atom_site_fract_x
_atom_site_fract_y
_atom_site_fract_z
Si Si1 0.325485 0.500000 0.680193
Si Si2 0.512231 0.000000 0.070147
Si Si3 0.588625 0.193394 0.183093
Si Si4 0.911705 0.677834 0.529185
Si Si5 0.609462 0.310208 0.704806
O O1 0.500000 0.500000 0.500000
O O2 0.310347 0.333147 0.653899
O O3 0.184119 0.500000 0.892755
O O4 0.437934 0.833553 0.186371
O O5 0.500000 0.000000 0.000000
O O6 0.516639 0.209047 0.342871
O O7 0.511187 0.304272 0.215539
O O8 0.574066 0.000000 0.180510
O O9 0.750000 0.250000 0.000000
O O10 0.840549 0.500000 0.601482
O O11 0.000000 0.668412 0.500000
O O12 0.626844 0.500000 0.710328
O O13 0.750000 0.250000 0.500000
#
# Coordination Sequence:
#
# PCOD9218159 Si02
#       5
#     4   4   8   8   8
#     4  10  24  42  72  98 148 183 233 302 371 433
#     4  12  30  52  76 112 152 195 260 314 389 463
#     4  11  24  41  70 109 146 192 254 312 377 451
#     4   9  21  38  61  96 141 181 229 291 364 427
#     4  12  27  51  78 107 153 202 257 319 386 458
#
# _framework density 22.281065999999999
#
# number of rings (size 3 to 8) (size 9 to 14) (size 15 to 20)
#    0.000    1.250    2.500    0.750   14.000    1.500 
#    0.000    0.000    0.000    0.000    0.000    0.000 
#    0.000    0.000    0.000    0.000    0.000    0.000 
#
# Total GULP energy -89329.569001 kJ/mol
# GULP energy per Si atom -5583.098063 kJ/mol
# Density = 2.223035 g / cm^3
# Si number density = 22.281066 Si / 1000 Ang^3
#
#
#
# Elastic Constant Matrix: (Units=GPa)
#
#
# Indices 1 2 3 4 5 6 
#
# 1 114.1035 29.4688 32.5062 0.0000 10.2162 0.0000
# 2 29.4688 223.5029 81.3071 -0.0004 31.2133 0.0001
# 3 32.5062 81.3071 126.5956 -0.0002 8.0240 0.0001
# 4 0.0000 -0.0004 -0.0002 110.6910 0.0000 16.1150
# 5 10.2162 31.2133 8.0240 0.0000 49.8142 0.0000
# 6 0.0000 0.0001 0.0001 16.1150 0.0000 20.3626
#
#
#
# Elastic Compliance Matrix: (Units=1/GPa)
#
#
# Indices 1 2 3 4 5 6 
#
# 1 0.009589 -0.000261 -0.002203 0.000000 -0.001448 0.000000
# 2 -0.000261 0.006356 -0.003805 0.000000 -0.003316 0.000000
# 3 -0.002203 -0.003805 0.010840 0.000000 0.001090 0.000000
# 4 0.000000 0.000000 0.000000 0.010211 0.000000 -0.008081
# 5 -0.001448 -0.003316 0.001090 0.000000 0.022274 0.000000
# 6 0.000000 0.000000 0.000000 -0.008081 0.000000 0.055505
#
#
# Mechanical properties :
#
#
# Convention : Reuss Voigt Hill
#
# Bulk Modulus (GPa) = 70.19054 83.41845 76.80449
# Shear Modulus (GPa) = 37.86173 57.56820 47.71497
#
# Velocity S-wave (km/s) = 4.12670 5.08855 4.63266
# Velocity P-wave (km/s) = 7.36729 8.48793 7.94739
#
# Compressibility (1/GPa) = 0.01424693
#
# Stress axis : x y z
#
# Youngs Moduli (GPa) = 104.29135 157.33369 92.25484
#
# Poissons Ratio (x) = 0.04100 0.20323
# Poissons Ratio (y) = 0.02718 0.35103
# Poissons Ratio (z) = 0.22974 0.59866
#
# Static dielectric constant tensor:
#      x y z
#    x 1.783830 0.000000 0.068350 
#    y 0.000000 1.857270 0.000000 
#    z 0.068350 0.000000 1.800230 
# 
# From -- ./inp_files/313487.got.cif
#   From: 2010.05.17/outbox.cif.g08.bks.cpg/sg12_157_cif.got.tgz:313487.got - 2010.06.03 13:09:07.
