data_PCOD9218364
_publ_section_title
;
Structure prediction by ZEFSAII (Michael W. Deem and Ramdas Pophale) SiO2 
 PCOD9218364
Probable space group: C 2/M
;
_chemical_formula_sum "Si O2"
_cell_formula_units_Z 36
_cell_length_a 14.330230
_cell_length_b 9.511146
_cell_length_c 21.334306
_cell_angle_alpha 90.000000
_cell_angle_beta 31.726566
_cell_angle_gamma 90.000000
_cell_volume 1529.113392
_symmetry_space_group_name_H-M "C 2/M"
_symmetry_group_IT_number 12
_symmetry_cell_setting 'monoclinic'
loop_
_space_group_symop_operation_xyz
x,y,z
-x,y,-z
-x,-y,-z
x,-y,z
1/2+x,1/2+y,z
1/2-x,1/2+y,-z
1/2-x,1/2-y,-z
1/2+x,1/2-y,z
loop_
_atom_site_type_symbol
_atom_site_label
_atom_site_fract_x
_atom_site_fract_y
_atom_site_fract_z
Si Si1 0.275806 0.340690 0.718738
Si Si2 0.288436 0.783759 0.385481
Si Si3 0.320440 0.840849 0.806957
Si Si4 0.315588 0.500000 0.446927
Si Si5 0.141588 0.337487 0.010787
O O1 0.337615 0.500000 0.700843
O O2 0.296916 0.307893 0.633813
O O3 0.356331 0.223357 0.718053
O O4 0.065350 0.335139 0.854241
O O5 0.491905 0.838463 0.264994
O O6 0.302203 0.624308 0.400483
O O7 0.197152 0.878207 0.490296
O O8 0.189572 0.737775 0.918377
O O9 0.253556 0.000000 0.841835
O O10 0.199210 0.500000 0.975937
O O11 0.250000 0.250000 0.000000
#
# Coordination Sequence:
#
# PCOD9218364 Si02
#       5
#     8   8   8   4   8
#     4  11  24  43  66  97 135 173 214 264 322 391
#     4  11  23  47  69  95 130 171 219 270 334 382
#     4  12  25  42  66 100 136 171 217 267 318 390
#     4  10  24  44  74  92 126 172 218 280 330 382
#     4  11  23  40  67  99 136 176 214 258 320 390
#
# _framework density 23.543056
#
# number of rings (size 3 to 8) (size 9 to 14) (size 15 to 20)
#    0.000    0.889    4.444    2.000    4.667    4.444 
#    0.000    6.667    0.000    0.000    0.000    0.000 
#    0.000    0.000    0.000    0.000    0.000    0.000 
#
# Total GULP energy -100363.188868 kJ/mol
# GULP energy per Si atom -5575.732715 kJ/mol
# Density = 2.348947 g / cm^3
# Si number density = 23.543056 Si / 1000 Ang^3
#
#
#
# Elastic Constant Matrix: (Units=GPa)
#
#
# Indices 1 2 3 4 5 6 
#
# 1 68.3573 22.7972 15.0258 -0.0001 31.4870 0.0001
# 2 22.7972 241.4323 40.5529 -0.0002 25.3843 0.0001
# 3 15.0258 40.5529 91.8587 -0.0006 1.0905 0.0002
# 4 -0.0001 -0.0002 -0.0006 26.2574 0.0002 10.7646
# 5 31.4870 25.3843 1.0905 0.0002 50.0664 -0.0001
# 6 0.0001 0.0001 0.0002 10.7646 -0.0001 37.7839
#
#
#
# Elastic Compliance Matrix: (Units=1/GPa)
#
#
# Indices 1 2 3 4 5 6 
#
# 1 0.021592 -0.000060 -0.003345 0.000000 -0.013476 0.000000
# 2 -0.000060 0.004736 -0.002054 0.000000 -0.002319 0.000000
# 3 -0.003345 -0.002054 0.012306 0.000000 0.002877 0.000000
# 4 0.000000 0.000000 0.000000 0.043121 0.000000 -0.012285
# 5 -0.013476 -0.002319 0.002877 0.000000 0.029562 0.000000
# 6 0.000000 0.000000 0.000000 -0.012285 0.000000 0.029966
#
#
# Mechanical properties :
#
#
# Convention : Reuss Voigt Hill
#
# Bulk Modulus (GPa) = 36.08029 62.04444 49.06236
# Shear Modulus (GPa) = 30.97136 44.37305 37.67220
#
# Velocity S-wave (km/s) = 3.63094 4.34609 4.00452
# Velocity P-wave (km/s) = 5.73906 7.18300 6.50125
#
# Compressibility (1/GPa) = 0.02771596
#
# Stress axis : x y z
#
# Youngs Moduli (GPa) = 46.31419 211.13218 81.26146
#
# Poissons Ratio (x) = 0.01267 0.27185
# Poissons Ratio (y) = 0.00278 0.16688
# Poissons Ratio (z) = 0.15494 0.43359
#
# Static dielectric constant tensor:
#      x y z
#    x 1.944510 0.000000 -0.043370 
#    y 0.000000 1.814840 0.000000 
#    z -0.043370 0.000000 1.949340 
# 
# From -- ./inp_files/210835.got.cif
#   From: 2010.05.17/outbox.cif.g08.bks.cpg/sg12_106_cif.got.tgz:210835.got - 2010.06.03 13:09:07.
