data_PCOD9218709
_publ_section_title
;
Structure prediction by ZEFSAII (Michael W. Deem and Ramdas Pophale) SiO2 
 PCOD9218709
Probable space group: C 2/M
;
_chemical_formula_sum "Si O2"
_cell_formula_units_Z 56
_cell_length_a 9.418657
_cell_length_b 18.772273
_cell_length_c 27.795401
_cell_angle_alpha 90.000000
_cell_angle_beta 35.415769
_cell_angle_gamma 90.000000
_cell_volume 2847.976110
_symmetry_space_group_name_H-M "C 2/M"
_symmetry_group_IT_number 12
_symmetry_cell_setting 'monoclinic'
loop_
_space_group_symop_operation_xyz
x,y,z
-x,y,-z
-x,-y,-z
x,-y,z
1/2+x,1/2+y,z
1/2-x,1/2+y,-z
1/2-x,1/2-y,-z
1/2+x,1/2-y,z
loop_
_atom_site_type_symbol
_atom_site_label
_atom_site_fract_x
_atom_site_fract_y
_atom_site_fract_z
Si Si1 0.196445 0.336247 0.309005
Si Si2 0.149923 0.633291 0.213269
Si Si3 0.305413 0.083941 0.596745
Si Si4 0.907780 0.500000 0.912056
Si Si5 0.310951 0.327719 0.712520
Si Si6 0.763341 0.361369 0.161048
Si Si7 0.390266 0.500000 0.106349
Si Si8 0.523682 0.263578 0.941462
O O1 0.098879 0.352442 0.282998
O O2 0.087032 0.376601 0.385423
O O3 0.185390 0.249758 0.314230
O O4 0.474135 0.366509 0.233073
O O5 0.322331 0.566673 0.157354
O O6 0.299806 0.693413 0.142619
O O7 0.889197 0.625455 0.259508
O O8 0.500000 0.085643 0.500000
O O9 0.066899 0.130283 0.646907
O O10 0.244606 0.000000 0.623153
O O11 0.787497 0.500000 0.891816
O O12 0.078902 0.431844 0.874695
O O13 0.669424 0.500000 0.011935
O O14 0.214273 0.319426 0.794041
O O15 0.858474 0.314635 0.090518
O O16 0.500000 0.299462 0.000000
O O17 0.250000 0.250000 0.000000
#
# Coordination Sequence:
#
# PCOD9218709 Si02
#       8
#     8   8   8   4   8   8   4   8
#     4  11  23  41  68  98 130 165 214 273 318 387
#     4  12  23  39  59  95 124 168 221 273 320 384
#     4  10  25  47  74 104 133 169 209 253 325 410
#     4  11  24  41  57  85 126 185 226 284 338 380
#     4  11  21  42  69  95 130 173 215 261 327 400
#     4  11  22  40  61  87 125 173 228 267 322 396
#     4  11  26  37  57  87 128 170 232 280 330 389
#     4  12  23  36  58  85 122 168 217 275 322 363
#
# _framework density 19.663084999999999
#
# number of rings (size 3 to 8) (size 9 to 14) (size 15 to 20)
#    0.000    0.857    4.286    3.429    8.000    0.571 
#    0.000    1.786    0.000    1.714    0.000    0.000 
#    0.000    0.000    0.000    0.000    0.000    0.000 
#
# Total GULP energy -156224.453798 kJ/mol
# GULP energy per Si atom -5579.444779 kJ/mol
# Density = 1.961833 g / cm^3
# Si number density = 19.663085 Si / 1000 Ang^3
#
#
#
# Elastic Constant Matrix: (Units=GPa)
#
#
# Indices 1 2 3 4 5 6 
#
# 1 79.7301 4.1709 24.9931 -0.0043 8.0362 -0.0015
# 2 4.1709 122.4331 41.2129 -0.0093 6.1414 0.0040
# 3 24.9931 41.2129 77.5073 -0.0173 14.1878 -0.0043
# 4 -0.0043 -0.0093 -0.0173 27.2812 0.0082 4.3692
# 5 8.0362 6.1414 14.1878 0.0082 31.3783 0.0059
# 6 -0.0015 0.0040 -0.0043 4.3692 0.0059 33.0882
#
#
#
# Elastic Compliance Matrix: (Units=1/GPa)
#
#
# Indices 1 2 3 4 5 6 
#
# 1 0.014193 0.001265 -0.004948 0.000000 -0.001645 0.000000
# 2 0.001265 0.010068 -0.005823 0.000000 0.000339 -0.000002
# 3 -0.004948 -0.005823 0.018701 0.000010 -0.006049 0.000003
# 4 0.000000 0.000000 0.000010 0.037447 -0.000014 -0.004945
# 5 -0.001645 0.000339 -0.006049 -0.000014 0.034959 -0.000005
# 6 0.000000 -0.000002 0.000003 -0.004945 -0.000005 0.030875
#
#
# Mechanical properties :
#
#
# Convention : Reuss Voigt Hill
#
# Bulk Modulus (GPa) = 41.75544 46.71382 44.23463
# Shear Modulus (GPa) = 28.86175 32.30244 30.58209
#
# Velocity S-wave (km/s) = 3.83536 4.05754 3.94801
# Velocity P-wave (km/s) = 6.39491 6.76463 6.58237
#
# Compressibility (1/GPa) = 0.02394897
#
# Stress axis : x y z
#
# Youngs Moduli (GPa) = 70.45708 99.32642 53.47271
#
# Poissons Ratio (x) = -0.12561 0.26458
# Poissons Ratio (y) = -0.08910 0.31138
# Poissons Ratio (z) = 0.34862 0.57839
#
# Static dielectric constant tensor:
#      x y z
#    x 1.719390 0.000000 0.017520 
#    y 0.000000 1.656700 0.000040 
#    z 0.017520 0.000040 1.724560 
# 
# From -- ./inp_files/356694.got.cif
#   From: 2010.05.17/outbox.cif.g08.bks.cpg/sg12_179_cif.got.tgz:356694.got - 2010.06.03 13:09:07.
