data_PCOD9218515
_publ_section_title
;
Structure prediction by ZEFSAII (Michael W. Deem and Ramdas Pophale) SiO2 
 PCOD9218515
Probable space group: C 2/M
;
_chemical_formula_sum "Si O2"
_cell_formula_units_Z 48
_cell_length_a 11.087583
_cell_length_b 27.834472
_cell_length_c 15.671290
_cell_angle_alpha 90.000000
_cell_angle_beta 149.685554
_cell_angle_gamma 90.000000
_cell_volume 2441.163675
_symmetry_space_group_name_H-M "C 2/M"
_symmetry_group_IT_number 12
_symmetry_cell_setting 'monoclinic'
loop_
_space_group_symop_operation_xyz
x,y,z
-x,y,-z
-x,-y,-z
x,-y,z
1/2+x,1/2+y,z
1/2-x,1/2+y,-z
1/2-x,1/2-y,-z
1/2+x,1/2-y,z
loop_
_atom_site_type_symbol
_atom_site_label
_atom_site_fract_x
_atom_site_fract_y
_atom_site_fract_z
Si Si1 0.919447 0.000000 0.184001
Si Si2 0.474392 0.703897 0.381181
Si Si3 0.552485 0.818334 0.431998
Si Si4 0.448921 0.079062 0.089263
Si Si5 0.000000 0.666167 0.000000
Si Si6 0.143573 0.000000 0.674041
Si Si7 0.212509 0.404742 0.818934
Si Si8 0.657450 0.000000 0.679978
O O1 0.079141 0.000000 0.198618
O O2 0.020791 0.000000 0.341630
O O3 0.754290 0.046108 0.075133
O O4 0.500000 0.691067 0.500000
O O5 0.498698 0.761605 0.391617
O O6 0.683670 0.678859 0.451651
O O7 0.223333 0.693111 0.180110
O O8 0.500000 0.830053 0.500000
O O9 0.383927 0.855034 0.278368
O O10 0.399628 0.086920 0.157521
O O11 0.688665 0.047553 0.223053
O O12 0.427881 0.129831 0.030943
O O13 0.000000 0.000000 0.500000
O O14 0.129959 0.450916 0.714327
O O15 0.500000 0.404444 0.000000
O O16 0.500000 0.000000 0.500000
#
# Coordination Sequence:
#
# PCOD9218515 Si02
#       8
#     4   8   8   8   4   4   8   4
#     4  11  21  45  60  82 133 168 215 266 331 396
#     4  10  24  48  71 102 141 177 230 291 346 411
#     4  10  24  47  69  99 141 178 223 288 342 413
#     4  11  23  42  61  93 130 168 222 278 328 400
#     4  12  24  41  74 102 132 181 226 288 352 404
#     4  11  24  41  65  91 125 179 221 277 332 400
#     4  12  25  41  66  98 134 178 228 276 338 414
#     4  12  26  41  64  95 132 178 218 278 340 399
#
# _framework density 19.662752999999999
#
# number of rings (size 3 to 8) (size 9 to 14) (size 15 to 20)
#    0.000    1.000    3.333    3.250    5.833    3.333 
#    0.000    3.333    0.000    0.000    0.000    0.000 
#    0.000    0.000    0.000    0.000    0.000    0.000 
#
# Total GULP energy -133841.151310 kJ/mol
# GULP energy per Si atom -5576.714638 kJ/mol
# Density = 1.961800 g / cm^3
# Si number density = 19.662753 Si / 1000 Ang^3
#
#
#
# Elastic Constant Matrix: (Units=GPa)
#
#
# Indices 1 2 3 4 5 6 
#
# 1 143.1306 34.8528 47.2673 0.0007 -37.1229 0.0003
# 2 34.8528 54.4301 41.8885 0.0000 -9.5196 0.0000
# 3 47.2673 41.8885 119.0112 0.0005 -20.8496 0.0002
# 4 0.0007 0.0000 0.0005 -119.3686 0.0005 -65.1743
# 5 -37.1229 -9.5196 -20.8496 0.0005 36.6489 0.0002
# 6 0.0003 0.0000 0.0002 -65.1743 0.0002 0.8878
#
#
#
# Elastic Compliance Matrix: (Units=1/GPa)
#
#
# Indices 1 2 3 4 5 6 
#
# 1 0.010820 -0.004463 -0.001121 0.000000 0.009163 0.000000
# 2 -0.004463 0.027130 -0.008146 0.000000 -0.002108 0.000000
# 3 -0.001121 -0.008146 0.012379 0.000000 0.003791 0.000000
# 4 0.000000 0.000000 0.000000 -0.000204 0.000000 -0.014970
# 5 0.009163 -0.002108 0.003791 0.000000 0.038177 0.000000
# 6 0.000000 0.000000 0.000000 -0.014970 0.000000 0.027418
#
#
# Mechanical properties :
#
#
# Convention : Reuss Voigt Hill
#
# Bulk Modulus (GPa) = 43.72643 62.73212 53.22928
# Shear Modulus (GPa) = 33.15582 -3.52882 14.81350
#
# Velocity S-wave (km/s) = 4.11082 -1.34111 2.74775
# Velocity P-wave (km/s) = 6.69465 5.43831 6.09891
#
# Compressibility (1/GPa) = 0.02286946
#
# Stress axis : x y z
#
# Youngs Moduli (GPa) = 92.41960 36.85944 80.78134
#
# Poissons Ratio (x) = 0.16450 0.09059
# Poissons Ratio (y) = 0.41246 0.65802
# Poissons Ratio (z) = 0.10364 0.30025
#
# Static dielectric constant tensor:
#      x y z
#    x 1.573740 0.000000 -0.047490 
#    y 0.000000 1.666400 0.000000 
#    z -0.047490 0.000000 1.654830 
# 
# From -- ./inp_files/209505.got.cif
#   From: 2010.05.17/outbox.cif.g08.bks.cpg/sg12_105_cif.got.tgz:209505.got - 2010.06.03 13:09:07.
