data_PCOD9218182
_publ_section_title
;
Structure prediction by ZEFSAII (Michael W. Deem and Ramdas Pophale) SiO2 
 PCOD9218182
Probable space group: C 2/M
;
_chemical_formula_sum "Si O2"
_cell_formula_units_Z 48
_cell_length_a 30.094968
_cell_length_b 8.785332
_cell_length_c 15.349616
_cell_angle_alpha 90.000000
_cell_angle_beta 139.980525
_cell_angle_gamma 90.000000
_cell_volume 2609.714146
_symmetry_space_group_name_H-M "C 2/M"
_symmetry_group_IT_number 12
_symmetry_cell_setting 'monoclinic'
loop_
_space_group_symop_operation_xyz
x,y,z
-x,y,-z
-x,-y,-z
x,-y,z
1/2+x,1/2+y,z
1/2-x,1/2+y,-z
1/2-x,1/2-y,-z
1/2+x,1/2-y,z
loop_
_atom_site_type_symbol
_atom_site_label
_atom_site_fract_x
_atom_site_fract_y
_atom_site_fract_z
Si Si1 0.323138 0.817546 0.641050
Si Si2 0.822414 0.819098 0.335968
Si Si3 0.917219 0.682599 0.125077
Si Si4 0.175377 0.818062 0.863629
Si Si5 0.825208 0.181608 0.832939
Si Si6 0.578549 0.182491 0.372985
O O1 0.250000 0.750000 0.500000
O O2 0.340943 0.748392 0.761385
O O3 0.380149 0.781158 0.653566
O O4 0.317261 0.000000 0.639107
O O5 0.838004 0.786942 0.258222
O O6 0.751966 0.735150 0.257438
O O7 0.883145 0.764840 0.490281
O O8 0.811324 0.000000 0.328552
O O9 0.910262 0.500000 0.111213
O O10 0.880751 0.744460 0.157223
O O11 0.998107 0.722192 0.245523
O O12 0.877139 0.753562 0.983083
O O13 0.176746 0.000000 0.878567
O O14 0.250000 0.750000 0.000000
O O15 0.827786 0.000000 0.835147
O O16 0.583855 0.000000 0.394068
#
# Coordination Sequence:
#
# PCOD9218182 Si02
#       6
#     8   8   8   8   8   8
#     4  11  22  39  64  94 125 163 210 260 310 369
#     4  11  23  39  64  93 124 162 208 258 308 370
#     4  11  24  43  64  91 127 166 208 259 315 370
#     4  11  23  39  63  94 125 164 209 258 310 370
#     4  12  24  39  63  93 125 164 210 259 311 372
#     4  10  24  43  64  91 127 166 206 256 316 374
#
# _framework density 18.392817999999998
#
# number of rings (size 3 to 8) (size 9 to 14) (size 15 to 20)
#    0.000    1.000    3.333    3.500    0.000    5.333 
#    0.000    6.667    0.000    0.000    0.000    0.000 
#    0.000    0.000    0.000    0.000    0.000    0.000 
#
# Total GULP energy -134249.838647 kJ/mol
# GULP energy per Si atom -5593.743277 kJ/mol
# Density = 1.835096 g / cm^3
# Si number density = 18.392818 Si / 1000 Ang^3
#
#
#
# Elastic Constant Matrix: (Units=GPa)
#
#
# Indices 1 2 3 4 5 6 
#
# 1 166.8909 78.6200 92.9611 0.0000 -3.6588 0.0000
# 2 78.6200 89.0349 72.9434 0.0000 -7.6634 0.0000
# 3 92.9611 72.9434 145.9985 0.0000 -8.5725 0.0000
# 4 0.0000 0.0000 0.0000 35.6888 0.0000 -3.7436
# 5 -3.6588 -7.6634 -8.5725 0.0000 38.5857 0.0000
# 6 0.0000 0.0000 0.0000 -3.7436 0.0000 33.4019
#
#
#
# Elastic Compliance Matrix: (Units=1/GPa)
#
#
# Indices 1 2 3 4 5 6 
#
# 1 0.011413 -0.007057 -0.003809 0.000000 -0.001166 0.000000
# 2 -0.007057 0.023488 -0.007099 0.000000 0.002418 0.000000
# 3 -0.003809 -0.007099 0.012886 0.000000 0.001092 0.000000
# 4 0.000000 0.000000 0.000000 0.028353 0.000000 0.003178
# 5 -0.001166 0.002418 0.001092 0.000000 0.026529 0.000000
# 6 0.000000 0.000000 0.000000 0.003178 0.000000 0.030295
#
#
# Mechanical properties :
#
#
# Convention : Reuss Voigt Hill
#
# Bulk Modulus (GPa) = 84.35558 98.99703 91.67631
# Shear Modulus (GPa) = 28.92740 32.02860 30.47800
#
# Velocity S-wave (km/s) = 3.97010 4.17749 4.07512
# Velocity P-wave (km/s) = 8.18404 8.78688 8.49081
#
# Compressibility (1/GPa) = 0.01185458
#
# Stress axis : x y z
#
# Youngs Moduli (GPa) = 87.62046 42.57550 77.60380
#
# Poissons Ratio (x) = 0.30047 0.29562
# Poissons Ratio (y) = 0.61836 0.55093
# Poissons Ratio (z) = 0.33378 0.30226
#
# Static dielectric constant tensor:
#      x y z
#    x 1.612710 0.000000 -0.008570 
#    y 0.000000 1.617630 0.000000 
#    z -0.008570 0.000000 1.596420 
# 
# From -- ./inp_files/249361.got.cif
#   From: 2010.05.17/outbox.cif.g08.bks.cpg/sg12_125_cif.got.tgz:249361.got - 2010.06.03 13:09:07.
