data_PCOD9218844
_publ_section_title
;
Structure prediction by ZEFSAII (Michael W. Deem and Ramdas Pophale) SiO2 
 PCOD9218844
Probable space group: C 2/M
;
_chemical_formula_sum "Si O2"
_cell_formula_units_Z 56
_cell_length_a 28.424393
_cell_length_b 25.258191
_cell_length_c 11.272638
_cell_angle_alpha 90.000000
_cell_angle_beta 158.048495
_cell_angle_gamma 90.000000
_cell_volume 3025.404881
_symmetry_space_group_name_H-M "C 2/M"
_symmetry_group_IT_number 12
_symmetry_cell_setting 'monoclinic'
loop_
_space_group_symop_operation_xyz
x,y,z
-x,y,-z
-x,-y,-z
x,-y,z
1/2+x,1/2+y,z
1/2-x,1/2+y,-z
1/2-x,1/2-y,-z
1/2+x,1/2-y,z
loop_
_atom_site_type_symbol
_atom_site_label
_atom_site_fract_x
_atom_site_fract_y
_atom_site_fract_z
Si Si1 0.299588 0.838159 0.365183
Si Si2 0.531894 0.707425 0.700741
Si Si3 0.336340 0.439388 0.992564
Si Si4 0.810517 0.167168 0.322789
Si Si5 0.094991 0.679519 0.636293
Si Si6 0.646075 0.741325 0.361675
Si Si7 0.363594 0.439221 0.337496
O O1 0.371855 0.845173 0.410885
O O2 0.371825 0.799965 0.622857
O O3 0.243510 0.895469 0.263903
O O4 0.177536 0.801321 0.056306
O O5 0.500000 0.681189 0.500000
O O6 0.452553 0.680913 0.617540
O O7 0.479523 0.766728 0.570513
O O8 0.297485 0.500000 0.880271
O O9 0.327055 0.429435 0.113590
O O10 0.484097 0.435146 0.305695
O O11 0.793917 0.197361 0.407747
O O12 0.803150 0.104104 0.283758
O O13 0.718572 0.190358 0.004796
O O14 0.000000 0.648273 0.500000
O O15 0.750000 0.750000 0.500000
O O16 0.500000 0.723524 0.000000
O O17 0.330667 0.500000 0.288731
#
# Coordination Sequence:
#
# PCOD9218844 Si02
#       7
#     8   8   8   8   8   8   8
#     4  12  21  38  61  81 121 153 187 245 294 358
#     4  11  18  29  52  88 113 139 182 225 296 357
#     4   9  17  31  56  94 124 144 180 232 300 365
#     4  12  20  37  59  81 122 153 184 242 296 355
#     4  11  23  30  53  91 112 148 189 228 299 365
#     4  12  29  44  56  82 119 167 212 248 290 341
#     4   9  17  30  56  94 124 144 176 232 305 365
#
# _framework density 18.509919
#
# number of rings (size 3 to 8) (size 9 to 14) (size 15 to 20)
#    0.000    1.143    5.714    3.857    2.000    0.000 
#    0.000    0.000    0.000    3.429    0.000    0.000 
#    0.000    0.000    0.000    0.000    0.000    0.000 
#
# Total GULP energy -155947.169481 kJ/mol
# GULP energy per Si atom -5569.541767 kJ/mol
# Density = 1.846779 g / cm^3
# Si number density = 18.509919 Si / 1000 Ang^3
#
#
#
# Elastic Constant Matrix: (Units=GPa)
#
#
# Indices 1 2 3 4 5 6 
#
# 1 91.8626 20.9535 8.5831 0.0000 9.3690 0.0000
# 2 20.9535 130.0879 12.4584 0.0000 -4.5395 0.0000
# 3 8.5831 12.4584 44.5066 0.0000 0.4982 0.0000
# 4 0.0000 0.0000 0.0000 -34.8551 0.0000 7.4554
# 5 9.3690 -4.5395 0.4982 0.0000 21.7977 0.0000
# 6 0.0000 0.0000 0.0000 7.4554 0.0000 22.9750
#
#
#
# Elastic Compliance Matrix: (Units=1/GPa)
#
#
# Indices 1 2 3 4 5 6 
#
# 1 0.012062 -0.001973 -0.001712 0.000000 -0.005556 0.000000
# 2 -0.001973 0.008285 -0.001968 0.000000 0.002618 0.000000
# 3 -0.001712 -0.001968 0.023352 0.000000 -0.000208 0.000000
# 4 0.000000 0.000000 0.000000 -0.026828 0.000000 0.008706
# 5 -0.005556 0.002618 -0.000208 0.000000 0.048815 0.000000
# 6 0.000000 0.000000 0.000000 0.008706 0.000000 0.040701
#
#
# Mechanical properties :
#
#
# Convention : Reuss Voigt Hill
#
# Bulk Modulus (GPa) = 30.87003 38.93857 34.90430
# Shear Modulus (GPa) = 38.91370 16.94765 27.93068
#
# Velocity S-wave (km/s) = 4.59008 3.02917 3.88874
# Velocity P-wave (km/s) = 6.69369 5.77207 6.24989
#
# Compressibility (1/GPa) = 0.03239388
#
# Stress axis : x y z
#
# Youngs Moduli (GPa) = 82.90179 120.70415 42.82311
#
# Poissons Ratio (x) = 0.23813 0.07330
# Poissons Ratio (y) = 0.16356 0.08427
# Poissons Ratio (z) = 0.14191 0.23754
#
# Static dielectric constant tensor:
#      x y z
#    x 1.698880 0.000000 -0.000390 
#    y 0.000000 1.690230 0.000000 
#    z -0.000390 0.000000 1.723820 
# 
# From -- ./inp_files/190443.got.cif
#   From: 2010.05.17/outbox.cif.g08.bks.cpg/sg12_96_cif.got.tgz:190443.got - 2010.06.03 13:09:07.
