data_PCOD9218997
_publ_section_title
;
Structure prediction by ZEFSAII (Michael W. Deem and Ramdas Pophale) SiO2 
 PCOD9218997
Probable space group: C 2/M
;
_chemical_formula_sum "Si O2"
_cell_formula_units_Z 64
_cell_length_a 11.257995
_cell_length_b 20.897248
_cell_length_c 20.598039
_cell_angle_alpha 90.000000
_cell_angle_beta 139.147403
_cell_angle_gamma 90.000000
_cell_volume 3169.788563
_symmetry_space_group_name_H-M "C 2/M"
_symmetry_group_IT_number 12
_symmetry_cell_setting 'monoclinic'
loop_
_space_group_symop_operation_xyz
x,y,z
-x,y,-z
-x,-y,-z
x,-y,z
1/2+x,1/2+y,z
1/2-x,1/2+y,-z
1/2-x,1/2-y,-z
1/2+x,1/2-y,z
loop_
_atom_site_type_symbol
_atom_site_label
_atom_site_fract_x
_atom_site_fract_y
_atom_site_fract_z
Si Si1 0.041264 0.636886 0.254515
Si Si2 0.506867 0.667508 0.686662
Si Si3 0.549723 0.259432 0.948597
Si Si4 0.794074 0.300672 0.251933
Si Si5 0.193357 0.742343 0.606080
Si Si6 0.195275 0.927692 0.855923
Si Si7 0.398090 0.571604 0.390105
Si Si8 0.460769 0.884566 0.074976
O O1 0.171620 0.700596 0.314191
O O2 0.186413 0.580640 0.319073
O O3 0.894520 0.647529 0.249575
O O4 0.945380 0.625160 0.145639
O O5 0.633699 0.730437 0.740604
O O6 0.307225 0.698587 0.603807
O O7 0.554463 0.623231 0.768180
O O8 0.545784 0.623729 0.640322
O O9 0.421105 0.298748 0.847408
O O10 0.487591 0.186163 0.926722
O O11 0.500000 0.285736 0.000000
O O12 0.750000 0.250000 0.000000
O O13 0.843866 0.302156 0.347374
O O14 0.000000 0.765858 0.500000
O O15 0.366246 0.926040 0.875869
O O16 0.124792 0.000000 0.830311
O O17 0.286690 0.907964 0.962488
O O18 0.500000 0.580433 0.500000
O O19 0.433943 0.500000 0.380092
#
# Coordination Sequence:
#
# PCOD9218997 Si02
#       8
#     8   8   8   8   8   8   8   8
#     4  11  22  38  63  89 131 162 209 262 325 382
#     4  11  22  39  63  89 130 161 210 267 319 375
#     4  12  22  34  58  85 125 165 197 250 316 390
#     4  11  23  39  58  95 126 170 205 255 322 390
#     4  11  24  39  61  93 126 169 208 258 323 391
#     4  11  21  35  60  89 119 158 209 264 315 362
#     4  11  23  39  63  93 124 165 218 276 325 370
#     4  11  19  34  53  86 121 152 199 252 313 373
#
# _framework density 20.190621
#
# number of rings (size 3 to 8) (size 9 to 14) (size 15 to 20)
#    0.000    0.875    6.250    2.250    5.250    1.500 
#    0.000    0.000    0.000    3.000    0.000    0.875 
#    0.000    0.000    0.000    0.000    0.000    0.000 
#
# Total GULP energy -178481.041802 kJ/mol
# GULP energy per Si atom -5577.532556 kJ/mol
# Density = 2.014467 g / cm^3
# Si number density = 20.190621 Si / 1000 Ang^3
#
#
#
# Elastic Constant Matrix: (Units=GPa)
#
#
# Indices 1 2 3 4 5 6 
#
# 1 90.1259 14.1601 35.4049 0.0000 5.0230 0.0000
# 2 14.1601 66.3587 4.9705 0.0000 2.0897 0.0000
# 3 35.4049 4.9705 68.9956 0.0000 1.2263 -0.0001
# 4 0.0000 0.0000 0.0000 15.7411 0.0000 0.4763
# 5 5.0230 2.0897 1.2263 0.0000 29.8898 0.0000
# 6 0.0000 0.0000 -0.0001 0.4763 0.0000 18.3165
#
#
#
# Elastic Compliance Matrix: (Units=1/GPa)
#
#
# Indices 1 2 3 4 5 6 
#
# 1 0.014416 -0.002476 -0.007184 0.000000 -0.001955 0.000000
# 2 -0.002476 0.015608 0.000159 0.000000 -0.000681 0.000000
# 3 -0.007184 0.000159 0.018161 0.000000 0.000451 0.000000
# 4 0.000000 0.000000 0.000000 0.063578 0.000000 -0.001653
# 5 -0.001955 -0.000681 0.000451 0.000000 0.033814 0.000000
# 6 0.000000 0.000000 0.000000 -0.001653 0.000000 0.054639
#
#
# Mechanical properties :
#
#
# Convention : Reuss Voigt Hill
#
# Bulk Modulus (GPa) = 34.27024 37.17236 35.72130
# Shear Modulus (GPa) = 21.83918 24.18578 23.01248
#
# Velocity S-wave (km/s) = 3.29241 3.46478 3.37970
# Velocity P-wave (km/s) = 5.60923 5.87001 5.74110
#
# Compressibility (1/GPa) = 0.02917984
#
# Stress axis : x y z
#
# Youngs Moduli (GPa) = 69.36782 64.07119 55.06344
#
# Poissons Ratio (x) = 0.15867 0.39559
# Poissons Ratio (y) = 0.17179 -0.00873
# Poissons Ratio (z) = 0.49836 -0.01016
#
# Static dielectric constant tensor:
#      x y z
#    x 1.789060 0.000000 -0.013080 
#    y 0.000000 1.718570 0.000000 
#    z -0.013080 0.000000 1.834570 
# 
# From -- ./inp_files/306803.got.cif
#   From: 2010.05.17/outbox.cif.g08.bks.cpg/sg12_154_cif.got.tgz:306803.got - 2010.06.03 13:09:07.
