data_PCOD9218790
_publ_section_title
;
Structure prediction by ZEFSAII (Michael W. Deem and Ramdas Pophale) SiO2 
 PCOD9218790
Probable space group: C 2/M
;
_chemical_formula_sum "Si O2"
_cell_formula_units_Z 30
_cell_length_a 9.193736
_cell_length_b 23.292493
_cell_length_c 5.650587
_cell_angle_alpha 90.000000
_cell_angle_beta 71.006537
_cell_angle_gamma 90.000000
_cell_volume 1144.165088
_symmetry_space_group_name_H-M "C 2/M"
_symmetry_group_IT_number 12
_symmetry_cell_setting 'monoclinic'
loop_
_space_group_symop_operation_xyz
x,y,z
-x,y,-z
-x,-y,-z
x,-y,z
1/2+x,1/2+y,z
1/2-x,1/2+y,-z
1/2-x,1/2-y,-z
1/2+x,1/2-y,z
loop_
_atom_site_type_symbol
_atom_site_label
_atom_site_fract_x
_atom_site_fract_y
_atom_site_fract_z
Si Si1 0.780725 0.317663 0.714557
Si Si2 0.000000 0.500000 0.500000
Si Si3 0.324886 0.563510 0.016769
Si Si4 0.500000 0.757820 0.000000
Si Si5 0.134654 0.604819 0.732016
O O1 0.622102 0.282796 0.795467
O O2 0.156138 0.335550 0.578660
O O3 0.744482 0.382728 0.812376
O O4 0.889042 0.287429 0.855406
O O5 0.919917 0.550738 0.384181
O O6 0.249466 0.500000 0.098776
O O7 0.293346 0.583616 0.766945
O O8 0.500000 0.558999 0.000000
O O9 0.000000 0.611372 0.000000
#
# Coordination Sequence:
#
# PCOD9218790 Si02
#       5
#     8   2   8   4   8
#     4  11  26  54  88 122 168 225 286 365 405 523
#     4  12  26  48  86 126 178 218 270 352 410 540
#     4  11  26  50  82 127 175 217 272 345 443 517
#     4  10  26  58  88 120 162 232 304 340 432 476
#     4  12  28  48  83 127 173 221 278 344 433 511
#
# _framework density 26.219994
#
# number of rings (size 3 to 8) (size 9 to 14) (size 15 to 20)
#    0.000    0.800    2.667    2.000   11.200    1.067 
#    0.000   14.667    0.000    0.000    0.000    0.000 
#    0.000    0.000    0.000    0.000    0.000    0.000 
#
# Total GULP energy -83650.763572 kJ/mol
# GULP energy per Si atom -5576.717571 kJ/mol
# Density = 2.616032 g / cm^3
# Si number density = 26.219994 Si / 1000 Ang^3
#
#
#
# Elastic Constant Matrix: (Units=GPa)
#
#
# Indices 1 2 3 4 5 6 
#
# 1 173.4206 91.3500 73.5921 0.0000 25.5339 0.0000
# 2 91.3500 223.0664 73.8667 0.0000 -17.4146 0.0000
# 3 73.5921 73.8667 127.2701 0.0000 12.5203 0.0000
# 4 0.0000 0.0000 0.0000 258.4764 0.0000 -98.0880
# 5 25.5339 -17.4146 12.5203 0.0000 42.3534 0.0000
# 6 0.0000 0.0000 0.0000 -98.0880 0.0000 110.3423
#
#
#
# Elastic Compliance Matrix: (Units=1/GPa)
#
#
# Indices 1 2 3 4 5 6 
#
# 1 0.009878 -0.003561 -0.003002 0.000000 -0.006532 0.000000
# 2 -0.003561 0.007330 -0.002784 0.000000 0.005984 0.000000
# 3 -0.003002 -0.002784 0.011478 0.000000 -0.002728 0.000000
# 4 0.000000 0.000000 0.000000 0.005838 0.000000 0.005190
# 5 -0.006532 0.005984 -0.002728 0.000000 0.030815 0.000000
# 6 0.000000 0.000000 0.000000 0.005190 0.000000 0.013676
#
#
# Mechanical properties :
#
#
# Convention : Reuss Voigt Hill
#
# Bulk Modulus (GPa) = 100.09070 111.26385 105.67727
# Shear Modulus (GPa) = 49.48496 101.23099 75.35797
#
# Velocity S-wave (km/s) = 4.34902 6.22030 5.36685
# Velocity P-wave (km/s) = 7.96711 9.70136 8.87669
#
# Compressibility (1/GPa) = 0.00999094
#
# Stress axis : x y z
#
# Youngs Moduli (GPa) = 101.23686 136.42028 87.12595
#
# Poissons Ratio (x) = 0.48577 0.26159
# Poissons Ratio (y) = 0.36049 0.24257
# Poissons Ratio (z) = 0.30396 0.37981
#
# Static dielectric constant tensor:
#      x y z
#    x 1.676280 0.000000 0.361060 
#    y 0.000000 2.811450 0.000000 
#    z 0.361060 0.000000 1.993420 
# 
# From -- ./inp_files/39694.got.cif
#   From: 2010.05.17/outbox.cif.g08.bks.cpg/sg12_20_cif.got.tgz:39694.got - 2010.06.03 13:09:07.
