data_PCOD9218468
_publ_section_title
;
Structure prediction by ZEFSAII (Michael W. Deem and Ramdas Pophale) SiO2 
 PCOD9218468
Probable space group: C 2/M
;
_chemical_formula_sum "Si O2"
_cell_formula_units_Z 64
_cell_length_a 14.680774
_cell_length_b 16.654649
_cell_length_c 24.417017
_cell_angle_alpha 90.000000
_cell_angle_beta 28.863089
_cell_angle_gamma 90.000000
_cell_volume 2881.846201
_symmetry_space_group_name_H-M "C 2/M"
_symmetry_group_IT_number 12
_symmetry_cell_setting 'monoclinic'
loop_
_space_group_symop_operation_xyz
x,y,z
-x,y,-z
-x,-y,-z
x,-y,z
1/2+x,1/2+y,z
1/2-x,1/2+y,-z
1/2-x,1/2-y,-z
1/2+x,1/2-y,z
loop_
_atom_site_type_symbol
_atom_site_label
_atom_site_fract_x
_atom_site_fract_y
_atom_site_fract_z
Si Si1 0.715650 0.174114 0.876818
Si Si2 0.209813 0.136060 0.754185
Si Si3 0.987057 0.408700 0.193800
Si Si4 0.709016 0.339820 0.039991
Si Si5 0.516451 0.403421 0.645327
Si Si6 0.200422 0.590428 0.409934
Si Si7 0.714697 0.632953 0.868777
Si Si8 0.613206 0.301782 0.383638
O O1 0.815725 0.159605 0.882112
O O2 0.719553 0.269305 0.861979
O O3 0.818256 0.121742 0.777323
O O4 0.500000 0.151519 0.000000
O O5 0.207759 0.088534 0.698272
O O6 0.283143 0.102217 0.773039
O O7 0.315078 0.219467 0.683337
O O8 0.988771 0.143112 0.884068
O O9 0.920448 0.500000 0.229624
O O10 0.134762 0.392756 0.165062
O O11 0.808723 0.350090 0.290435
O O12 0.116082 0.392168 0.072423
O O13 0.750000 0.250000 0.000000
O O14 0.527221 0.500000 0.632504
O O15 0.673253 0.374998 0.607701
O O16 0.517157 0.353592 0.589065
O O17 0.161291 0.500000 0.449677
O O18 0.000000 0.627655 0.500000
O O19 0.500000 0.610158 0.000000
O O20 0.500000 0.293368 0.500000
#
# Coordination Sequence:
#
# PCOD9218468 Si02
#       8
#     8   8   8   8   8   8   8   8
#     4  11  20  36  65  95 132 174 219 269 339 401
#     4  12  22  42  73 100 131 174 231 280 340 396
#     4  12  27  43  65 104 144 183 226 274 340 418
#     4  12  20  39  68  94 135 174 217 276 338 394
#     4  11  24  43  67  97 132 173 223 282 338 400
#     4  10  24  46  69  97 133 174 225 283 338 391
#     4  11  22  41  66  99 137 179 217 276 339 408
#     4  12  27  46  70 100 136 184 232 279 334 406
#
# _framework density 22.207986999999999
#
# number of rings (size 3 to 8) (size 9 to 14) (size 15 to 20)
#    0.000    0.625    6.250    2.250    0.000    4.000 
#    0.000    3.125    0.000    0.000    0.000    0.000 
#    0.000    0.000    0.000    0.000    0.000    0.000 
#
# Total GULP energy -178696.588851 kJ/mol
# GULP energy per Si atom -5584.268402 kJ/mol
# Density = 2.215744 g / cm^3
# Si number density = 22.207987 Si / 1000 Ang^3
#
#
#
# Elastic Constant Matrix: (Units=GPa)
#
#
# Indices 1 2 3 4 5 6 
#
# 1 119.8682 18.1069 26.4646 0.0004 20.1579 -0.0007
# 2 18.1069 76.2163 17.5678 -0.0004 4.6791 0.0000
# 3 26.4646 17.5678 90.6287 0.0072 12.5814 -0.0069
# 4 0.0004 -0.0004 0.0072 3.6932 -0.0003 13.7834
# 5 20.1579 4.6791 12.5814 -0.0003 41.7113 0.0004
# 6 -0.0007 0.0000 -0.0069 13.7834 0.0004 7.8547
#
#
#
# Elastic Compliance Matrix: (Units=1/GPa)
#
#
# Indices 1 2 3 4 5 6 
#
# 1 0.009677 -0.001605 -0.001973 -0.000001 -0.003901 0.000001
# 2 -0.001605 0.014024 -0.002233 -0.000002 -0.000124 0.000002
# 3 -0.001973 -0.002233 0.012395 0.000012 -0.002535 -0.000010
# 4 -0.000001 -0.000002 0.000012 -0.048795 -0.000004 0.085625
# 5 -0.003901 -0.000124 -0.002535 -0.000004 0.026638 0.000003
# 6 0.000001 0.000002 -0.000010 0.085625 0.000003 -0.022943
#
#
# Mechanical properties :
#
#
# Convention : Reuss Voigt Hill
#
# Bulk Modulus (GPa) = 40.85828 45.66577 43.26202
# Shear Modulus (GPa) = 464.06055 25.62343 244.84199
#
# Velocity S-wave (km/s) = 14.47117 3.40044 10.51137
# Velocity P-wave (km/s) = 17.25276 6.00206 12.91670
#
# Compressibility (1/GPa) = 0.02447485
#
# Stress axis : x y z
#
# Youngs Moduli (GPa) = 103.34257 71.30622 80.67875
#
# Poissons Ratio (x) = 0.11442 0.15918
# Poissons Ratio (y) = 0.16582 0.18013
# Poissons Ratio (z) = 0.20390 0.15920
#
# Static dielectric constant tensor:
#      x y z
#    x 1.900250 0.000000 0.116220 
#    y 0.000000 1.850370 -0.000010 
#    z 0.116220 -0.000010 2.081370 
# 
# From -- ./inp_files/340793.got.cif
#   From: 2010.05.17/outbox.cif.g08.bks.cpg/sg12_171_cif.got.tgz:340793.got - 2010.06.03 13:09:07.
