data_PCOD9218672
_publ_section_title
;
Structure prediction by ZEFSAII (Michael W. Deem and Ramdas Pophale) SiO2 
 PCOD9218672
Probable space group: C 2/M
;
_chemical_formula_sum "Si O2"
_cell_formula_units_Z 64
_cell_length_a 11.785346
_cell_length_b 30.546683
_cell_length_c 15.145741
_cell_angle_alpha 90.000000
_cell_angle_beta 140.699657
_cell_angle_gamma 90.000000
_cell_volume 3453.544383
_symmetry_space_group_name_H-M "C 2/M"
_symmetry_group_IT_number 12
_symmetry_cell_setting 'monoclinic'
loop_
_space_group_symop_operation_xyz
x,y,z
-x,y,-z
-x,-y,-z
x,-y,z
1/2+x,1/2+y,z
1/2-x,1/2+y,-z
1/2-x,1/2-y,-z
1/2+x,1/2-y,z
loop_
_atom_site_type_symbol
_atom_site_label
_atom_site_fract_x
_atom_site_fract_y
_atom_site_fract_z
Si Si1 0.472057 0.171943 0.334690
Si Si2 0.948381 0.263220 0.155378
Si Si3 0.957188 0.881433 0.275000
Si Si4 0.795847 0.180586 0.663380
Si Si5 0.863499 0.337958 0.839166
Si Si6 0.866692 0.952175 0.502609
Si Si7 0.668355 0.949640 0.033342
Si Si8 0.026561 0.406941 0.240651
O O1 0.433811 0.206577 0.233752
O O2 0.663050 0.180841 0.498204
O O3 0.325961 0.176938 0.323463
O O4 0.468908 0.123846 0.287329
O O5 0.073198 0.221990 0.252071
O O6 0.059595 0.292521 0.151675
O O7 0.750000 0.250000 0.000000
O O8 0.838439 0.842460 0.246775
O O9 0.075158 0.861017 0.269355
O O10 0.085279 0.908203 0.416603
O O11 0.817128 0.918064 0.162043
O O12 0.877357 0.372971 0.768766
O O13 0.000000 0.350182 0.000000
O O14 0.664862 0.944499 0.350386
O O15 0.000000 0.952955 0.500000
O O16 0.885647 0.000000 0.558686
O O17 0.620042 0.929886 0.908910
O O18 0.725022 0.000000 0.061074
O O19 0.500000 0.948836 0.000000
#
# Coordination Sequence:
#
# PCOD9218672 Si02
#       8
#     8   8   8   8   8   8   8   8
#     4  10  25  46  62  89 122 167 218 250 313 379
#     4  11  26  42  67  93 123 156 208 272 312 375
#     4  12  21  38  62  91 127 166 201 255 317 370
#     4  11  25  44  66  86 123 171 211 262 308 375
#     4  11  21  37  59  90 126 160 199 247 314 383
#     4  11  21  34  58  97 131 157 204 259 311 370
#     4  11  21  36  61  95 132 164 201 251 316 381
#     4  11  19  39  60  86 125 167 203 246 310 369
#
# _framework density 18.531686000000001
#
# number of rings (size 3 to 8) (size 9 to 14) (size 15 to 20)
#    0.000    1.000    5.000    1.875    5.250    2.000 
#    0.000    0.000    0.000    4.500    0.000    0.000 
#    0.000    0.000    0.000    0.000    0.000    0.000 
#
# Total GULP energy -178554.348198 kJ/mol
# GULP energy per Si atom -5579.823381 kJ/mol
# Density = 1.848951 g / cm^3
# Si number density = 18.531686 Si / 1000 Ang^3
#
#
#
# Elastic Constant Matrix: (Units=GPa)
#
#
# Indices 1 2 3 4 5 6 
#
# 1 65.3921 39.3822 20.8932 0.0000 -2.4987 0.0000
# 2 39.3822 108.0531 20.5596 0.0000 0.6026 0.0000
# 3 20.8932 20.5596 47.7767 0.0000 -9.9105 0.0000
# 4 0.0000 0.0000 0.0000 16.8727 0.0000 0.0325
# 5 -2.4987 0.6026 -9.9105 0.0000 21.8966 0.0000
# 6 0.0000 0.0000 0.0000 0.0325 0.0000 19.5674
#
#
#
# Elastic Compliance Matrix: (Units=1/GPa)
#
#
# Indices 1 2 3 4 5 6 
#
# 1 0.021304 -0.006508 -0.006594 0.000000 -0.000374 0.000000
# 2 -0.006508 0.012191 -0.002896 0.000000 -0.002389 0.000000
# 3 -0.006594 -0.002896 0.027503 0.000000 0.011775 0.000000
# 4 0.000000 0.000000 0.000000 0.059268 0.000000 -0.000098
# 5 -0.000374 -0.002389 0.011775 0.000000 0.051022 0.000000
# 6 0.000000 0.000000 0.000000 -0.000098 0.000000 0.051106
#
#
# Mechanical properties :
#
#
# Convention : Reuss Voigt Hill
#
# Bulk Modulus (GPa) = 34.47848 42.54353 38.51101
# Shear Modulus (GPa) = 18.93544 21.02646 19.98095
#
# Velocity S-wave (km/s) = 3.20001 3.37207 3.28717
# Velocity P-wave (km/s) = 5.68322 6.17804 5.93579
#
# Compressibility (1/GPa) = 0.02900360
#
# Stress axis : x y z
#
# Youngs Moduli (GPa) = 46.93905 82.02786 36.36004
#
# Poissons Ratio (x) = 0.53385 0.23974
# Poissons Ratio (y) = 0.30548 0.10528
# Poissons Ratio (z) = 0.30949 0.23752
#
# Static dielectric constant tensor:
#      x y z
#    x 1.618040 0.000000 -0.002650 
#    y 0.000000 1.657190 0.000000 
#    z -0.002650 0.000000 1.649270 
# 
# From -- ./inp_files/209865.got.cif
#   From: 2010.05.17/outbox.cif.g08.bks.cpg/sg12_105_cif.got.tgz:209865.got - 2010.06.03 13:09:07.
