data_PCOD9218715
_publ_section_title
;
Structure prediction by ZEFSAII (Michael W. Deem and Ramdas Pophale) SiO2 
 PCOD9218715
Probable space group: C 2/M
;
_chemical_formula_sum "Si O2"
_cell_formula_units_Z 44
_cell_length_a 9.026547
_cell_length_b 21.149543
_cell_length_c 11.457972
_cell_angle_alpha 90.000000
_cell_angle_beta 96.953770
_cell_angle_gamma 90.000000
_cell_volume 2171.320757
_symmetry_space_group_name_H-M "C 2/M"
_symmetry_group_IT_number 12
_symmetry_cell_setting 'monoclinic'
loop_
_space_group_symop_operation_xyz
x,y,z
-x,y,-z
-x,-y,-z
x,-y,z
1/2+x,1/2+y,z
1/2-x,1/2+y,-z
1/2-x,1/2-y,-z
1/2+x,1/2-y,z
loop_
_atom_site_type_symbol
_atom_site_label
_atom_site_fract_x
_atom_site_fract_y
_atom_site_fract_z
Si Si1 0.175784 0.000000 0.278439
Si Si2 0.691290 0.151915 0.231333
Si Si3 0.822255 0.180732 0.998525
Si Si4 0.143186 0.377292 0.766215
Si Si5 0.525482 0.394292 0.632837
Si Si6 0.703375 0.719961 0.371835
O O1 0.301576 0.944376 0.272336
O O2 0.049289 0.943986 0.288019
O O3 0.775831 0.149406 0.116160
O O4 0.527076 0.124019 0.209638
O O5 0.677760 0.223796 0.277231
O O6 0.800625 0.116194 0.330048
O O7 0.750000 0.250000 0.000000
O O8 0.747804 0.144600 0.883478
O O9 0.000000 0.184278 0.000000
O O10 0.167506 0.325296 0.666761
O O11 0.500000 0.418588 0.500000
O O12 0.440110 0.326447 0.633801
O O13 0.750000 0.750000 0.500000
#
# Coordination Sequence:
#
# PCOD9218715 Si02
#       6
#     4   8   8   8   8   8
#     4  10  25  48  65  90 138 184 232 269 324 401
#     4  12  24  40  69 106 132 171 225 281 346 390
#     4  12  24  42  68 100 137 172 218 277 343 400
#     4  11  25  44  68 100 136 177 222 280 330 400
#     4  11  23  43  67  94 135 186 223 273 332 401
#     4  11  22  40  66 100 141 173 218 278 345 399
#
# _framework density 20.264163
#
# number of rings (size 3 to 8) (size 9 to 14) (size 15 to 20)
#    0.000    0.727    3.636    5.182    0.000    0.727 
#    0.000    6.818    0.000    0.000    0.000    0.000 
#    0.000    0.000    0.000    0.000    0.000    0.000 
#
# Total GULP energy -122537.289096 kJ/mol
# GULP energy per Si atom -5569.876777 kJ/mol
# Density = 2.021804 g / cm^3
# Si number density = 20.264163 Si / 1000 Ang^3
#
#
#
# Elastic Constant Matrix: (Units=GPa)
#
#
# Indices 1 2 3 4 5 6 
#
# 1 190.4824 44.3946 24.3197 0.0000 12.7708 0.0000
# 2 44.3946 128.4996 18.3074 0.0000 7.5141 0.0000
# 3 24.3197 18.3074 77.2111 0.0000 8.1947 0.0000
# 4 0.0000 0.0000 0.0000 -2.8651 0.0000 0.2236
# 5 12.7708 7.5141 8.1947 0.0000 28.9823 0.0000
# 6 0.0000 0.0000 0.0000 0.2236 0.0000 6.5934
#
#
#
# Elastic Compliance Matrix: (Units=1/GPa)
#
#
# Indices 1 2 3 4 5 6 
#
# 1 0.005944 -0.001768 -0.001261 0.000000 -0.001804 0.000000
# 2 -0.001768 0.008653 -0.001381 0.000000 -0.001074 0.000000
# 3 -0.001261 -0.001381 0.013999 0.000000 -0.003044 0.000000
# 4 0.000000 0.000000 0.000000 -0.348104 0.000000 0.011806
# 5 -0.001804 -0.001074 -0.003044 0.000000 0.036438 0.000000
# 6 0.000000 0.000000 0.000000 0.011806 0.000000 0.151266
#
#
# Mechanical properties :
#
#
# Convention : Reuss Voigt Hill
#
# Bulk Modulus (GPa) = 50.56903 63.35964 56.96433
# Shear Modulus (GPa) = -42.95840 27.15355 -7.90242
#
# Velocity S-wave (km/s) = -4.60925 3.66454 -1.97691
# Velocity P-wave (km/s) = 1.82150 7.01711 4.79176
#
# Compressibility (1/GPa) = 0.01977495
#
# Stress axis : x y z
#
# Youngs Moduli (GPa) = 168.23774 115.57289 71.43201
#
# Poissons Ratio (x) = 0.20437 0.09011
# Poissons Ratio (y) = 0.29750 0.09862
# Poissons Ratio (z) = 0.21223 0.15957
#
# Static dielectric constant tensor:
#      x y z
#    x 1.716320 0.000000 -0.017730 
#    y 0.000000 1.685340 0.000000 
#    z -0.017730 0.000000 1.787280 
# 
# From -- ./inp_files/120843.got.cif
#   From: 2010.05.17/outbox.cif.g08.bks.cpg/sg12_61_cif.got.tgz:120843.got - 2010.06.03 13:09:07.
