data_PCOD9218800
_publ_section_title
;
Structure prediction by ZEFSAII (Michael W. Deem and Ramdas Pophale) SiO2 
 PCOD9218800
Probable space group: C 2/M
;
_chemical_formula_sum "Si O2"
_cell_formula_units_Z 50
_cell_length_a 10.402150
_cell_length_b 27.695280
_cell_length_c 9.405836
_cell_angle_alpha 90.000000
_cell_angle_beta 119.208492
_cell_angle_gamma 90.000000
_cell_volume 2365.188569
_symmetry_space_group_name_H-M "C 2/M"
_symmetry_group_IT_number 12
_symmetry_cell_setting 'monoclinic'
loop_
_space_group_symop_operation_xyz
x,y,z
-x,y,-z
-x,-y,-z
x,-y,z
1/2+x,1/2+y,z
1/2-x,1/2+y,-z
1/2-x,1/2-y,-z
1/2+x,1/2-y,z
loop_
_atom_site_type_symbol
_atom_site_label
_atom_site_fract_x
_atom_site_fract_y
_atom_site_fract_z
Si Si1 0.675494 0.761324 0.614144
Si Si2 0.135764 0.915521 0.917998
Si Si3 0.701582 0.865222 0.733893
Si Si4 0.627938 0.895629 0.384184
Si Si5 0.017054 0.500000 0.339912
Si Si6 0.500000 0.500000 0.000000
Si Si7 0.361388 0.341468 0.320383
Si Si8 0.842718 0.500000 0.987244
O O1 0.500000 0.770271 0.500000
O O2 0.750000 0.750000 0.500000
O O3 0.738770 0.809699 0.718965
O O4 0.688491 0.714066 0.720040
O O5 0.094443 0.871823 0.793366
O O6 0.199150 0.890777 0.094964
O O7 0.261384 0.949788 0.915057
O O8 0.018549 0.956894 0.890502
O O9 0.698491 0.891200 0.579100
O O10 0.532378 0.870442 0.696203
O O11 0.730588 0.869596 0.327880
O O12 0.599358 0.951648 0.339833
O O13 0.000000 0.500000 0.500000
O O14 0.861953 0.500000 0.171393
O O15 0.500000 0.340003 0.500000
O O16 0.000000 0.500000 0.000000
#
# Coordination Sequence:
#
# PCOD9218800 Si02
#       8
#     8   8   8   8   4   2   8   4
#     4  11  21  40  68  96 134 175 218 271 342 394
#     4  11  25  43  66  92 130 174 220 267 326 390
#     4  11  21  39  71  98 126 170 214 280 331 385
#     4  11  21  40  63 100 128 162 218 270 329 390
#     4  12  19  34  62  98 119 156 210 259 323 386
#     4  10  28  48  62  90 142 186 212 266 340 396
#     4  11  26  43  63  94 132 178 219 267 328 400
#     4  11  21  39  61  90 128 160 194 268 332 361
#
# _framework density 21.139966000000001
#
# number of rings (size 3 to 8) (size 9 to 14) (size 15 to 20)
#    0.000    0.960    6.400    0.960    2.240    1.920 
#    0.000    2.000    0.000    1.920    0.000    0.000 
#    0.000    0.000    0.000    0.000    0.000    0.000 
#
# Total GULP energy -139398.607129 kJ/mol
# GULP energy per Si atom -5575.944285 kJ/mol
# Density = 2.109185 g / cm^3
# Si number density = 21.139966 Si / 1000 Ang^3
#
#
#
# Elastic Constant Matrix: (Units=GPa)
#
#
# Indices 1 2 3 4 5 6 
#
# 1 59.0416 23.0076 -5.7492 0.0000 -13.2054 0.0000
# 2 23.0076 211.7634 43.3278 0.0000 -4.9573 0.0000
# 3 -5.7492 43.3278 83.6618 0.0000 -4.6535 0.0000
# 4 0.0000 0.0000 0.0000 30.7431 0.0000 -2.2093
# 5 -13.2054 -4.9573 -4.6535 0.0000 18.2876 0.0000
# 6 0.0000 0.0000 0.0000 -2.2093 0.0000 28.0542
#
#
#
# Elastic Compliance Matrix: (Units=1/GPa)
#
#
# Indices 1 2 3 4 5 6 
#
# 1 0.022010 -0.002804 0.003861 0.000000 0.016116 0.000000
# 2 -0.002804 0.005649 -0.003191 0.000000 -0.001305 0.000000
# 3 0.003861 -0.003191 0.014178 0.000000 0.005531 0.000000
# 4 0.000000 0.000000 0.000000 0.032713 0.000000 0.002576
# 5 0.016116 -0.001305 0.005531 0.000000 0.067373 0.000000
# 6 0.000000 0.000000 0.000000 0.002576 0.000000 0.035848
#
#
# Mechanical properties :
#
#
# Convention : Reuss Voigt Hill
#
# Bulk Modulus (GPa) = 26.61677 52.84880 39.73278
# Shear Modulus (GPa) = 25.69858 35.00902 30.35380
#
# Velocity S-wave (km/s) = 3.49039 4.07388 3.79337
# Velocity P-wave (km/s) = 5.37232 6.86895 6.16621
#
# Compressibility (1/GPa) = 0.03757030
#
# Stress axis : x y z
#
# Youngs Moduli (GPa) = 45.43289 177.01460 70.52944
#
# Poissons Ratio (x) = 0.49637 -0.27233
# Poissons Ratio (y) = 0.12740 0.22506
# Poissons Ratio (z) = -0.17543 0.56486
#
# Static dielectric constant tensor:
#      x y z
#    x 1.810670 0.000000 -0.003900 
#    y 0.000000 1.728400 0.000000 
#    z -0.003900 0.000000 1.756900 
# 
# From -- ./inp_files/53387.got.cif
#   From: 2010.05.17/outbox.cif.g08.bks.cpg/sg12_27_cif.got.tgz:53387.got - 2010.06.03 13:09:07.
