data_PCOD9218804
_publ_section_title
;
Structure prediction by ZEFSAII (Michael W. Deem and Ramdas Pophale) SiO2 
 PCOD9218804
Probable space group: C 2/M
;
_chemical_formula_sum "Si O2"
_cell_formula_units_Z 38
_cell_length_a 19.474378
_cell_length_b 16.818506
_cell_length_c 5.118066
_cell_angle_alpha 90.000000
_cell_angle_beta 86.744153
_cell_angle_gamma 90.000000
_cell_volume 1673.614085
_symmetry_space_group_name_H-M "C 2/M"
_symmetry_group_IT_number 12
_symmetry_cell_setting 'monoclinic'
loop_
_space_group_symop_operation_xyz
x,y,z
-x,y,-z
-x,-y,-z
x,-y,z
1/2+x,1/2+y,z
1/2-x,1/2+y,-z
1/2-x,1/2-y,-z
1/2+x,1/2-y,z
loop_
_atom_site_type_symbol
_atom_site_label
_atom_site_fract_x
_atom_site_fract_y
_atom_site_fract_z
Si Si1 0.119687 0.000000 0.670014
Si Si2 0.456304 0.340750 0.264232
Si Si3 0.795574 0.000000 0.851671
Si Si4 0.000000 0.619248 0.500000
Si Si5 0.866167 0.275475 0.470742
Si Si6 0.736111 0.676925 0.198104
Si Si7 0.500000 0.000000 0.000000
O O1 0.076626 0.921870 0.633605
O O2 0.183639 0.000000 0.457561
O O3 0.139960 0.000000 0.968779
O O4 0.500000 0.310730 0.500000
O O5 0.399466 0.273659 0.224006
O O6 0.500000 0.354462 0.000000
O O7 0.763013 0.087076 0.912813
O O8 0.072666 0.667306 0.449762
O O9 0.992910 0.568473 0.235349
O O10 0.797794 0.321240 0.396551
O O11 0.836067 0.204015 0.657294
O O12 0.750000 0.750000 0.000000
#
# Coordination Sequence:
#
# PCOD9218804 Si02
#       7
#     4   8   4   4   8   8   2
#     4  12  24  45  69 107 152 189 244 294 364 452
#     4  12  25  42  72 109 148 192 237 297 371 442
#     4  12  26  47  75 104 150 202 244 311 370 445
#     4  11  26  50  80 107 150 194 248 327 378 449
#     4  11  26  46  76 111 146 195 254 307 382 450
#     4  11  27  49  75 112 153 201 255 313 378 460
#     4  10  28  50  72 114 146 192 264 320 384 446
#
# _framework density 22.705355000000001
#
# number of rings (size 3 to 8) (size 9 to 14) (size 15 to 20)
#    0.000    0.632    3.158    3.158   10.316    1.684 
#    0.000    0.000    0.000    0.000    0.000    0.000 
#    0.000    0.000    0.000    0.000    0.000    0.000 
#
# Total GULP energy -105769.931171 kJ/mol
# GULP energy per Si atom -5566.838483 kJ/mol
# Density = 2.265368 g / cm^3
# Si number density = 22.705355 Si / 1000 Ang^3
#
#
#
# Elastic Constant Matrix: (Units=GPa)
#
#
# Indices 1 2 3 4 5 6 
#
# 1 105.3728 53.9268 21.3800 0.0000 3.3457 0.0000
# 2 53.9268 163.3633 36.4186 0.0000 -6.3746 0.0000
# 3 21.3800 36.4186 87.4156 0.0000 -0.4582 0.0000
# 4 0.0000 0.0000 0.0000 84.6635 0.0000 -30.3707
# 5 3.3457 -6.3746 -0.4582 0.0000 29.5854 0.0000
# 6 0.0000 0.0000 0.0000 -30.3707 0.0000 37.3933
#
#
#
# Elastic Compliance Matrix: (Units=1/GPa)
#
#
# Indices 1 2 3 4 5 6 
#
# 1 0.011696 -0.003642 -0.001354 0.000000 -0.002128 0.000000
# 2 -0.003642 0.007942 -0.002407 0.000000 0.002086 0.000000
# 3 -0.001354 -0.002407 0.012773 0.000000 -0.000168 0.000000
# 4 0.000000 0.000000 0.000000 0.016668 0.000000 0.013537
# 5 -0.002128 0.002086 -0.000168 0.000000 0.034488 0.000000
# 6 0.000000 0.000000 0.000000 0.013537 0.000000 0.037738
#
#
# Mechanical properties :
#
#
# Convention : Reuss Voigt Hill
#
# Bulk Modulus (GPa) = 56.80591 64.40028 60.60310
# Shear Modulus (GPa) = 35.21646 46.62352 40.91999
#
# Velocity S-wave (km/s) = 3.94257 4.53638 4.24986
# Velocity P-wave (km/s) = 6.76744 7.47418 7.12957
#
# Compressibility (1/GPa) = 0.01760380
#
# Stress axis : x y z
#
# Youngs Moduli (GPa) = 85.49587 125.91990 78.29173
#
# Poissons Ratio (x) = 0.45862 0.10605
# Poissons Ratio (y) = 0.31139 0.18844
# Poissons Ratio (z) = 0.11580 0.30307
#
# Static dielectric constant tensor:
#      x y z
#    x 1.862350 0.000000 -0.026270 
#    y 0.000000 1.872930 0.000000 
#    z -0.026270 0.000000 1.843490 
# 
# From -- ./inp_files/15195.got.cif
#   From: 2010.05.17/outbox.cif.g08.bks.cpg/sg12_8_cif.got.tgz:15195.got - 2010.06.03 13:09:07.
