data_PCOD9218773
_publ_section_title
;
Structure prediction by ZEFSAII (Michael W. Deem and Ramdas Pophale) SiO2 
 PCOD9218773
Probable space group: C 2/M
;
_chemical_formula_sum "Si O2"
_cell_formula_units_Z 38
_cell_length_a 9.301609
_cell_length_b 14.655446
_cell_length_c 13.990039
_cell_angle_alpha 90.000000
_cell_angle_beta 61.211478
_cell_angle_gamma 90.000000
_cell_volume 1671.398411
_symmetry_space_group_name_H-M "C 2/M"
_symmetry_group_IT_number 12
_symmetry_cell_setting 'monoclinic'
loop_
_space_group_symop_operation_xyz
x,y,z
-x,y,-z
-x,-y,-z
x,-y,z
1/2+x,1/2+y,z
1/2-x,1/2+y,-z
1/2-x,1/2-y,-z
1/2+x,1/2-y,z
loop_
_atom_site_type_symbol
_atom_site_label
_atom_site_fract_x
_atom_site_fract_y
_atom_site_fract_z
Si Si1 0.773523 0.686478 0.402498
Si Si2 0.345607 0.500000 0.479823
Si Si3 0.807119 0.000000 0.270201
Si Si4 0.809673 0.700917 0.075891
Si Si5 0.640318 0.192644 0.288364
Si Si6 0.205061 0.500000 0.945924
Si Si7 0.500000 0.500000 0.000000
O O1 0.750000 0.750000 0.500000
O O2 0.751746 0.587793 0.453772
O O3 0.648814 0.728310 0.365855
O O4 0.958381 0.692142 0.303825
O O5 0.500000 0.500000 0.500000
O O6 0.383120 0.500000 0.354099
O O7 0.697610 0.907346 0.302762
O O8 0.923288 0.000000 0.137384
O O9 0.768727 0.771516 0.170831
O O10 0.743947 0.598273 0.114401
O O11 0.750000 0.750000 0.000000
O O12 0.000000 0.690879 0.000000
O O13 0.306043 0.500000 0.015577
O O14 0.000000 0.500000 0.000000
#
# Coordination Sequence:
#
# PCOD9218773 Si02
#       7
#     8   4   4   8   8   4   2
#     4  12  26  46  74 107 151 190 260 311 390 470
#     4  12  27  51  80 112 154 208 265 328 398 469
#     4  12  29  48  78 114 160 205 264 330 399 480
#     4  11  25  46  72 109 155 202 263 323 396 481
#     4  12  27  46  74 111 150 206 250 325 400 465
#     4  10  26  48  75 108 163 206 266 329 391 478
#     4  12  28  46  86 116 160 206 276 318 412 480
#
# _framework density 22.735455000000002
#
# number of rings (size 3 to 8) (size 9 to 14) (size 15 to 20)
#    0.000    0.421    2.105    5.053    8.842    3.368 
#    0.000    2.105    0.000    0.000    0.000    0.000 
#    0.000    0.000    0.000    0.000    0.000    0.000 
#
# Total GULP energy -105770.587216 kJ/mol
# GULP energy per Si atom -5566.873011 kJ/mol
# Density = 2.268371 g / cm^3
# Si number density = 22.735455 Si / 1000 Ang^3
#
#
#
# Elastic Constant Matrix: (Units=GPa)
#
#
# Indices 1 2 3 4 5 6 
#
# 1 113.9757 23.5955 19.7690 0.0000 6.8091 0.0000
# 2 23.5955 189.4524 20.0814 0.0000 3.4814 0.0000
# 3 19.7690 20.0814 79.0471 0.0000 8.9342 0.0000
# 4 0.0000 0.0000 0.0000 23.3305 0.0000 2.0003
# 5 6.8091 3.4814 8.9342 0.0000 37.7949 0.0000
# 6 0.0000 0.0000 0.0000 2.0003 0.0000 19.7486
#
#
#
# Elastic Compliance Matrix: (Units=1/GPa)
#
#
# Indices 1 2 3 4 5 6 
#
# 1 0.009379 -0.000937 -0.001979 0.000000 -0.001136 0.000000
# 2 -0.000937 0.005519 -0.001160 0.000000 -0.000065 0.000000
# 3 -0.001979 -0.001160 0.013756 0.000000 -0.002788 0.000000
# 4 0.000000 0.000000 0.000000 0.043238 0.000000 -0.004380
# 5 -0.001136 -0.000065 -0.002788 0.000000 0.027328 0.000000
# 6 0.000000 0.000000 0.000000 -0.004380 0.000000 0.051080
#
#
# Mechanical properties :
#
#
# Convention : Reuss Voigt Hill
#
# Bulk Modulus (GPa) = 48.78034 56.59633 52.68833
# Shear Modulus (GPa) = 30.25038 37.44342 33.84690
#
# Velocity S-wave (km/s) = 3.65161 4.06263 3.86259
# Velocity P-wave (km/s) = 6.26747 6.85230 6.56640
#
# Compressibility (1/GPa) = 0.02050006
#
# Stress axis : x y z
#
# Youngs Moduli (GPa) = 106.62124 181.18178 72.69796
#
# Poissons Ratio (x) = 0.16985 0.14388
# Poissons Ratio (y) = 0.09995 0.08435
# Poissons Ratio (z) = 0.21101 0.21023
#
# Static dielectric constant tensor:
#      x y z
#    x 1.907780 0.000000 -0.091080 
#    y 0.000000 1.725690 0.000000 
#    z -0.091080 0.000000 1.776990 
# 
# From -- ./inp_files/194521.got.cif
#   From: 2010.05.17/outbox.cif.g08.bks.cpg/sg12_98_cif.got.tgz:194521.got - 2010.06.03 13:09:07.
