data_PCOD9218769
_publ_section_title
;
Structure prediction by ZEFSAII (Michael W. Deem and Ramdas Pophale) SiO2 
 PCOD9218769
Probable space group: C 2/M
;
_chemical_formula_sum "Si O2"
_cell_formula_units_Z 32
_cell_length_a 11.131022
_cell_length_b 13.871150
_cell_length_c 10.579453
_cell_angle_alpha 90.000000
_cell_angle_beta 102.351251
_cell_angle_gamma 90.000000
_cell_volume 1595.661113
_symmetry_space_group_name_H-M "C 2/M"
_symmetry_group_IT_number 12
_symmetry_cell_setting 'monoclinic'
loop_
_space_group_symop_operation_xyz
x,y,z
-x,y,-z
-x,-y,-z
x,-y,z
1/2+x,1/2+y,z
1/2-x,1/2+y,-z
1/2-x,1/2-y,-z
1/2+x,1/2-y,z
loop_
_atom_site_type_symbol
_atom_site_label
_atom_site_fract_x
_atom_site_fract_y
_atom_site_fract_z
Si Si1 0.905372 0.000000 0.591200
Si Si2 0.937447 0.000000 0.123748
Si Si3 0.532270 0.110889 0.715899
Si Si4 0.613376 0.718366 0.923933
Si Si5 0.693905 0.146192 0.501727
O O1 0.815790 0.087307 0.550135
O O2 0.000000 0.000000 0.500000
O O3 0.964825 0.000000 0.741471
O O4 0.873778 0.106151 0.119505
O O5 0.000000 0.000000 0.000000
O O6 0.570003 0.198576 0.815810
O O7 0.611972 0.127301 0.607158
O O8 0.391203 0.119518 0.636953
O O9 0.553631 0.000000 0.766556
O O10 0.500000 0.716983 0.000000
O O11 0.750000 0.750000 0.000000
O O12 0.750000 0.250000 0.500000
#
# Coordination Sequence:
#
# PCOD9218769 Si02
#       5
#     4   4   8   8   8
#     4  12  26  41  70 108 136 183 235 294 348 411
#     4  10  26  48  69  98 147 192 235 289 365 433
#     4  11  24  46  70  99 140 185 227 290 363 420
#     4  11  28  47  73 103 136 192 239 291 351 430
#     4  11  24  42  69 101 139 179 228 286 357 420
#
# _framework density 20.054383000000001
#
# number of rings (size 3 to 8) (size 9 to 14) (size 15 to 20)
#    0.000    1.000    2.500    2.250   19.250    0.500 
#    0.000    0.000    0.000    0.000    0.000    0.000 
#    0.000    0.000    0.000    0.000    0.000    0.000 
#
# Total GULP energy -89188.531390 kJ/mol
# GULP energy per Si atom -5574.283212 kJ/mol
# Density = 2.000874 g / cm^3
# Si number density = 20.054383 Si / 1000 Ang^3
#
#
#
# Elastic Constant Matrix: (Units=GPa)
#
#
# Indices 1 2 3 4 5 6 
#
# 1 115.6441 50.0782 58.1056 0.0000 27.5682 0.0000
# 2 50.0782 247.0372 78.5566 0.0000 28.6772 0.0000
# 3 58.1056 78.5566 129.8073 0.0000 31.3039 0.0000
# 4 0.0000 0.0000 0.0000 16.5746 0.0000 -15.5369
# 5 27.5682 28.6772 31.3039 0.0000 33.7738 0.0000
# 6 0.0000 0.0000 0.0000 -15.5369 0.0000 19.4265
#
#
#
# Elastic Compliance Matrix: (Units=1/GPa)
#
#
# Indices 1 2 3 4 5 6 
#
# 1 0.012176 -0.000614 -0.003616 0.000000 -0.006066 0.000000
# 2 -0.000614 0.005136 -0.002450 0.000000 -0.001589 0.000000
# 3 -0.003616 -0.002450 0.012353 0.000000 -0.006417 0.000000
# 4 0.000000 0.000000 0.000000 0.241050 0.000000 0.192786
# 5 -0.006066 -0.001589 -0.006417 0.000000 0.041857 0.000000
# 6 0.000000 0.000000 0.000000 0.192786 0.000000 0.205662
#
#
# Mechanical properties :
#
#
# Convention : Reuss Voigt Hill
#
# Bulk Modulus (GPa) = 61.33363 96.21883 78.77623
# Shear Modulus (GPa) = 9.31048 34.33818 21.82433
#
# Velocity S-wave (km/s) = 2.15701 4.14243 3.30245
# Velocity P-wave (km/s) = 6.07072 8.42394 7.34222
#
# Compressibility (1/GPa) = 0.01630427
#
# Stress axis : x y z
#
# Youngs Moduli (GPa) = 82.12868 194.70222 80.95438
#
# Poissons Ratio (x) = 0.11961 0.29271
# Poissons Ratio (y) = 0.05045 0.19835
# Poissons Ratio (z) = 0.29696 0.47705
#
# Static dielectric constant tensor:
#      x y z
#    x 1.687420 0.000000 0.000290 
#    y 0.000000 1.698980 0.000000 
#    z 0.000290 0.000000 1.701840 
# 
# From -- ./inp_files/127541.got.cif
#   From: 2010.05.17/outbox.cif.g08.bks.cpg/sg12_64_cif.got.tgz:127541.got - 2010.06.03 13:09:07.
