data_PCOD9218139
_publ_section_title
;
Structure prediction by ZEFSAII (Michael W. Deem and Ramdas Pophale) SiO2 
 PCOD9218139
Probable space group: C 2/M
;
_chemical_formula_sum "Si O2"
_cell_formula_units_Z 44
_cell_length_a 18.151671
_cell_length_b 11.819482
_cell_length_c 29.204080
_cell_angle_alpha 90.000000
_cell_angle_beta 21.175946
_cell_angle_gamma 90.000000
_cell_volume 2263.321021
_symmetry_space_group_name_H-M "C 2/M"
_symmetry_group_IT_number 12
_symmetry_cell_setting 'monoclinic'
loop_
_space_group_symop_operation_xyz
x,y,z
-x,y,-z
-x,-y,-z
x,-y,z
1/2+x,1/2+y,z
1/2-x,1/2+y,-z
1/2-x,1/2-y,-z
1/2+x,1/2-y,z
loop_
_atom_site_type_symbol
_atom_site_label
_atom_site_fract_x
_atom_site_fract_y
_atom_site_fract_z
Si Si1 0.918921 0.000000 0.150241
Si Si2 0.036906 0.500000 0.423950
Si Si3 0.257181 0.500000 0.150607
Si Si4 0.342529 0.769197 0.497932
Si Si5 0.097928 0.256011 0.219144
Si Si6 0.704266 0.365621 0.253749
Si Si7 0.623313 0.256671 0.027453
O O1 0.745401 0.000000 0.211957
O O2 0.782653 0.000000 0.274547
O O3 0.047785 0.886834 0.067922
O O4 0.000000 0.500000 0.500000
O O5 0.938115 0.389790 0.456609
O O6 0.154302 0.387066 0.192930
O O7 0.500000 0.500000 0.000000
O O8 0.250000 0.750000 0.500000
O O9 0.528702 0.680988 0.389343
O O10 0.145352 0.753223 0.644253
O O11 0.165037 0.188934 0.226104
O O12 0.232715 0.219736 0.097942
O O13 0.697506 0.500000 0.254547
O O14 0.922022 0.319826 0.143923
O O15 0.750000 0.250000 0.000000
#
# Coordination Sequence:
#
# PCOD9218139 Si02
#       7
#     4   4   4   8   8   8   8
#     4  12  22  46  68  94 128 174 229 281 329 408
#     4  12  26  46  76  99 135 186 234 282 344 414
#     4  12  18  40  72  97 124 172 226 278 331 389
#     4  10  24  42  69 102 135 172 228 281 343 405
#     4  11  23  40  70  99 130 167 227 279 329 401
#     4  11  24  44  66  96 136 174 216 274 341 400
#     4  12  26  42  65  95 132 176 223 275 340 398
#
# _framework density 19.440460000000002
#
# number of rings (size 3 to 8) (size 9 to 14) (size 15 to 20)
#    0.000    0.727    5.455    1.636   10.182    1.455 
#    0.000    0.000    0.000    1.636    0.000    0.000 
#    0.000    0.000    0.000    0.000    0.000    0.000 
#
# Total GULP energy -122822.577070 kJ/mol
# GULP energy per Si atom -5582.844412 kJ/mol
# Density = 1.939621 g / cm^3
# Si number density = 19.440460 Si / 1000 Ang^3
#
#
#
# Elastic Constant Matrix: (Units=GPa)
#
#
# Indices 1 2 3 4 5 6 
#
# 1 68.7515 23.5066 32.5491 0.0002 -11.0770 -0.0026
# 2 23.5066 161.0976 55.5253 -0.0041 -17.8257 0.0017
# 3 32.5491 55.5253 186.5733 -0.0443 -7.0447 0.0180
# 4 0.0002 -0.0041 -0.0443 47.4101 -0.0088 -8.0135
# 5 -11.0770 -17.8257 -7.0447 -0.0088 19.9119 0.0024
# 6 -0.0026 0.0017 0.0180 -8.0135 0.0024 16.8853
#
#
#
# Elastic Compliance Matrix: (Units=1/GPa)
#
#
# Indices 1 2 3 4 5 6 
#
# 1 0.017280 -0.000777 -0.002480 0.000000 0.008040 0.000004
# 2 -0.000777 0.007612 -0.001914 0.000000 0.005705 0.000000
# 3 -0.002480 -0.001914 0.006330 0.000005 -0.000854 -0.000005
# 4 0.000000 0.000000 0.000005 0.022932 0.000010 0.010883
# 5 0.008040 0.005705 -0.000854 0.000010 0.059499 -0.000002
# 6 0.000004 0.000000 -0.000005 0.010883 -0.000002 0.064388
#
#
# Mechanical properties :
#
#
# Convention : Reuss Voigt Hill
#
# Bulk Modulus (GPa) = 47.89391 71.06495 59.47943
# Shear Modulus (GPa) = 25.59590 37.16421 31.38005
#
# Velocity S-wave (km/s) = 3.63248 4.37704 4.02202
# Velocity P-wave (km/s) = 6.50253 7.88537 7.22710
#
# Compressibility (1/GPa) = 0.02087948
#
# Stress axis : x y z
#
# Youngs Moduli (GPa) = 57.86957 131.37369 157.97947
#
# Poissons Ratio (x) = 0.10209 0.39176
# Poissons Ratio (y) = 0.04497 0.30243
# Poissons Ratio (z) = 0.14351 0.25150
#
# Static dielectric constant tensor:
#      x y z
#    x 1.700820 0.000010 0.035820 
#    y 0.000010 1.615600 0.000010 
#    z 0.035820 0.000010 1.714710 
# 
# From -- ./inp_files/379039.got.cif
#   From: 2010.05.17/outbox.cif.g08.bks.cpg/sg12_190_cif.got.tgz:379039.got - 2010.06.03 13:09:07.
