data_PCOD9218834
_publ_section_title
;
Structure prediction by ZEFSAII (Michael W. Deem and Ramdas Pophale) SiO2 
 PCOD9218834
Probable space group: C 2/M
;
_chemical_formula_sum "Si O2"
_cell_formula_units_Z 52
_cell_length_a 28.670374
_cell_length_b 15.228464
_cell_length_c 9.116627
_cell_angle_alpha 90.000000
_cell_angle_beta 141.038053
_cell_angle_gamma 90.000000
_cell_volume 2502.874178
_symmetry_space_group_name_H-M "C 2/M"
_symmetry_group_IT_number 12
_symmetry_cell_setting 'monoclinic'
loop_
_space_group_symop_operation_xyz
x,y,z
-x,y,-z
-x,-y,-z
x,-y,z
1/2+x,1/2+y,z
1/2-x,1/2+y,-z
1/2-x,1/2-y,-z
1/2+x,1/2-y,z
loop_
_atom_site_type_symbol
_atom_site_label
_atom_site_fract_x
_atom_site_fract_y
_atom_site_fract_z
Si Si1 0.898114 0.598641 0.608024
Si Si2 0.435092 0.133149 0.043386
Si Si3 0.944932 0.901305 0.501807
Si Si4 0.050042 0.823363 0.983723
Si Si5 0.181691 0.766200 0.725764
Si Si6 0.785100 0.163324 0.509519
Si Si7 0.182382 0.500000 0.213726
O O1 0.867037 0.500000 0.520347
O O2 0.909402 0.618302 0.809588
O O3 0.851753 0.674686 0.417152
O O4 0.980901 0.600245 0.744583
O O5 0.436642 0.235931 0.079191
O O6 0.376535 0.076526 0.987734
O O7 0.882562 0.826508 0.359939
O O8 0.000000 0.890026 0.500000
O O9 0.912676 0.000000 0.418447
O O10 0.998879 0.891106 0.773596
O O11 0.131003 0.852645 0.230426
O O12 0.000000 0.793960 0.000000
O O13 0.209030 0.817374 0.648690
O O14 0.250000 0.750000 0.000000
O O15 0.750000 0.250000 0.500000
O O16 0.736459 0.077540 0.410481
#
# Coordination Sequence:
#
# PCOD9218834 Si02
#       7
#     8   8   8   8   8   8   4
#     4  11  19  37  70 102 130 174 229 275 344 412
#     4  11  17  36  66 103 131 165 215 286 337 403
#     4  11  27  49  73 100 136 189 243 289 346 423
#     4  12  21  43  74  98 132 178 236 287 337 410
#     4  12  27  47  69  98 143 191 224 295 352 409
#     4  12  26  43  65 106 143 180 229 279 358 418
#     4  12  24  35  61 103 146 166 209 297 347 395
#
# _framework density 20.776115000000001
#
# number of rings (size 3 to 8) (size 9 to 14) (size 15 to 20)
#    0.000    0.462    9.231    0.462    4.308    0.923 
#    0.000    0.000    0.000    1.385    0.000    0.000 
#    0.000    0.000    0.000    0.000    0.000    0.000 
#
# Total GULP energy -144773.184314 kJ/mol
# GULP energy per Si atom -5568.199397 kJ/mol
# Density = 2.072883 g / cm^3
# Si number density = 20.776115 Si / 1000 Ang^3
#
#
#
# Elastic Constant Matrix: (Units=GPa)
#
#
# Indices 1 2 3 4 5 6 
#
# 1 50.8826 26.7091 21.2653 0.0000 14.8675 0.0000
# 2 26.7091 145.4011 25.8653 0.0000 6.8384 0.0000
# 3 21.2653 25.8653 109.2952 0.0000 20.5396 0.0000
# 4 0.0000 0.0000 0.0000 -20.4379 0.0000 -37.3375
# 5 14.8675 6.8384 20.5396 0.0000 30.8223 0.0000
# 6 0.0000 0.0000 0.0000 -37.3375 0.0000 -34.2683
#
#
#
# Elastic Compliance Matrix: (Units=1/GPa)
#
#
# Indices 1 2 3 4 5 6 
#
# 1 0.025492 -0.003825 -0.002176 0.000000 -0.009998 0.000000
# 2 -0.003825 0.007761 -0.001275 0.000000 0.000973 0.000000
# 3 -0.002176 -0.001275 0.011002 0.000000 -0.005999 0.000000
# 4 0.000000 0.000000 0.000000 0.049398 0.000000 -0.053822
# 5 -0.009998 0.000973 -0.005999 0.000000 0.041048 0.000000
# 6 0.000000 0.000000 0.000000 -0.053822 0.000000 0.029461
#
#
# Mechanical properties :
#
#
# Convention : Reuss Voigt Hill
#
# Bulk Modulus (GPa) = 33.66762 50.36203 42.01483
# Shear Modulus (GPa) = 26.50888 10.67251 18.59069
#
# Velocity S-wave (km/s) = 3.57589 2.26893 2.99458
# Velocity P-wave (km/s) = 5.76970 5.58185 5.67655
#
# Compressibility (1/GPa) = 0.02970213
#
# Stress axis : x y z
#
# Youngs Moduli (GPa) = 39.22862 128.84406 90.89181
#
# Poissons Ratio (x) = 0.49288 0.19776
# Poissons Ratio (y) = 0.15006 0.11592
# Poissons Ratio (z) = 0.08535 0.16432
#
# Static dielectric constant tensor:
#      x y z
#    x 1.816790 0.000000 -0.017130 
#    y 0.000000 1.780250 0.000000 
#    z -0.017130 0.000000 1.767460 
# 
# From -- ./inp_files/112058.got.cif
#   From: 2010.05.17/outbox.cif.g08.bks.cpg/sg12_57_cif.got.tgz:112058.got - 2010.06.03 13:09:07.
