data_PCOD9218304
_publ_section_title
;
Structure prediction by ZEFSAII (Michael W. Deem and Ramdas Pophale) SiO2 
 PCOD9218304
Probable space group: C 2/M
;
_chemical_formula_sum "Si O2"
_cell_formula_units_Z 56
_cell_length_a 11.676051
_cell_length_b 23.147496
_cell_length_c 11.719670
_cell_angle_alpha 90.000000
_cell_angle_beta 72.705887
_cell_angle_gamma 90.000000
_cell_volume 3024.292967
_symmetry_space_group_name_H-M "C 2/M"
_symmetry_group_IT_number 12
_symmetry_cell_setting 'monoclinic'
loop_
_space_group_symop_operation_xyz
x,y,z
-x,y,-z
-x,-y,-z
x,-y,z
1/2+x,1/2+y,z
1/2-x,1/2+y,-z
1/2-x,1/2-y,-z
1/2+x,1/2-y,z
loop_
_atom_site_type_symbol
_atom_site_label
_atom_site_fract_x
_atom_site_fract_y
_atom_site_fract_z
Si Si1 0.618882 0.800285 0.621385
Si Si2 0.301825 0.326534 0.765363
Si Si3 0.647011 0.801857 0.196943
Si Si4 0.704258 0.877753 0.390532
Si Si5 0.915783 0.500000 0.906742
Si Si6 0.558746 0.333648 0.604739
Si Si7 0.359795 0.881150 0.008623
Si Si8 0.086977 0.500000 0.363170
O O1 0.732407 0.816528 0.666202
O O2 0.494421 0.807651 0.727683
O O3 0.626755 0.842853 0.509695
O O4 0.613971 0.731803 0.593259
O O5 0.305354 0.262799 0.817773
O O6 0.442358 0.341159 0.718366
O O7 0.223937 0.372354 0.857953
O O8 0.710591 0.836471 0.279173
O O9 0.668133 0.830893 0.070862
O O10 0.837480 0.878868 0.401684
O O11 0.657033 0.939729 0.363620
O O12 0.843892 0.441317 0.947524
O O13 0.958483 0.500000 0.758730
O O14 0.000000 0.500000 0.000000
O O15 0.500000 0.340211 0.500000
O O16 0.500000 0.876502 0.000000
O O17 0.000000 0.500000 0.500000
#
# Coordination Sequence:
#
# PCOD9218304 Si02
#       8
#     8   8   8   8   4   8   8   4
#     4  11  20  36  63  95 126 165 205 260 324 390
#     4  11  22  37  61  95 124 166 211 253 321 390
#     4  11  21  36  60  91 128 156 207 262 319 374
#     4  12  23  39  63  94 126 166 209 263 324 379
#     4  10  24  44  67  92 127 169 212 262 327 378
#     4  11  22  39  61  92 135 168 204 258 324 399
#     4  11  22  40  62  87 123 163 210 263 315 376
#     4  12  26  44  70 100 130 168 225 278 318 375
#
# _framework density 18.516725000000001
#
# number of rings (size 3 to 8) (size 9 to 14) (size 15 to 20)
#    0.000    0.857    5.714    3.857    0.000    0.000 
#    0.000    1.786    0.000    0.857    0.000    0.000 
#    0.000    0.000    0.000    0.000    0.000    0.000 
#
# Total GULP energy -156060.390383 kJ/mol
# GULP energy per Si atom -5573.585371 kJ/mol
# Density = 1.847458 g / cm^3
# Si number density = 18.516725 Si / 1000 Ang^3
#
#
#
# Elastic Constant Matrix: (Units=GPa)
#
#
# Indices 1 2 3 4 5 6 
#
# 1 81.9002 14.1644 28.1050 0.0000 2.8721 0.0000
# 2 14.1644 59.9474 33.2687 0.0000 -0.8244 0.0000
# 3 28.1050 33.2687 92.6405 0.0000 2.7524 0.0000
# 4 0.0000 0.0000 0.0000 19.5601 0.0000 -1.3483
# 5 2.8721 -0.8244 2.7524 0.0000 25.1902 0.0000
# 6 0.0000 0.0000 0.0000 -1.3483 0.0000 7.6131
#
#
#
# Elastic Compliance Matrix: (Units=1/GPa)
#
#
# Indices 1 2 3 4 5 6 
#
# 1 0.013729 -0.001210 -0.003695 0.000000 -0.001201 0.000000
# 2 -0.001210 0.020997 -0.007221 0.000000 0.001614 0.000000
# 3 -0.003695 -0.007221 0.014550 0.000000 -0.001405 0.000000
# 4 0.000000 0.000000 0.000000 0.051756 0.000000 0.009166
# 5 -0.001201 0.001614 -0.001405 0.000000 0.040041 0.000000
# 6 0.000000 0.000000 0.000000 0.009166 0.000000 0.132975
#
#
# Mechanical properties :
#
#
# Convention : Reuss Voigt Hill
#
# Bulk Modulus (GPa) = 39.96102 42.84049 41.40076
# Shear Modulus (GPa) = 16.30560 21.06935 18.68747
#
# Velocity S-wave (km/s) = 2.97069 3.37687 3.18027
# Velocity P-wave (km/s) = 5.77880 6.19602 5.99104
#
# Compressibility (1/GPa) = 0.02502438
#
# Stress axis : x y z
#
# Youngs Moduli (GPa) = 72.83671 47.62605 68.72671
#
# Poissons Ratio (x) = 0.05762 0.25394
# Poissons Ratio (y) = 0.08813 0.49629
# Poissons Ratio (z) = 0.26913 0.34392
#
# Static dielectric constant tensor:
#      x y z
#    x 1.685930 0.000000 0.002130 
#    y 0.000000 1.627210 0.000000 
#    z 0.002130 0.000000 1.699690 
# 
# From -- ./inp_files/133898.got.cif
#   From: 2010.05.17/outbox.cif.g08.bks.cpg/sg12_67_cif.got.tgz:133898.got - 2010.06.03 13:09:07.
