data_PCOD9218425
_publ_section_title
;
Structure prediction by ZEFSAII (Michael W. Deem and Ramdas Pophale) SiO2 
 PCOD9218425
Probable space group: C 2/M
;
_chemical_formula_sum "Si O2"
_cell_formula_units_Z 48
_cell_length_a 11.327714
_cell_length_b 27.771660
_cell_length_c 14.186321
_cell_angle_alpha 90.000000
_cell_angle_beta 149.096479
_cell_angle_gamma 90.000000
_cell_volume 2292.101387
_symmetry_space_group_name_H-M "C 2/M"
_symmetry_group_IT_number 12
_symmetry_cell_setting 'monoclinic'
loop_
_space_group_symop_operation_xyz
x,y,z
-x,y,-z
-x,-y,-z
x,-y,z
1/2+x,1/2+y,z
1/2-x,1/2+y,-z
1/2-x,1/2-y,-z
1/2+x,1/2-y,z
loop_
_atom_site_type_symbol
_atom_site_label
_atom_site_fract_x
_atom_site_fract_y
_atom_site_fract_z
Si Si1 0.945241 0.000000 0.238588
Si Si2 0.479319 0.707798 0.371224
Si Si3 0.577112 0.819926 0.442147
Si Si4 0.391681 0.075477 0.052995
Si Si5 0.000000 0.661568 0.000000
Si Si6 0.246946 0.000000 0.621562
Si Si7 0.259100 0.400707 0.855045
Si Si8 0.734452 0.000000 0.719546
O O1 0.053842 0.000000 0.208703
O O2 0.768621 0.044915 0.128421
O O3 0.166224 0.000000 0.457896
O O4 0.500000 0.698911 0.500000
O O5 0.498895 0.765168 0.368700
O O6 0.667102 0.681667 0.430991
O O7 0.228522 0.691723 0.167921
O O8 0.500000 0.826604 0.500000
O O9 0.446635 0.864265 0.304646
O O10 0.230592 0.086459 0.029479
O O11 0.599158 0.044474 0.238766
O O12 0.479687 0.124884 0.072496
O O13 0.000000 0.000000 0.500000
O O14 0.240491 0.451027 0.785259
O O15 0.500000 0.375372 0.000000
O O16 0.500000 0.000000 0.500000
#
# Coordination Sequence:
#
# PCOD9218425 Si02
#       8
#     4   8   8   8   4   4   8   4
#     4  11  22  43  63  85 136 178 220 274 328 396
#     4  10  24  49  69 100 140 176 226 285 342 409
#     4  10  24  45  71 100 136 177 227 285 338 409
#     4  11  25  42  61  99 128 171 226 272 328 401
#     4  12  26  41  74  96 134 179 220 280 348 402
#     4  11  24  42  64  88 127 176 224 272 324 390
#     4  12  24  40  65  98 137 173 222 281 336 401
#     4  12  23  39  64  94 130 183 217 271 342 393
#
# _framework density 20.941481
#
# number of rings (size 3 to 8) (size 9 to 14) (size 15 to 20)
#    0.000    1.000    1.667    4.750    3.500    7.333 
#    0.000    3.333    0.000    0.000    0.000    0.000 
#    0.000    0.000    0.000    0.000    0.000    0.000 
#
# Total GULP energy -133903.271640 kJ/mol
# GULP energy per Si atom -5579.302985 kJ/mol
# Density = 2.089382 g / cm^3
# Si number density = 20.941481 Si / 1000 Ang^3
#
#
#
# Elastic Constant Matrix: (Units=GPa)
#
#
# Indices 1 2 3 4 5 6 
#
# 1 116.2137 26.3152 36.5235 0.0000 14.6090 0.0000
# 2 26.3152 59.3263 54.9358 0.0000 8.3470 0.0000
# 3 36.5235 54.9358 130.1987 0.0000 20.9194 0.0001
# 4 0.0000 0.0000 0.0000 19.4231 0.0000 17.4641
# 5 14.6090 8.3470 20.9194 0.0000 41.8018 0.0000
# 6 0.0000 0.0000 0.0001 17.4641 0.0000 4.4246
#
#
#
# Elastic Compliance Matrix: (Units=1/GPa)
#
#
# Indices 1 2 3 4 5 6 
#
# 1 0.009938 -0.003028 -0.001141 0.000000 -0.002297 0.000000
# 2 -0.003028 0.028592 -0.011383 0.000000 0.001045 0.000000
# 3 -0.001141 -0.011383 0.013456 0.000000 -0.004062 0.000000
# 4 0.000000 0.000000 0.000000 -0.020199 0.000000 0.079725
# 5 -0.002297 0.001045 -0.004062 0.000000 0.026550 0.000000
# 6 0.000000 0.000000 0.000000 0.079725 0.000000 -0.088668
#
#
# Mechanical properties :
#
#
# Convention : Reuss Voigt Hill
#
# Bulk Modulus (GPa) = 47.88690 60.14308 54.01499
# Shear Modulus (GPa) = 646.47076 25.66085 336.06580
#
# Velocity S-wave (km/s) = 17.58902 3.50431 12.68176
# Velocity P-wave (km/s) = 20.86660 6.71979 15.50113
#
# Compressibility (1/GPa) = 0.02088254
#
# Stress axis : x y z
#
# Youngs Moduli (GPa) = 100.62436 34.97427 74.31583
#
# Poissons Ratio (x) = 0.10592 0.08478
# Poissons Ratio (y) = 0.30474 0.84591
# Poissons Ratio (z) = 0.11479 0.39810
#
# Static dielectric constant tensor:
#      x y z
#    x 1.891360 0.000000 -0.011520 
#    y 0.000000 1.683130 0.000000 
#    z -0.011520 0.000000 1.741210 
# 
# From -- ./inp_files/209506.got.cif
#   From: 2010.05.17/outbox.cif.g08.bks.cpg/sg12_105_cif.got.tgz:209506.got - 2010.06.03 13:09:07.
