data_PCOD9218752
_publ_section_title
;
Structure prediction by ZEFSAII (Michael W. Deem and Ramdas Pophale) SiO2 
 PCOD9218752
Probable space group: C 2/M
;
_chemical_formula_sum "Si O2"
_cell_formula_units_Z 32
_cell_length_a 11.191458
_cell_length_b 9.806142
_cell_length_c 29.408757
_cell_angle_alpha 90.000000
_cell_angle_beta 156.495818
_cell_angle_gamma 90.000000
_cell_volume 1287.164618
_symmetry_space_group_name_H-M "C 2/M"
_symmetry_group_IT_number 12
_symmetry_cell_setting 'monoclinic'
loop_
_space_group_symop_operation_xyz
x,y,z
-x,y,-z
-x,-y,-z
x,-y,z
1/2+x,1/2+y,z
1/2-x,1/2+y,-z
1/2-x,1/2-y,-z
1/2+x,1/2-y,z
loop_
_atom_site_type_symbol
_atom_site_label
_atom_site_fract_x
_atom_site_fract_y
_atom_site_fract_z
Si Si1 0.663088 0.500000 0.365287
Si Si2 0.000000 0.252553 0.000000
Si Si3 0.615254 0.000000 0.367286
Si Si4 0.278908 0.500000 0.147346
Si Si5 0.012430 0.770391 0.627806
Si Si6 0.064859 0.500000 0.251424
Si Si7 0.271730 0.000000 0.049480
O O1 0.572969 0.500000 0.281564
O O2 0.536134 0.368164 0.345831
O O3 0.000000 0.500000 0.500000
O O4 0.759792 0.361752 0.895928
O O5 0.901892 0.146170 0.006087
O O6 0.484150 0.873912 0.348345
O O7 0.000000 0.000000 0.500000
O O8 0.441225 0.000000 0.258501
O O9 0.003094 0.500000 0.088443
O O10 0.750000 0.750000 0.500000
O O11 0.255391 0.857154 0.685492
O O12 0.918845 0.500000 0.151176
#
# Coordination Sequence:
#
# PCOD9218752 Si02
#       7
#     4   4   4   4   8   4   4
#     4  11  25  41  67  99 143 185 221 281 339 410
#     4  10  26  44  78 104 130 184 232 290 354 412
#     4  12  22  38  63  89 131 181 229 274 328 400
#     4  11  23  49  69 103 147 176 231 288 347 413
#     4  11  22  41  59  92 133 181 229 271 329 406
#     4  11  25  40  63  94 134 174 221 292 335 400
#     4  11  23  46  73 101 135 173 236 291 352 405
#
# _framework density 24.860845999999999
#
# number of rings (size 3 to 8) (size 9 to 14) (size 15 to 20)
#    0.000    1.000    5.000    2.250    3.500    0.000 
#    0.000    2.500    0.000    0.000    0.000    0.000 
#    0.000    0.000    0.000    0.000    0.000    0.000 
#
# Total GULP energy -89203.630335 kJ/mol
# GULP energy per Si atom -5575.226896 kJ/mol
# Density = 2.480426 g / cm^3
# Si number density = 24.860846 Si / 1000 Ang^3
#
#
#
# Elastic Constant Matrix: (Units=GPa)
#
#
# Indices 1 2 3 4 5 6 
#
# 1 81.3618 43.7128 -0.7658 0.0004 -8.1016 -0.0012
# 2 43.7128 240.9960 30.7254 0.0005 -10.7338 -0.0021
# 3 -0.7658 30.7254 94.8353 -0.0020 -26.2428 0.0042
# 4 0.0004 0.0005 -0.0020 -246.7807 0.0010 654.8130
# 5 -8.1016 -10.7338 -26.2428 0.0010 43.7411 -0.0023
# 6 -0.0012 -0.0021 0.0042 654.8130 -0.0023-1602.1915
#
#
#
# Elastic Compliance Matrix: (Units=1/GPa)
#
#
# Indices 1 2 3 4 5 6 
#
# 1 0.014028 -0.002640 0.001809 0.000000 0.003036 0.000000
# 2 -0.002640 0.004828 -0.001670 0.000000 -0.000306 0.000000
# 3 0.001809 -0.001670 0.013285 0.000000 0.007896 0.000000
# 4 0.000000 0.000000 0.000000 0.047984 0.000000 0.019611
# 5 0.003036 -0.000306 0.007896 0.000000 0.028086 0.000000
# 6 0.000000 0.000000 0.000000 0.019611 0.000000 0.007391
#
#
# Mechanical properties :
#
#
# Convention : Reuss Voigt Hill
#
# Bulk Modulus (GPa) = 36.84847 62.72646 49.78746
# Shear Modulus (GPa) = 38.56513 -338.14485 -149.78986
#
# Velocity S-wave (km/s) = 3.94285 -11.67520 -7.77059
# Velocity P-wave (km/s) = 5.96508 12.50845 7.77429
#
# Compressibility (1/GPa) = 0.02713817
#
# Stress axis : x y z
#
# Youngs Moduli (GPa) = 71.28399 207.14344 75.27177
#
# Poissons Ratio (x) = 0.54684 -0.13613
# Poissons Ratio (y) = 0.18818 0.12572
# Poissons Ratio (z) = -0.12892 0.34596
#
# Static dielectric constant tensor:
#      x y z
#    x 1.892000 0.000000 -0.020010 
#    y 0.000000 1.174970 0.000000 
#    z -0.020010 0.000000 1.805140 
# 
# From -- ./inp_files/294970.got.cif
#   From: 2010.05.17/outbox.cif.g08.bks.cpg/sg12_148_cif.got.tgz:294970.got - 2010.06.03 13:09:07.
