data_PCOD9218953
_publ_section_title
;
Structure prediction by ZEFSAII (Michael W. Deem and Ramdas Pophale) SiO2 
 PCOD9218953
Probable space group: C 2/M
;
_chemical_formula_sum "Si O2"
_cell_formula_units_Z 56
_cell_length_a 18.258114
_cell_length_b 29.083807
_cell_length_c 9.722277
_cell_angle_alpha 90.000000
_cell_angle_beta 138.493585
_cell_angle_gamma 90.000000
_cell_volume 3421.327789
_symmetry_space_group_name_H-M "C 2/M"
_symmetry_group_IT_number 12
_symmetry_cell_setting 'monoclinic'
loop_
_space_group_symop_operation_xyz
x,y,z
-x,y,-z
-x,-y,-z
x,-y,z
1/2+x,1/2+y,z
1/2-x,1/2+y,-z
1/2-x,1/2-y,-z
1/2+x,1/2-y,z
loop_
_atom_site_type_symbol
_atom_site_label
_atom_site_fract_x
_atom_site_fract_y
_atom_site_fract_z
Si Si1 0.864010 0.000000 0.916088
Si Si2 0.315044 0.690448 0.942510
Si Si3 0.948190 0.716398 0.075555
Si Si4 0.081472 0.085967 0.491487
Si Si5 0.900500 0.261877 0.465859
Si Si6 0.714900 0.326987 0.777462
Si Si7 0.081031 0.098400 0.982478
Si Si8 0.622952 0.500000 0.376458
O O1 0.842300 0.947066 0.931451
O O2 0.825213 0.000000 0.702069
O O3 0.993832 0.000000 0.146597
O O4 0.393672 0.732950 0.014147
O O5 0.319562 0.682767 0.113007
O O6 0.192187 0.705888 0.730621
O O7 0.349221 0.644684 0.909944
O O8 0.046065 0.716241 0.324250
O O9 0.846613 0.681167 0.955897
O O10 0.000000 0.709874 0.000000
O O11 0.166061 0.124092 0.664690
O O12 0.000000 0.069987 0.500000
O O13 0.140682 0.044195 0.496097
O O14 0.998993 0.105792 0.260045
O O15 0.842088 0.212167 0.397966
O O16 0.000000 0.255431 0.500000
O O17 0.000000 0.090932 0.000000
#
# Coordination Sequence:
#
# PCOD9218953 Si02
#       8
#     4   8   8   8   8   8   8   4
#     4   9  16  34  48  70 108 140 156 206 260 303
#     4  11  21  33  54  79  98 138 179 204 250 306
#     4  11  23  37  51  75 107 133 172 220 247 290
#     4  11  19  30  52  77 104 135 168 205 253 305
#     4  11  19  36  57  68 101 145 170 202 257 299
#     4  11  21  34  53  77 103 136 174 209 253 299
#     4  11  19  32  51  75 107 135 167 208 250 304
#     4   9  17  32  48  72 106 138 164 197 261 311
#
# _framework density 16.367913999999999
#
# number of rings (size 3 to 8) (size 9 to 14) (size 15 to 20)
#    0.000    1.286    7.143    2.786    0.000    3.429 
#    0.000    0.000    0.000    0.000    0.000    2.000 
#    0.000    0.000    0.000    0.000    0.000    0.000 
#
# Total GULP energy -155959.524129 kJ/mol
# GULP energy per Si atom -5569.983005 kJ/mol
# Density = 1.633066 g / cm^3
# Si number density = 16.367914 Si / 1000 Ang^3
#
#
#
# Elastic Constant Matrix: (Units=GPa)
#
#
# Indices 1 2 3 4 5 6 
#
# 1 44.4315 5.0220 11.1036 0.0000 -7.7859 0.0000
# 2 5.0220 99.8933 28.2783 0.0000 11.9102 0.0000
# 3 11.1036 28.2783 78.3521 0.0000 -5.3412 0.0000
# 4 0.0000 0.0000 0.0000 22.8303 0.0000 -5.3804
# 5 -7.7859 11.9102 -5.3412 0.0000 22.2860 0.0000
# 6 0.0000 0.0000 0.0000 -5.3804 0.0000 16.4264
#
#
#
# Elastic Compliance Matrix: (Units=1/GPa)
#
#
# Indices 1 2 3 4 5 6 
#
# 1 0.024853 -0.001674 -0.002303 0.000000 0.009025 0.000000
# 2 -0.001674 0.012466 -0.004835 0.000000 -0.008405 0.000000
# 3 -0.002303 -0.004835 0.015204 0.000000 0.005423 0.000000
# 4 0.000000 0.000000 0.000000 0.047466 0.000000 0.015547
# 5 0.009025 -0.008405 0.005423 0.000000 0.053816 0.000000
# 6 0.000000 0.000000 0.000000 0.015547 0.000000 0.065970
#
#
# Mechanical properties :
#
#
# Convention : Reuss Voigt Hill
#
# Bulk Modulus (GPa) = 28.65342 34.60943 31.63143
# Shear Modulus (GPa) = 20.07795 24.19341 22.13568
#
# Velocity S-wave (km/s) = 3.50618 3.84878 3.68146
# Velocity P-wave (km/s) = 5.82537 6.39854 6.11867
#
# Compressibility (1/GPa) = 0.03489985
#
# Stress axis : x y z
#
# Youngs Moduli (GPa) = 40.23714 80.22034 65.77266
#
# Poissons Ratio (x) = 0.13426 0.15145
# Poissons Ratio (y) = 0.06734 0.31800
# Poissons Ratio (z) = 0.09265 0.38785
#
# Static dielectric constant tensor:
#      x y z
#    x 1.569010 0.000000 -0.030590 
#    y 0.000000 1.590660 0.000000 
#    z -0.030590 0.000000 1.578850 
# 
# From -- ./inp_files/80528.got.cif
#   From: 2010.05.17/outbox.cif.g08.bks.cpg/sg12_41_cif.got.tgz:80528.got - 2010.06.03 13:09:07.
