data_PCOD9218050
_publ_section_title
;
Structure prediction by ZEFSAII (Michael W. Deem and Ramdas Pophale) SiO2 
 PCOD9218050
Probable space group: C 2/M
;
_chemical_formula_sum "Si O2"
_cell_formula_units_Z 40
_cell_length_a 9.180977
_cell_length_b 27.932232
_cell_length_c 15.445792
_cell_angle_alpha 90.000000
_cell_angle_beta 27.366753
_cell_angle_gamma 90.000000
_cell_volume 1820.809939
_symmetry_space_group_name_H-M "C 2/M"
_symmetry_group_IT_number 12
_symmetry_cell_setting 'monoclinic'
loop_
_space_group_symop_operation_xyz
x,y,z
-x,y,-z
-x,-y,-z
x,-y,z
1/2+x,1/2+y,z
1/2-x,1/2+y,-z
1/2-x,1/2-y,-z
1/2+x,1/2-y,z
loop_
_atom_site_type_symbol
_atom_site_label
_atom_site_fract_x
_atom_site_fract_y
_atom_site_fract_z
Si Si1 0.955656 0.687174 0.431230
Si Si2 0.827848 0.384706 0.182928
Si Si3 0.372058 0.893394 0.795337
Si Si4 0.203293 0.553719 0.480058
Si Si5 0.246787 0.723686 0.792852
O O1 0.612112 0.711470 0.621767
O O2 0.000000 0.661360 0.500000
O O3 0.991064 0.653356 0.328783
O O4 0.217339 0.729168 0.283789
O O5 0.485294 0.408077 0.346435
O O6 0.849659 0.327837 0.193481
O O7 0.981648 0.405237 0.188437
O O8 0.000000 0.390774 0.000000
O O9 0.458604 0.936680 0.686412
O O10 0.000000 0.885631 0.000000
O O11 0.338265 0.500000 0.411889
O O12 0.000000 0.557949 0.500000
O O13 0.000000 0.733717 0.000000
#
# Coordination Sequence:
#
# PCOD9218050 Si02
#       5
#     8   8   8   8   8
#     4  11  25  40  65  98 140 183 229 282 335 396
#     4  11  25  45  70  99 136 180 227 281 336 403
#     4  12  26  43  69 100 138 181 229 277 339 401
#     4  11  25  47  74 103 135 171 219 279 345 411
#     4  10  24  41  64  96 136 182 232 276 332 397
#
# _framework density 21.968245
#
# number of rings (size 3 to 8) (size 9 to 14) (size 15 to 20)
#    0.000    1.000    2.000    3.000   11.200    3.200 
#    0.000    0.000    0.000    0.000    0.000    0.000 
#    0.000    0.000    0.000    0.000    0.000    0.000 
#
# Total GULP energy -111565.983278 kJ/mol
# GULP energy per Si atom -5578.299164 kJ/mol
# Density = 2.191824 g / cm^3
# Si number density = 21.968245 Si / 1000 Ang^3
#
#
#
# Elastic Constant Matrix: (Units=GPa)
#
#
# Indices 1 2 3 4 5 6 
#
# 1 164.0149 19.2270 53.2682 0.0000 24.5194 0.0000
# 2 19.2270 80.2700 32.4137 0.0000 11.1138 0.0000
# 3 53.2682 32.4137 147.4643 0.0000 -1.0755 0.0000
# 4 0.0000 0.0000 0.0000 -17.0418 0.0000 -13.6621
# 5 24.5194 11.1138 -1.0755 0.0000 23.0389 0.0000
# 6 0.0000 0.0000 0.0000 -13.6621 0.0000 0.9476
#
#
#
# Elastic Compliance Matrix: (Units=1/GPa)
#
#
# Indices 1 2 3 4 5 6 
#
# 1 0.008511 0.000599 -0.003275 0.000000 -0.009499 0.000000
# 2 0.000599 0.014846 -0.003538 0.000000 -0.007964 0.000000
# 3 -0.003275 -0.003538 0.008783 0.000000 0.005602 0.000000
# 4 0.000000 0.000000 0.000000 -0.004672 0.000000 -0.067367
# 5 -0.009499 -0.007964 0.005602 0.000000 0.057618 0.000000
# 6 0.000000 0.000000 0.000000 -0.067367 0.000000 0.084032
#
#
# Mechanical properties :
#
#
# Convention : Reuss Voigt Hill
#
# Bulk Modulus (GPa) = 50.73126 66.84080 58.78603
# Shear Modulus (GPa) = 26.57953 20.51163 23.54558
#
# Velocity S-wave (km/s) = 3.48215 3.05896 3.27739
# Velocity P-wave (km/s) = 6.26979 6.55503 6.41400
#
# Compressibility (1/GPa) = 0.01971171
#
# Stress axis : x y z
#
# Youngs Moduli (GPa) = 117.50045 67.35966 113.85756
#
# Poissons Ratio (x) = -0.04037 0.37292
# Poissons Ratio (y) = -0.07042 0.40280
# Poissons Ratio (z) = 0.38485 0.23830
#
# Static dielectric constant tensor:
#      x y z
#    x 1.791830 0.000000 -0.032380 
#    y 0.000000 1.876410 0.000000 
#    z -0.032380 0.000000 1.816180 
# 
# From -- ./inp_files/201120.got.cif
#   From: 2010.05.17/outbox.cif.g08.bks.cpg/sg12_101_cif.got.tgz:201120.got - 2010.06.03 13:09:07.
