data_PCOD9218453
_publ_section_title
;
Structure prediction by ZEFSAII (Michael W. Deem and Ramdas Pophale) SiO2 
 PCOD9218453
Probable space group: C 2/M
;
_chemical_formula_sum "Si O2"
_cell_formula_units_Z 40
_cell_length_a 11.827825
_cell_length_b 13.899127
_cell_length_c 11.138676
_cell_angle_alpha 90.000000
_cell_angle_beta 77.096336
_cell_angle_gamma 90.000000
_cell_volume 1784.916296
_symmetry_space_group_name_H-M "C 2/M"
_symmetry_group_IT_number 12
_symmetry_cell_setting 'monoclinic'
loop_
_space_group_symop_operation_xyz
x,y,z
-x,y,-z
-x,-y,-z
x,-y,z
1/2+x,1/2+y,z
1/2-x,1/2+y,-z
1/2-x,1/2-y,-z
1/2+x,1/2-y,z
loop_
_atom_site_type_symbol
_atom_site_label
_atom_site_fract_x
_atom_site_fract_y
_atom_site_fract_z
Si Si1 0.608936 0.395063 0.405962
Si Si2 0.639334 0.385614 0.954129
Si Si3 0.195633 0.236441 0.169903
Si Si4 0.315421 0.149314 0.495173
Si Si5 0.955508 0.610977 0.705752
O O1 0.500000 0.348453 0.500000
O O2 0.571849 0.500000 0.365406
O O3 0.661926 0.327888 0.291798
O O4 0.706691 0.411360 0.480628
O O5 0.667714 0.500000 0.927934
O O6 0.696341 0.340015 0.061202
O O7 0.500000 0.379948 0.000000
O O8 0.692213 0.307122 0.847810
O O9 0.091377 0.314611 0.184920
O O10 0.250000 0.250000 0.500000
O O11 0.370538 0.123714 0.610117
O O12 0.418304 0.136964 0.374701
O O13 0.953652 0.500000 0.744515
#
# Coordination Sequence:
#
# PCOD9218453 Si02
#       5
#     8   8   8   8   8
#     4  11  23  39  62  98 138 173 210 260 320 385
#     4  10  24  46  68  91 122 165 218 272 328 384
#     4  11  23  40  68  95 125 164 216 267 321 380
#     4  11  21  38  59  88 134 174 211 249 306 379
#     4  11  23  39  61  92 130 173 213 256 311 379
#
# _framework density 22.410014
#
# number of rings (size 3 to 8) (size 9 to 14) (size 15 to 20)
#    0.000    1.200    2.000    4.800    2.800    1.600 
#    0.000    2.000    0.000    3.600    0.000    0.000 
#    0.000    0.000    0.000    0.000    0.000    0.000 
#
# Total GULP energy -111504.118565 kJ/mol
# GULP energy per Si atom -5575.205928 kJ/mol
# Density = 2.235901 g / cm^3
# Si number density = 22.410014 Si / 1000 Ang^3
#
#
#
# Elastic Constant Matrix: (Units=GPa)
#
#
# Indices 1 2 3 4 5 6 
#
# 1 110.9688 24.9170 20.9436 0.0000 -26.9423 0.0000
# 2 24.9170 176.7565 26.7651 0.0000 -8.6360 0.0000
# 3 20.9436 26.7651 67.4058 0.0000 -23.3796 0.0000
# 4 0.0000 0.0000 0.0000 46.8918 0.0000 -18.5102
# 5 -26.9423 -8.6360 -23.3796 0.0000 26.4093 0.0000
# 6 0.0000 0.0000 0.0000 -18.5102 0.0000 39.2520
#
#
#
# Elastic Compliance Matrix: (Units=1/GPa)
#
#
# Indices 1 2 3 4 5 6 
#
# 1 0.012270 -0.001278 0.001287 0.000000 0.013239 0.000000
# 2 -0.001278 0.006153 -0.002598 0.000000 -0.001592 0.000000
# 3 0.001287 -0.002598 0.022553 0.000000 0.020429 0.000000
# 4 0.000000 0.000000 0.000000 0.026204 0.000000 0.012357
# 5 0.013239 -0.001592 0.020429 0.000000 0.068936 0.000000
# 6 0.000000 0.000000 0.000000 0.012357 0.000000 0.031304
#
#
# Mechanical properties :
#
#
# Convention : Reuss Voigt Hill
#
# Bulk Modulus (GPa) = 27.93452 55.59806 41.76629
# Shear Modulus (GPa) = 27.09573 41.34430 34.22001
#
# Velocity S-wave (km/s) = 3.48097 4.29989 3.91192
# Velocity P-wave (km/s) = 5.35243 7.03672 6.25156
#
# Compressibility (1/GPa) = 0.03579800
#
# Stress axis : x y z
#
# Youngs Moduli (GPa) = 81.50055 162.51419 44.33960
#
# Poissons Ratio (x) = 0.20764 -0.05706
# Poissons Ratio (y) = 0.10413 0.11521
# Poissons Ratio (z) = -0.10488 0.42227
#
# Static dielectric constant tensor:
#      x y z
#    x 1.833610 0.000000 -0.013990 
#    y 0.000000 1.850500 0.000000 
#    z -0.013990 0.000000 1.909810 
# 
# From -- ./inp_files/129584.got.cif
#   From: 2010.05.17/outbox.cif.g08.bks.cpg/sg12_65_cif.got.tgz:129584.got - 2010.06.03 13:09:07.
