data_PCOD9218083
_publ_section_title
;
Structure prediction by ZEFSAII (Michael W. Deem and Ramdas Pophale) SiO2 
 PCOD9218083
Probable space group: C 2/M
;
_chemical_formula_sum "Si O2"
_cell_formula_units_Z 64
_cell_length_a 16.894255
_cell_length_b 19.781769
_cell_length_c 13.857106
_cell_angle_alpha 90.000000
_cell_angle_beta 34.940825
_cell_angle_gamma 90.000000
_cell_volume 2652.324929
_symmetry_space_group_name_H-M "C 2/M"
_symmetry_group_IT_number 12
_symmetry_cell_setting 'monoclinic'
loop_
_space_group_symop_operation_xyz
x,y,z
-x,y,-z
-x,-y,-z
x,-y,z
1/2+x,1/2+y,z
1/2-x,1/2+y,-z
1/2-x,1/2-y,-z
1/2+x,1/2-y,z
loop_
_atom_site_type_symbol
_atom_site_label
_atom_site_fract_x
_atom_site_fract_y
_atom_site_fract_z
Si Si1 0.008088 0.576411 0.096596
Si Si2 0.601281 0.310320 0.981482
Si Si3 0.194021 0.576773 0.217508
Si Si4 0.645437 0.725710 0.473291
Si Si5 0.424393 0.079202 0.385487
Si Si6 0.156649 0.215537 0.235056
Si Si7 0.164186 0.846924 0.643757
Si Si8 0.806635 0.071871 0.885225
O O1 0.945587 0.500000 0.149344
O O2 0.951573 0.610167 0.251406
O O3 0.000000 0.610523 0.000000
O O4 0.168407 0.568427 0.959645
O O5 0.708699 0.366419 0.832734
O O6 0.702584 0.255853 0.930357
O O7 0.500000 0.281544 0.000000
O O8 0.489900 0.346592 0.161528
O O9 0.199515 0.500000 0.252024
O O10 0.035460 0.598264 0.356346
O O11 0.255273 0.574165 0.046997
O O12 0.664014 0.706924 0.343472
O O13 0.488004 0.752700 0.642757
O O14 0.755240 0.781897 0.394089
O O15 0.661013 0.664526 0.532164
O O16 0.265914 0.092202 0.567446
O O17 0.452958 0.000000 0.344785
O O18 0.137550 0.143455 0.204245
O O19 0.884510 0.000000 0.794618
#
# Coordination Sequence:
#
# PCOD9218083 Si02
#       8
#     8   8   8   8   8   8   8   8
#     4   8  15  28  50  85 123 160 202 243 292 365
#     4  12  25  42  66  97 123 167 226 280 324 375
#     4   9  20  41  65  94 132 171 215 262 322 392
#     4  10  24  42  62  87 127 174 210 261 328 382
#     4   9  19  37  62  93 128 170 209 257 324 393
#     4  11  23  43  64  92 129 171 217 263 321 397
#     4  11  23  41  62  93 128 164 213 273 326 382
#     4   9  19  35  61  94 127 162 205 256 312 386
#
# _framework density 24.129774999999999
#
# number of rings (size 3 to 8) (size 9 to 14) (size 15 to 20)
#    0.000    2.125    1.250    3.000    1.750    7.250 
#    0.000    1.875    0.000    1.500    0.000    0.000 
#    0.000    0.000    0.000    0.000    0.000    0.000 
#
# Total GULP energy -178610.789537 kJ/mol
# GULP energy per Si atom -5581.587173 kJ/mol
# Density = 2.407485 g / cm^3
# Si number density = 24.129775 Si / 1000 Ang^3
#
#
#
# Elastic Constant Matrix: (Units=GPa)
#
#
# Indices 1 2 3 4 5 6 
#
# 1 101.7803 17.7146 49.8412 -0.0018 -13.3460 0.0009
# 2 17.7146 90.7256 20.3510 -0.0010 -15.0777 0.0005
# 3 49.8412 20.3510 95.7532 -0.0035 -25.8243 0.0024
# 4 -0.0018 -0.0010 -0.0035 27.8463 0.0027 -7.6390
# 5 -13.3460 -15.0777 -25.8243 0.0027 48.8869 -0.0017
# 6 0.0009 0.0005 0.0024 -7.6390 -0.0017 16.2572
#
#
#
# Elastic Compliance Matrix: (Units=1/GPa)
#
#
# Indices 1 2 3 4 5 6 
#
# 1 0.013292 -0.001128 -0.006757 0.000000 -0.000288 0.000000
# 2 -0.001128 0.011971 -0.001218 0.000000 0.002741 0.000000
# 3 -0.006757 -0.001218 0.015884 0.000001 0.006170 -0.000001
# 4 0.000000 0.000000 0.000001 0.041225 -0.000001 0.019371
# 5 -0.000288 0.002741 0.006170 -0.000001 0.024481 0.000001
# 6 0.000000 0.000000 -0.000001 0.019371 0.000001 0.070614
#
#
# Mechanical properties :
#
#
# Convention : Reuss Voigt Hill
#
# Bulk Modulus (GPa) = 43.58908 51.56365 47.57637
# Shear Modulus (GPa) = 24.59173 31.95490 28.27332
#
# Velocity S-wave (km/s) = 3.19587 3.64303 3.42675
# Velocity P-wave (km/s) = 5.63221 6.25390 5.95118
#
# Compressibility (1/GPa) = 0.02294152
#
# Stress axis : x y z
#
# Youngs Moduli (GPa) = 75.23086 83.53400 62.95788
#
# Poissons Ratio (x) = 0.09420 0.42541
# Poissons Ratio (y) = 0.08483 0.07669
# Poissons Ratio (z) = 0.50834 0.10176
#
# Static dielectric constant tensor:
#      x y z
#    x 1.947340 0.000000 0.045270 
#    y 0.000000 1.965020 0.000000 
#    z 0.045270 0.000000 1.940550 
# 
# From -- ./inp_files/228125.got.cif
#   From: 2010.05.17/outbox.cif.g08.bks.cpg/sg12_115_cif.got.tgz:228125.got - 2010.06.03 13:09:07.
