data_PCOD9218545
_publ_section_title
;
Structure prediction by ZEFSAII (Michael W. Deem and Ramdas Pophale) SiO2 
 PCOD9218545
Probable space group: C 2/M
;
_chemical_formula_sum "Si O2"
_cell_formula_units_Z 34
_cell_length_a 11.048110
_cell_length_b 14.875805
_cell_length_c 9.557513
_cell_angle_alpha 90.000000
_cell_angle_beta 117.905589
_cell_angle_gamma 90.000000
_cell_volume 1388.123282
_symmetry_space_group_name_H-M "C 2/M"
_symmetry_group_IT_number 12
_symmetry_cell_setting 'monoclinic'
loop_
_space_group_symop_operation_xyz
x,y,z
-x,y,-z
-x,-y,-z
x,-y,z
1/2+x,1/2+y,z
1/2-x,1/2+y,-z
1/2-x,1/2-y,-z
1/2+x,1/2-y,z
loop_
_atom_site_type_symbol
_atom_site_label
_atom_site_fract_x
_atom_site_fract_y
_atom_site_fract_z
Si Si1 0.648057 0.000000 0.646004
Si Si2 0.011569 0.500000 0.174116
Si Si3 0.000000 0.000000 0.500000
Si Si4 0.753391 0.367275 0.697640
Si Si5 0.327832 0.332220 0.745941
Si Si6 0.626416 0.607739 0.914837
O O1 0.500000 0.000000 0.500000
O O2 0.732971 0.086516 0.647049
O O3 0.622539 0.000000 0.801300
O O4 0.104557 0.414654 0.264740
O O5 0.000000 0.500000 0.000000
O O6 0.122125 0.077896 0.573410
O O7 0.765008 0.262643 0.672176
O O8 0.739290 0.377422 0.858774
O O9 0.484131 0.348746 0.784526
O O10 0.337377 0.346265 0.919560
O O11 0.598940 0.500000 0.914808
#
# Coordination Sequence:
#
# PCOD9218545 Si02
#       6
#     4   4   2   8   8   8
#     4  12  27  44  63 102 148 174 217 289 349 401
#     4  11  25  44  69  98 135 174 229 285 333 394
#     4  10  24  48  62  88 128 176 226 260 334 400
#     4  11  25  42  69  94 129 183 231 277 331 416
#     4  11  24  40  67 100 129 179 224 284 345 408
#     4  11  20  44  68  95 134 174 231 291 345 394
#
# _framework density 24.493499
#
# number of rings (size 3 to 8) (size 9 to 14) (size 15 to 20)
#    0.000    0.941    4.706    2.824    8.235    3.765 
#    0.000    2.353    0.000    0.000    0.000    0.000 
#    0.000    0.000    0.000    0.000    0.000    0.000 
#
# Total GULP energy -95013.016768 kJ/mol
# GULP energy per Si atom -5589.000986 kJ/mol
# Density = 2.443775 g / cm^3
# Si number density = 24.493499 Si / 1000 Ang^3
#
#
#
# Elastic Constant Matrix: (Units=GPa)
#
#
# Indices 1 2 3 4 5 6 
#
# 1 89.1160 38.7083 5.2272 0.0000 2.9605 0.0000
# 2 38.7083 262.0500 32.7831 0.0000 39.2695 0.0000
# 3 5.2272 32.7831 90.8792 0.0000 8.8444 0.0000
# 4 0.0000 0.0000 0.0000 22.5410 0.0000 9.8196
# 5 2.9605 39.2695 8.8444 0.0000 60.8279 0.0000
# 6 0.0000 0.0000 0.0000 9.8196 0.0000 14.4997
#
#
#
# Elastic Compliance Matrix: (Units=1/GPa)
#
#
# Indices 1 2 3 4 5 6 
#
# 1 0.012012 -0.001858 -0.000082 0.000000 0.000627 0.000000
# 2 -0.001858 0.004663 -0.001310 0.000000 -0.002730 0.000000
# 3 -0.000082 -0.001310 0.011562 0.000000 -0.000832 0.000000
# 4 0.000000 0.000000 0.000000 0.062929 0.000000 -0.042618
# 5 0.000627 -0.002730 -0.000832 0.000000 0.018293 0.000000
# 6 0.000000 0.000000 0.000000 -0.042618 0.000000 0.097829
#
#
# Mechanical properties :
#
#
# Convention : Reuss Voigt Hill
#
# Bulk Modulus (GPa) = 46.00116 66.16470 56.08293
# Shear Modulus (GPa) = 22.62103 43.92882 33.27493
#
# Velocity S-wave (km/s) = 3.04230 4.23955 3.68981
# Velocity P-wave (km/s) = 5.58234 7.14401 6.41091
#
# Compressibility (1/GPa) = 0.02173858
#
# Stress axis : x y z
#
# Youngs Moduli (GPa) = 83.24745 214.43335 86.49249
#
# Poissons Ratio (x) = 0.39844 0.00706
# Poissons Ratio (y) = 0.15468 0.11328
# Poissons Ratio (z) = 0.00680 0.28085
#
# Static dielectric constant tensor:
#      x y z
#    x 1.879280 0.000000 -0.075740 
#    y 0.000000 1.881430 0.000000 
#    z -0.075740 0.000000 2.047100 
# 
# From -- ./inp_files/128976.got.cif
#   From: 2010.05.17/outbox.cif.g08.bks.cpg/sg12_65_cif.got.tgz:128976.got - 2010.06.03 13:09:07.
