data_PCOD9218674
_publ_section_title
;
Structure prediction by ZEFSAII (Michael W. Deem and Ramdas Pophale) SiO2 
 PCOD9218674
Probable space group: C 2/M
;
_chemical_formula_sum "Si O2"
_cell_formula_units_Z 52
_cell_length_a 9.803364
_cell_length_b 20.574537
_cell_length_c 17.566958
_cell_angle_alpha 90.000000
_cell_angle_beta 45.375717
_cell_angle_gamma 90.000000
_cell_volume 2521.831446
_symmetry_space_group_name_H-M "C 2/M"
_symmetry_group_IT_number 12
_symmetry_cell_setting 'monoclinic'
loop_
_space_group_symop_operation_xyz
x,y,z
-x,y,-z
-x,-y,-z
x,-y,z
1/2+x,1/2+y,z
1/2-x,1/2+y,-z
1/2-x,1/2-y,-z
1/2+x,1/2-y,z
loop_
_atom_site_type_symbol
_atom_site_label
_atom_site_fract_x
_atom_site_fract_y
_atom_site_fract_z
Si Si1 0.339037 0.883221 0.000212
Si Si2 0.873407 0.344458 0.219770
Si Si3 0.727131 0.622780 0.718320
Si Si4 0.050544 0.000000 0.160353
Si Si5 0.446200 0.683427 0.362212
Si Si6 0.001443 0.789236 0.908670
Si Si7 0.616732 0.835826 0.604869
O O1 0.209277 0.943111 0.075886
O O2 0.194489 0.823105 0.042958
O O3 0.500000 0.868808 0.000000
O O4 0.470285 0.894482 0.874234
O O5 0.655509 0.348595 0.275539
O O6 0.949842 0.275539 0.157185
O O7 0.861930 0.347484 0.314383
O O8 0.609934 0.556910 0.759229
O O9 0.662258 0.668388 0.673721
O O10 0.664347 0.658931 0.820991
O O11 0.955158 0.618895 0.631551
O O12 0.456957 0.760837 0.372699
O O13 0.315231 0.657650 0.482208
O O14 0.000000 0.780783 0.000000
#
# Coordination Sequence:
#
# PCOD9218674 Si02
#       7
#     8   8   8   4   8   8   8
#     4  11  24  39  64  90 126 171 226 272 314 386
#     4  12  22  37  60  94 134 170 208 266 338 392
#     4  11  22  43  68  93 131 176 220 271 325 387
#     4  10  25  46  66  94 128 182 229 260 316 400
#     4  11  22  39  64  95 130 169 215 271 335 390
#     4  11  22  38  58  94 134 172 216 264 329 405
#     4  11  22  39  63  97 130 166 217 274 333 389
#
# _framework density 20.619935000000002
#
# number of rings (size 3 to 8) (size 9 to 14) (size 15 to 20)
#    0.000    0.923    3.077    4.846    0.000    2.462 
#    0.000   15.385    0.000    0.000    0.000    4.308 
#    0.000    0.000    0.000    0.000    0.000    0.000 
#
# Total GULP energy -144806.728901 kJ/mol
# GULP energy per Si atom -5569.489573 kJ/mol
# Density = 2.057300 g / cm^3
# Si number density = 20.619935 Si / 1000 Ang^3
#
#
#
# Elastic Constant Matrix: (Units=GPa)
#
#
# Indices 1 2 3 4 5 6 
#
# 1 96.2213 23.7445 31.5053 0.0000 5.4265 0.0000
# 2 23.7445 77.7228 24.6017 0.0000 -4.7987 0.0000
# 3 31.5053 24.6017 106.9569 0.0001 7.3576 0.0000
# 4 0.0000 0.0000 0.0001 18.0523 0.0000 -12.9515
# 5 5.4265 -4.7987 7.3576 0.0000 35.3578 0.0000
# 6 0.0000 0.0000 0.0000 -12.9515 0.0000 3.2443
#
#
#
# Elastic Compliance Matrix: (Units=1/GPa)
#
#
# Indices 1 2 3 4 5 6 
#
# 1 0.012120 -0.002926 -0.002782 0.000000 -0.001678 0.000000
# 2 -0.002926 0.014820 -0.002756 0.000000 0.003034 0.000000
# 3 -0.002782 -0.002756 0.010956 0.000000 -0.002227 0.000000
# 4 0.000000 0.000000 0.000000 -0.029717 0.000000 -0.118632
# 5 -0.001678 0.003034 -0.002227 0.000000 0.029415 0.000000
# 6 0.000000 0.000000 0.000000 -0.118632 0.000000 -0.165354
#
#
# Mechanical properties :
#
#
# Convention : Reuss Voigt Hill
#
# Bulk Modulus (GPa) = 47.68836 48.95601 48.32218
# Shear Modulus (GPa) = -48.14937 24.73417 -11.70760
#
# Velocity S-wave (km/s) = -4.83752 3.46718 -2.38540
# Velocity P-wave (km/s) = 2.83277 6.31047 3.98732
#
# Compressibility (1/GPa) = 0.02096948
#
# Stress axis : x y z
#
# Youngs Moduli (GPa) = 82.50708 67.47803 91.27459
#
# Poissons Ratio (x) = 0.19743 0.25390
# Poissons Ratio (y) = 0.24141 0.25151
# Poissons Ratio (z) = 0.22951 0.18594
#
# Static dielectric constant tensor:
#      x y z
#    x 1.762250 0.000000 0.007890 
#    y 0.000000 1.729740 0.000000 
#    z 0.007890 0.000000 1.797650 
# 
# From -- ./inp_files/258428.got.cif
#   From: 2010.05.17/outbox.cif.g08.bks.cpg/sg12_130_cif.got.tgz:258428.got - 2010.06.03 13:09:07.
