data_PCOD9218259
_publ_section_title
;
Structure prediction by ZEFSAII (Michael W. Deem and Ramdas Pophale) SiO2 
 PCOD9218259
Probable space group: C 2/M
;
_chemical_formula_sum "Si O2"
_cell_formula_units_Z 60
_cell_length_a 10.279649
_cell_length_b 33.316271
_cell_length_c 7.930163
_cell_angle_alpha 90.000000
_cell_angle_beta 102.566644
_cell_angle_gamma 90.000000
_cell_volume 2650.855173
_symmetry_space_group_name_H-M "C 2/M"
_symmetry_group_IT_number 12
_symmetry_cell_setting 'monoclinic'
loop_
_space_group_symop_operation_xyz
x,y,z
-x,y,-z
-x,-y,-z
x,-y,z
1/2+x,1/2+y,z
1/2-x,1/2+y,-z
1/2-x,1/2-y,-z
1/2+x,1/2-y,z
loop_
_atom_site_type_symbol
_atom_site_label
_atom_site_fract_x
_atom_site_fract_y
_atom_site_fract_z
Si Si1 0.575242 0.743773 0.758356
Si Si2 0.195723 0.171485 0.992388
Si Si3 0.599128 0.454926 0.270122
Si Si4 0.425112 0.818595 0.653487
Si Si5 0.705382 0.704155 0.361966
Si Si6 0.500000 0.607769 0.000000
Si Si7 0.885709 0.386478 0.857042
Si Si8 0.799398 0.954739 0.335073
O O1 0.647127 0.714915 0.913892
O O2 0.494947 0.784511 0.788838
O O3 0.446613 0.718437 0.658232
O O4 0.694856 0.759876 0.671833
O O5 0.322290 0.151872 0.938058
O O6 0.209034 0.175085 0.198483
O O7 0.083670 0.138784 0.912564
O O8 0.625126 0.500000 0.211129
O O9 0.447732 0.454316 0.298393
O O10 0.687827 0.447890 0.460227
O O11 0.600281 0.420905 0.129505
O O12 0.500000 0.811513 0.500000
O O13 0.271306 0.814099 0.549397
O O14 0.449012 0.863435 0.718003
O O15 0.783074 0.419806 0.772880
O O16 0.000000 0.405598 0.000000
O O17 0.746763 0.000000 0.294271
#
# Coordination Sequence:
#
# PCOD9218259 Si02
#       8
#     8   8   8   8   8   4   8   8
#     4  11  22  40  60  87 122 166 218 273 329 383
#     4  12  25  39  61  94 127 167 216 268 323 379
#     4   9  19  39  67  97 131 165 207 264 326 389
#     4  10  24  44  64  87 120 169 222 278 327 381
#     4  11  23  41  63  88 121 168 220 280 328 390
#     4  12  21  38  62 100 134 160 212 258 331 374
#     4  12  25  43  65  95 130 175 220 262 326 395
#     4   9  20  40  66  97 131 169 209 264 328 391
#
# _framework density 22.634205000000001
#
# number of rings (size 3 to 8) (size 9 to 14) (size 15 to 20)
#    0.000    1.333    2.667    4.200    1.867    4.533 
#    0.000    0.000    0.000    0.400    0.000    0.000 
#    0.000    0.000    0.000    0.000    0.000    0.000 
#
# Total GULP energy -167449.263969 kJ/mol
# GULP energy per Si atom -5581.642132 kJ/mol
# Density = 2.258269 g / cm^3
# Si number density = 22.634205 Si / 1000 Ang^3
#
#
#
# Elastic Constant Matrix: (Units=GPa)
#
#
# Indices 1 2 3 4 5 6 
#
# 1 55.0256 21.2112 13.1838 0.0000 18.0186 0.0000
# 2 21.2112 129.7261 63.6394 0.0000 18.7539 0.0000
# 3 13.1838 63.6394 80.6287 0.0000 19.7800 0.0000
# 4 0.0000 0.0000 0.0000 29.9877 0.0000 8.0332
# 5 18.0186 18.7539 19.7800 0.0000 30.2261 0.0000
# 6 0.0000 0.0000 0.0000 8.0332 0.0000 19.5997
#
#
#
# Elastic Compliance Matrix: (Units=1/GPa)
#
#
# Indices 1 2 3 4 5 6 
#
# 1 0.023128 -0.002624 0.001515 0.000000 -0.013151 0.000000
# 2 -0.002624 0.012939 -0.009765 0.000000 -0.000073 0.000000
# 3 0.001515 -0.009765 0.022154 0.000000 -0.009342 0.000000
# 4 0.000000 0.000000 0.000000 0.037460 0.000000 -0.015353
# 5 -0.013151 -0.000073 -0.009342 0.000000 0.047083 0.000000
# 6 0.000000 0.000000 0.000000 -0.015353 0.000000 0.057314
#
#
# Mechanical properties :
#
#
# Convention : Reuss Voigt Hill
#
# Bulk Modulus (GPa) = 27.41710 51.27212 39.34461
# Shear Modulus (GPa) = 21.36905 27.11909 24.24407
#
# Velocity S-wave (km/s) = 3.07596 3.46518 3.27636
# Velocity P-wave (km/s) = 4.97542 6.22187 5.63322
#
# Compressibility (1/GPa) = 0.03647359
#
# Stress axis : x y z
#
# Youngs Moduli (GPa) = 43.23738 77.28717 45.13793
#
# Poissons Ratio (x) = 0.20279 -0.06841
# Poissons Ratio (y) = 0.11345 0.44079
# Poissons Ratio (z) = -0.06553 0.75474
#
# Static dielectric constant tensor:
#      x y z
#    x 1.956710 0.000000 -0.023340 
#    y 0.000000 1.823630 0.000000 
#    z -0.023340 0.000000 1.946130 
# 
# From -- ./inp_files/54751.got.cif
#   From: 2010.05.17/outbox.cif.g08.bks.cpg/sg12_28_cif.got.tgz:54751.got - 2010.06.03 13:09:07.
