data_PCOD9218999
_publ_section_title
;
Structure prediction by ZEFSAII (Michael W. Deem and Ramdas Pophale) SiO2 
 PCOD9218999
Probable space group: C 2/M
;
_chemical_formula_sum "Si O2"
_cell_formula_units_Z 52
_cell_length_a 10.559231
_cell_length_b 28.410236
_cell_length_c 10.361237
_cell_angle_alpha 90.000000
_cell_angle_beta 80.577374
_cell_angle_gamma 90.000000
_cell_volume 3066.331962
_symmetry_space_group_name_H-M "C 2/M"
_symmetry_group_IT_number 12
_symmetry_cell_setting 'monoclinic'
loop_
_space_group_symop_operation_xyz
x,y,z
-x,y,-z
-x,-y,-z
x,-y,z
1/2+x,1/2+y,z
1/2-x,1/2+y,-z
1/2-x,1/2-y,-z
1/2+x,1/2-y,z
loop_
_atom_site_type_symbol
_atom_site_label
_atom_site_fract_x
_atom_site_fract_y
_atom_site_fract_z
Si Si1 0.000000 0.782520 0.000000
Si Si2 0.145217 0.227123 0.422354
Si Si3 0.947960 0.289127 0.789534
Si Si4 0.191162 0.552254 0.060534
Si Si5 0.752411 0.846852 0.008869
Si Si6 0.088098 0.447934 0.781943
Si Si7 0.686400 0.149892 0.715736
O O1 0.875902 0.814669 0.005254
O O2 0.988906 0.748982 0.125702
O O3 0.250000 0.250000 0.500000
O O4 0.136554 0.260497 0.298215
O O5 0.196713 0.175469 0.374814
O O6 0.000000 0.225126 0.500000
O O7 0.861923 0.323691 0.890152
O O8 0.060102 0.319425 0.706297
O O9 0.245914 0.500000 0.078093
O O10 0.273788 0.599621 0.053450
O O11 0.064545 0.558680 0.170447
O O12 0.142389 0.551553 0.919843
O O13 0.711584 0.846706 0.865670
O O14 0.110585 0.500000 0.722773
O O15 0.153495 0.404701 0.697473
#
# Coordination Sequence:
#
# PCOD9218999 Si02
#       7
#     4   8   8   8   8   8   8
#     4  12  22  30  47  80 109 144 172 210 264 322
#     4  12  26  40  53  74 110 151 188 221 258 312
#     4  12  21  35  54  79 107 139 177 219 263 322
#     4   8  14  26  45  73 108 136 161 204 261 324
#     4  11  20  31  52  80 109 139 174 215 268 323
#     4   8  14  26  48  78 104 128 167 212 263 318
#     4  11  19  34  56  79 107 139 175 220 269 312
#
# _framework density 16.958373999999999
#
# number of rings (size 3 to 8) (size 9 to 14) (size 15 to 20)
#    0.000    1.538    6.154    2.308    0.000    0.000 
#    0.000    0.385    0.000    0.462    0.000    3.231 
#    0.000    0.000    0.000    0.000    0.000    0.000 
#
# Total GULP energy -144957.955873 kJ/mol
# GULP energy per Si atom -5575.305995 kJ/mol
# Density = 1.691978 g / cm^3
# Si number density = 16.958374 Si / 1000 Ang^3
#
#
#
# Elastic Constant Matrix: (Units=GPa)
#
#
# Indices 1 2 3 4 5 6 
#
# 1 44.4352 28.7410 4.1154 0.0000 -6.0775 0.0000
# 2 28.7410 154.5845 23.1832 0.0000 -8.1471 0.0000
# 3 4.1154 23.1832 32.8101 0.0000 -4.6220 0.0000
# 4 0.0000 0.0000 0.0000 13.6194 0.0000 -8.9387
# 5 -6.0775 -8.1471 -4.6220 0.0000 29.1165 0.0000
# 6 0.0000 0.0000 0.0000 -8.9387 0.0000 7.3667
#
#
#
# Elastic Compliance Matrix: (Units=1/GPa)
#
#
# Indices 1 2 3 4 5 6 
#
# 1 0.026078 -0.004725 0.000663 0.000000 0.004226 0.000000
# 2 -0.004725 0.008136 -0.005088 0.000000 0.000483 0.000000
# 3 0.000663 -0.005088 0.034583 0.000000 0.004204 0.000000
# 4 0.000000 0.000000 0.000000 0.360603 0.000000 0.437554
# 5 0.004226 0.000483 0.004204 0.000000 0.036029 0.000000
# 6 0.000000 0.000000 0.000000 0.437554 0.000000 0.666673
#
#
# Mechanical properties :
#
#
# Convention : Reuss Voigt Hill
#
# Bulk Modulus (GPa) = 19.80356 38.21212 29.00784
# Shear Modulus (GPa) = 4.28363 21.73985 13.01174
#
# Velocity S-wave (km/s) = 1.59105 3.58432 2.77298
# Velocity P-wave (km/s) = 3.88309 6.30172 5.23402
#
# Compressibility (1/GPa) = 0.05049597
#
# Stress axis : x y z
#
# Youngs Moduli (GPa) = 38.34719 122.91084 28.91616
#
# Poissons Ratio (x) = 0.58077 -0.01918
# Poissons Ratio (y) = 0.18120 0.14713
# Poissons Ratio (z) = -0.02543 0.62539
#
# Static dielectric constant tensor:
#      x y z
#    x 1.571860 0.000000 0.002540 
#    y 0.000000 1.605140 0.000000 
#    z 0.002540 0.000000 1.584210 
# 
# From -- ./inp_files/136289.got.cif
#   From: 2010.05.17/outbox.cif.g08.bks.cpg/sg12_69_cif.got.tgz:136289.got - 2010.06.03 13:09:07.
