data_PCOD9218664
_publ_section_title
;
Structure prediction by ZEFSAII (Michael W. Deem and Ramdas Pophale) SiO2 
 PCOD9218664
Probable space group: C 2/M
;
_chemical_formula_sum "Si O2"
_cell_formula_units_Z 24
_cell_length_a 6.905250
_cell_length_b 20.004045
_cell_length_c 9.320423
_cell_angle_alpha 90.000000
_cell_angle_beta 48.212887
_cell_angle_gamma 90.000000
_cell_volume 959.961545
_symmetry_space_group_name_H-M "C 2/M"
_symmetry_group_IT_number 12
_symmetry_cell_setting 'monoclinic'
loop_
_space_group_symop_operation_xyz
x,y,z
-x,y,-z
-x,-y,-z
x,-y,z
1/2+x,1/2+y,z
1/2-x,1/2+y,-z
1/2-x,1/2-y,-z
1/2+x,1/2-y,z
loop_
_atom_site_type_symbol
_atom_site_label
_atom_site_fract_x
_atom_site_fract_y
_atom_site_fract_z
Si Si1 0.221986 0.158719 0.211811
Si Si2 0.042083 0.304659 0.308215
Si Si3 0.287537 0.574970 0.284750
O O1 0.294338 0.169549 0.342944
O O2 0.119670 0.231916 0.212863
O O3 0.017074 0.101684 0.273487
O O4 0.500000 0.146023 0.000000
O O5 0.000000 0.296952 0.500000
O O6 0.245566 0.365038 0.192605
O O7 0.341349 0.500000 0.208571
O O8 0.000000 0.571495 0.500000
#
# Coordination Sequence:
#
# PCOD9218664 Si02
#       3
#     8   8   8
#     4  12  25  43  73 105 137 174 228 286 341 396
#     4  11  24  42  73 103 133 181 230 280 329 408
#     4  10  25  45  68 100 141 182 226 278 339 406
#
# _framework density 25.001003000000001
#
# number of rings (size 3 to 8) (size 9 to 14) (size 15 to 20)
#    0.000    1.000    3.333    2.000    4.667    2.000 
#    0.000   10.000    0.000    0.000    0.000    0.000 
#    0.000    0.000    0.000    0.000    0.000    0.000 
#
# Total GULP energy -67097.846664 kJ/mol
# GULP energy per Si atom -5591.487222 kJ/mol
# Density = 2.494410 g / cm^3
# Si number density = 25.001003 Si / 1000 Ang^3
#
#
#
# Elastic Constant Matrix: (Units=GPa)
#
#
# Indices 1 2 3 4 5 6 
#
# 1 160.3625 36.0425 53.3867 0.0000 -34.5202 0.0000
# 2 36.0425 202.6579 49.4076 0.0000 -30.3662 0.0000
# 3 53.3867 49.4076 137.1307 0.0000 -25.5599 0.0000
# 4 0.0000 0.0000 0.0000 -11.2546 0.0000 -6.5838
# 5 -34.5202 -30.3662 -25.5599 0.0000 41.6592 0.0000
# 6 0.0000 0.0000 0.0000 -6.5838 0.0000 27.7660
#
#
#
# Elastic Compliance Matrix: (Units=1/GPa)
#
#
# Indices 1 2 3 4 5 6 
#
# 1 0.008119 -0.000128 -0.002121 0.000000 0.005333 0.000000
# 2 -0.000128 0.005792 -0.001434 0.000000 0.003236 0.000000
# 3 -0.002121 -0.001434 0.009160 0.000000 0.002818 0.000000
# 4 0.000000 0.000000 0.000000 -0.078029 0.000000 -0.018502
# 5 0.005333 0.003236 0.002818 0.000000 0.032511 0.000000
# 6 0.000000 0.000000 0.000000 -0.018502 0.000000 0.031628
#
#
# Mechanical properties :
#
#
# Convention : Reuss Voigt Hill
#
# Bulk Modulus (GPa) = 63.67182 86.42497 75.04839
# Shear Modulus (GPa) = 229.57421 35.72173 132.64797
#
# Velocity S-wave (km/s) = 9.59298 3.78406 7.29193
# Velocity P-wave (km/s) = 12.17471 7.33047 10.04886
#
# Compressibility (1/GPa) = 0.01570554
#
# Stress axis : x y z
#
# Youngs Moduli (GPa) = 123.17423 172.66427 109.17467
#
# Poissons Ratio (x) = 0.02206 0.23151
# Poissons Ratio (y) = 0.01574 0.15653
# Poissons Ratio (z) = 0.26120 0.24756
#
# Static dielectric constant tensor:
#      x y z
#    x 1.998310 0.000000 0.015620 
#    y 0.000000 1.955650 0.000000 
#    z 0.015620 0.000000 2.133910 
# 
# From -- ./inp_files/114640.got.cif
#   From: 2010.05.17/outbox.cif.g08.bks.cpg/sg12_58_cif.got.tgz:114640.got - 2010.06.03 13:09:07.
