data_PCOD9218525
_publ_section_title
;
Structure prediction by ZEFSAII (Michael W. Deem and Ramdas Pophale) SiO2 
 PCOD9218525
Probable space group: C 2/M
;
_chemical_formula_sum "Si O2"
_cell_formula_units_Z 38
_cell_length_a 9.291420
_cell_length_b 12.441898
_cell_length_c 14.067415
_cell_angle_alpha 90.000000
_cell_angle_beta 96.119183
_cell_angle_gamma 90.000000
_cell_volume 1616.968192
_symmetry_space_group_name_H-M "C 2/M"
_symmetry_group_IT_number 12
_symmetry_cell_setting 'monoclinic'
loop_
_space_group_symop_operation_xyz
x,y,z
-x,y,-z
-x,-y,-z
x,-y,z
1/2+x,1/2+y,z
1/2-x,1/2+y,-z
1/2-x,1/2-y,-z
1/2+x,1/2-y,z
loop_
_atom_site_type_symbol
_atom_site_label
_atom_site_fract_x
_atom_site_fract_y
_atom_site_fract_z
Si Si1 0.233955 0.309551 0.896858
Si Si2 0.000000 0.000000 0.500000
Si Si3 0.832608 0.879083 0.642167
Si Si4 0.127534 0.784126 0.702994
Si Si5 0.956233 0.000000 0.886941
Si Si6 0.783867 0.000000 0.249716
Si Si7 0.010855 0.500000 0.887871
O O1 0.199754 0.225849 0.812319
O O2 0.365846 0.388268 0.878641
O O3 0.099667 0.391246 0.878124
O O4 0.250000 0.250000 0.000000
O O5 0.896355 0.092341 0.544205
O O6 0.684269 0.815745 0.646279
O O7 0.956238 0.801128 0.693943
O O8 0.823860 0.000000 0.687651
O O9 0.188460 0.900149 0.678329
O O10 0.088465 0.000000 0.821814
O O11 0.000000 0.000000 0.000000
O O12 0.633451 0.000000 0.184044
O O13 0.000000 0.500000 0.000000
#
# Coordination Sequence:
#
# PCOD9218525 Si02
#       7
#     8   2   8   8   4   4   4
#     4  11  25  41  60  91 127 189 234 283 337 396
#     4   8  22  50  76 104 144 170 230 280 366 438
#     4  10  24  47  72 106 136 180 222 288 352 424
#     4  12  23  42  72  97 144 179 232 281 344 412
#     4  11  23  40  62  83 133 184 240 294 342 384
#     4  12  23  38  59  98 127 177 223 283 345 402
#     4  11  23  37  53  81 123 162 238 288 327 395
#
# _framework density 23.500772000000001
#
# number of rings (size 3 to 8) (size 9 to 14) (size 15 to 20)
#    0.632    0.421    1.053    6.316    2.947    5.053 
#    1.895    1.053    0.000    1.895    0.000    0.000 
#    0.000    0.000    0.000    0.000    0.000    0.000 
#
# Total GULP energy -105857.549565 kJ/mol
# GULP energy per Si atom -5571.449977 kJ/mol
# Density = 2.344728 g / cm^3
# Si number density = 23.500772 Si / 1000 Ang^3
#
#
#
# Elastic Constant Matrix: (Units=GPa)
#
#
# Indices 1 2 3 4 5 6 
#
# 1 115.3883 59.6083 19.7066 0.0000 0.3264 0.0000
# 2 59.6083 152.3373 19.3897 0.0000 -14.3306 0.0000
# 3 19.7066 19.3897 78.1504 0.0000 -18.6735 0.0000
# 4 0.0000 0.0000 0.0000 21.9025 0.0000 -27.1722
# 5 0.3264 -14.3306 -18.6735 0.0000 34.6317 0.0000
# 6 0.0000 0.0000 0.0000 -27.1722 0.0000 30.3417
#
#
#
# Elastic Compliance Matrix: (Units=1/GPa)
#
#
# Indices 1 2 3 4 5 6 
#
# 1 0.011416 -0.004453 -0.002571 0.000000 -0.003337 0.000000
# 2 -0.004453 0.008662 -0.000183 0.000000 0.003528 0.000000
# 3 -0.002571 -0.000183 0.015470 0.000000 0.008290 0.000000
# 4 0.000000 0.000000 0.000000 -0.411297 0.000000 -0.368334
# 5 -0.003337 0.003528 0.008290 0.000000 0.034836 0.000000
# 6 0.000000 0.000000 0.000000 -0.368334 0.000000 -0.296900
#
#
# Mechanical properties :
#
#
# Convention : Reuss Voigt Hill
#
# Bulk Modulus (GPa) = 47.31962 60.36503 53.84233
# Shear Modulus (GPa) = -8.11223 33.85326 12.87052
#
# Velocity S-wave (km/s) = -1.85994 3.79953 2.34276
# Velocity P-wave (km/s) = 3.94544 6.70751 5.50260
#
# Compressibility (1/GPa) = 0.02113288
#
# Stress axis : x y z
#
# Youngs Moduli (GPa) = 87.60017 115.44484 64.63928
#
# Poissons Ratio (x) = 0.51413 0.16618
# Poissons Ratio (y) = 0.39012 0.01185
# Poissons Ratio (z) = 0.22521 0.02116
#
# Static dielectric constant tensor:
#      x y z
#    x 1.886360 0.000000 0.126190 
#    y 0.000000 2.025420 0.000000 
#    z 0.126190 0.000000 1.984360 
# 
# From -- ./inp_files/254777.got.cif
#   From: 2010.05.17/outbox.cif.g08.bks.cpg/sg12_128_cif.got.tgz:254777.got - 2010.06.03 13:09:07.
