data_PCOD9218987
_publ_section_title
;
Structure prediction by ZEFSAII (Michael W. Deem and Ramdas Pophale) SiO2 
 PCOD9218987
Probable space group: C 2/M
;
_chemical_formula_sum "Si O2"
_cell_formula_units_Z 56
_cell_length_a 19.570472
_cell_length_b 20.730571
_cell_length_c 11.248046
_cell_angle_alpha 90.000000
_cell_angle_beta 136.073534
_cell_angle_gamma 90.000000
_cell_volume 3165.796523
_symmetry_space_group_name_H-M "C 2/M"
_symmetry_group_IT_number 12
_symmetry_cell_setting 'monoclinic'
loop_
_space_group_symop_operation_xyz
x,y,z
-x,y,-z
-x,-y,-z
x,-y,z
1/2+x,1/2+y,z
1/2-x,1/2+y,-z
1/2-x,1/2-y,-z
1/2+x,1/2-y,z
loop_
_atom_site_type_symbol
_atom_site_label
_atom_site_fract_x
_atom_site_fract_y
_atom_site_fract_z
Si Si1 0.018052 0.871521 0.736425
Si Si2 0.920798 0.253834 0.492204
Si Si3 0.271034 0.182524 0.460628
Si Si4 0.897877 0.800962 0.940005
Si Si5 0.310241 0.572127 0.486338
Si Si6 0.736436 0.207925 0.101117
Si Si7 0.191639 0.926888 0.802494
O O1 0.085356 0.908132 0.724753
O O2 0.973760 0.805329 0.626125
O O3 0.923729 0.911978 0.659183
O O4 0.083985 0.850947 0.930657
O O5 0.873970 0.305491 0.522976
O O6 0.830052 0.223518 0.303451
O O7 0.000000 0.281611 0.500000
O O8 0.250000 0.250000 0.500000
O O9 0.185763 0.174843 0.255029
O O10 0.258625 0.125285 0.538845
O O11 0.857845 0.734920 0.947874
O O12 0.000000 0.791651 0.000000
O O13 0.283891 0.500000 0.490826
O O14 0.308653 0.575143 0.341106
O O15 0.738224 0.132463 0.073234
O O16 0.750000 0.250000 0.000000
O O17 0.216949 0.000000 0.870562
#
# Coordination Sequence:
#
# PCOD9218987 Si02
#       7
#     8   8   8   8   8   8   8
#     4  12  19  35  55  86 117 148 182 227 288 340
#     4  11  19  33  57  83 114 145 189 236 277 326
#     4  11  21  36  56  81 116 151 192 231 277 330
#     4  11  21  34  57  82 114 148 188 235 278 326
#     4  11  21  35  55  82 117 151 185 227 281 341
#     4  11  20  34  56  81 113 147 188 231 275 328
#     4  11  22  35  55  84 117 150 184 226 283 343
#
# _framework density 17.689073
#
# number of rings (size 3 to 8) (size 9 to 14) (size 15 to 20)
#    0.000    0.857    7.143    1.714    0.000    1.143 
#    0.000    2.143    0.000    0.857    0.000    7.000 
#    0.000    0.000    0.000    0.000    0.000    0.000 
#
# Total GULP energy -156333.971961 kJ/mol
# GULP energy per Si atom -5583.356141 kJ/mol
# Density = 1.764881 g / cm^3
# Si number density = 17.689073 Si / 1000 Ang^3
#
#
#
# Elastic Constant Matrix: (Units=GPa)
#
#
# Indices 1 2 3 4 5 6 
#
# 1 135.7990 60.9290 -0.0703 0.0000 3.5477 0.0000
# 2 60.9290 138.2660 14.9236 0.0000 -6.1442 0.0000
# 3 -0.0703 14.9236 49.0502 0.0000 -21.3696 0.0000
# 4 0.0000 0.0000 0.0000 17.8639 0.0000 -3.1451
# 5 3.5477 -6.1442 -21.3696 0.0000 21.0427 0.0000
# 6 0.0000 0.0000 0.0000 -3.1451 0.0000 29.7032
#
#
#
# Elastic Compliance Matrix: (Units=1/GPa)
#
#
# Indices 1 2 3 4 5 6 
#
# 1 0.009341 -0.004250 0.000143 0.000000 -0.002671 0.000000
# 2 -0.004250 0.009413 -0.002440 0.000000 0.000987 0.000000
# 3 0.000143 -0.002440 0.037321 0.000000 0.037164 0.000000
# 4 0.000000 0.000000 0.000000 0.057042 0.000000 0.006040
# 5 -0.002671 0.000987 0.037164 0.000000 0.086002 0.000000
# 6 0.000000 0.000000 0.000000 0.006040 0.000000 0.034306
#
#
# Mechanical properties :
#
#
# Convention : Reuss Voigt Hill
#
# Bulk Modulus (GPa) = 23.26638 52.74217 38.00428
# Shear Modulus (GPa) = 19.16844 30.21082 24.68963
#
# Velocity S-wave (km/s) = 3.29543 4.13713 3.74003
# Velocity P-wave (km/s) = 5.25940 7.25962 6.33891
#
# Compressibility (1/GPa) = 0.04298047
#
# Stress axis : x y z
#
# Youngs Moduli (GPa) = 107.05951 106.24113 26.79450
#
# Poissons Ratio (x) = 0.45154 -0.00383
# Poissons Ratio (y) = 0.45502 0.06537
# Poissons Ratio (z) = -0.01531 0.25920
#
# Static dielectric constant tensor:
#      x y z
#    x 1.635490 0.000000 -0.017920 
#    y 0.000000 1.610030 0.000000 
#    z -0.017920 0.000000 1.622210 
# 
# From -- ./inp_files/157746.got.cif
#   From: 2010.05.17/outbox.cif.g08.bks.cpg/sg12_79_cif.got.tgz:157746.got - 2010.06.03 13:09:07.
