data_PCOD9218899
_publ_section_title
;
Structure prediction by ZEFSAII (Michael W. Deem and Ramdas Pophale) SiO2 
 PCOD9218899
Probable space group: C 2/M
;
_chemical_formula_sum "Si O2"
_cell_formula_units_Z 40
_cell_length_a 9.875725
_cell_length_b 22.141709
_cell_length_c 11.373073
_cell_angle_alpha 90.000000
_cell_angle_beta 55.433629
_cell_angle_gamma 90.000000
_cell_volume 2047.884598
_symmetry_space_group_name_H-M "C 2/M"
_symmetry_group_IT_number 12
_symmetry_cell_setting 'monoclinic'
loop_
_space_group_symop_operation_xyz
x,y,z
-x,y,-z
-x,-y,-z
x,-y,z
1/2+x,1/2+y,z
1/2-x,1/2+y,-z
1/2-x,1/2-y,-z
1/2+x,1/2-y,z
loop_
_atom_site_type_symbol
_atom_site_label
_atom_site_fract_x
_atom_site_fract_y
_atom_site_fract_z
Si Si1 0.962484 0.180360 0.682106
Si Si2 0.224998 0.633059 0.622737
Si Si3 0.072493 0.116797 0.836680
Si Si4 0.079742 0.318844 0.335468
Si Si5 0.252579 0.500000 0.628490
Si Si6 0.504342 0.500000 0.287567
O O1 0.826862 0.137105 0.692304
O O2 0.901711 0.246497 0.674474
O O3 0.138925 0.159962 0.537373
O O4 0.980863 0.170395 0.810809
O O5 0.169620 0.563670 0.639839
O O6 0.060608 0.670701 0.692198
O O7 0.258684 0.140942 0.758198
O O8 0.040947 0.058338 0.769263
O O9 0.000000 0.105120 0.000000
O O10 0.000000 0.335871 0.500000
O O11 0.392763 0.500000 0.458901
O O12 0.319424 0.500000 0.730846
#
# Coordination Sequence:
#
# PCOD9218899 Si02
#       6
#     8   8   8   8   4   4
#     4  11  20  38  64  89 121 162 202 241 308 362
#     4  11  20  35  64  98 119 148 203 264 300 348
#     4  12  26  41  60  89 129 167 198 242 309 369
#     4  12  22  38  64  96 121 153 206 263 299 343
#     4  11  18  35  70  96 111 150 211 266 289 349
#     4  11  19  41  64  86 119 164 204 245 306 363
#
# _framework density 19.532350999999998
#
# number of rings (size 3 to 8) (size 9 to 14) (size 15 to 20)
#    0.000    0.600    8.000    3.300    0.000    1.600 
#    0.000    3.000    0.000    1.200    0.000    0.000 
#    0.000    0.000    0.000    0.000    0.000    0.000 
#
# Total GULP energy -111401.977164 kJ/mol
# GULP energy per Si atom -5570.098858 kJ/mol
# Density = 1.948789 g / cm^3
# Si number density = 19.532351 Si / 1000 Ang^3
#
#
#
# Elastic Constant Matrix: (Units=GPa)
#
#
# Indices 1 2 3 4 5 6 
#
# 1 70.4177 2.2777 42.3505 0.0000 13.8080 0.0000
# 2 2.2777 102.7908 30.5947 0.0000 -5.6516 0.0000
# 3 42.3505 30.5947 76.4399 0.0000 17.0951 0.0000
# 4 0.0000 0.0000 0.0000 -75.6936 0.0000 -87.5570
# 5 13.8080 -5.6516 17.0951 0.0000 20.4350 0.0000
# 6 0.0000 0.0000 0.0000 -87.5570 0.0000 -87.0918
#
#
#
# Elastic Compliance Matrix: (Units=1/GPa)
#
#
# Indices 1 2 3 4 5 6 
#
# 1 0.022616 0.003180 -0.013017 0.000000 -0.003512 0.000000
# 2 0.003180 0.012770 -0.008836 0.000000 0.008774 0.000000
# 3 -0.013017 -0.008836 0.027568 0.000000 -0.016710 0.000000
# 4 0.000000 0.000000 0.000000 0.081095 0.000000 -0.081528
# 5 -0.003512 0.008774 -0.016710 0.000000 0.067714 0.000000
# 6 0.000000 0.000000 0.000000 -0.081528 0.000000 0.070482
#
#
# Mechanical properties :
#
#
# Convention : Reuss Voigt Hill
#
# Bulk Modulus (GPa) = 39.04976 44.45490 41.75233
# Shear Modulus (GPa) = 15.23807 -16.84170 -0.80182
#
# Velocity S-wave (km/s) = 2.79614 -2.93959 -0.64140
# Velocity P-wave (km/s) = 5.51908 3.35968 4.56879
#
# Compressibility (1/GPa) = 0.02560835
#
# Stress axis : x y z
#
# Youngs Moduli (GPa) = 44.21724 78.30685 36.27448
#
# Poissons Ratio (x) = -0.24904 0.47220
# Poissons Ratio (y) = -0.14062 0.32050
# Poissons Ratio (z) = 0.57559 0.69188
#
# Static dielectric constant tensor:
#      x y z
#    x 1.702110 0.000000 0.020800 
#    y 0.000000 1.755920 0.000000 
#    z 0.020800 0.000000 1.686480 
# 
# From -- ./inp_files/121714.got.cif
#   From: 2010.05.17/outbox.cif.g08.bks.cpg/sg12_61_cif.got.tgz:121714.got - 2010.06.03 13:09:07.
