data_PCOD9218132
_publ_section_title
;
Structure prediction by ZEFSAII (Michael W. Deem and Ramdas Pophale) SiO2 
 PCOD9218132
Probable space group: C 2/M
;
_chemical_formula_sum "Si O2"
_cell_formula_units_Z 56
_cell_length_a 17.335284
_cell_length_b 25.671596
_cell_length_c 17.915666
_cell_angle_alpha 90.000000
_cell_angle_beta 162.144735
_cell_angle_gamma 90.000000
_cell_volume 2444.601783
_symmetry_space_group_name_H-M "C 2/M"
_symmetry_group_IT_number 12
_symmetry_cell_setting 'monoclinic'
loop_
_space_group_symop_operation_xyz
x,y,z
-x,y,-z
-x,-y,-z
x,-y,z
1/2+x,1/2+y,z
1/2-x,1/2+y,-z
1/2-x,1/2-y,-z
1/2+x,1/2-y,z
loop_
_atom_site_type_symbol
_atom_site_label
_atom_site_fract_x
_atom_site_fract_y
_atom_site_fract_z
Si Si1 0.439121 0.287183 0.126665
Si Si2 0.395739 0.122968 0.820911
Si Si3 0.340757 0.061398 0.491442
Si Si4 0.636583 0.340866 0.805771
Si Si5 0.150536 0.942806 0.485915
Si Si6 0.114498 0.883129 0.022300
Si Si7 0.394140 0.272631 0.472247
O O1 0.520377 0.326827 0.266862
O O2 0.336950 0.325679 0.968732
O O3 0.676728 0.256756 0.314928
O O4 0.250000 0.250000 0.000000
O O5 0.575029 0.145644 0.919699
O O6 0.500000 0.116328 0.000000
O O7 0.310351 0.068654 0.707288
O O8 0.216274 0.173083 0.661083
O O9 0.290486 0.062560 0.535054
O O10 0.104317 0.087990 0.229405
O O11 0.348795 0.000000 0.477830
O O12 0.614752 0.087376 0.728745
O O13 0.537674 0.394658 0.682159
O O14 0.610799 0.292177 0.726906
O O15 0.035731 0.000000 0.381435
O O16 0.000000 0.879324 0.000000
O O17 0.500000 0.241119 0.500000
#
# Coordination Sequence:
#
# PCOD9218132 Si02
#       7
#     8   8   8   8   8   8   8
#     4  12  26  44  70 102 140 193 244 301 364 438
#     4  11  22  41  67  99 139 182 231 301 361 432
#     4  11  25  49  79 109 146 195 245 302 376 455
#     4  11  22  43  69  94 134 179 241 289 359 430
#     4  10  24  42  68 102 136 183 240 297 361 441
#     4  12  28  48  74 112 154 188 244 315 372 441
#     4  11  24  41  67  99 133 186 235 292 359 433
#
# _framework density 22.907615
#
# number of rings (size 3 to 8) (size 9 to 14) (size 15 to 20)
#    0.000    0.857    4.286    2.143    2.000    6.571 
#    0.000    0.714    0.000    0.000    0.000    0.000 
#    0.000    0.000    0.000    0.000    0.000    0.000 
#
# Total GULP energy -156151.474057 kJ/mol
# GULP energy per Si atom -5576.838359 kJ/mol
# Density = 2.285548 g / cm^3
# Si number density = 22.907615 Si / 1000 Ang^3
#
#
#
# Elastic Constant Matrix: (Units=GPa)
#
#
# Indices 1 2 3 4 5 6 
#
# 1 100.5873 32.8939 19.6827 -0.0013 2.8643 0.0009
# 2 32.8939 127.9167 32.8113 -0.0020 9.1770 0.0005
# 3 19.6827 32.8113 68.6775 0.0002 5.3893 0.0066
# 4 -0.0013 -0.0020 0.0002 25.2879 0.0015 -9.8659
# 5 2.8643 9.1770 5.3893 0.0015 47.0192 0.0034
# 6 0.0009 0.0005 0.0066 -9.8659 0.0034 5.5672
#
#
#
# Elastic Compliance Matrix: (Units=1/GPa)
#
#
# Indices 1 2 3 4 5 6 
#
# 1 0.011107 -0.002325 -0.002073 0.000002 0.000015 0.000005
# 2 -0.002325 0.009471 -0.003758 0.000008 -0.001276 0.000020
# 3 -0.002073 -0.003758 0.017036 -0.000025 -0.001093 -0.000064
# 4 0.000002 0.000008 -0.000025 0.128142 -0.000019 0.227088
# 5 0.000015 -0.001276 -0.001093 -0.000019 0.021641 -0.000046
# 6 0.000005 0.000020 -0.000064 0.227088 -0.000046 0.582059
#
#
# Mechanical properties :
#
#
# Convention : Reuss Voigt Hill
#
# Bulk Modulus (GPa) = 46.94751 51.99524 49.47137
# Shear Modulus (GPa) = 6.30619 29.69442 18.00030
#
# Velocity S-wave (km/s) = 1.66098 3.60428 2.80621
# Velocity P-wave (km/s) = 4.92110 6.32994 5.66945
#
# Compressibility (1/GPa) = 0.02130038
#
# Stress axis : x y z
#
# Youngs Moduli (GPa) = 90.03007 105.58364 58.69782
#
# Poissons Ratio (x) = 0.24553 0.12171
# Poissons Ratio (y) = 0.20936 0.22061
# Poissons Ratio (z) = 0.18668 0.39682
#
# Static dielectric constant tensor:
#      x y z
#    x 1.895640 0.000000 -0.015130 
#    y 0.000000 1.860170 0.000000 
#    z -0.015130 0.000000 2.009080 
# 
# From -- ./inp_files/279568.got.cif
#   From: 2010.05.17/outbox.cif.g08.bks.cpg/sg12_140_cif.got.tgz:279568.got - 2010.06.03 13:09:07.
