data_PCOD9218593
_publ_section_title
;
Structure prediction by ZEFSAII (Michael W. Deem and Ramdas Pophale) SiO2 
 PCOD9218593
Probable space group: C 2/M
;
_chemical_formula_sum "Si O2"
_cell_formula_units_Z 22
_cell_length_a 9.472425
_cell_length_b 18.162948
_cell_length_c 5.755752
_cell_angle_alpha 90.000000
_cell_angle_beta 54.238134
_cell_angle_gamma 90.000000
_cell_volume 803.550064
_symmetry_space_group_name_H-M "C 2/M"
_symmetry_group_IT_number 12
_symmetry_cell_setting 'monoclinic'
loop_
_space_group_symop_operation_xyz
x,y,z
-x,y,-z
-x,-y,-z
x,-y,z
1/2+x,1/2+y,z
1/2-x,1/2+y,-z
1/2-x,1/2-y,-z
1/2+x,1/2-y,z
loop_
_atom_site_type_symbol
_atom_site_label
_atom_site_fract_x
_atom_site_fract_y
_atom_site_fract_z
Si Si1 0.000000 0.337940 0.000000
Si Si2 0.243581 0.579379 0.414348
Si Si3 0.705138 0.771831 0.269256
Si Si4 0.000000 0.000000 0.500000
O O1 0.086634 0.391257 0.726907
O O2 0.850114 0.285966 0.020894
O O3 0.206414 0.500000 0.335827
O O4 0.272758 0.643501 0.205233
O O5 0.401867 0.562751 0.434255
O O6 0.500000 0.759902 0.500000
O O7 0.750000 0.750000 0.500000
#
# Coordination Sequence:
#
# PCOD9218593 Si02
#       4
#     4   8   8   2
#     4  12  25  46  81 116 166 218 286 334 439 484
#     4  10  24  50  79 119 165 223 274 352 420 496
#     4  12  27  49  81 124 171 218 280 348 421 514
#     4   8  24  46  86 114 170 208 302 328 420 492
#
# _framework density 27.378506000000002
#
# number of rings (size 3 to 8) (size 9 to 14) (size 15 to 20)
#    1.091    0.000    3.636    1.636    2.545    0.727 
#    0.000    0.909    0.000    1.091    0.000    0.000 
#    0.000    0.000    0.000    0.000    0.000    0.000 
#
# Total GULP energy -61247.783603 kJ/mol
# GULP energy per Si atom -5567.980328 kJ/mol
# Density = 2.731619 g / cm^3
# Si number density = 27.378506 Si / 1000 Ang^3
#
#
#
# Elastic Constant Matrix: (Units=GPa)
#
#
# Indices 1 2 3 4 5 6 
#
# 1 216.5156 82.7875 66.6366 0.0000 60.6477 0.0000
# 2 82.7875 258.0858 63.0224 0.0000 18.8970 0.0000
# 3 66.6366 63.0224 123.0939 0.0000 -21.6384 0.0000
# 4 0.0000 0.0000 0.0000 62.8930 0.0000 29.4435
# 5 60.6477 18.8970 -21.6384 0.0000 60.2553 0.0000
# 6 0.0000 0.0000 0.0000 29.4435 0.0000 46.7782
#
#
#
# Elastic Compliance Matrix: (Units=1/GPa)
#
#
# Indices 1 2 3 4 5 6 
#
# 1 0.011470 -0.000560 -0.008455 0.000000 -0.014405 0.000000
# 2 -0.000560 0.004791 -0.002471 0.000000 -0.001827 0.000000
# 3 -0.008455 -0.002471 0.016649 0.000000 0.015264 0.000000
# 4 0.000000 0.000000 0.000000 0.022543 0.000000 -0.014189
# 5 -0.014405 -0.001827 0.015264 0.000000 0.037149 0.000000
# 6 0.000000 0.000000 0.000000 -0.014189 0.000000 0.030308
#
#
# Mechanical properties :
#
#
# Convention : Reuss Voigt Hill
#
# Bulk Modulus (GPa) = 100.61481 113.62093 107.11787
# Shear Modulus (GPa) = 33.51324 59.66855 46.59090
#
# Velocity S-wave (km/s) = 3.50247 4.67346 4.12968
# Velocity P-wave (km/s) = 7.29285 8.40903 7.87075
#
# Compressibility (1/GPa) = 0.00993889
#
# Stress axis : x y z
#
# Youngs Moduli (GPa) = 87.18600 208.70481 60.06308
#
# Poissons Ratio (x) = 0.11686 0.50781
# Poissons Ratio (y) = 0.04882 0.14842
# Poissons Ratio (z) = 0.73713 0.51574
#
# Static dielectric constant tensor:
#      x y z
#    x 2.178690 0.000000 0.190480 
#    y 0.000000 2.162210 0.000000 
#    z 0.190480 0.000000 3.331490 
# 
# From -- ./inp_files/2681.got.cif
#   From: 2010.05.17/outbox.cif.g08.bks.cpg/sg12_2_cif.got.tgz:2681.got - 2010.06.03 13:09:07.
