data_PCOD9218501
_publ_section_title
;
Structure prediction by ZEFSAII (Michael W. Deem and Ramdas Pophale) SiO2 
 PCOD9218501
Probable space group: C 2/M
;
_chemical_formula_sum "Si O2"
_cell_formula_units_Z 48
_cell_length_a 14.413837
_cell_length_b 26.184195
_cell_length_c 11.359975
_cell_angle_alpha 90.000000
_cell_angle_beta 149.024976
_cell_angle_gamma 90.000000
_cell_volume 2206.583246
_symmetry_space_group_name_H-M "C 2/M"
_symmetry_group_IT_number 12
_symmetry_cell_setting 'monoclinic'
loop_
_space_group_symop_operation_xyz
x,y,z
-x,y,-z
-x,-y,-z
x,-y,z
1/2+x,1/2+y,z
1/2-x,1/2+y,-z
1/2-x,1/2-y,-z
1/2+x,1/2-y,z
loop_
_atom_site_type_symbol
_atom_site_label
_atom_site_fract_x
_atom_site_fract_y
_atom_site_fract_z
Si Si1 0.892736 0.500000 0.009905
Si Si2 0.000000 0.171476 0.500000
Si Si3 0.131933 0.500000 0.757891
Si Si4 0.652422 0.399257 0.070709
Si Si5 0.500000 0.163162 0.500000
Si Si6 0.340790 0.110787 0.919232
Si Si7 0.532736 0.804557 0.278886
Si Si8 0.035162 0.193053 0.275030
O O1 0.977117 0.500000 0.235293
O O2 0.000000 0.500000 0.000000
O O3 0.789590 0.553558 0.898788
O O4 0.174819 0.137055 0.677673
O O5 0.983197 0.197287 0.355431
O O6 0.259821 0.449860 0.890215
O O7 0.000000 0.500000 0.500000
O O8 0.822006 0.371346 0.315847
O O9 0.500000 0.413207 0.000000
O O10 0.562371 0.355880 0.888408
O O11 0.510235 0.194962 0.629915
O O12 0.500000 0.106721 0.000000
O O13 0.420533 0.148248 0.104966
O O14 0.748032 0.812181 0.498910
O O15 0.487778 0.749398 0.172050
#
# Coordination Sequence:
#
# PCOD9218501 Si02
#       8
#     4   4   4   8   4   8   8   8
#     4  10  24  46  75 106 140 189 235 289 358 423
#     4  12  23  43  70 100 138 185 229 282 354 420
#     4  12  25  47  79 111 143 192 240 300 369 433
#     4  12  26  47  72 108 142 184 240 299 363 431
#     4  12  23  43  72  98 144 183 239 290 362 422
#     4  11  24  45  70 100 139 179 232 287 345 417
#     4  11  24  44  69 102 140 190 234 296 346 427
#     4  11  25  43  70 102 142 186 241 285 360 421
#
# _framework density 21.753088000000002
#
# number of rings (size 3 to 8) (size 9 to 14) (size 15 to 20)
#    0.000    0.667    4.167    3.750    0.000    5.000 
#    0.000    1.667    0.000    0.000    0.000    0.000 
#    0.000    0.000    0.000    0.000    0.000    0.000 
#
# Total GULP energy -133931.608872 kJ/mol
# GULP energy per Si atom -5580.483703 kJ/mol
# Density = 2.170358 g / cm^3
# Si number density = 21.753088 Si / 1000 Ang^3
#
#
#
# Elastic Constant Matrix: (Units=GPa)
#
#
# Indices 1 2 3 4 5 6 
#
# 1 117.8751 17.0034 14.1616 0.0000 -6.1224 0.0000
# 2 17.0034 185.8539 48.5772 0.0000 -7.6405 0.0000
# 3 14.1616 48.5772 73.4619 0.0000 9.4401 0.0000
# 4 0.0000 0.0000 0.0000 -65.6772 0.0000 -10.5793
# 5 -6.1224 -7.6405 9.4401 0.0000 43.2343 0.0000
# 6 0.0000 0.0000 0.0000 -10.5793 0.0000 0.8112
#
#
#
# Elastic Compliance Matrix: (Units=1/GPa)
#
#
# Indices 1 2 3 4 5 6 
#
# 1 0.008812 -0.000296 -0.001704 0.000000 0.001568 0.000000
# 2 -0.000296 0.006715 -0.004661 0.000000 0.002162 0.000000
# 3 -0.001704 -0.004661 0.017655 0.000000 -0.004920 0.000000
# 4 0.000000 0.000000 0.000000 -0.004910 0.000000 -0.064040
# 5 0.001568 0.002162 -0.004920 0.000000 0.024808 0.000000
# 6 0.000000 0.000000 0.000000 -0.064040 0.000000 0.397568
#
#
# Mechanical properties :
#
#
# Convention : Reuss Voigt Hill
#
# Bulk Modulus (GPa) = 50.35387 59.63058 54.99222
# Shear Modulus (GPa) = 10.62491 15.50356 13.06424
#
# Velocity S-wave (km/s) = 2.21245 2.67255 2.45331
# Velocity P-wave (km/s) = 5.45204 6.08238 5.77582
#
# Compressibility (1/GPa) = 0.01985945
#
# Stress axis : x y z
#
# Youngs Moduli (GPa) = 113.47539 148.92391 56.63982
#
# Poissons Ratio (x) = 0.04413 0.09653
# Poissons Ratio (y) = 0.03362 0.26400
# Poissons Ratio (z) = 0.19340 0.69413
#
# Static dielectric constant tensor:
#      x y z
#    x 1.850860 0.000000 -0.032400 
#    y 0.000000 1.838190 0.000000 
#    z -0.032400 0.000000 1.754430 
# 
# From -- ./inp_files/149934.got.cif
#   From: 2010.05.17/outbox.cif.g08.bks.cpg/sg12_75_cif.got.tgz:149934.got - 2010.06.03 13:09:07.
