data_PCOD9218141
_publ_section_title
;
Structure prediction by ZEFSAII (Michael W. Deem and Ramdas Pophale) SiO2 
 PCOD9218141
Probable space group: C 2/M
;
_chemical_formula_sum "Si O2"
_cell_formula_units_Z 44
_cell_length_a 14.469888
_cell_length_b 16.820843
_cell_length_c 7.858147
_cell_angle_alpha 90.000000
_cell_angle_beta 94.907141
_cell_angle_gamma 90.000000
_cell_volume 1905.628795
_symmetry_space_group_name_H-M "C 2/M"
_symmetry_group_IT_number 12
_symmetry_cell_setting 'monoclinic'
loop_
_space_group_symop_operation_xyz
x,y,z
-x,y,-z
-x,-y,-z
x,-y,z
1/2+x,1/2+y,z
1/2-x,1/2+y,-z
1/2-x,1/2-y,-z
1/2+x,1/2-y,z
loop_
_atom_site_type_symbol
_atom_site_label
_atom_site_fract_x
_atom_site_fract_y
_atom_site_fract_z
Si Si1 0.281013 0.500000 0.629094
Si Si2 0.072241 0.331895 0.871870
Si Si3 0.806630 0.500000 0.747335
Si Si4 0.202485 0.324364 0.182943
Si Si5 0.912399 0.816038 0.302701
Si Si6 0.121305 0.500000 0.858030
Si Si7 0.887342 0.159271 0.696070
O O1 0.270706 0.500000 0.420057
O O2 0.180247 0.500000 0.696411
O O3 0.329608 0.579112 0.710186
O O4 0.071641 0.278535 0.707980
O O5 0.057111 0.423538 0.844057
O O6 0.169919 0.324220 0.982883
O O7 0.000000 0.301373 0.000000
O O8 0.837824 0.405633 0.735084
O O9 0.813910 0.500000 0.960011
O O10 0.313255 0.333764 0.204717
O O11 0.163698 0.241425 0.255975
O O12 0.900479 0.837283 0.495133
O O13 0.005091 0.849699 0.228910
#
# Coordination Sequence:
#
# PCOD9218141 Si02
#       7
#     4   8   4   8   8   4   8
#     4  12  24  47  71 100 143 188 227 298 349 407
#     4  11  22  43  68  99 141 178 232 290 354 408
#     4  10  24  42  69 104 136 182 238 281 351 417
#     4  11  22  44  69  97 141 178 232 290 344 416
#     4  11  23  40  65 100 131 181 227 278 345 410
#     4  10  25  42  71 104 135 188 232 286 362 413
#     4  11  25  42  68 102 138 177 240 279 346 425
#
# _framework density 23.089492
#
# number of rings (size 3 to 8) (size 9 to 14) (size 15 to 20)
#    0.000    1.091    3.636    2.455    2.545    3.636 
#    0.000    0.000    0.000   10.909    0.000    0.000 
#    0.000    0.000    0.000    0.000    0.000    0.000 
#
# Total GULP energy -122475.178749 kJ/mol
# GULP energy per Si atom -5567.053580 kJ/mol
# Density = 2.303694 g / cm^3
# Si number density = 23.089492 Si / 1000 Ang^3
#
#
#
# Elastic Constant Matrix: (Units=GPa)
#
#
# Indices 1 2 3 4 5 6 
#
# 1 107.2475 18.4161 10.3887 0.0000 16.1856 0.0000
# 2 18.4161 153.0255 12.4951 0.0000 -11.5250 0.0000
# 3 10.3887 12.4951 15.4939 0.0000 5.4001 0.0000
# 4 0.0000 0.0000 0.0000 35.4211 0.0000 -0.5482
# 5 16.1856 -11.5250 5.4001 0.0000 28.0000 0.0000
# 6 0.0000 0.0000 0.0000 -0.5482 0.0000 26.9331
#
#
#
# Elastic Compliance Matrix: (Units=1/GPa)
#
#
# Indices 1 2 3 4 5 6 
#
# 1 0.010882 -0.001443 -0.004002 0.000000 -0.006113 0.000000
# 2 -0.001443 0.007694 -0.007109 0.000000 0.005372 0.000000
# 3 -0.004002 -0.007109 0.078445 0.000000 -0.015742 0.000000
# 4 0.000000 0.000000 0.000000 0.028241 0.000000 0.000575
# 5 -0.006113 0.005372 -0.015742 0.000000 0.044495 0.000000
# 6 0.000000 0.000000 0.000000 0.000575 0.000000 0.037141
#
#
# Mechanical properties :
#
#
# Convention : Reuss Voigt Hill
#
# Bulk Modulus (GPa) = 13.90597 39.81851 26.86224
# Shear Modulus (GPa) = 19.53300 33.70196 26.61748
#
# Velocity S-wave (km/s) = 2.91171 3.82465 3.39897
# Velocity P-wave (km/s) = 4.16411 6.06520 5.20223
#
# Compressibility (1/GPa) = 0.07191156
#
# Stress axis : x y z
#
# Youngs Moduli (GPa) = 91.89277 129.97756 12.74779
#
# Poissons Ratio (x) = 0.18759 0.05102
# Poissons Ratio (y) = 0.13262 0.09063
# Poissons Ratio (z) = 0.36777 0.92404
#
# Static dielectric constant tensor:
#      x y z
#    x 1.973580 0.000000 0.077500 
#    y 0.000000 1.914180 0.000000 
#    z 0.077500 0.000000 1.854620 
# 
# From -- ./inp_files/61263.got.cif
#   From: 2010.05.17/outbox.cif.g08.bks.cpg/sg12_31_cif.got.tgz:61263.got - 2010.06.03 13:09:07.
