data_PCOD9218840
_publ_section_title
;
Structure prediction by ZEFSAII (Michael W. Deem and Ramdas Pophale) SiO2 
 PCOD9218840
Probable space group: C 2/M
;
_chemical_formula_sum "Si O2"
_cell_formula_units_Z 64
_cell_length_a 8.132776
_cell_length_b 32.062890
_cell_length_c 11.592756
_cell_angle_alpha 90.000000
_cell_angle_beta 109.846681
_cell_angle_gamma 90.000000
_cell_volume 2843.382009
_symmetry_space_group_name_H-M "C 2/M"
_symmetry_group_IT_number 12
_symmetry_cell_setting 'monoclinic'
loop_
_space_group_symop_operation_xyz
x,y,z
-x,y,-z
-x,-y,-z
x,-y,z
1/2+x,1/2+y,z
1/2-x,1/2+y,-z
1/2-x,1/2-y,-z
1/2+x,1/2-y,z
loop_
_atom_site_type_symbol
_atom_site_label
_atom_site_fract_x
_atom_site_fract_y
_atom_site_fract_z
Si Si1 0.207494 0.321135 0.484597
Si Si2 0.966997 0.758586 0.626410
Si Si3 0.178562 0.193251 0.089003
Si Si4 0.312180 0.546080 0.613291
Si Si5 0.288633 0.215396 0.864803
Si Si6 0.268390 0.547030 0.336808
Si Si7 0.296025 0.636406 0.274662
Si Si8 0.295427 0.369861 0.708783
O O1 0.078248 0.290167 0.384697
O O2 0.297023 0.287373 0.594638
O O3 0.307191 0.345855 0.407720
O O4 0.176448 0.355563 0.573259
O O5 0.000000 0.768527 0.500000
O O6 0.113752 0.773170 0.748324
O O7 0.125446 0.238846 0.128566
O O8 0.250077 0.159327 0.194218
O O9 0.286606 0.205849 0.001164
O O10 0.000000 0.173764 0.000000
O O11 0.260467 0.500000 0.638743
O O12 0.236386 0.553162 0.466314
O O13 0.521554 0.546481 0.637312
O O14 0.272437 0.580549 0.699872
O O15 0.323759 0.169883 0.820663
O O16 0.205632 0.500000 0.290926
O O17 0.216715 0.589938 0.260764
O O18 0.495493 0.636557 0.271711
#
# Coordination Sequence:
#
# PCOD9218840 Si02
#       8
#     8   8   8   8   8   8   8   8
#     4  11  20  27  47  73  96 123 159 195 232 286
#     4  11  20  32  46  69  97 126 158 200 242 274
#     4  11  23  38  48  64  90 136 170 200 234 278
#     4   8  14  24  42  68  95 125 154 187 232 289
#     4  11  23  35  49  65  94 130 170 201 233 280
#     4   8  14  24  40  66 100 125 147 184 239 293
#     4  11  18  28  46  71  97 124 160 193 237 284
#     4  11  18  31  49  67  99 130 162 190 237 290
#
# _framework density 22.508407999999999
#
# number of rings (size 3 to 8) (size 9 to 14) (size 15 to 20)
#    0.000    1.750    5.000    1.875    3.500    0.000 
#    0.000    0.000    0.000    1.125    0.000    0.000 
#    0.000    9.500    0.000    0.125    0.000    0.125 
#
# Total GULP energy -178174.965505 kJ/mol
# GULP energy per Si atom -5567.967672 kJ/mol
# Density = 2.245718 g / cm^3
# Si number density = 22.508408 Si / 1000 Ang^3
#
#
#
# Elastic Constant Matrix: (Units=GPa)
#
#
# Indices 1 2 3 4 5 6 
#
# 1 21.1916 12.6956 23.1647 0.0000 -2.7586 0.0000
# 2 12.6956 211.1572 70.6016 0.0000 -14.6950 0.0000
# 3 23.1647 70.6016 87.4580 0.0000 -12.9245 0.0000
# 4 0.0000 0.0000 0.0000 28.8124 0.0000 -5.8538
# 5 -2.7586 -14.6950 -12.9245 0.0000 26.9040 0.0000
# 6 0.0000 0.0000 0.0000 -5.8538 0.0000 16.9284
#
#
#
# Elastic Compliance Matrix: (Units=1/GPa)
#
#
# Indices 1 2 3 4 5 6 
#
# 1 0.067512 0.002592 -0.020174 0.000000 -0.001354 0.000000
# 2 0.002592 0.006617 -0.005872 0.000000 0.001059 0.000000
# 3 -0.020174 -0.005872 0.022322 0.000000 0.005448 0.000000
# 4 0.000000 0.000000 0.000000 0.037330 0.000000 0.012909
# 5 -0.001354 0.001059 0.005448 0.000000 0.040226 0.000000
# 6 0.000000 0.000000 0.000000 0.012909 0.000000 0.063536
#
#
# Mechanical properties :
#
#
# Convention : Reuss Voigt Hill
#
# Bulk Modulus (GPa) = 20.18408 59.19230 39.68819
# Shear Modulus (GPa) = 16.61319 28.75193 22.68256
#
# Velocity S-wave (km/s) = 2.71973 3.57793 3.17793
# Velocity P-wave (km/s) = 4.34159 6.58967 5.58001
#
# Compressibility (1/GPa) = 0.04954399
#
# Stress axis : x y z
#
# Youngs Moduli (GPa) = 14.81221 151.12881 44.79786
#
# Poissons Ratio (x) = -0.39173 0.90376
# Poissons Ratio (y) = -0.03839 0.26303
# Poissons Ratio (z) = 0.29882 0.88736
#
# Static dielectric constant tensor:
#      x y z
#    x 2.197530 0.000000 -0.035640 
#    y 0.000000 1.915820 0.000000 
#    z -0.035640 0.000000 1.853880 
# 
# From -- ./inp_files/137458.got.cif
#   From: 2010.05.17/outbox.cif.g08.bks.cpg/sg12_69_cif.got.tgz:137458.got - 2010.06.03 13:09:07.
