data_PCOD9218496
_publ_section_title
;
Structure prediction by ZEFSAII (Michael W. Deem and Ramdas Pophale) SiO2 
 PCOD9218496
Probable space group: C 2/M
;
_chemical_formula_sum "Si O2"
_cell_formula_units_Z 58
_cell_length_a 10.907633
_cell_length_b 16.405299
_cell_length_c 20.680269
_cell_angle_alpha 90.000000
_cell_angle_beta 146.350697
_cell_angle_gamma 90.000000
_cell_volume 2050.526226
_symmetry_space_group_name_H-M "C 2/M"
_symmetry_group_IT_number 12
_symmetry_cell_setting 'monoclinic'
loop_
_space_group_symop_operation_xyz
x,y,z
-x,y,-z
-x,-y,-z
x,-y,z
1/2+x,1/2+y,z
1/2-x,1/2+y,-z
1/2-x,1/2-y,-z
1/2+x,1/2-y,z
loop_
_atom_site_type_symbol
_atom_site_label
_atom_site_fract_x
_atom_site_fract_y
_atom_site_fract_z
Si Si1 0.746669 0.698284 0.136341
Si Si2 0.845745 0.133208 0.117413
Si Si3 0.956155 0.404210 0.130800
Si Si4 0.275433 0.909783 0.592473
Si Si5 0.696520 0.225355 0.553991
Si Si6 0.000000 0.500000 0.000000
Si Si7 0.826788 0.351246 0.311119
Si Si8 0.465937 0.592565 0.338476
O O1 0.850253 0.777506 0.149460
O O2 0.873318 0.617834 0.165840
O O3 0.762628 0.703095 0.220451
O O4 0.500000 0.693519 0.000000
O O5 0.096181 0.103819 0.220904
O O6 0.691079 0.071486 0.087789
O O7 0.715856 0.139112 0.992296
O O8 0.936425 0.500000 0.104640
O O9 0.209923 0.382373 0.231459
O O10 0.262425 0.815737 0.611824
O O11 0.476575 0.906965 0.628386
O O12 0.943743 0.910958 0.548472
O O13 0.292236 0.000000 0.632733
O O14 0.750000 0.250000 0.500000
O O15 0.075204 0.302302 0.582722
O O16 0.873968 0.150725 0.632077
O O17 0.483165 0.500000 0.322297
#
# Coordination Sequence:
#
# PCOD9218496 Si02
#       8
#     8   8   8   8   8   2   8   8
#     4  12  27  46  77 113 155 215 263 317 400 482
#     4  12  27  48  75 112 157 206 268 322 397 473
#     4  11  25  47  78 114 160 207 266 329 396 474
#     4  10  24  46  73 107 149 199 255 323 406 471
#     4  11  26  47  78 115 154 206 265 329 411 479
#     4  12  28  52  72 114 160 212 260 328 406 468
#     4  11  27  49  77 111 158 200 266 334 390 483
#     4   9  21  45  75 109 152 199 255 325 388 478
#
# _framework density 28.285423999999999
#
# number of rings (size 3 to 8) (size 9 to 14) (size 15 to 20)
#    0.000    1.103    2.759    2.069    6.759    2.483 
#    0.000    3.448    0.000    4.966    0.000    0.000 
#    0.000    0.000    0.000    0.000    0.000    0.000 
#
# Total GULP energy -162232.331947 kJ/mol
# GULP energy per Si atom -5594.218343 kJ/mol
# Density = 2.822104 g / cm^3
# Si number density = 28.285424 Si / 1000 Ang^3
#
#
#
# Elastic Constant Matrix: (Units=GPa)
#
#
# Indices 1 2 3 4 5 6 
#
# 1 124.9053 54.0307 66.2314 0.0000 -8.1542 0.0000
# 2 54.0307 195.9060 64.3419 0.0001 19.7649 0.0000
# 3 66.2314 64.3419 220.2683 0.0013 13.0206 0.0001
# 4 0.0000 0.0001 0.0013 50.5937 0.0000 10.3890
# 5 -8.1542 19.7649 13.0206 0.0000 81.1148 0.0000
# 6 0.0000 0.0000 0.0001 10.3890 0.0000 56.2522
#
#
#
# Elastic Compliance Matrix: (Units=1/GPa)
#
#
# Indices 1 2 3 4 5 6 
#
# 1 0.010496 -0.002238 -0.002622 0.000000 0.002021 0.000000
# 2 -0.002238 0.006226 -0.001053 0.000000 -0.001573 0.000000
# 3 -0.002622 -0.001053 0.005690 0.000000 -0.000920 0.000000
# 4 0.000000 0.000000 0.000000 0.020544 0.000000 -0.003794
# 5 0.002021 -0.001573 -0.000920 0.000000 0.013062 0.000000
# 6 0.000000 0.000000 0.000000 -0.003794 0.000000 0.018478
#
#
# Mechanical properties :
#
#
# Convention : Reuss Voigt Hill
#
# Bulk Modulus (GPa) = 94.44897 101.14308 97.79603
# Shear Modulus (GPa) = 55.64738 61.35719 58.50228
#
# Velocity S-wave (km/s) = 4.44030 4.66254 4.55277
# Velocity P-wave (km/s) = 7.72995 8.05117 7.89220
#
# Compressibility (1/GPa) = 0.01058773
#
# Stress axis : x y z
#
# Youngs Moduli (GPa) = 95.27215 160.61324 175.73924
#
# Poissons Ratio (x) = 0.35940 0.46077
# Poissons Ratio (y) = 0.21319 0.18503
# Poissons Ratio (z) = 0.24980 0.16911
#
# Static dielectric constant tensor:
#      x y z
#    x 2.451360 0.000000 -0.066460 
#    y 0.000000 2.154450 0.000000 
#    z -0.066460 0.000000 2.279130 
# 
# From -- ./inp_files/374370.got.cif
#   From: 2010.05.17/outbox.cif.g08.bks.cpg/sg12_188_cif.got.tgz:374370.got - 2010.06.03 13:09:07.
