data_PCOD9218222
_publ_section_title
;
Structure prediction by ZEFSAII (Michael W. Deem and Ramdas Pophale) SiO2 
 PCOD9218222
Probable space group: C 2/M
;
_chemical_formula_sum "Si O2"
_cell_formula_units_Z 56
_cell_length_a 11.576801
_cell_length_b 19.186942
_cell_length_c 11.662380
_cell_angle_alpha 90.000000
_cell_angle_beta 85.102647
_cell_angle_gamma 90.000000
_cell_volume 2581.030361
_symmetry_space_group_name_H-M "C 2/M"
_symmetry_group_IT_number 12
_symmetry_cell_setting 'monoclinic'
loop_
_space_group_symop_operation_xyz
x,y,z
-x,y,-z
-x,-y,-z
x,-y,z
1/2+x,1/2+y,z
1/2-x,1/2+y,-z
1/2-x,1/2-y,-z
1/2+x,1/2-y,z
loop_
_atom_site_type_symbol
_atom_site_label
_atom_site_fract_x
_atom_site_fract_y
_atom_site_fract_z
Si Si1 0.072634 0.338168 0.888617
Si Si2 0.649993 0.418031 0.787548
Si Si3 0.235352 0.694075 0.670743
Si Si4 0.082019 0.079766 0.272547
Si Si5 0.422137 0.080059 0.719910
Si Si6 0.208777 0.080622 0.026023
Si Si7 0.892323 0.301882 0.556448
O O1 0.139112 0.298300 0.779092
O O2 0.177709 0.379871 0.939819
O O3 0.984941 0.389414 0.827327
O O4 0.000000 0.303981 0.000000
O O5 0.617067 0.500000 0.800231
O O6 0.549152 0.390671 0.713009
O O7 0.782549 0.416771 0.737438
O O8 0.655393 0.387856 0.915114
O O9 0.319375 0.628660 0.684760
O O10 0.183763 0.683837 0.548646
O O11 0.316293 0.761716 0.656153
O O12 0.115325 0.079275 0.134870
O O13 0.090161 0.000000 0.316011
O O14 0.447918 0.131529 0.613496
O O15 0.457887 0.000000 0.700539
O O16 0.242456 0.000000 0.998820
O O17 0.000000 0.256876 0.500000
#
# Coordination Sequence:
#
# PCOD9218222 Si02
#       7
#     8   8   8   8   8   8   8
#     4  11  20  37  64  99 137 167 211 267 331 397
#     4   9  17  31  52  86 129 170 208 254 316 383
#     4  10  24  43  68  96 126 176 222 270 329 394
#     4   9  18  33  57  91 128 166 218 272 318 374
#     4  11  23  38  64 100 134 170 219 272 328 388
#     4   9  16  27  51  86 128 174 210 248 313 387
#     4  11  24  47  69  90 126 175 226 274 325 392
#
# _framework density 21.696762
#
# number of rings (size 3 to 8) (size 9 to 14) (size 15 to 20)
#    0.000    2.000    2.857    0.857    0.000    6.000 
#    0.000    0.714    0.000    3.000    0.000    0.000 
#    0.000    0.000    0.000    0.000    0.000    0.000 
#
# Total GULP energy -156102.506010 kJ/mol
# GULP energy per Si atom -5575.089500 kJ/mol
# Density = 2.164738 g / cm^3
# Si number density = 21.696762 Si / 1000 Ang^3
#
#
#
# Elastic Constant Matrix: (Units=GPa)
#
#
# Indices 1 2 3 4 5 6 
#
# 1 108.0133 17.6912 19.5004 0.0000 -10.6356 0.0000
# 2 17.6912 49.6603 38.5351 0.0000 -6.1758 0.0000
# 3 19.5004 38.5351 69.3560 0.0000 -10.9354 0.0000
# 4 0.0000 0.0000 0.0000 20.0837 0.0000 -2.1522
# 5 -10.6356 -6.1758 -10.9354 0.0000 34.1812 0.0000
# 6 0.0000 0.0000 0.0000 -2.1522 0.0000 29.2864
#
#
#
# Elastic Compliance Matrix: (Units=1/GPa)
#
#
# Indices 1 2 3 4 5 6 
#
# 1 0.010089 -0.002440 -0.001111 0.000000 0.002343 0.000000
# 2 -0.002440 0.035989 -0.019382 0.000000 -0.000458 0.000000
# 3 -0.001111 -0.019382 0.026216 0.000000 0.004539 0.000000
# 4 0.000000 0.000000 0.000000 0.050187 0.000000 0.003688
# 5 0.002343 -0.000458 0.004539 0.000000 0.031354 0.000000
# 6 0.000000 0.000000 0.000000 0.003688 0.000000 0.034417
#
#
# Mechanical properties :
#
#
# Convention : Reuss Voigt Hill
#
# Bulk Modulus (GPa) = 37.84143 42.05367 39.94755
# Shear Modulus (GPa) = 20.58217 26.79711 23.68964
#
# Velocity S-wave (km/s) = 3.08332 3.51817 3.30790
# Velocity P-wave (km/s) = 5.49133 5.99399 5.74816
#
# Compressibility (1/GPa) = 0.02642606
#
# Stress axis : x y z
#
# Youngs Moduli (GPa) = 99.11621 27.78594 38.14529
#
# Poissons Ratio (x) = 0.06781 0.04239
# Poissons Ratio (y) = 0.24189 0.73934
# Poissons Ratio (z) = 0.11015 0.53855
#
# Static dielectric constant tensor:
#      x y z
#    x 1.830600 0.000000 -0.043750 
#    y 0.000000 1.811850 0.000000 
#    z -0.043750 0.000000 1.806100 
# 
# From -- ./inp_files/133145.got.cif
#   From: 2010.05.17/outbox.cif.g08.bks.cpg/sg12_67_cif.got.tgz:133145.got - 2010.06.03 13:09:07.
