data_PCOD9218244
_publ_section_title
;
Structure prediction by ZEFSAII (Michael W. Deem and Ramdas Pophale) SiO2 
 PCOD9218244
Probable space group: C 2/M
;
_chemical_formula_sum "Si O2"
_cell_formula_units_Z 52
_cell_length_a 8.663832
_cell_length_b 25.952429
_cell_length_c 19.953171
_cell_angle_alpha 90.000000
_cell_angle_beta 34.687770
_cell_angle_gamma 90.000000
_cell_volume 2553.239839
_symmetry_space_group_name_H-M "C 2/M"
_symmetry_group_IT_number 12
_symmetry_cell_setting 'monoclinic'
loop_
_space_group_symop_operation_xyz
x,y,z
-x,y,-z
-x,-y,-z
x,-y,z
1/2+x,1/2+y,z
1/2-x,1/2+y,-z
1/2-x,1/2-y,-z
1/2+x,1/2-y,z
loop_
_atom_site_type_symbol
_atom_site_label
_atom_site_fract_x
_atom_site_fract_y
_atom_site_fract_z
Si Si1 0.659087 0.559741 0.049922
Si Si2 0.500000 0.741329 0.500000
Si Si3 0.317381 0.000000 0.632748
Si Si4 0.575871 0.060086 0.186894
Si Si5 0.863875 0.000000 0.477033
Si Si6 0.046485 0.109300 0.756573
Si Si7 0.545268 0.608959 0.361100
Si Si8 0.570825 0.822060 0.593324
O O1 0.700638 0.500000 0.055913
O O2 0.351624 0.564151 0.130491
O O3 0.670042 0.598882 0.107703
O O4 0.849916 0.568840 0.917937
O O5 0.505212 0.778002 0.562408
O O6 0.775958 0.707459 0.401256
O O7 0.500000 0.000000 0.500000
O O8 0.155489 0.051971 0.700977
O O9 0.547238 0.000000 0.607076
O O10 0.342276 0.101007 0.287511
O O11 0.486330 0.000000 0.223120
O O12 0.934651 0.949173 0.410232
O O13 0.000000 0.000000 0.500000
O O14 0.299117 0.143536 0.693002
O O15 0.942529 0.126866 0.720702
O O16 0.318376 0.643366 0.476842
#
# Coordination Sequence:
#
# PCOD9218244 Si02
#       8
#     8   4   4   8   4   8   8   8
#     4   9  20  36  53  77 116 159 194 225 269 320
#     4  10  24  44  58  80 116 146 186 244 296 352
#     4  12  20  34  47  76 127 149 174 216 278 331
#     4   9  20  36  52  78 117 157 194 230 260 323
#     4  12  26  32  47  82 123 153 188 220 272 339
#     4  12  21  34  56  84 114 156 184 226 277 344
#     4  12  22  35  54  85 116 151 190 230 269 342
#     4  11  23  40  61  86 114 147 187 236 298 344
#
# _framework density 20.366281000000001
#
# number of rings (size 3 to 8) (size 9 to 14) (size 15 to 20)
#    0.000    1.231    6.154    0.923    5.385    0.615 
#    0.000    1.538    0.000    0.000    0.000    6.462 
#    0.000    0.000    0.000    0.000    0.000    0.000 
#
# Total GULP energy -145082.389803 kJ/mol
# GULP energy per Si atom -5580.091916 kJ/mol
# Density = 2.031993 g / cm^3
# Si number density = 20.366281 Si / 1000 Ang^3
#
#
#
# Elastic Constant Matrix: (Units=GPa)
#
#
# Indices 1 2 3 4 5 6 
#
# 1 58.3312 18.0551 8.1618 0.0000 -7.1242 0.0000
# 2 18.0551 80.0100 19.7104 -0.0001 -2.4932 0.0000
# 3 8.1618 19.7104 56.8024 0.0002 6.3630 -0.0004
# 4 0.0000 -0.0001 0.0002 9.4160 -0.0001 1.0906
# 5 -7.1242 -2.4932 6.3630 -0.0001 33.9662 0.0001
# 6 0.0000 0.0000 -0.0004 1.0906 0.0001 30.5766
#
#
#
# Elastic Compliance Matrix: (Units=1/GPa)
#
#
# Indices 1 2 3 4 5 6 
#
# 1 0.019055 -0.003702 -0.001911 0.000000 0.004083 0.000000
# 2 -0.003702 0.014511 -0.004633 0.000000 0.001157 0.000000
# 3 -0.001911 -0.004633 0.019990 -0.000001 -0.004486 0.000000
# 4 0.000000 0.000000 -0.000001 0.106643 0.000001 -0.003804
# 5 0.004083 0.001157 -0.004486 0.000001 0.031223 0.000000
# 6 0.000000 0.000000 0.000000 -0.003804 0.000000 0.032840
#
#
# Mechanical properties :
#
#
# Convention : Reuss Voigt Hill
#
# Bulk Modulus (GPa) = 30.24394 31.88866 31.06630
# Shear Modulus (GPa) = 19.54841 24.73950 22.14395
#
# Velocity S-wave (km/s) = 3.10149 3.48908 3.30098
# Velocity P-wave (km/s) = 5.26383 5.65005 5.46036
#
# Compressibility (1/GPa) = 0.03306448
#
# Stress axis : x y z
#
# Youngs Moduli (GPa) = 52.47852 68.91210 50.02610
#
# Poissons Ratio (x) = 0.25512 0.09559
# Poissons Ratio (y) = 0.19428 0.23177
# Poissons Ratio (z) = 0.10027 0.31927
#
# Static dielectric constant tensor:
#      x y z
#    x 1.872230 0.000000 0.008390 
#    y 0.000000 1.737970 0.000000 
#    z 0.008390 0.000000 1.751950 
# 
# From -- ./inp_files/302286.got.cif
#   From: 2010.05.17/outbox.cif.g08.bks.cpg/sg12_152_cif.got.tgz:302286.got - 2010.06.03 13:09:07.
