data_PCOD9218156
_publ_section_title
;
Structure prediction by ZEFSAII (Michael W. Deem and Ramdas Pophale) SiO2 
 PCOD9218156
Probable space group: C 2/M
;
_chemical_formula_sum "Si O2"
_cell_formula_units_Z 38
_cell_length_a 14.446203
_cell_length_b 20.826564
_cell_length_c 15.522943
_cell_angle_alpha 90.000000
_cell_angle_beta 160.089827
_cell_angle_gamma 90.000000
_cell_volume 1590.456577
_symmetry_space_group_name_H-M "C 2/M"
_symmetry_group_IT_number 12
_symmetry_cell_setting 'monoclinic'
loop_
_space_group_symop_operation_xyz
x,y,z
-x,y,-z
-x,-y,-z
x,-y,z
1/2+x,1/2+y,z
1/2-x,1/2+y,-z
1/2-x,1/2-y,-z
1/2+x,1/2-y,z
loop_
_atom_site_type_symbol
_atom_site_label
_atom_site_fract_x
_atom_site_fract_y
_atom_site_fract_z
Si Si1 0.500000 0.500000 0.500000
Si Si2 0.905455 0.424678 0.243717
Si Si3 0.672129 0.117791 0.298931
Si Si4 0.473790 0.316010 0.111794
Si Si5 0.372503 0.302796 0.218785
Si Si6 0.000000 0.650777 0.500000
O O1 0.285365 0.557375 0.344772
O O2 0.880342 0.500000 0.227962
O O3 0.090747 0.406991 0.323667
O O4 0.995067 0.394045 0.411796
O O5 0.620801 0.389304 0.977577
O O6 0.913366 0.169037 0.526783
O O7 0.399457 0.152123 0.023709
O O8 0.510446 0.302843 0.244687
O O9 0.736173 0.306834 0.284751
O O10 0.235863 0.269469 0.870566
#
# Coordination Sequence:
#
# PCOD9218156 Si02
#       6
#     2   8   8   8   8   4
#     4  12  28  52  76 118 138 190 254 306 372 440
#     4  11  24  45  68 103 146 193 235 300 365 434
#     4  11  25  48  77 105 145 190 243 303 363 439
#     4  10  24  42  72 103 151 190 246 294 361 443
#     4  10  24  47  75 106 147 198 234 300 373 421
#     4  12  23  41  68 109 134 195 236 304 344 451
#
# _framework density 23.892510999999999
#
# number of rings (size 3 to 8) (size 9 to 14) (size 15 to 20)
#    0.000    1.263    3.158    0.947    2.947    8.421 
#    5.684    0.000    0.000    0.000    0.000    0.000 
#    0.000    0.000    0.000    0.000    0.000    0.000 
#
# Total GULP energy -106132.597006 kJ/mol
# GULP energy per Si atom -5585.926158 kJ/mol
# Density = 2.383813 g / cm^3
# Si number density = 23.892511 Si / 1000 Ang^3
#
#
#
# Elastic Constant Matrix: (Units=GPa)
#
#
# Indices 1 2 3 4 5 6 
#
# 1 99.7341 19.3386 34.1606 0.0000 19.4755 0.0002
# 2 19.3386 112.2267 34.3079 -0.0003 -1.3797 0.0008
# 3 34.1606 34.3079 107.6260 0.0010 25.2912 0.0031
# 4 0.0000 -0.0003 0.0010 24.6891 0.0004 6.0783
# 5 19.4755 -1.3797 25.2912 0.0004 29.5577 0.0002
# 6 0.0002 0.0008 0.0031 6.0783 0.0002 29.8671
#
#
#
# Elastic Compliance Matrix: (Units=1/GPa)
#
#
# Indices 1 2 3 4 5 6 
#
# 1 0.012255 -0.001637 -0.001818 0.000000 -0.006595 0.000000
# 2 -0.001637 0.010473 -0.003990 0.000000 0.004981 0.000000
# 3 -0.001818 -0.003990 0.013646 0.000000 -0.010665 -0.000001
# 4 0.000000 0.000000 0.000000 0.042640 0.000000 -0.008678
# 5 -0.006595 0.004981 -0.010665 0.000000 0.047536 0.000001
# 6 0.000000 0.000000 -0.000001 -0.008678 0.000001 0.035248
#
#
# Mechanical properties :
#
#
# Convention : Reuss Voigt Hill
#
# Bulk Modulus (GPa) = 46.54309 55.02235 50.78272
# Shear Modulus (GPa) = 27.19623 32.27478 29.73551
#
# Velocity S-wave (km/s) = 3.37749 3.67935 3.53165
# Velocity P-wave (km/s) = 5.89342 6.41321 6.15880
#
# Compressibility (1/GPa) = 0.02148547
#
# Stress axis : x y z
#
# Youngs Moduli (GPa) = 81.60149 95.47918 73.27944
#
# Poissons Ratio (x) = 0.15630 0.13322
# Poissons Ratio (y) = 0.13358 0.29235
# Poissons Ratio (z) = 0.14835 0.38092
#
# Static dielectric constant tensor:
#      x y z
#    x 1.942150 0.000000 -0.032180 
#    y 0.000000 1.856320 0.000000 
#    z -0.032180 0.000000 1.970410 
# 
# From -- ./inp_files/272478.got.cif
#   From: 2010.05.17/outbox.cif.g08.bks.cpg/sg12_137_cif.got.tgz:272478.got - 2010.06.03 13:09:07.
