data_PCOD9218775
_publ_section_title
;
Structure prediction by ZEFSAII (Michael W. Deem and Ramdas Pophale) SiO2 
 PCOD9218775
Probable space group: C 2/M
;
_chemical_formula_sum "Si O2"
_cell_formula_units_Z 22
_cell_length_a 9.411850
_cell_length_b 19.843630
_cell_length_c 4.949820
_cell_angle_alpha 90.000000
_cell_angle_beta 73.594364
_cell_angle_gamma 90.000000
_cell_volume 886.816407
_symmetry_space_group_name_H-M "C 2/M"
_symmetry_group_IT_number 12
_symmetry_cell_setting 'monoclinic'
loop_
_space_group_symop_operation_xyz
x,y,z
-x,y,-z
-x,-y,-z
x,-y,z
1/2+x,1/2+y,z
1/2-x,1/2+y,-z
1/2-x,1/2-y,-z
1/2+x,1/2-y,z
loop_
_atom_site_type_symbol
_atom_site_label
_atom_site_fract_x
_atom_site_fract_y
_atom_site_fract_z
Si Si1 0.500000 0.500000 0.500000
Si Si2 0.000000 0.311863 0.500000
Si Si3 0.218605 0.110358 0.653248
Si Si4 0.890481 0.500000 0.815618
Si Si5 0.000000 0.778733 0.000000
O O1 0.618399 0.559378 0.535741
O O2 0.132936 0.357004 0.548037
O O3 0.945736 0.266364 0.778257
O O4 0.122632 0.171704 0.812885
O O5 0.283315 0.064140 0.859705
O O6 0.000000 0.500000 0.500000
O O7 0.000000 0.500000 0.000000
#
# Coordination Sequence:
#
# PCOD9218775 Si02
#       5
#     2   4   8   4   4
#     4  10  26  48  82 112 156 192 256 332 388 440
#     4  12  27  49  82 109 159 208 260 310 378 476
#     4  11  26  50  79 116 155 202 262 317 393 452
#     4  11  26  46  78 110 148 199 257 323 373 453
#     4  12  28  49  76 119 156 206 254 320 382 458
#
# _framework density 24.807843999999999
#
# number of rings (size 3 to 8) (size 9 to 14) (size 15 to 20)
#    0.000    0.727    1.818    3.273    2.545   14.545 
#    0.000    0.000    0.000    0.000    0.000    0.000 
#    0.000    0.000    0.000    0.000    0.000    0.000 
#
# Total GULP energy -61380.576122 kJ/mol
# GULP energy per Si atom -5580.052375 kJ/mol
# Density = 2.475138 g / cm^3
# Si number density = 24.807844 Si / 1000 Ang^3
#
#
#
# Elastic Constant Matrix: (Units=GPa)
#
#
# Indices 1 2 3 4 5 6 
#
# 1 211.8102 91.0909 42.1790 0.0000 11.6370 0.0000
# 2 91.0909 172.7933 39.4369 0.0000 4.3392 0.0000
# 3 42.1790 39.4369 91.2217 0.0000 17.5955 0.0000
# 4 0.0000 0.0000 0.0000 -24.0687 0.0000 -30.6664
# 5 11.6370 4.3392 17.5955 0.0000 33.0795 0.0000
# 6 0.0000 0.0000 0.0000 -30.6664 0.0000 21.9225
#
#
#
# Elastic Compliance Matrix: (Units=1/GPa)
#
#
# Indices 1 2 3 4 5 6 
#
# 1 0.006354 -0.002995 -0.001435 0.000000 -0.001079 0.000000
# 2 -0.002995 0.007847 -0.002242 0.000000 0.001217 0.000000
# 3 -0.001435 -0.002242 0.013864 0.000000 -0.006575 0.000000
# 4 0.000000 0.000000 0.000000 -0.014933 0.000000 -0.020889
# 5 -0.001079 0.001217 -0.006575 0.000000 0.033948 0.000000
# 6 0.000000 0.000000 0.000000 -0.020889 0.000000 0.016395
#
#
# Mechanical properties :
#
#
# Convention : Reuss Voigt Hill
#
# Bulk Modulus (GPa) = 67.93495 91.24877 79.59186
# Shear Modulus (GPa) = 61.17915 26.39456 43.78685
#
# Velocity S-wave (km/s) = 4.97139 3.26538 4.20580
# Velocity P-wave (km/s) = 7.77154 7.14696 7.46579
#
# Compressibility (1/GPa) = 0.01471996
#
# Stress axis : x y z
#
# Youngs Moduli (GPa) = 157.37173 127.42984 72.13128
#
# Poissons Ratio (x) = 0.38168 0.10352
# Poissons Ratio (y) = 0.47136 0.16175
# Poissons Ratio (z) = 0.22585 0.28576
#
# Static dielectric constant tensor:
#      x y z
#    x 1.960770 0.000000 -0.062870 
#    y 0.000000 1.977670 0.000000 
#    z -0.062870 0.000000 1.996930 
# 
# From -- ./inp_files/2207.got.cif
#   From: 2010.05.17/outbox.cif.g08.bks.cpg/sg12_2_cif.got.tgz:2207.got - 2010.06.03 13:09:07.
