data_PCOD9218147
_publ_section_title
;
Structure prediction by ZEFSAII (Michael W. Deem and Ramdas Pophale) SiO2 
 PCOD9218147
Probable space group: C 2/M
;
_chemical_formula_sum "Si O2"
_cell_formula_units_Z 48
_cell_length_a 9.608981
_cell_length_b 14.902440
_cell_length_c 16.982532
_cell_angle_alpha 90.000000
_cell_angle_beta 85.258848
_cell_angle_gamma 90.000000
_cell_volume 2423.530977
_symmetry_space_group_name_H-M "C 2/M"
_symmetry_group_IT_number 12
_symmetry_cell_setting 'monoclinic'
loop_
_space_group_symop_operation_xyz
x,y,z
-x,y,-z
-x,-y,-z
x,-y,z
1/2+x,1/2+y,z
1/2-x,1/2+y,-z
1/2-x,1/2-y,-z
1/2+x,1/2-y,z
loop_
_atom_site_type_symbol
_atom_site_label
_atom_site_fract_x
_atom_site_fract_y
_atom_site_fract_z
Si Si1 0.865301 0.691710 0.450767
Si Si2 0.511999 0.684786 0.687092
Si Si3 0.440380 0.500000 0.411508
Si Si4 0.654302 0.101514 0.088270
Si Si5 0.335471 0.000000 0.485776
Si Si6 0.249361 0.741755 0.211987
Si Si7 0.679772 0.898188 0.911685
O O1 0.750000 0.750000 0.500000
O O2 0.918292 0.742592 0.373053
O O3 0.809480 0.591526 0.440144
O O4 0.000000 0.685229 0.500000
O O5 0.518355 0.589259 0.640431
O O6 0.613559 0.694228 0.757902
O O7 0.359616 0.721445 0.717843
O O8 0.500000 0.500000 0.500000
O O9 0.271853 0.500000 0.435545
O O10 0.683941 0.167870 0.157528
O O11 0.487913 0.098388 0.084770
O O12 0.702179 0.000000 0.103346
O O13 0.717044 0.128084 0.999963
O O14 0.500000 0.000000 0.500000
O O15 0.276931 0.827341 0.155388
O O16 0.731796 0.000000 0.895041
#
# Coordination Sequence:
#
# PCOD9218147 Si02
#       7
#     8   8   4   8   4   8   8
#     4  11  22  44  65  89 118 159 216 257 317 389
#     4  12  28  42  66  95 133 168 208 278 331 386
#     4  12  28  50  68  94 127 175 214 272 341 395
#     4   9  19  40  67  92 129 179 221 259 308 392
#     4  10  24  42  70  90 116 159 217 262 303 391
#     4  12  24  43  61 101 135 169 210 272 333 376
#     4   9  19  40  67  94 128 178 223 255 310 394
#
# _framework density 19.805813000000001
#
# number of rings (size 3 to 8) (size 9 to 14) (size 15 to 20)
#    0.000    1.333    3.333    3.000    7.000    0.000 
#    3.000    0.000    0.000    2.000    0.000    0.000 
#    0.000    0.000    0.000    0.000    0.000    0.000 
#
# Total GULP energy -133885.236690 kJ/mol
# GULP energy per Si atom -5578.551529 kJ/mol
# Density = 1.976073 g / cm^3
# Si number density = 19.805813 Si / 1000 Ang^3
#
#
#
# Elastic Constant Matrix: (Units=GPa)
#
#
# Indices 1 2 3 4 5 6 
#
# 1 64.7605 18.4189 10.9390 0.0000 -7.0683 0.0000
# 2 18.4189 154.1541 56.5478 0.0000 -6.5984 0.0000
# 3 10.9390 56.5478 73.3186 0.0000 -12.9766 0.0000
# 4 0.0000 0.0000 0.0000 48.9235 0.0000 -6.1718
# 5 -7.0683 -6.5984 -12.9766 0.0000 31.8757 0.0000
# 6 0.0000 0.0000 0.0000 -6.1718 0.0000 25.7114
#
#
#
# Elastic Compliance Matrix: (Units=1/GPa)
#
#
# Indices 1 2 3 4 5 6 
#
# 1 0.016334 -0.001568 -0.000694 0.000000 0.003015 0.000000
# 2 -0.001568 0.009229 -0.007121 0.000000 -0.001336 0.000000
# 3 -0.000694 -0.007121 0.020418 0.000000 0.006684 0.000000
# 4 0.000000 0.000000 0.000000 0.021078 0.000000 0.005060
# 5 0.003015 -0.001336 0.006684 0.000000 0.034485 0.000000
# 6 0.000000 0.000000 0.000000 0.005060 0.000000 0.040108
#
#
# Mechanical properties :
#
#
# Convention : Reuss Voigt Hill
#
# Bulk Modulus (GPa) = 36.74425 51.56050 44.15237
# Shear Modulus (GPa) = 29.50048 35.05729 32.27888
#
# Velocity S-wave (km/s) = 3.86357 4.21176 4.04142
# Velocity P-wave (km/s) = 6.20447 7.05276 6.64217
#
# Compressibility (1/GPa) = 0.02721514
#
# Stress axis : x y z
#
# Youngs Moduli (GPa) = 61.22290 108.35148 48.97743
#
# Poissons Ratio (x) = 0.16989 0.03399
# Poissons Ratio (y) = 0.09600 0.34875
# Poissons Ratio (z) = 0.04249 0.77153
#
# Static dielectric constant tensor:
#      x y z
#    x 1.721510 0.000000 0.020310 
#    y 0.000000 1.777470 0.000000 
#    z 0.020310 0.000000 1.731940 
# 
# From -- ./inp_files/255814.got.cif
#   From: 2010.05.17/outbox.cif.g08.bks.cpg/sg12_128_cif.got.tgz:255814.got - 2010.06.03 13:09:07.
