data_PCOD9218464
_publ_section_title
;
Structure prediction by ZEFSAII (Michael W. Deem and Ramdas Pophale) SiO2 
 PCOD9218464
Probable space group: C 2/M
;
_chemical_formula_sum "Si O2"
_cell_formula_units_Z 40
_cell_length_a 24.909088
_cell_length_b 8.051917
_cell_length_c 8.443173
_cell_angle_alpha 90.000000
_cell_angle_beta 84.367861
_cell_angle_gamma 90.000000
_cell_volume 1685.237729
_symmetry_space_group_name_H-M "C 2/M"
_symmetry_group_IT_number 12
_symmetry_cell_setting 'monoclinic'
loop_
_space_group_symop_operation_xyz
x,y,z
-x,y,-z
-x,-y,-z
x,-y,z
1/2+x,1/2+y,z
1/2-x,1/2+y,-z
1/2-x,1/2-y,-z
1/2+x,1/2-y,z
loop_
_atom_site_type_symbol
_atom_site_label
_atom_site_fract_x
_atom_site_fract_y
_atom_site_fract_z
Si Si1 0.307090 0.311767 0.918042
Si Si2 0.943058 0.699800 0.588578
Si Si3 0.616506 0.696817 0.710893
Si Si4 0.419672 0.813623 0.947872
Si Si5 0.241451 0.801680 0.678617
O O1 0.320621 0.500000 0.961673
O O2 0.355534 0.191262 0.938390
O O3 0.290470 0.299188 0.742530
O O4 0.250000 0.250000 0.000000
O O5 0.942649 0.500000 0.605816
O O6 0.901320 0.737174 0.456914
O O7 0.937968 0.765413 0.772675
O O8 0.000000 0.755423 0.500000
O O9 0.616255 0.500000 0.698195
O O10 0.678867 0.744600 0.734613
O O11 0.577693 0.742694 0.872671
O O12 0.440992 0.000000 0.949540
O O13 0.250000 0.750000 0.500000
O O14 0.247930 0.000000 0.704980
#
# Coordination Sequence:
#
# PCOD9218464 Si02
#       5
#     8   8   8   8   8
#     4  12  23  37  59  89 127 166 207 253 306 372
#     4  10  24  46  69  94 125 164 215 272 327 385
#     4  11  24  41  64  94 129 168 212 264 322 384
#     4  11  23  41  68  96 128 171 216 264 321 381
#     4  11  23  38  58  88 126 169 212 258 312 373
#
# _framework density 23.735523000000001
#
# number of rings (size 3 to 8) (size 9 to 14) (size 15 to 20)
#    0.000    1.000    2.000    4.800    0.000    8.400 
#    0.000    4.000    0.000    0.000    0.000    0.000 
#    0.000    0.000    0.000    0.000    0.000    0.000 
#
# Total GULP energy -111467.029075 kJ/mol
# GULP energy per Si atom -5573.351454 kJ/mol
# Density = 2.368150 g / cm^3
# Si number density = 23.735523 Si / 1000 Ang^3
#
#
#
# Elastic Constant Matrix: (Units=GPa)
#
#
# Indices 1 2 3 4 5 6 
#
# 1 72.8810 9.4967 10.2050 0.0000 -0.2477 0.0000
# 2 9.4967 56.4890 6.6441 0.0000 -3.6415 0.0000
# 3 10.2050 6.6441 153.4788 0.0000 -25.9750 0.0000
# 4 0.0000 0.0000 0.0000 27.8625 0.0000 4.5997
# 5 -0.2477 -3.6415 -25.9750 0.0000 35.8138 0.0000
# 6 0.0000 0.0000 0.0000 4.5997 0.0000 -2.8114
#
#
#
# Elastic Compliance Matrix: (Units=1/GPa)
#
#
# Indices 1 2 3 4 5 6 
#
# 1 0.014158 -0.002319 -0.000985 0.000000 -0.000853 0.000000
# 2 -0.002319 0.018237 -0.000370 0.000000 0.001570 0.000000
# 3 -0.000985 -0.000370 0.007512 0.000000 0.005404 0.000000
# 4 0.000000 0.000000 0.000000 0.028258 0.000000 0.046233
# 5 -0.000853 0.001570 0.005404 0.000000 0.031995 0.000000
# 6 0.000000 0.000000 0.000000 0.046233 0.000000 -0.280053
#
#
# Mechanical properties :
#
#
# Convention : Reuss Voigt Hill
#
# Bulk Modulus (GPa) = 30.71365 37.28226 33.99795
# Shear Modulus (GPa) = -30.92314 29.27318 -0.82498
#
# Velocity S-wave (km/s) = -3.61338 3.51566 -0.59019
# Velocity P-wave (km/s) = 2.10728 5.67638 3.72697
#
# Compressibility (1/GPa) = 0.03255882
#
# Stress axis : x y z
#
# Youngs Moduli (GPa) = 70.63010 54.83311 133.12774
#
# Poissons Ratio (x) = 0.12717 0.13117
# Poissons Ratio (y) = 0.16381 0.04919
# Poissons Ratio (z) = 0.06959 0.02026
#
# Static dielectric constant tensor:
#      x y z
#    x 1.848080 0.000000 -0.134260 
#    y 0.000000 1.748530 0.000000 
#    z -0.134260 0.000000 1.651780 
# 
# From -- ./inp_files/92808.got.cif
#   From: 2010.05.17/outbox.cif.g08.bks.cpg/sg12_47_cif.got.tgz:92808.got - 2010.06.03 13:09:07.
