data_PCOD9218177
_publ_section_title
;
Structure prediction by ZEFSAII (Michael W. Deem and Ramdas Pophale) SiO2 
 PCOD9218177
Probable space group: C 2/M
;
_chemical_formula_sum "Si O2"
_cell_formula_units_Z 48
_cell_length_a 22.559317
_cell_length_b 20.474187
_cell_length_c 7.063336
_cell_angle_alpha 90.000000
_cell_angle_beta 136.889310
_cell_angle_gamma 90.000000
_cell_volume 2229.583814
_symmetry_space_group_name_H-M "C 2/M"
_symmetry_group_IT_number 12
_symmetry_cell_setting 'monoclinic'
loop_
_space_group_symop_operation_xyz
x,y,z
-x,y,-z
-x,-y,-z
x,-y,z
1/2+x,1/2+y,z
1/2-x,1/2+y,-z
1/2-x,1/2-y,-z
1/2+x,1/2-y,z
loop_
_atom_site_type_symbol
_atom_site_label
_atom_site_fract_x
_atom_site_fract_y
_atom_site_fract_z
Si Si1 0.416619 0.342736 0.718117
Si Si2 0.908348 0.264352 0.376921
Si Si3 0.201287 0.618805 0.717143
Si Si4 0.241995 0.577276 0.232303
Si Si5 0.819016 0.783323 0.799690
Si Si6 0.589406 0.926813 0.138282
O O1 0.421985 0.300773 0.536724
O O2 0.329871 0.386000 0.496435
O O3 0.400455 0.292445 0.853374
O O4 0.500000 0.379957 0.000000
O O5 0.862421 0.319828 0.392774
O O6 0.000000 0.284088 0.500000
O O7 0.843358 0.252341 0.049731
O O8 0.281397 0.648055 0.786786
O O9 0.148821 0.570720 0.461934
O O10 0.229052 0.588780 0.979756
O O11 0.248408 0.500000 0.289473
O O12 0.154367 0.602897 0.133540
O O13 0.750000 0.750000 0.500000
O O14 0.566101 0.000000 0.015230
O O15 0.500000 0.894284 0.000000
#
# Coordination Sequence:
#
# PCOD9218177 Si02
#       6
#     8   8   8   8   8   8
#     4  12  24  44  69  96 138 179 220 279 335 397
#     4  12  26  40  63 102 138 172 217 271 338 409
#     4  12  24  39  68  95 133 172 220 268 336 397
#     4  11  25  45  69  97 131 179 231 277 331 389
#     4  12  23  40  64  93 132 177 215 268 334 396
#     4  10  24  43  63  93 132 173 223 278 327 387
#
# _framework density 21.528682
#
# number of rings (size 3 to 8) (size 9 to 14) (size 15 to 20)
#    0.000    0.500    6.667    2.000    2.333    1.000 
#    0.000    2.500    0.000    1.500    0.000    0.000 
#    0.000    0.000    0.000    0.000    0.000    0.000 
#
# Total GULP energy -133994.967082 kJ/mol
# GULP energy per Si atom -5583.123628 kJ/mol
# Density = 2.147968 g / cm^3
# Si number density = 21.528682 Si / 1000 Ang^3
#
#
#
# Elastic Constant Matrix: (Units=GPa)
#
#
# Indices 1 2 3 4 5 6 
#
# 1 82.9024 -5.1004 38.0723 0.0000 -11.0872 0.0000
# 2 -5.1004 41.8802 19.4459 0.0000 -2.3799 0.0000
# 3 38.0723 19.4459 119.1161 0.0000 -13.8902 0.0000
# 4 0.0000 0.0000 0.0000 27.9735 0.0000 -1.0034
# 5 -11.0872 -2.3799 -13.8902 0.0000 37.3689 0.0000
# 6 0.0000 0.0000 0.0000 -1.0034 0.0000 13.6291
#
#
#
# Elastic Compliance Matrix: (Units=1/GPa)
#
#
# Indices 1 2 3 4 5 6 
#
# 1 0.015111 0.004426 -0.005223 0.000000 0.002824 0.000000
# 2 0.004426 0.027133 -0.005738 0.000000 0.000908 0.000000
# 3 -0.005223 -0.005738 0.011266 0.000000 0.002273 0.000000
# 4 0.000000 0.000000 0.000000 0.035843 0.000000 0.002639
# 5 0.002824 0.000908 0.002273 0.000000 0.028501 0.000000
# 6 0.000000 0.000000 0.000000 0.002639 0.000000 0.073567
#
#
# Mechanical properties :
#
#
# Convention : Reuss Voigt Hill
#
# Bulk Modulus (GPa) = 24.72833 38.74822 31.73828
# Shear Modulus (GPa) = 22.93887 28.55968 25.74928
#
# Velocity S-wave (km/s) = 3.26775 3.64619 3.46214
# Velocity P-wave (km/s) = 5.07432 5.98028 5.54583
#
# Compressibility (1/GPa) = 0.04043945
#
# Stress axis : x y z
#
# Youngs Moduli (GPa) = 66.17700 36.85597 88.75978
#
# Poissons Ratio (x) = -0.16312 0.46360
# Poissons Ratio (y) = -0.29290 0.50932
# Poissons Ratio (z) = 0.34565 0.21149
#
# Static dielectric constant tensor:
#      x y z
#    x 1.833400 0.000000 0.062830 
#    y 0.000000 1.815560 0.000000 
#    z 0.062830 0.000000 1.786600 
# 
# From -- ./inp_files/21991.got.cif
#   From: 2010.05.17/outbox.cif.g08.bks.cpg/sg12_11_cif.got.tgz:21991.got - 2010.06.03 13:09:07.
