data_PCOD9218616
_publ_section_title
;
Structure prediction by ZEFSAII (Michael W. Deem and Ramdas Pophale) SiO2 
 PCOD9218616
Probable space group: C 2/M
;
_chemical_formula_sum "Si O2"
_cell_formula_units_Z 48
_cell_length_a 14.361899
_cell_length_b 23.741703
_cell_length_c 13.665057
_cell_angle_alpha 90.000000
_cell_angle_beta 30.299233
_cell_angle_gamma 90.000000
_cell_volume 2350.770240
_symmetry_space_group_name_H-M "C 2/M"
_symmetry_group_IT_number 12
_symmetry_cell_setting 'monoclinic'
loop_
_space_group_symop_operation_xyz
x,y,z
-x,y,-z
-x,-y,-z
x,-y,z
1/2+x,1/2+y,z
1/2-x,1/2+y,-z
1/2-x,1/2-y,-z
1/2+x,1/2-y,z
loop_
_atom_site_type_symbol
_atom_site_label
_atom_site_fract_x
_atom_site_fract_y
_atom_site_fract_z
Si Si1 0.722858 0.674903 0.016801
Si Si2 0.727913 0.563940 0.340808
Si Si3 0.159731 0.562874 0.988266
Si Si4 0.414616 0.675040 0.432135
Si Si5 0.843319 0.279535 0.703773
Si Si6 0.950667 0.714781 0.147502
O O1 0.778536 0.686272 0.856076
O O2 0.862023 0.712724 0.959473
O O3 0.767476 0.612091 0.010756
O O4 0.506564 0.678885 0.242014
O O5 0.660876 0.500000 0.421835
O O6 0.763427 0.569517 0.192092
O O7 0.603536 0.613149 0.501627
O O8 0.937376 0.567594 0.190236
O O9 0.209340 0.500000 0.975299
O O10 0.550812 0.720567 0.361534
O O11 0.204189 0.693821 0.636299
O O12 0.666704 0.264436 0.797947
O O13 0.000000 0.310688 0.500000
O O14 0.000000 0.681355 0.000000
#
# Coordination Sequence:
#
# PCOD9218616 Si02
#       6
#     8   8   8   8   8   8
#     4  12  23  40  62  84 123 163 203 256 301 360
#     4   9  18  34  54  87 125 157 198 245 296 371
#     4   9  19  34  58  88 121 162 201 240 305 368
#     4  11  22  34  56  87 114 159 207 237 292 370
#     4  10  25  42  57  87 120 156 216 250 300 371
#     4  11  22  38  57  82 122 161 191 251 302 356
#
# _framework density 20.418838000000001
#
# number of rings (size 3 to 8) (size 9 to 14) (size 15 to 20)
#    0.000    1.667    3.333    2.500    4.667    3.333 
#    0.000    1.667    0.000    1.500    0.000    0.000 
#    0.000    3.333    0.000    0.000    0.000    0.000 
#
# Total GULP energy -133730.086377 kJ/mol
# GULP energy per Si atom -5572.086932 kJ/mol
# Density = 2.037236 g / cm^3
# Si number density = 20.418838 Si / 1000 Ang^3
#
#
#
# Elastic Constant Matrix: (Units=GPa)
#
#
# Indices 1 2 3 4 5 6 
#
# 1 64.7223 18.8619 28.9622 0.0021 13.6736 0.0070
# 2 18.8619 90.2648 34.4662 -0.0060 24.9203 0.0101
# 3 28.9622 34.4662 183.1201 0.0345 14.4328 -0.0108
# 4 0.0021 -0.0060 0.0345 33.2045 -0.0152 8.8118
# 5 13.6736 24.9203 14.4328 -0.0152 45.0597 0.0037
# 6 0.0070 0.0101 -0.0108 8.8118 0.0037 14.4499
#
#
#
# Elastic Compliance Matrix: (Units=1/GPa)
#
#
# Indices 1 2 3 4 5 6 
#
# 1 0.017737 -0.001871 -0.002165 0.000001 -0.003654 -0.000009
# 2 -0.001871 0.013980 -0.001817 0.000004 -0.006582 -0.000011
# 3 -0.002165 -0.001817 0.006170 -0.000010 -0.000315 0.000013
# 4 0.000001 0.000004 -0.000010 0.035931 0.000014 -0.021911
# 5 -0.003654 -0.006582 -0.000315 0.000014 0.027043 -0.000010
# 6 -0.000009 -0.000011 0.000013 -0.021911 -0.000010 0.082567
#
#
# Mechanical properties :
#
#
# Convention : Reuss Voigt Hill
#
# Bulk Modulus (GPa) = 38.19412 55.85422 47.02417
# Shear Modulus (GPa) = 24.52662 35.59726 30.06194
#
# Velocity S-wave (km/s) = 3.46956 4.17988 3.84117
# Velocity P-wave (km/s) = 5.89885 7.12101 6.53855
#
# Compressibility (1/GPa) = 0.02618204
#
# Stress axis : x y z
#
# Youngs Moduli (GPa) = 56.38035 71.52905 162.07313
#
# Poissons Ratio (x) = 0.13381 0.35091
# Poissons Ratio (y) = 0.10547 0.29443
# Poissons Ratio (z) = 0.12207 0.12994
#
# Static dielectric constant tensor:
#      x y z
#    x 1.749400 -0.000010 -0.010270 
#    y -0.000010 1.827540 0.000020 
#    z -0.010270 0.000020 1.818030 
# 
# From -- ./inp_files/218880.got.cif
#   From: 2010.05.17/outbox.cif.g08.bks.cpg/sg12_110_cif.got.tgz:218880.got - 2010.06.03 13:09:07.
