data_PCOD9218611
_publ_section_title
;
Structure prediction by ZEFSAII (Michael W. Deem and Ramdas Pophale) SiO2 
 PCOD9218611
Probable space group: C 2/M
;
_chemical_formula_sum "Si O2"
_cell_formula_units_Z 52
_cell_length_a 13.161038
_cell_length_b 19.938127
_cell_length_c 12.145535
_cell_angle_alpha 90.000000
_cell_angle_beta 126.868921
_cell_angle_gamma 90.000000
_cell_volume 2549.685945
_symmetry_space_group_name_H-M "C 2/M"
_symmetry_group_IT_number 12
_symmetry_cell_setting 'monoclinic'
loop_
_space_group_symop_operation_xyz
x,y,z
-x,y,-z
-x,-y,-z
x,-y,z
1/2+x,1/2+y,z
1/2-x,1/2+y,-z
1/2-x,1/2-y,-z
1/2+x,1/2-y,z
loop_
_atom_site_type_symbol
_atom_site_label
_atom_site_fract_x
_atom_site_fract_y
_atom_site_fract_z
Si Si1 0.611158 0.577052 0.742436
Si Si2 0.739915 0.621272 0.053303
Si Si3 0.936790 0.201372 0.575338
Si Si4 0.644763 0.000000 0.731273
Si Si5 0.278082 0.116321 0.638615
Si Si6 0.839044 0.500000 0.513851
Si Si7 0.491388 0.200846 0.188056
Si Si8 0.500000 0.695138 0.000000
O O1 0.565758 0.500000 0.712191
O O2 0.501223 0.632883 0.663573
O O3 0.697731 0.589038 0.690068
O O4 0.688861 0.591401 0.904774
O O5 0.805935 0.564622 0.170538
O O6 0.621157 0.651369 0.043453
O O7 0.845505 0.677696 0.095039
O O8 0.792883 0.181909 0.454763
O O9 0.972044 0.262401 0.675665
O O10 0.000000 0.215512 0.500000
O O11 0.492096 0.000000 0.625602
O O12 0.692490 0.000000 0.635855
O O13 0.287422 0.063672 0.546484
O O14 0.418083 0.136938 0.768295
O O15 0.523758 0.255153 0.116796
#
# Coordination Sequence:
#
# PCOD9218611 Si02
#       8
#     8   8   8   4   8   4   8   4
#     4  11  23  44  70  99 136 174 232 289 333 398
#     4  12  26  47  70 101 138 179 229 282 341 408
#     4  10  25  41  65 100 134 180 223 277 342 402
#     4  11  26  46  69 101 142 181 225 282 345 402
#     4  11  24  43  70 101 133 181 231 280 341 403
#     4  11  24  45  66 105 139 183 225 280 341 409
#     4  12  25  45  69  98 138 176 229 280 336 411
#     4  12  28  43  70 101 138 184 224 280 352 402
#
# _framework density 20.394669
#
# number of rings (size 3 to 8) (size 9 to 14) (size 15 to 20)
#    0.000    0.769    4.615    1.846    7.538    2.462 
#    0.000    1.538    0.000    0.000    0.000    0.000 
#    0.000    0.000    0.000    0.000    0.000    0.000 
#
# Total GULP energy -145378.898346 kJ/mol
# GULP energy per Si atom -5591.496090 kJ/mol
# Density = 2.034825 g / cm^3
# Si number density = 20.394669 Si / 1000 Ang^3
#
#
#
# Elastic Constant Matrix: (Units=GPa)
#
#
# Indices 1 2 3 4 5 6 
#
# 1 71.6725 8.5774 14.4953 0.0000 -2.6457 0.0000
# 2 8.5774 44.4102 0.2698 0.0000 -14.3183 0.0000
# 3 14.4953 0.2698 89.0022 0.0000 -21.7313 0.0000
# 4 0.0000 0.0000 0.0000 45.1581 0.0000 -17.0582
# 5 -2.6457 -14.3183 -21.7313 0.0000 30.0216 0.0000
# 6 0.0000 0.0000 0.0000 -17.0582 0.0000 26.1215
#
#
#
# Elastic Compliance Matrix: (Units=1/GPa)
#
#
# Indices 1 2 3 4 5 6 
#
# 1 0.014922 -0.003731 -0.003076 0.000000 -0.002691 0.000000
# 2 -0.003731 0.028564 0.004576 0.000000 0.016607 0.000000
# 3 -0.003076 0.004576 0.014806 0.000000 0.012629 0.000000
# 4 0.000000 0.000000 0.000000 0.029396 0.000000 0.019196
# 5 -0.002691 0.016607 0.012629 0.000000 0.050134 0.000000
# 6 0.000000 0.000000 0.000000 0.019196 0.000000 0.050818
#
#
# Mechanical properties :
#
#
# Convention : Reuss Voigt Hill
#
# Bulk Modulus (GPa) = 18.57687 27.97442 23.27565
# Shear Modulus (GPa) = 23.69155 32.37641 28.03398
#
# Velocity S-wave (km/s) = 3.41200 3.98866 3.71155
# Velocity P-wave (km/s) = 4.96496 5.91260 5.45938
#
# Compressibility (1/GPa) = 0.05383038
#
# Stress axis : x y z
#
# Youngs Moduli (GPa) = 67.01699 35.00873 67.53865
#
# Poissons Ratio (x) = 0.13061 0.20774
# Poissons Ratio (y) = 0.25003 -0.30905
# Poissons Ratio (z) = 0.20614 -0.16019
#
# Static dielectric constant tensor:
#      x y z
#    x 1.787530 0.000000 -0.078050 
#    y 0.000000 1.715510 0.000000 
#    z -0.078050 0.000000 1.819220 
# 
# From -- ./inp_files/134073.got.cif
#   From: 2010.05.17/outbox.cif.g08.bks.cpg/sg12_68_cif.got.tgz:134073.got - 2010.06.03 13:09:07.
