data_PCOD9218019
_publ_section_title
;
Structure prediction by ZEFSAII (Michael W. Deem and Ramdas Pophale) SiO2 
 PCOD9218019
Probable space group: C 2/M
;
_chemical_formula_sum "Si O2"
_cell_formula_units_Z 44
_cell_length_a 8.797609
_cell_length_b 15.192599
_cell_length_c 16.340567
_cell_angle_alpha 90.000000
_cell_angle_beta 80.029659
_cell_angle_gamma 90.000000
_cell_volume 2151.071730
_symmetry_space_group_name_H-M "C 2/M"
_symmetry_group_IT_number 12
_symmetry_cell_setting 'monoclinic'
loop_
_space_group_symop_operation_xyz
x,y,z
-x,y,-z
-x,-y,-z
x,-y,z
1/2+x,1/2+y,z
1/2-x,1/2+y,-z
1/2-x,1/2-y,-z
1/2+x,1/2-y,z
loop_
_atom_site_type_symbol
_atom_site_label
_atom_site_fract_x
_atom_site_fract_y
_atom_site_fract_z
Si Si1 0.406324 0.000000 0.754978
Si Si2 0.596921 0.683481 0.295963
Si Si3 0.256029 0.672751 0.889875
Si Si4 0.940757 0.500000 0.097742
Si Si5 0.314631 0.000000 0.523851
Si Si6 0.741961 0.500000 0.342627
Si Si7 0.500000 0.704197 0.000000
Si Si8 0.759541 0.351873 0.660327
O O1 0.323727 0.914411 0.726392
O O2 0.419687 0.000000 0.851085
O O3 0.581204 0.000000 0.704583
O O4 0.670096 0.706827 0.200972
O O5 0.661729 0.588987 0.318371
O O6 0.414577 0.675410 0.306046
O O7 0.641674 0.762841 0.352212
O O8 0.164557 0.584396 0.878553
O O9 0.393284 0.656153 0.942696
O O10 0.126535 0.737016 0.939916
O O11 0.000000 0.500000 0.000000
O O12 0.500000 0.000000 0.500000
O O13 0.243828 0.000000 0.440628
O O14 0.267808 0.086301 0.579725
#
# Coordination Sequence:
#
# PCOD9218019 Si02
#       8
#     4   8   8   4   4   4   4   8
#     4  11  23  45  68  96 139 184 222 291 339 408
#     4  12  25  43  72 104 136 186 234 281 341 424
#     4  11  23  43  64  98 135 179 231 280 341 402
#     4  12  25  39  67  97 135 177 229 275 346 400
#     4  11  25  49  72 100 144 174 225 286 351 418
#     4  12  23  45  74  97 141 180 219 292 345 403
#     4  10  24  40  68  94 138 178 222 296 334 388
#     4  11  26  44  71 103 136 183 231 278 351 413
#
# _framework density 20.454919
#
# number of rings (size 3 to 8) (size 9 to 14) (size 15 to 20)
#    0.000    0.727    4.545    3.273    2.545    4.000 
#    0.000    0.000    0.000    0.000    0.000    0.000 
#    0.000    0.000    0.000    0.000    0.000    0.000 
#
# Total GULP energy -123050.017017 kJ/mol
# GULP energy per Si atom -5593.182592 kJ/mol
# Density = 2.040836 g / cm^3
# Si number density = 20.454919 Si / 1000 Ang^3
#
#
#
# Elastic Constant Matrix: (Units=GPa)
#
#
# Indices 1 2 3 4 5 6 
#
# 1 131.9214 36.6927 18.6834 0.0000 7.1791 0.0000
# 2 36.6927 109.1351 10.1046 0.0000 10.1184 0.0000
# 3 18.6834 10.1046 106.7790 0.0000 15.0489 0.0000
# 4 0.0000 0.0000 0.0000 19.8675 0.0000 10.4479
# 5 7.1791 10.1184 15.0489 0.0000 39.8770 0.0000
# 6 0.0000 0.0000 0.0000 10.4479 0.0000 39.3413
#
#
#
# Elastic Compliance Matrix: (Units=1/GPa)
#
#
# Indices 1 2 3 4 5 6 
#
# 1 0.008525 -0.002720 -0.001178 0.000000 -0.000400 0.000000
# 2 -0.002720 0.010286 -0.000210 0.000000 -0.002041 0.000000
# 3 -0.001178 -0.000210 0.010090 0.000000 -0.003543 0.000000
# 4 0.000000 0.000000 0.000000 0.058504 0.000000 -0.015537
# 5 -0.000400 -0.002041 -0.003543 0.000000 0.027004 0.000000
# 6 0.000000 0.000000 0.000000 -0.015537 0.000000 0.029545
#
#
# Mechanical properties :
#
#
# Convention : Reuss Voigt Hill
#
# Bulk Modulus (GPa) = 48.34131 53.19965 50.77048
# Shear Modulus (GPa) = 31.43349 38.64083 35.03716
#
# Velocity S-wave (km/s) = 3.92436 4.35106 4.14321
# Velocity P-wave (km/s) = 6.64970 7.16289 6.91106
#
# Compressibility (1/GPa) = 0.02068624
#
# Stress axis : x y z
#
# Youngs Moduli (GPa) = 117.29558 97.21769 99.10434
#
# Poissons Ratio (x) = 0.26445 0.11674
# Poissons Ratio (y) = 0.31907 0.02079
# Poissons Ratio (z) = 0.13816 0.02039
#
# Static dielectric constant tensor:
#      x y z
#    x 1.690560 0.000000 0.012980 
#    y 0.000000 1.700730 0.000000 
#    z 0.012980 0.000000 1.761760 
# 
# From -- ./inp_files/255400.got.cif
#   From: 2010.05.17/outbox.cif.g08.bks.cpg/sg12_128_cif.got.tgz:255400.got - 2010.06.03 13:09:07.
