data_PCOD9218029
_publ_section_title
;
Structure prediction by ZEFSAII (Michael W. Deem and Ramdas Pophale) SiO2 
 PCOD9218029
Probable space group: C 2/M
;
_chemical_formula_sum "Si O2"
_cell_formula_units_Z 38
_cell_length_a 16.591933
_cell_length_b 13.917654
_cell_length_c 10.318849
_cell_angle_alpha 90.000000
_cell_angle_beta 42.896737
_cell_angle_gamma 90.000000
_cell_volume 1621.947250
_symmetry_space_group_name_H-M "C 2/M"
_symmetry_group_IT_number 12
_symmetry_cell_setting 'monoclinic'
loop_
_space_group_symop_operation_xyz
x,y,z
-x,y,-z
-x,-y,-z
x,-y,z
1/2+x,1/2+y,z
1/2-x,1/2+y,-z
1/2-x,1/2-y,-z
1/2+x,1/2-y,z
loop_
_atom_site_type_symbol
_atom_site_label
_atom_site_fract_x
_atom_site_fract_y
_atom_site_fract_z
Si Si1 0.767792 0.500000 0.161979
Si Si2 0.465430 0.000000 0.230476
Si Si3 0.000000 0.500000 0.500000
Si Si4 0.721945 0.500000 0.908199
Si Si5 0.342463 0.705873 0.086013
Si Si6 0.920455 0.284655 0.270337
Si Si7 0.368028 0.311013 0.603799
O O1 0.706902 0.407768 0.297712
O O2 0.910505 0.500000 0.995348
O O3 0.735817 0.500000 0.047066
O O4 0.493403 0.000000 0.350402
O O5 0.400151 0.898626 0.284542
O O6 0.850458 0.500000 0.687407
O O7 0.649804 0.594608 0.953418
O O8 0.372678 0.730888 0.199610
O O9 0.207537 0.736903 0.220464
O O10 0.437630 0.768138 0.896112
O O11 0.874343 0.235233 0.454255
O O12 0.500000 0.324616 0.500000
#
# Coordination Sequence:
#
# PCOD9218029 Si02
#       7
#     4   4   2   4   8   8   8
#     4  11  25  45  73 109 153 183 242 306 368 425
#     4  11  23  47  72 110 142 191 242 305 354 433
#     4  10  24  40  72 106 140 190 240 290 360 426
#     4  11  25  45  70 106 152 191 242 304 364 430
#     4  11  26  46  69 109 143 201 241 301 359 440
#     4  11  26  45  75 104 149 194 245 297 367 433
#     4  12  26  43  71 108 147 192 242 299 365 436
#
# _framework density 23.428629000000001
#
# number of rings (size 3 to 8) (size 9 to 14) (size 15 to 20)
#    0.000    0.842    2.105    3.474    8.842    7.579 
#    0.000    0.000    0.000    0.000    0.000    0.000 
#    0.000    0.000    0.000    0.000    0.000    0.000 
#
# Total GULP energy -106164.707845 kJ/mol
# GULP energy per Si atom -5587.616202 kJ/mol
# Density = 2.337530 g / cm^3
# Si number density = 23.428629 Si / 1000 Ang^3
#
#
#
# Elastic Constant Matrix: (Units=GPa)
#
#
# Indices 1 2 3 4 5 6 
#
# 1 112.6689 42.3003 37.1272 0.0000 5.9061 0.0000
# 2 42.3003 191.8433 42.0234 0.0000 22.7968 0.0000
# 3 37.1272 42.0234 159.9861 0.0000 -1.6561 0.0000
# 4 0.0000 0.0000 0.0000 152.2648 0.0000 15.4934
# 5 5.9061 22.7968 -1.6561 0.0000 28.5053 0.0000
# 6 0.0000 0.0000 0.0000 15.4934 0.0000 13.2811
#
#
#
# Elastic Compliance Matrix: (Units=1/GPa)
#
#
# Indices 1 2 3 4 5 6 
#
# 1 0.010202 -0.001728 -0.001922 0.000000 -0.000843 0.000000
# 2 -0.001728 0.006471 -0.001349 0.000000 -0.004895 0.000000
# 3 -0.001922 -0.001349 0.007071 0.000000 0.001888 0.000000
# 4 0.000000 0.000000 0.000000 0.007452 0.000000 -0.008693
# 5 -0.000843 -0.004895 0.001888 0.000000 0.039281 0.000000
# 6 0.000000 0.000000 0.000000 -0.008693 0.000000 0.085436
#
#
# Mechanical properties :
#
#
# Convention : Reuss Voigt Hill
#
# Bulk Modulus (GPa) = 72.75948 78.59999 75.67973
# Shear Modulus (GPa) = 29.32658 61.68006 45.50332
#
# Velocity S-wave (km/s) = 3.54183 5.13653 4.41183
# Velocity P-wave (km/s) = 6.91732 8.29458 7.63706
#
# Compressibility (1/GPa) = 0.01374391
#
# Stress axis : x y z
#
# Youngs Moduli (GPa) = 98.01941 154.53723 141.43026
#
# Poissons Ratio (x) = 0.26707 0.27188
# Poissons Ratio (y) = 0.16940 0.19084
# Poissons Ratio (z) = 0.18843 0.20852
#
# Static dielectric constant tensor:
#      x y z
#    x 1.906030 0.000000 -0.046200 
#    y 0.000000 1.933850 0.000000 
#    z -0.046200 0.000000 1.905420 
# 
# From -- ./inp_files/165430.got.cif
#   From: 2010.05.17/outbox.cif.g08.bks.cpg/sg12_83_cif.got.tgz:165430.got - 2010.06.03 13:09:07.
