data_PCOD9218287
_publ_section_title
;
Structure prediction by ZEFSAII (Michael W. Deem and Ramdas Pophale) SiO2 
 PCOD9218287
Probable space group: C 2/M
;
_chemical_formula_sum "Si O2"
_cell_formula_units_Z 40
_cell_length_a 10.556403
_cell_length_b 24.272685
_cell_length_c 13.491875
_cell_angle_alpha 90.000000
_cell_angle_beta 145.799970
_cell_angle_gamma 90.000000
_cell_volume 1943.153759
_symmetry_space_group_name_H-M "C 2/M"
_symmetry_group_IT_number 12
_symmetry_cell_setting 'monoclinic'
loop_
_space_group_symop_operation_xyz
x,y,z
-x,y,-z
-x,-y,-z
x,-y,z
1/2+x,1/2+y,z
1/2-x,1/2+y,-z
1/2-x,1/2-y,-z
1/2+x,1/2-y,z
loop_
_atom_site_type_symbol
_atom_site_label
_atom_site_fract_x
_atom_site_fract_y
_atom_site_fract_z
Si Si1 0.499845 0.759317 0.618837
Si Si2 0.886911 0.934969 0.612644
Si Si3 0.100431 0.062509 0.955446
Si Si4 0.766169 0.350636 0.790682
Si Si5 0.489682 0.865346 0.731990
O O1 0.500000 0.765065 0.500000
O O2 0.250000 0.750000 0.500000
O O3 0.647614 0.706437 0.744199
O O4 0.577083 0.815473 0.721471
O O5 0.094130 0.900878 0.698593
O O6 0.655239 0.908061 0.426605
O O7 0.896674 0.000000 0.595336
O O8 0.920404 0.927968 0.752406
O O9 0.304294 0.104515 0.081817
O O10 0.185629 0.000000 0.996303
O O11 0.000000 0.066548 0.000000
O O12 0.823840 0.345574 0.711820
O O13 0.000000 0.358496 0.000000
#
# Coordination Sequence:
#
# PCOD9218287 Si02
#       5
#     8   8   8   8   8
#     4  12  25  46  70  99 138 182 229 286 343 410
#     4  11  24  43  71 102 136 180 226 279 351 418
#     4  10  24  44  66 102 142 179 231 287 341 415
#     4  12  25  46  69 101 139 177 233 290 345 414
#     4  12  25  44  72  99 139 181 231 286 350 409
#
# _framework density 20.585092
#
# number of rings (size 3 to 8) (size 9 to 14) (size 15 to 20)
#    0.000    0.600    6.000    1.200    2.800    4.400 
#    0.000    3.000    0.000    0.000    0.000    0.000 
#    0.000    0.000    0.000    0.000    0.000    0.000 
#
# Total GULP energy -111863.514104 kJ/mol
# GULP energy per Si atom -5593.175705 kJ/mol
# Density = 2.053824 g / cm^3
# Si number density = 20.585092 Si / 1000 Ang^3
#
#
#
# Elastic Constant Matrix: (Units=GPa)
#
#
# Indices 1 2 3 4 5 6 
#
# 1 75.3501 26.2054 -5.8047 0.0000 -17.9260 0.0000
# 2 26.2054 133.0125 39.6256 0.0000 -2.7340 0.0000
# 3 -5.8047 39.6256 67.3276 0.0000 -9.8371 0.0000
# 4 0.0000 0.0000 0.0000 33.6113 0.0000 3.7809
# 5 -17.9260 -2.7340 -9.8371 0.0000 27.3798 0.0000
# 6 0.0000 0.0000 0.0000 3.7809 0.0000 14.7088
#
#
#
# Elastic Compliance Matrix: (Units=1/GPa)
#
#
# Indices 1 2 3 4 5 6 
#
# 1 0.019233 -0.005600 0.007084 0.000000 0.014578 0.000000
# 2 -0.005600 0.010777 -0.007603 0.000000 -0.005322 0.000000
# 3 0.007084 -0.007603 0.021641 0.000000 0.011654 0.000000
# 4 0.000000 0.000000 0.000000 0.030638 0.000000 -0.007875
# 5 0.014578 -0.005322 0.011654 0.000000 0.049723 0.000000
# 6 0.000000 0.000000 0.000000 -0.007875 0.000000 0.070011
#
#
# Mechanical properties :
#
#
# Convention : Reuss Voigt Hill
#
# Bulk Modulus (GPa) = 25.37261 43.97141 34.67201
# Shear Modulus (GPa) = 21.98786 29.51758 25.75272
#
# Velocity S-wave (km/s) = 3.27179 3.79084 3.54084
# Velocity P-wave (km/s) = 5.15997 6.36928 5.79625
#
# Compressibility (1/GPa) = 0.03941258
#
# Stress axis : x y z
#
# Youngs Moduli (GPa) = 51.99469 92.79023 46.20846
#
# Poissons Ratio (x) = 0.51961 -0.32734
# Poissons Ratio (y) = 0.29116 0.35133
# Poissons Ratio (z) = -0.36832 0.70550
#
# Static dielectric constant tensor:
#      x y z
#    x 1.740550 0.000000 -0.014620 
#    y 0.000000 1.735420 0.000000 
#    z -0.014620 0.000000 1.713840 
# 
# From -- ./inp_files/208537.got.cif
#   From: 2010.05.17/outbox.cif.g08.bks.cpg/sg12_105_cif.got.tgz:208537.got - 2010.06.03 13:09:07.
