data_PCOD9218371
_publ_section_title
;
Structure prediction by ZEFSAII (Michael W. Deem and Ramdas Pophale) SiO2 
 PCOD9218371
Probable space group: C 2/M
;
_chemical_formula_sum "Si O2"
_cell_formula_units_Z 48
_cell_length_a 12.170584
_cell_length_b 31.963465
_cell_length_c 9.735446
_cell_angle_alpha 90.000000
_cell_angle_beta 35.404890
_cell_angle_gamma 90.000000
_cell_volume 2194.131681
_symmetry_space_group_name_H-M "C 2/M"
_symmetry_group_IT_number 12
_symmetry_cell_setting 'monoclinic'
loop_
_space_group_symop_operation_xyz
x,y,z
-x,y,-z
-x,-y,-z
x,-y,z
1/2+x,1/2+y,z
1/2-x,1/2+y,-z
1/2-x,1/2-y,-z
1/2+x,1/2-y,z
loop_
_atom_site_type_symbol
_atom_site_label
_atom_site_fract_x
_atom_site_fract_y
_atom_site_fract_z
Si Si1 0.729157 0.952906 0.385363
Si Si2 0.106087 0.308322 0.747685
Si Si3 0.289260 0.812828 0.752385
Si Si4 0.416782 0.886218 0.784694
Si Si5 0.644405 0.547182 0.063688
Si Si6 0.043818 0.785839 0.737983
O O1 0.574944 0.919102 0.579943
O O2 0.784377 0.952300 0.168185
O O3 0.658138 0.000000 0.486078
O O4 0.920105 0.946024 0.278197
O O5 0.059025 0.264110 0.722828
O O6 0.337277 0.306374 0.508055
O O7 0.020884 0.348971 0.760475
O O8 0.000000 0.305641 0.000000
O O9 0.500000 0.796847 0.500000
O O10 0.315987 0.861452 0.762317
O O11 0.162473 0.803350 0.748813
O O12 0.172309 0.796318 0.003543
O O13 0.256141 0.914770 0.020278
O O14 0.678516 0.500000 0.082406
#
# Coordination Sequence:
#
# PCOD9218371 Si02
#       6
#     8   8   8   8   8   8
#     4   9  19  35  56  88 129 156 183 248 324 373
#     4  11  24  46  60  84 127 171 210 258 307 362
#     4  11  21  39  65  97 115 158 207 258 316 361
#     4  12  23  32  62  92 119 158 208 251 301 371
#     4   9  19  35  57  89 126 158 189 245 320 375
#     4  10  24  45  63  82 129 163 204 267 314 361
#
# _framework density 21.876536000000002
#
# number of rings (size 3 to 8) (size 9 to 14) (size 15 to 20)
#    0.000    1.667    3.333    3.000    2.333    3.333 
#    0.000    0.833    0.000    2.000    0.000    2.333 
#    0.000    0.000    0.000    0.000    0.000    0.000 
#
# Total GULP energy -133910.281002 kJ/mol
# GULP energy per Si atom -5579.595042 kJ/mol
# Density = 2.182674 g / cm^3
# Si number density = 21.876536 Si / 1000 Ang^3
#
#
#
# Elastic Constant Matrix: (Units=GPa)
#
#
# Indices 1 2 3 4 5 6 
#
# 1 37.8271 42.8626 30.7744 0.0000 -13.2401 0.0000
# 2 42.8626 172.0714 54.1484 0.0000 -20.5897 0.0000
# 3 30.7744 54.1484 153.2819 0.0000 -16.1560 0.0000
# 4 0.0000 0.0000 0.0000 28.4214 0.0000 -19.5042
# 5 -13.2401 -20.5897 -16.1560 0.0000 32.1172 0.0000
# 6 0.0000 0.0000 0.0000 -19.5042 0.0000 25.5943
#
#
#
# Elastic Compliance Matrix: (Units=1/GPa)
#
#
# Indices 1 2 3 4 5 6 
#
# 1 0.042880 -0.007978 -0.004717 0.000000 0.010190 0.000000
# 2 -0.007978 0.008349 -0.001194 0.000000 0.001464 0.000000
# 3 -0.004717 -0.001194 0.008033 0.000000 0.001331 0.000000
# 4 0.000000 0.000000 0.000000 0.073756 0.000000 0.056206
# 5 0.010190 0.001464 0.001331 0.000000 0.036945 0.000000
# 6 0.000000 0.000000 0.000000 0.056206 0.000000 0.081903
#
#
# Mechanical properties :
#
#
# Convention : Reuss Voigt Hill
#
# Bulk Modulus (GPa) = 31.76011 68.75012 50.25511
# Shear Modulus (GPa) = 17.23320 32.91957 25.07638
#
# Velocity S-wave (km/s) = 2.80973 3.88337 3.38933
# Velocity P-wave (km/s) = 5.00755 7.18346 6.19183
#
# Compressibility (1/GPa) = 0.03148604
#
# Stress axis : x y z
#
# Youngs Moduli (GPa) = 23.32109 119.76779 124.48850
#
# Poissons Ratio (x) = 0.95546 0.58718
# Poissons Ratio (y) = 0.18605 0.14859
# Poissons Ratio (z) = 0.11000 0.14296
#
# Static dielectric constant tensor:
#      x y z
#    x 1.888440 0.000000 -0.017560 
#    y 0.000000 1.810670 0.000000 
#    z -0.017560 0.000000 1.884910 
# 
# From -- ./inp_files/150193.got.cif
#   From: 2010.05.17/outbox.cif.g08.bks.cpg/sg12_76_cif.got.tgz:150193.got - 2010.06.03 13:09:07.
