data_PCOD9218328
_publ_section_title
;
Structure prediction by ZEFSAII (Michael W. Deem and Ramdas Pophale) SiO2 
 PCOD9218328
Probable space group: C 2/M
;
_chemical_formula_sum "Si O2"
_cell_formula_units_Z 40
_cell_length_a 16.875680
_cell_length_b 21.832992
_cell_length_c 7.261568
_cell_angle_alpha 90.000000
_cell_angle_beta 141.931585
_cell_angle_gamma 90.000000
_cell_volume 1649.718545
_symmetry_space_group_name_H-M "C 2/M"
_symmetry_group_IT_number 12
_symmetry_cell_setting 'monoclinic'
loop_
_space_group_symop_operation_xyz
x,y,z
-x,y,-z
-x,-y,-z
x,-y,z
1/2+x,1/2+y,z
1/2-x,1/2+y,-z
1/2-x,1/2-y,-z
1/2+x,1/2-y,z
loop_
_atom_site_type_symbol
_atom_site_label
_atom_site_fract_x
_atom_site_fract_y
_atom_site_fract_z
Si Si1 0.862133 0.300782 0.696905
Si Si2 0.373763 0.611485 0.391529
Si Si3 0.353742 0.928494 0.288609
Si Si4 0.293306 0.932757 0.615341
Si Si5 0.632680 0.248383 0.648178
O O1 0.750000 0.250000 0.500000
O O2 0.854566 0.366498 0.780915
O O3 0.856769 0.308236 0.469021
O O4 0.000000 0.273053 0.000000
O O5 0.500000 0.595957 0.500000
O O6 0.341694 0.573977 0.519976
O O7 0.380953 0.683189 0.459780
O O8 0.253062 0.603489 0.033973
O O9 0.500000 0.909306 0.500000
O O10 0.307944 0.930768 0.420399
O O11 0.348939 0.000000 0.222397
O O12 0.346991 0.000000 0.768203
O O13 0.500000 0.238639 0.500000
O O14 0.750000 0.250000 0.000000
#
# Coordination Sequence:
#
# PCOD9218328 Si02
#       5
#     8   8   8   8   8
#     4  12  26  46  73 107 148 190 246 310 369 440
#     4  11  25  46  71 105 147 194 248 307 366 445
#     4  10  24  44  69 104 146 190 243 302 362 445
#     4  11  26  47  75 110 151 199 246 302 380 447
#     4  11  24  44  71 104 140 189 246 303 370 438
#
# _framework density 24.246559999999999
#
# number of rings (size 3 to 8) (size 9 to 14) (size 15 to 20)
#    0.000    1.000    2.000    3.000    2.800    6.000 
#    0.000    2.000    0.000    0.000    0.000    0.000 
#    0.000    0.000    0.000    0.000    0.000    0.000 
#
# Total GULP energy -111425.242666 kJ/mol
# GULP energy per Si atom -5571.262133 kJ/mol
# Density = 2.419137 g / cm^3
# Si number density = 24.246560 Si / 1000 Ang^3
#
#
#
# Elastic Constant Matrix: (Units=GPa)
#
#
# Indices 1 2 3 4 5 6 
#
# 1 189.9689 44.3972 55.0345 0.0000 19.4036 0.0000
# 2 44.3972 153.6921 35.5796 0.0000 28.6830 0.0000
# 3 55.0345 35.5796 138.5735 0.0000 25.7348 0.0000
# 4 0.0000 0.0000 0.0000 -0.6940 0.0000 -10.3523
# 5 19.4036 28.6830 25.7348 0.0000 37.5651 0.0000
# 6 0.0000 0.0000 0.0000 -10.3523 0.0000 34.9117
#
#
#
# Elastic Compliance Matrix: (Units=1/GPa)
#
#
# Indices 1 2 3 4 5 6 
#
# 1 0.006209 -0.001153 -0.001991 0.000000 -0.000963 0.000000
# 2 -0.001153 0.007925 -0.000646 0.000000 -0.005013 0.000000
# 3 -0.001991 -0.000646 0.009041 0.000000 -0.004672 0.000000
# 4 0.000000 0.000000 0.000000 -0.265691 0.000000 -0.078785
# 5 -0.000963 -0.005013 -0.004672 0.000000 0.034146 0.000000
# 6 0.000000 0.000000 0.000000 -0.078785 0.000000 0.005282
#
#
# Mechanical properties :
#
#
# Convention : Reuss Voigt Hill
#
# Bulk Modulus (GPa) = 64.12591 83.58413 73.85502
# Shear Modulus (GPa) = -26.27271 37.50475 5.61602
#
# Velocity S-wave (km/s) = -3.29533 3.93721 1.52356
# Velocity P-wave (km/s) = 3.46785 7.43077 5.79837
#
# Compressibility (1/GPa) = 0.01559432
#
# Stress axis : x y z
#
# Youngs Moduli (GPa) = 161.06761 126.18907 110.61281
#
# Poissons Ratio (x) = 0.14549 0.22022
# Poissons Ratio (y) = 0.18570 0.07144
# Poissons Ratio (z) = 0.32068 0.08150
#
# Static dielectric constant tensor:
#      x y z
#    x 1.876830 0.000000 -0.111670 
#    y 0.000000 1.983190 0.000000 
#    z -0.111670 0.000000 1.829560 
# 
# From -- ./inp_files/79299.got.cif
#   From: 2010.05.17/outbox.cif.g08.bks.cpg/sg12_40_cif.got.tgz:79299.got - 2010.06.03 13:09:07.
