data_PCOD9218582
_publ_section_title
;
Structure prediction by ZEFSAII (Michael W. Deem and Ramdas Pophale) SiO2 
 PCOD9218582
Probable space group: C 2/M
;
_chemical_formula_sum "Si O2"
_cell_formula_units_Z 64
_cell_length_a 14.357077
_cell_length_b 22.848147
_cell_length_c 9.536337
_cell_angle_alpha 90.000000
_cell_angle_beta 83.723978
_cell_angle_gamma 90.000000
_cell_volume 3109.481345
_symmetry_space_group_name_H-M "C 2/M"
_symmetry_group_IT_number 12
_symmetry_cell_setting 'monoclinic'
loop_
_space_group_symop_operation_xyz
x,y,z
-x,y,-z
-x,-y,-z
x,-y,z
1/2+x,1/2+y,z
1/2-x,1/2+y,-z
1/2-x,1/2-y,-z
1/2+x,1/2-y,z
loop_
_atom_site_type_symbol
_atom_site_label
_atom_site_fract_x
_atom_site_fract_y
_atom_site_fract_z
Si Si1 0.882335 0.362511 0.263830
Si Si2 0.061267 0.068273 0.121618
Si Si3 0.724190 0.935875 0.916431
Si Si4 0.353965 0.733498 0.176465
Si Si5 0.089369 0.392433 0.170335
Si Si6 0.364588 0.756568 0.851135
Si Si7 0.112651 0.565732 0.470509
Si Si8 0.499172 0.330586 0.669470
O O1 0.796487 0.384427 0.186627
O O2 0.893295 0.294361 0.233685
O O3 0.861884 0.384356 0.423077
O O4 0.976511 0.396624 0.197223
O O5 0.169272 0.070925 0.054847
O O6 0.039717 0.109426 0.256774
O O7 0.040461 0.000000 0.156190
O O8 0.000000 0.087686 0.000000
O O9 0.714579 0.000000 0.851089
O O10 0.645815 0.929104 0.047635
O O11 0.241549 0.740164 0.189038
O O12 0.402033 0.684775 0.267462
O O13 0.376130 0.729029 0.005753
O O14 0.106797 0.324226 0.138661
O O15 0.131088 0.412232 0.311790
O O16 0.428797 0.720210 0.735037
O O17 0.150152 0.500000 0.490973
O O18 0.000000 0.561450 0.500000
O O19 0.500000 0.331667 0.500000
#
# Coordination Sequence:
#
# PCOD9218582 Si02
#       8
#     8   8   8   8   8   8   8   8
#     4  11  21  37  62  91 132 172 211 263 327 389
#     4  10  24  49  74  94 125 171 223 280 330 382
#     4  11  23  39  64  98 129 166 221 273 325 382
#     4  11  24  42  67  93 131 173 222 273 324 394
#     4  11  22  36  62  95 130 170 215 265 320 389
#     4  11  24  42  65  98 130 176 218 273 328 383
#     4   9  20  37  57  84 129 180 211 246 313 394
#     4  12  27  43  70 101 134 173 216 270 339 401
#
# _framework density 20.58221
#
# number of rings (size 3 to 8) (size 9 to 14) (size 15 to 20)
#    0.000    1.250    2.500    3.000    5.250    2.750 
#    2.250    0.000    0.000    0.000    0.000    0.000 
#    0.000    0.000    0.000    0.000    0.000    0.000 
#
# Total GULP energy -178633.264560 kJ/mol
# GULP energy per Si atom -5582.289518 kJ/mol
# Density = 2.053536 g / cm^3
# Si number density = 20.582210 Si / 1000 Ang^3
#
#
#
# Elastic Constant Matrix: (Units=GPa)
#
#
# Indices 1 2 3 4 5 6 
#
# 1 68.4315 6.5006 16.9460 0.0000 14.4248 0.0000
# 2 6.5006 66.6630 13.5241 0.0000 -0.6054 0.0000
# 3 16.9460 13.5241 103.1681 0.0000 11.0503 0.0000
# 4 0.0000 0.0000 0.0000 30.2077 0.0000 0.8222
# 5 14.4248 -0.6054 11.0503 0.0000 13.3253 0.0000
# 6 0.0000 0.0000 0.0000 0.8222 0.0000 24.0937
#
#
#
# Elastic Compliance Matrix: (Units=1/GPa)
#
#
# Indices 1 2 3 4 5 6 
#
# 1 0.019262 -0.001914 -0.000736 0.000000 -0.020328 0.000000
# 2 -0.001914 0.015684 -0.002239 0.000000 0.004641 0.000000
# 3 -0.000736 -0.002239 0.011011 0.000000 -0.008436 0.000000
# 4 0.000000 0.000000 0.000000 0.033135 0.000000 -0.001131
# 5 -0.020328 0.004641 -0.008436 0.000000 0.104258 0.000000
# 6 0.000000 0.000000 0.000000 -0.001131 0.000000 0.041543
#
#
# Mechanical properties :
#
#
# Convention : Reuss Voigt Hill
#
# Bulk Modulus (GPa) = 27.63908 34.68932 31.16420
# Shear Modulus (GPa) = 20.26513 26.94480 23.60496
#
# Velocity S-wave (km/s) = 3.14123 3.62212 3.39021
# Velocity P-wave (km/s) = 5.15890 5.86375 5.52258
#
# Compressibility (1/GPa) = 0.03618066
#
# Stress axis : x y z
#
# Youngs Moduli (GPa) = 51.91523 63.76029 90.81967
#
# Poissons Ratio (x) = 0.12202 0.06682
# Poissons Ratio (y) = 0.09935 0.20331
# Poissons Ratio (z) = 0.03819 0.14274
#
# Static dielectric constant tensor:
#      x y z
#    x 1.775900 0.000000 0.037490 
#    y 0.000000 1.740980 0.000000 
#    z 0.037490 0.000000 1.789240 
# 
# From -- ./inp_files/65888.got.cif
#   From: 2010.05.17/outbox.cif.g08.bks.cpg/sg12_33_cif.got.tgz:65888.got - 2010.06.03 13:09:07.
