data_PCOD9218125
_publ_section_title
;
Structure prediction by ZEFSAII (Michael W. Deem and Ramdas Pophale) SiO2 
 PCOD9218125
Probable space group: C 2/M
;
_chemical_formula_sum "Si O2"
_cell_formula_units_Z 52
_cell_length_a 11.534005
_cell_length_b 19.977812
_cell_length_c 11.756237
_cell_angle_alpha 90.000000
_cell_angle_beta 59.342134
_cell_angle_gamma 90.000000
_cell_volume 2330.288555
_symmetry_space_group_name_H-M "C 2/M"
_symmetry_group_IT_number 12
_symmetry_cell_setting 'monoclinic'
loop_
_space_group_symop_operation_xyz
x,y,z
-x,y,-z
-x,-y,-z
x,-y,z
1/2+x,1/2+y,z
1/2-x,1/2+y,-z
1/2-x,1/2-y,-z
1/2+x,1/2-y,z
loop_
_atom_site_type_symbol
_atom_site_label
_atom_site_fract_x
_atom_site_fract_y
_atom_site_fract_z
Si Si1 0.442146 0.222016 0.328296
Si Si2 0.395073 0.124161 0.151955
Si Si3 0.395827 0.646434 0.233492
Si Si4 0.357578 0.893988 0.518584
Si Si5 0.891646 0.500000 0.306690
Si Si6 0.315684 0.579230 0.916647
Si Si7 0.260011 0.195313 0.892699
O O1 0.384570 0.184086 0.245972
O O2 0.418550 0.300125 0.323207
O O3 0.380132 0.182495 0.465050
O O4 0.602456 0.209444 0.242515
O O5 0.444345 0.058808 0.193647
O O6 0.253446 0.103174 0.166021
O O7 0.500000 0.142178 0.000000
O O8 0.264519 0.603841 0.332319
O O9 0.529381 0.602647 0.154007
O O10 0.360296 0.688116 0.137479
O O11 0.500000 0.916264 0.500000
O O12 0.334974 0.941331 0.422312
O O13 0.303084 0.500000 0.935230
O O14 0.238874 0.622579 0.049706
O O15 0.250000 0.250000 0.000000
#
# Coordination Sequence:
#
# PCOD9218125 Si02
#       7
#     8   8   8   8   4   8   8
#     4  11  24  43  74 103 132 180 239 290 346 415
#     4  11  22  42  72 104 140 178 232 291 352 422
#     4  12  27  45  69 100 145 182 233 289 352 423
#     4  11  24  47  68  98 134 186 239 288 346 419
#     4  10  24  42  67 100 133 184 246 286 338 417
#     4  12  27  43  67 106 147 183 225 285 362 419
#     4  12  24  45  72 103 143 182 229 290 356 425
#
# _framework density 22.314831999999999
#
# number of rings (size 3 to 8) (size 9 to 14) (size 15 to 20)
#    0.000    0.615    5.385    2.308    1.077    1.231 
#    0.000    3.846    0.000    0.000    0.000    0.000 
#    0.000    0.000    0.000    0.000    0.000    0.000 
#
# Total GULP energy -144887.137063 kJ/mol
# GULP energy per Si atom -5572.582195 kJ/mol
# Density = 2.226404 g / cm^3
# Si number density = 22.314832 Si / 1000 Ang^3
#
#
#
# Elastic Constant Matrix: (Units=GPa)
#
#
# Indices 1 2 3 4 5 6 
#
# 1 105.1785 26.5283 27.2421 0.0000 -22.8042 0.0000
# 2 26.5283 67.6578 -17.5073 0.0000 6.5347 0.0000
# 3 27.2421 -17.5073 67.0105 0.0000 -12.1057 0.0000
# 4 0.0000 0.0000 0.0000 22.0396 0.0000 -9.3646
# 5 -22.8042 6.5347 -12.1057 0.0000 34.5337 0.0000
# 6 0.0000 0.0000 0.0000 -9.3646 0.0000 0.3335
#
#
#
# Elastic Compliance Matrix: (Units=1/GPa)
#
#
# Indices 1 2 3 4 5 6 
#
# 1 0.015597 -0.008828 -0.006923 0.000000 0.009543 0.000000
# 2 -0.008828 0.020938 0.007783 0.000000 -0.007063 0.000000
# 3 -0.006923 0.007783 0.019942 0.000000 0.000946 0.000000
# 4 0.000000 0.000000 0.000000 -0.004150 0.000000 -0.116554
# 5 0.009543 -0.007063 0.000946 0.000000 0.036927 0.000000
# 6 0.000000 0.000000 0.000000 -0.116554 0.000000 -0.274310
#
#
# Mechanical properties :
#
#
# Convention : Reuss Voigt Hill
#
# Bulk Modulus (GPa) = 24.66687 34.70811 29.68749
# Shear Modulus (GPa) = -32.13219 24.95359 -3.58930
#
# Velocity S-wave (km/s) = -3.79878 3.34765 -1.26963
# Velocity P-wave (km/s) = 2.85709 5.52539 3.34418
#
# Compressibility (1/GPa) = 0.04054020
#
# Stress axis : x y z
#
# Youngs Moduli (GPa) = 64.11666 47.75968 50.14548
#
# Poissons Ratio (x) = 0.42165 0.34717
# Poissons Ratio (y) = 0.56605 -0.39030
# Poissons Ratio (z) = 0.44389 -0.37173
#
# Static dielectric constant tensor:
#      x y z
#    x 1.908200 0.000000 0.046620 
#    y 0.000000 1.816800 0.000000 
#    z 0.046620 0.000000 1.831090 
# 
# From -- ./inp_files/133787.got.cif
#   From: 2010.05.17/outbox.cif.g08.bks.cpg/sg12_67_cif.got.tgz:133787.got - 2010.06.03 13:09:07.
