data_PCOD9218556
_publ_section_title
;
Structure prediction by ZEFSAII (Michael W. Deem and Ramdas Pophale) SiO2 
 PCOD9218556
Probable space group: C 2/M
;
_chemical_formula_sum "Si O2"
_cell_formula_units_Z 34
_cell_length_a 14.720587
_cell_length_b 13.935683
_cell_length_c 10.017332
_cell_angle_alpha 90.000000
_cell_angle_beta 45.736455
_cell_angle_gamma 90.000000
_cell_volume 1471.639867
_symmetry_space_group_name_H-M "C 2/M"
_symmetry_group_IT_number 12
_symmetry_cell_setting 'monoclinic'
loop_
_space_group_symop_operation_xyz
x,y,z
-x,y,-z
-x,-y,-z
x,-y,z
1/2+x,1/2+y,z
1/2-x,1/2+y,-z
1/2-x,1/2-y,-z
1/2+x,1/2-y,z
loop_
_atom_site_type_symbol
_atom_site_label
_atom_site_fract_x
_atom_site_fract_y
_atom_site_fract_z
Si Si1 0.592576 0.500000 0.029170
Si Si2 0.201504 0.655187 0.246871
Si Si3 0.301235 0.151982 0.263109
Si Si4 0.909656 0.000000 0.465677
Si Si5 0.000000 0.500000 0.500000
Si Si6 0.556094 0.111213 0.155175
O O1 0.503665 0.500000 0.246755
O O2 0.500000 0.500000 0.000000
O O3 0.682813 0.592266 0.928361
O O4 0.254634 0.741677 0.278015
O O5 0.118367 0.680369 0.200507
O O6 0.108067 0.584656 0.420778
O O7 0.184083 0.090482 0.434645
O O8 0.419488 0.142493 0.242226
O O9 0.354881 0.110391 0.067100
O O10 0.000000 0.000000 0.500000
O O11 0.553354 0.000000 0.217945
#
# Coordination Sequence:
#
# PCOD9218556 Si02
#       6
#     4   8   8   4   2   8
#     4  11  27  48  73 104 162 203 247 315 394 449
#     4  11  25  48  72 101 147 199 248 307 380 456
#     4  11  24  42  76 111 140 188 264 307 372 452
#     4  12  25  46  75 114 151 192 253 327 372 446
#     4  10  24  48  70  92 136 196 244 288 368 440
#     4  11  20  45  76 102 146 205 244 310 380 458
#
# _framework density 23.103480000000001
#
# number of rings (size 3 to 8) (size 9 to 14) (size 15 to 20)
#    0.000    0.941    4.706    2.824    4.941    3.765 
#    0.000    2.353    0.000    0.000    0.000    0.000 
#    0.000    0.000    0.000    0.000    0.000    0.000 
#
# Total GULP energy -95036.353142 kJ/mol
# GULP energy per Si atom -5590.373714 kJ/mol
# Density = 2.305090 g / cm^3
# Si number density = 23.103480 Si / 1000 Ang^3
#
#
#
# Elastic Constant Matrix: (Units=GPa)
#
#
# Indices 1 2 3 4 5 6 
#
# 1 131.3047 39.8971 36.5025 0.0000 -17.0957 0.0000
# 2 39.8971 161.5241 66.7079 0.0000 -26.4451 0.0000
# 3 36.5025 66.7079 173.8375 0.0000 -26.0989 0.0000
# 4 0.0000 0.0000 0.0000 -0.0473 0.0000 2.2000
# 5 -17.0957 -26.4451 -26.0989 0.0000 40.3418 0.0000
# 6 0.0000 0.0000 0.0000 2.2000 0.0000 41.5607
#
#
#
# Elastic Compliance Matrix: (Units=1/GPa)
#
#
# Indices 1 2 3 4 5 6 
#
# 1 0.008575 -0.001378 -0.000955 0.000000 0.002113 0.000000
# 2 -0.001378 0.008003 -0.002306 0.000000 0.003170 0.000000
# 3 -0.000955 -0.002306 0.007255 0.000000 0.002777 0.000000
# 4 0.000000 0.000000 0.000000 -6.105946 0.000000 0.323219
# 5 0.002113 0.003170 0.002777 0.000000 0.029559 0.000000
# 6 0.000000 0.000000 0.000000 0.323219 0.000000 0.006952
#
#
# Mechanical properties :
#
#
# Convention : Reuss Voigt Hill
#
# Bulk Modulus (GPa) = 68.69923 83.65348 76.17636
# Shear Modulus (GPa) = -0.82898 37.94163 18.55632
#
# Velocity S-wave (km/s) = -0.59966 4.05686 2.83712
# Velocity P-wave (km/s) = 5.41484 7.63092 6.61632
#
# Compressibility (1/GPa) = 0.01455620
#
# Stress axis : x y z
#
# Youngs Moduli (GPa) = 116.61761 124.95900 137.84198
#
# Poissons Ratio (x) = 0.17218 0.13159
# Poissons Ratio (y) = 0.16068 0.31781
# Poissons Ratio (z) = 0.11132 0.28810
#
# Static dielectric constant tensor:
#      x y z
#    x 1.790090 0.000000 -0.060390 
#    y 0.000000 1.854870 0.000000 
#    z -0.060390 0.000000 1.617570 
# 
# From -- ./inp_files/143492.got.cif
#   From: 2010.05.17/outbox.cif.g08.bks.cpg/sg12_72_cif.got.tgz:143492.got - 2010.06.03 13:09:07.
