data_PCOD9218985
_publ_section_title
;
Structure prediction by ZEFSAII (Michael W. Deem and Ramdas Pophale) SiO2 
 PCOD9218985
Probable space group: C 2/M
;
_chemical_formula_sum "Si O2"
_cell_formula_units_Z 40
_cell_length_a 12.542827
_cell_length_b 19.438523
_cell_length_c 13.432581
_cell_angle_alpha 90.000000
_cell_angle_beta 36.657706
_cell_angle_gamma 90.000000
_cell_volume 1955.314406
_symmetry_space_group_name_H-M "C 2/M"
_symmetry_group_IT_number 12
_symmetry_cell_setting 'monoclinic'
loop_
_space_group_symop_operation_xyz
x,y,z
-x,y,-z
-x,-y,-z
x,-y,z
1/2+x,1/2+y,z
1/2-x,1/2+y,-z
1/2-x,1/2-y,-z
1/2+x,1/2-y,z
loop_
_atom_site_type_symbol
_atom_site_label
_atom_site_fract_x
_atom_site_fract_y
_atom_site_fract_z
Si Si1 0.715684 0.854093 0.663699
Si Si2 0.294677 0.920764 0.134843
Si Si3 0.880562 0.703515 0.830896
Si Si4 0.333106 0.710611 0.193537
Si Si5 0.036685 0.156579 0.702734
O O1 0.774701 0.908985 0.701031
O O2 0.504597 0.850356 0.794460
O O3 0.746437 0.779178 0.694519
O O4 0.820810 0.868424 0.483772
O O5 0.154177 0.880174 0.171002
O O6 0.300223 0.000000 0.100394
O O7 0.500000 0.896981 0.000000
O O8 0.789257 0.677069 0.799454
O O9 0.013511 0.762999 0.694038
O O10 0.750000 0.750000 0.000000
O O11 0.397147 0.659772 0.232819
O O12 0.500000 0.734429 0.000000
#
# Coordination Sequence:
#
# PCOD9218985 Si02
#       5
#     8   8   8   8   8
#     4  11  22  34  55  87 120 150 189 237 291 339
#     4  11  24  42  63  82 108 151 199 242 286 346
#     4  11  19  33  56  84 121 157 190 231 278 344
#     4  11  20  33  57  86 119 159 187 230 285 342
#     4  11  23  35  54  86 119 150 189 239 290 343
#
# _framework density 20.457068
#
# number of rings (size 3 to 8) (size 9 to 14) (size 15 to 20)
#    0.000    1.000    6.000    4.800    0.000    4.000 
#    0.000    0.000    0.000    1.800    0.000    2.800 
#    0.000    0.000    0.000    0.000    0.000    0.000 
#
# Total GULP energy -111406.152285 kJ/mol
# GULP energy per Si atom -5570.307614 kJ/mol
# Density = 2.041051 g / cm^3
# Si number density = 20.457068 Si / 1000 Ang^3
#
#
#
# Elastic Constant Matrix: (Units=GPa)
#
#
# Indices 1 2 3 4 5 6 
#
# 1 189.1871 25.2548 22.6319 -0.0004 17.6449 0.0001
# 2 25.2548 26.5634 -7.0591 0.0038 0.0317 -0.0027
# 3 22.6319 -7.0591 88.9243 0.0006 9.3869 -0.0007
# 4 -0.0004 0.0038 0.0006 7.7579 0.0004 -2.1732
# 5 17.6449 0.0317 9.3869 0.0004 32.8669 -0.0005
# 6 0.0001 -0.0027 -0.0007 -2.1732 -0.0005 22.9241
#
#
#
# Elastic Compliance Matrix: (Units=1/GPa)
#
#
# Indices 1 2 3 4 5 6 
#
# 1 0.006724 -0.006903 -0.001937 0.000004 -0.003050 -0.000001
# 2 -0.006903 0.045573 0.005143 -0.000022 0.002193 0.000003
# 3 -0.001937 0.005143 0.012412 -0.000003 -0.002510 0.000001
# 4 0.000004 -0.000022 -0.000003 0.132418 -0.000002 0.012553
# 5 -0.003050 0.002193 -0.002510 -0.000002 0.032778 0.000001
# 6 -0.000001 0.000003 0.000001 0.012553 0.000001 0.044812
#
#
# Mechanical properties :
#
#
# Convention : Reuss Voigt Hill
#
# Bulk Modulus (GPa) = 17.44786 42.92557 30.18672
# Shear Modulus (GPa) = 16.59937 30.29957 23.44947
#
# Velocity S-wave (km/s) = 2.85164 3.85272 3.38934
# Velocity P-wave (km/s) = 4.40341 6.38906 5.48681
#
# Compressibility (1/GPa) = 0.05731361
#
# Stress axis : x y z
#
# Youngs Moduli (GPa) = 148.73183 21.94261 80.56853
#
# Poissons Ratio (x) = 0.15148 0.15608
# Poissons Ratio (y) = 1.02677 -0.41438
# Poissons Ratio (z) = 0.28814 -0.11286
#
# Static dielectric constant tensor:
#      x y z
#    x 1.814400 0.000000 -0.043140 
#    y 0.000000 1.715280 0.000000 
#    z -0.043140 0.000000 1.869420 
# 
# From -- ./inp_files/77773.got.cif
#   From: 2010.05.17/outbox.cif.g08.bks.cpg/sg12_39_cif.got.tgz:77773.got - 2010.06.03 13:09:07.
