data_PCOD9218741
_publ_section_title
;
Structure prediction by ZEFSAII (Michael W. Deem and Ramdas Pophale) SiO2 
 PCOD9218741
Probable space group: C 2/M
;
_chemical_formula_sum "Si O2"
_cell_formula_units_Z 34
_cell_length_a 16.953203
_cell_length_b 9.794083
_cell_length_c 18.691986
_cell_angle_alpha 90.000000
_cell_angle_beta 32.079107
_cell_angle_gamma 90.000000
_cell_volume 1648.309718
_symmetry_space_group_name_H-M "C 2/M"
_symmetry_group_IT_number 12
_symmetry_cell_setting 'monoclinic'
loop_
_space_group_symop_operation_xyz
x,y,z
-x,y,-z
-x,-y,-z
x,-y,z
1/2+x,1/2+y,z
1/2-x,1/2+y,-z
1/2-x,1/2-y,-z
1/2+x,1/2-y,z
loop_
_atom_site_type_symbol
_atom_site_label
_atom_site_fract_x
_atom_site_fract_y
_atom_site_fract_z
Si Si1 0.557369 0.801431 0.821130
Si Si2 0.395943 0.703859 0.515081
Si Si3 0.451033 0.500000 0.881174
Si Si4 0.000000 0.500000 0.000000
Si Si5 0.399060 0.000000 0.454532
Si Si6 0.604871 0.000000 0.158937
Si Si7 0.927211 0.000000 0.365447
O O1 0.724932 0.826423 0.664837
O O2 0.528516 0.639510 0.847345
O O3 0.531351 0.881133 0.914559
O O4 0.447911 0.869035 0.846636
O O5 0.500000 0.659080 0.500000
O O6 0.440250 0.628910 0.407743
O O7 0.412659 0.864228 0.489994
O O8 0.461217 0.500000 0.786497
O O9 0.280064 0.500000 0.034619
O O10 0.236285 0.000000 0.543402
O O11 0.518864 0.000000 0.299499
#
# Coordination Sequence:
#
# PCOD9218741 Si02
#       7
#     8   8   4   2   4   4   4
#     4  11  23  45  64  97 136 178 227 277 333 405
#     4  12  25  41  69 103 135 176 229 278 334 401
#     4  12  25  40  71 101 130 175 237 279 324 404
#     4  10  26  42  68  82 140 182 200 270 362 392
#     4  12  22  44  71  94 137 183 223 279 335 384
#     4  11  24  41  67 100 134 177 230 277 331 402
#     4  12  22  43  72  96 133 183 225 278 334 386
#
# _framework density 20.627191
#
# number of rings (size 3 to 8) (size 9 to 14) (size 15 to 20)
#    0.000    0.471    4.706    4.235    0.000    6.118 
#    0.000    0.000    0.000    0.000    0.000    0.000 
#    0.000    0.000    0.000    0.000    0.000    0.000 
#
# Total GULP energy -94897.443015 kJ/mol
# GULP energy per Si atom -5582.202530 kJ/mol
# Density = 2.058024 g / cm^3
# Si number density = 20.627191 Si / 1000 Ang^3
#
#
#
# Elastic Constant Matrix: (Units=GPa)
#
#
# Indices 1 2 3 4 5 6 
#
# 1 47.3774 23.6683 2.4856 0.0000 23.1862 0.0000
# 2 23.6683 169.2851 -6.5390 0.0000 14.8949 0.0000
# 3 2.4856 -6.5390 56.8062 0.0001 16.0997 0.0000
# 4 0.0000 0.0000 0.0001 27.0112 0.0000 -0.6769
# 5 23.1862 14.8949 16.0997 0.0000 40.1849 0.0000
# 6 0.0000 0.0000 0.0000 -0.6769 0.0000 -18.3430
#
#
#
# Elastic Compliance Matrix: (Units=1/GPa)
#
#
# Indices 1 2 3 4 5 6 
#
# 1 0.031284 -0.002606 0.003580 0.000000 -0.018519 0.000000
# 2 -0.002606 0.006442 0.001248 0.000000 -0.001384 0.000000
# 3 0.003580 0.001248 0.020652 0.000000 -0.010802 0.000000
# 4 0.000000 0.000000 0.000000 0.036987 0.000000 -0.001365
# 5 -0.018519 -0.001384 -0.010802 0.000000 0.040411 0.000000
# 6 0.000000 0.000000 0.000000 -0.001365 0.000000 -0.054466
#
#
# Mechanical properties :
#
#
# Convention : Reuss Voigt Hill
#
# Bulk Modulus (GPa) = 15.91851 34.74427 25.33139
# Shear Modulus (GPa) = 51.12072 26.69420 38.90746
#
# Velocity S-wave (km/s) = 4.98367 3.60130 4.34778
# Velocity P-wave (km/s) = 6.39140 5.84577 6.12466
#
# Compressibility (1/GPa) = 0.06281995
#
# Stress axis : x y z
#
# Youngs Moduli (GPa) = 31.96493 155.24268 48.42122
#
# Poissons Ratio (x) = 0.40460 -0.17333
# Poissons Ratio (y) = 0.08331 -0.06041
# Poissons Ratio (z) = -0.11442 -0.19369
#
# Static dielectric constant tensor:
#      x y z
#    x 1.701220 0.000000 -0.010330 
#    y 0.000000 1.752470 0.000000 
#    z -0.010330 0.000000 1.692360 
# 
# From -- ./inp_files/314639.got.cif
#   From: 2010.05.17/outbox.cif.g08.bks.cpg/sg12_158_cif.got.tgz:314639.got - 2010.06.03 13:09:07.
