data_PCOD9218093
_publ_section_title
;
Structure prediction by ZEFSAII (Michael W. Deem and Ramdas Pophale) SiO2 
 PCOD9218093
Probable space group: C 2/M
;
_chemical_formula_sum "Si O2"
_cell_formula_units_Z 22
_cell_length_a 5.132657
_cell_length_b 36.953301
_cell_length_c 5.255310
_cell_angle_alpha 90.000000
_cell_angle_beta 82.447112
_cell_angle_gamma 90.000000
_cell_volume 988.119391
_symmetry_space_group_name_H-M "C 2/M"
_symmetry_group_IT_number 12
_symmetry_cell_setting 'monoclinic'
loop_
_space_group_symop_operation_xyz
x,y,z
-x,y,-z
-x,-y,-z
x,-y,z
1/2+x,1/2+y,z
1/2-x,1/2+y,-z
1/2-x,1/2-y,-z
1/2+x,1/2-y,z
loop_
_atom_site_type_symbol
_atom_site_label
_atom_site_fract_x
_atom_site_fract_y
_atom_site_fract_z
Si Si1 0.500000 0.000000 0.500000
Si Si2 0.000000 0.373522 0.500000
Si Si3 0.280138 0.939364 0.832823
Si Si4 0.000000 0.775723 0.000000
Si Si5 0.000000 0.824799 0.500000
O O1 0.710908 0.032076 0.394905
O O2 0.877671 0.400405 0.725532
O O3 0.759842 0.349245 0.433475
O O4 0.500000 0.954299 0.000000
O O5 0.000000 0.937003 0.000000
O O6 0.032962 0.800374 0.746060
O O7 0.250000 0.750000 0.000000
#
# Coordination Sequence:
#
# PCOD9218093 Si02
#       5
#     2   4   8   4   4
#     4  10  24  42  64 102 128 190 232 296 354 418
#     4  11  26  42  66 106 136 187 238 291 352 428
#     4  11  24  42  67  94 141 179 240 290 355 418
#     4  12  26  48  74 108 144 185 236 289 350 430
#     4  12  26  45  76 104 148 187 236 291 360 420
#
# _framework density 22.264516
#
# number of rings (size 3 to 8) (size 9 to 14) (size 15 to 20)
#    0.000    0.727    0.000    6.545    7.636    5.818 
#    0.000    0.000    0.000    0.000    0.000    0.000 
#    0.000    0.000    0.000    0.000    0.000    0.000 
#
# Total GULP energy -61365.595817 kJ/mol
# GULP energy per Si atom -5578.690529 kJ/mol
# Density = 2.221384 g / cm^3
# Si number density = 22.264516 Si / 1000 Ang^3
#
#
#
# Elastic Constant Matrix: (Units=GPa)
#
#
# Indices 1 2 3 4 5 6 
#
# 1 211.7776 90.8825 58.8453 0.0000 -38.1790 0.0000
# 2 90.8825 177.6467 66.8603 0.0000 -18.3923 0.0000
# 3 58.8453 66.8603 120.3991 0.0000 -27.6948 0.0000
# 4 0.0000 0.0000 0.0000 34.3093 0.0000 6.5454
# 5 -38.1790 -18.3923 -27.6948 0.0000 51.9766 0.0000
# 6 0.0000 0.0000 0.0000 6.5454 0.0000 21.7897
#
#
#
# Elastic Compliance Matrix: (Units=1/GPa)
#
#
# Indices 1 2 3 4 5 6 
#
# 1 0.006808 -0.002745 -0.000999 0.000000 0.003497 0.000000
# 2 -0.002745 0.008233 -0.003447 0.000000 -0.000939 0.000000
# 3 -0.000999 -0.003447 0.011691 0.000000 0.004276 0.000000
# 4 0.000000 0.000000 0.000000 0.030919 0.000000 -0.009288
# 5 0.003497 -0.000939 0.004276 0.000000 0.023755 0.000000
# 6 0.000000 0.000000 0.000000 -0.009288 0.000000 0.048683
#
#
# Mechanical properties :
#
#
# Convention : Reuss Voigt Hill
#
# Bulk Modulus (GPa) = 80.95596 104.77772 92.86684
# Shear Modulus (GPa) = 33.65035 41.16411 37.40723
#
# Velocity S-wave (km/s) = 3.89188 4.30451 4.10338
# Velocity P-wave (km/s) = 7.52566 8.47748 8.01571
#
# Compressibility (1/GPa) = 0.01235240
#
# Stress axis : x y z
#
# Youngs Moduli (GPa) = 146.88931 121.45669 85.53242
#
# Poissons Ratio (x) = 0.33339 0.08541
# Poissons Ratio (y) = 0.40320 0.29480
# Poissons Ratio (z) = 0.14668 0.41862
#
# Static dielectric constant tensor:
#      x y z
#    x 1.860570 0.000000 0.097590 
#    y 0.000000 1.794130 0.000000 
#    z 0.097590 0.000000 1.953210 
# 
# From -- ./inp_files/1119.got.cif
#   From: 2010.05.17/outbox.cif.g08.bks.cpg/sg12_1_cif.got.tgz:1119.got - 2010.06.03 13:09:07.
