data_PCOD9218730
_publ_section_title
;
Structure prediction by ZEFSAII (Michael W. Deem and Ramdas Pophale) SiO2 
 PCOD9218730
Probable space group: C 2/M
;
_chemical_formula_sum "Si O2"
_cell_formula_units_Z 12
_cell_length_a 6.104288
_cell_length_b 15.566313
_cell_length_c 5.000439
_cell_angle_alpha 90.000000
_cell_angle_beta 107.810472
_cell_angle_gamma 90.000000
_cell_volume 452.375824
_symmetry_space_group_name_H-M "C 2/M"
_symmetry_group_IT_number 12
_symmetry_cell_setting 'monoclinic'
loop_
_space_group_symop_operation_xyz
x,y,z
-x,y,-z
-x,-y,-z
x,-y,z
1/2+x,1/2+y,z
1/2-x,1/2+y,-z
1/2-x,1/2-y,-z
1/2+x,1/2-y,z
loop_
_atom_site_type_symbol
_atom_site_label
_atom_site_fract_x
_atom_site_fract_y
_atom_site_fract_z
Si Si1 0.353258 0.332750 0.684631
Si Si2 0.712483 0.000000 0.872482
O O1 0.500000 0.375145 0.500000
O O2 0.250000 0.250000 0.500000
O O3 0.189744 0.406815 0.730677
O O4 0.500000 0.304399 0.000000
O O5 0.500000 0.000000 0.000000
O O6 0.000000 0.000000 0.000000
#
# Coordination Sequence:
#
# PCOD9218730 Si02
#       2
#     8   4
#     4  11  25  48  78 119 161 212 271 339 409 488
#     4  10  25  52  81 116 162 218 273 334 410 496
#
# _framework density 26.526615
#
# number of rings (size 3 to 8) (size 9 to 14) (size 15 to 20)
#    0.000    1.333    0.000    3.000    0.000   13.333 
#    0.000   16.667    0.000    0.000    0.000    0.000 
#    0.000    0.000    0.000    0.000    0.000    0.000 
#
# Total GULP energy -33484.639403 kJ/mol
# GULP energy per Si atom -5580.773234 kJ/mol
# Density = 2.646624 g / cm^3
# Si number density = 26.526615 Si / 1000 Ang^3
#
#
#
# Elastic Constant Matrix: (Units=GPa)
#
#
# Indices 1 2 3 4 5 6 
#
# 1 236.4946 99.9365 100.7176 0.0000 -43.7823 0.0000
# 2 99.9365 275.2650 107.7718 0.0000 -16.2353 0.0000
# 3 100.7176 107.7718 254.4184 0.0000 8.5145 0.0000
# 4 0.0000 0.0000 0.0000 33.9481 0.0000 -44.3820
# 5 -43.7823 -16.2353 8.5145 0.0000 82.1605 0.0000
# 6 0.0000 0.0000 0.0000 -44.3820 0.0000 31.0332
#
#
#
# Elastic Compliance Matrix: (Units=1/GPa)
#
#
# Indices 1 2 3 4 5 6 
#
# 1 0.006245 -0.001274 -0.002043 0.000000 0.003288 0.000000
# 2 -0.001274 0.004708 -0.001504 0.000000 0.000407 0.000000
# 3 -0.002043 -0.001504 0.005442 0.000000 -0.001950 0.000000
# 4 0.000000 0.000000 0.000000 -0.033870 0.000000 -0.048439
# 5 0.003288 0.000407 -0.001950 0.000000 0.014206 0.000000
# 6 0.000000 0.000000 0.000000 -0.048439 0.000000 -0.037051
#
#
# Mechanical properties :
#
#
# Convention : Reuss Voigt Hill
#
# Bulk Modulus (GPa) = 148.05363 153.66999 150.86181
# Shear Modulus (GPa) = -175.88211 59.94516 -57.96848
#
# Velocity S-wave (km/s) = -8.15156 4.75890 -4.67979
# Velocity P-wave (km/s) = 5.71514 9.39428 5.27208
#
# Compressibility (1/GPa) = 0.00675431
#
# Stress axis : x y z
#
# Youngs Moduli (GPa) = 160.11786 212.40189 183.77223
#
# Poissons Ratio (x) = 0.27053 0.37543
# Poissons Ratio (y) = 0.20393 0.27635
# Poissons Ratio (z) = 0.32711 0.31940
#
# Static dielectric constant tensor:
#      x y z
#    x 2.143040 0.000000 0.017080 
#    y 0.000000 2.047290 0.000000 
#    z 0.017080 0.000000 2.143490 
# 
# From -- ./inp_files/435.got.cif
#   From: 2010.05.17/outbox.cif.g08.bks.cpg/sg12_1_cif.got.tgz:435.got - 2010.06.03 13:09:07.
