data_PCOD9218152
_publ_section_title
;
Structure prediction by ZEFSAII (Michael W. Deem and Ramdas Pophale) SiO2 
 PCOD9218152
Probable space group: C 2/M
;
_chemical_formula_sum "Si O2"
_cell_formula_units_Z 46
_cell_length_a 12.629898
_cell_length_b 21.660126
_cell_length_c 12.315360
_cell_angle_alpha 90.000000
_cell_angle_beta 42.566552
_cell_angle_gamma 90.000000
_cell_volume 2278.983362
_symmetry_space_group_name_H-M "C 2/M"
_symmetry_group_IT_number 12
_symmetry_cell_setting 'monoclinic'
loop_
_space_group_symop_operation_xyz
x,y,z
-x,y,-z
-x,-y,-z
x,-y,z
1/2+x,1/2+y,z
1/2-x,1/2+y,-z
1/2-x,1/2-y,-z
1/2+x,1/2-y,z
loop_
_atom_site_type_symbol
_atom_site_label
_atom_site_fract_x
_atom_site_fract_y
_atom_site_fract_z
Si Si1 0.368977 0.193430 0.406787
Si Si2 0.732075 0.500000 0.255343
Si Si3 0.285415 0.246493 0.845667
Si Si4 0.159235 0.358881 0.816594
Si Si5 0.588811 0.500000 0.603246
Si Si6 0.500000 0.343063 0.000000
Si Si7 0.274040 0.594671 0.333686
Si Si8 0.000000 0.500000 0.500000
O O1 0.250000 0.250000 0.500000
O O2 0.544814 0.216273 0.292164
O O3 0.354745 0.159155 0.300068
O O4 0.314474 0.151804 0.547239
O O5 0.813299 0.432527 0.188559
O O6 0.655737 0.500000 0.432054
O O7 0.597111 0.500000 0.266725
O O8 0.279759 0.311892 0.785430
O O9 0.250000 0.250000 0.000000
O O10 0.146504 0.201802 0.911459
O O11 0.000000 0.343972 0.000000
O O12 0.656042 0.557534 0.617238
O O13 0.576432 0.386403 0.850611
O O14 0.139213 0.553123 0.381055
#
# Coordination Sequence:
#
# PCOD9218152 Si02
#       8
#     8   4   8   8   4   4   8   2
#     4  12  26  43  74 105 142 192 236 297 374 427
#     4  11  25  44  70 101 138 186 231 294 345 430
#     4  12  24  44  71 105 147 183 236 305 360 435
#     4  12  25  46  69 106 140 183 240 291 358 436
#     4  10  24  42  70  98 136 183 234 290 341 425
#     4  12  26  45  72 107 146 186 246 296 372 432
#     4  11  24  47  69 104 142 189 242 296 358 432
#     4  10  24  46  72 100 144 182 242 294 354 428
#
# _framework density 20.184439999999999
#
# number of rings (size 3 to 8) (size 9 to 14) (size 15 to 20)
#    0.000    0.522    4.348    3.391    4.870    3.478 
#    0.000    1.739    0.000    0.000    0.000    0.000 
#    0.000    0.000    0.000    0.000    0.000    0.000 
#
# Total GULP energy -128116.378731 kJ/mol
# GULP energy per Si atom -5570.277336 kJ/mol
# Density = 2.013850 g / cm^3
# Si number density = 20.184440 Si / 1000 Ang^3
#
#
#
# Elastic Constant Matrix: (Units=GPa)
#
#
# Indices 1 2 3 4 5 6 
#
# 1 83.1768 41.1816 33.2552 -0.0002 -26.0735 0.0001
# 2 41.1816 139.3009 50.0573 0.0000 -19.7398 0.0000
# 3 33.2552 50.0573 133.0152 -0.0001 -17.8502 0.0003
# 4 -0.0002 0.0000 -0.0001 39.4284 0.0001 -10.2313
# 5 -26.0735 -19.7398 -17.8502 0.0001 36.6001 -0.0002
# 6 0.0001 0.0000 0.0003 -10.2313 -0.0002 24.5252
#
#
#
# Elastic Compliance Matrix: (Units=1/GPa)
#
#
# Indices 1 2 3 4 5 6 
#
# 1 0.017364 -0.003073 -0.001870 0.000000 0.009801 0.000000
# 2 -0.003073 0.009201 -0.002485 0.000000 0.001562 0.000000
# 3 -0.001870 -0.002485 0.009162 0.000000 0.001796 0.000000
# 4 0.000000 0.000000 0.000000 0.028441 0.000000 0.011865
# 5 0.009801 0.001562 0.001796 0.000000 0.036023 0.000000
# 6 0.000000 0.000000 0.000000 0.011865 0.000000 0.045724
#
#
# Mechanical properties :
#
#
# Convention : Reuss Voigt Hill
#
# Bulk Modulus (GPa) = 47.91051 67.16458 57.53755
# Shear Modulus (GPa) = 29.81054 35.51066 32.66060
#
# Velocity S-wave (km/s) = 3.84722 4.19896 4.02694
# Velocity P-wave (km/s) = 6.59718 7.54029 7.08445
#
# Compressibility (1/GPa) = 0.02087225
#
# Stress axis : x y z
#
# Youngs Moduli (GPa) = 57.59199 108.67997 109.15203
#
# Poissons Ratio (x) = 0.33393 0.20407
# Poissons Ratio (y) = 0.17695 0.27124
# Poissons Ratio (z) = 0.10767 0.27006
#
# Static dielectric constant tensor:
#      x y z
#    x 1.718190 0.000000 0.039330 
#    y 0.000000 1.764930 0.000000 
#    z 0.039330 0.000000 1.690250 
# 
# From -- ./inp_files/133781.got.cif
#   From: 2010.05.17/outbox.cif.g08.bks.cpg/sg12_67_cif.got.tgz:133781.got - 2010.06.03 13:09:07.
