data_PCOD9218910
_publ_section_title
;
Structure prediction by ZEFSAII (Michael W. Deem and Ramdas Pophale) SiO2 
 PCOD9218910
Probable space group: C 2/M
;
_chemical_formula_sum "Si O2"
_cell_formula_units_Z 48
_cell_length_a 16.985551
_cell_length_b 16.239223
_cell_length_c 8.668725
_cell_angle_alpha 90.000000
_cell_angle_beta 88.880615
_cell_angle_gamma 90.000000
_cell_volume 2390.656738
_symmetry_space_group_name_H-M "C 2/M"
_symmetry_group_IT_number 12
_symmetry_cell_setting 'monoclinic'
loop_
_space_group_symop_operation_xyz
x,y,z
-x,y,-z
-x,-y,-z
x,-y,z
1/2+x,1/2+y,z
1/2-x,1/2+y,-z
1/2-x,1/2-y,-z
1/2+x,1/2-y,z
loop_
_atom_site_type_symbol
_atom_site_label
_atom_site_fract_x
_atom_site_fract_y
_atom_site_fract_z
Si Si1 0.557728 0.500000 0.194828
Si Si2 0.037211 0.173362 0.160937
Si Si3 0.296065 0.360156 0.358570
Si Si4 0.428175 0.231942 0.385463
Si Si5 0.371088 0.500000 0.141217
Si Si6 0.710208 0.273094 0.160814
Si Si7 0.200204 0.593760 0.657826
O O1 0.563253 0.592713 0.259686
O O2 0.462855 0.500000 0.179567
O O3 0.619025 0.500000 0.046011
O O4 0.117565 0.222219 0.139376
O O5 0.971110 0.231142 0.234526
O O6 0.000000 0.143728 0.000000
O O7 0.365680 0.304004 0.428312
O O8 0.330476 0.421242 0.225566
O O9 0.236384 0.295745 0.282351
O O10 0.249861 0.404693 0.496916
O O11 0.500000 0.220658 0.500000
O O12 0.377619 0.149851 0.361417
O O13 0.746805 0.358546 0.219503
O O14 0.750000 0.250000 0.000000
O O15 0.182950 0.500000 0.701305
#
# Coordination Sequence:
#
# PCOD9218910 Si02
#       7
#     4   8   8   8   4   8   8
#     4  11  20  34  56  96 126 156 197 258 325 378
#     4  12  21  38  63  88 124 163 205 257 316 386
#     4  11  21  42  63  91 128 169 210 259 317 381
#     4  11  22  39  62  89 123 168 211 256 314 373
#     4  11  18  36  62  90 126 160 203 256 316 388
#     4  11  24  41  65  94 126 170 210 260 325 381
#     4  11  24  43  63  91 128 166 217 269 310 370
#
# _framework density 20.078164999999998
#
# number of rings (size 3 to 8) (size 9 to 14) (size 15 to 20)
#    0.000    0.833    4.167    7.000    1.167    0.333 
#    1.500    0.833    0.000    1.500    0.000    0.000 
#    0.000    0.000    0.000    0.000    0.000    0.000 
#
# Total GULP energy -133942.271880 kJ/mol
# GULP energy per Si atom -5580.927995 kJ/mol
# Density = 2.003247 g / cm^3
# Si number density = 20.078165 Si / 1000 Ang^3
#
#
#
# Elastic Constant Matrix: (Units=GPa)
#
#
# Indices 1 2 3 4 5 6 
#
# 1 128.6247 58.4585 29.0629 0.0000 -4.6558 0.0000
# 2 58.4585 150.0805 31.0234 0.0000 -9.7431 0.0000
# 3 29.0629 31.0234 49.6601 0.0000 -6.1090 0.0000
# 4 0.0000 0.0000 0.0000 25.2967 0.0000 -19.5384
# 5 -4.6558 -9.7431 -6.1090 0.0000 36.9738 0.0000
# 6 0.0000 0.0000 0.0000 -19.5384 0.0000 45.2773
#
#
#
# Elastic Compliance Matrix: (Units=1/GPa)
#
#
# Indices 1 2 3 4 5 6 
#
# 1 0.010083 -0.003119 -0.003979 0.000000 -0.000210 0.000000
# 2 -0.003119 0.008673 -0.003430 0.000000 0.001326 0.000000
# 3 -0.003979 -0.003430 0.024942 0.000000 0.002716 0.000000
# 4 0.000000 0.000000 0.000000 0.059293 0.000000 0.025587
# 5 -0.000210 0.001326 0.002716 0.000000 0.027818 0.000000
# 6 0.000000 0.000000 0.000000 0.025587 0.000000 0.033127
#
#
# Mechanical properties :
#
#
# Convention : Reuss Voigt Hill
#
# Bulk Modulus (GPa) = 44.16153 62.82832 53.49492
# Shear Modulus (GPa) = 25.96869 35.49759 30.73314
#
# Velocity S-wave (km/s) = 3.60026 4.20929 3.91663
# Velocity P-wave (km/s) = 6.27097 7.41511 6.86691
#
# Compressibility (1/GPa) = 0.02264414
#
# Stress axis : x y z
#
# Youngs Moduli (GPa) = 99.17286 115.30072 40.09291
#
# Poissons Ratio (x) = 0.35960 0.15951
# Poissons Ratio (y) = 0.30930 0.13751
# Poissons Ratio (z) = 0.39457 0.39545
#
# Static dielectric constant tensor:
#      x y z
#    x 1.685450 0.000000 0.012580 
#    y 0.000000 1.736830 0.000000 
#    z 0.012580 0.000000 1.781690 
# 
# From -- ./inp_files/73679.got.cif
#   From: 2010.05.17/outbox.cif.g08.bks.cpg/sg12_37_cif.got.tgz:73679.got - 2010.06.03 13:09:07.
