data_PCOD9218064
_publ_section_title
;
Structure prediction by ZEFSAII (Michael W. Deem and Ramdas Pophale) SiO2 
 PCOD9218064
Probable space group: C 2/M
;
_chemical_formula_sum "Si O2"
_cell_formula_units_Z 44
_cell_length_a 9.312831
_cell_length_b 22.297294
_cell_length_c 10.381546
_cell_angle_alpha 90.000000
_cell_angle_beta 77.978520
_cell_angle_gamma 90.000000
_cell_volume 2108.461471
_symmetry_space_group_name_H-M "C 2/M"
_symmetry_group_IT_number 12
_symmetry_cell_setting 'monoclinic'
loop_
_space_group_symop_operation_xyz
x,y,z
-x,y,-z
-x,-y,-z
x,-y,z
1/2+x,1/2+y,z
1/2-x,1/2+y,-z
1/2-x,1/2-y,-z
1/2+x,1/2-y,z
loop_
_atom_site_type_symbol
_atom_site_label
_atom_site_fract_x
_atom_site_fract_y
_atom_site_fract_z
Si Si1 0.648383 0.500000 0.881357
Si Si2 0.529810 0.500000 0.339492
Si Si3 0.000000 0.304933 0.000000
Si Si4 0.928236 0.669234 0.375859
Si Si5 0.070550 0.787300 0.761832
Si Si6 0.883132 0.126991 0.638724
Si Si7 0.190392 0.372660 0.146233
O O1 0.602625 0.500000 0.738038
O O2 0.742388 0.438919 0.883346
O O3 0.500000 0.500000 0.000000
O O4 0.500000 0.500000 0.500000
O O5 0.612890 0.561537 0.299552
O O6 0.034443 0.259628 0.879319
O O7 0.860664 0.344352 0.980915
O O8 0.894052 0.739877 0.357210
O O9 0.773292 0.638062 0.391825
O O10 0.000000 0.663466 0.500000
O O11 0.041058 0.636444 0.256661
O O12 0.192157 0.832071 0.796430
O O13 0.933894 0.825345 0.735559
O O14 0.000000 0.129919 0.500000
#
# Coordination Sequence:
#
# PCOD9218064 Si02
#       7
#     4   4   4   8   8   8   8
#     4  12  28  48  76 101 140 187 238 289 344 420
#     4  10  24  45  70  99 131 181 242 283 337 405
#     4  10  24  41  70  97 138 176 228 290 348 412
#     4  11  24  40  66 104 141 177 221 287 355 401
#     4  11  22  41  68  96 138 181 232 276 342 417
#     4  11  23  42  69  96 136 183 233 282 341 420
#     4  11  25  45  67 101 137 179 234 285 346 409
#
# _framework density 20.868296999999998
#
# number of rings (size 3 to 8) (size 9 to 14) (size 15 to 20)
#    0.000    1.091    1.818    4.364    3.818    7.636 
#    0.000    0.909    0.000    0.000    0.000    0.000 
#    0.000    0.000    0.000    0.000    0.000    0.000 
#
# Total GULP energy -122816.994841 kJ/mol
# GULP energy per Si atom -5582.590675 kJ/mol
# Density = 2.082080 g / cm^3
# Si number density = 20.868297 Si / 1000 Ang^3
#
#
#
# Elastic Constant Matrix: (Units=GPa)
#
#
# Indices 1 2 3 4 5 6 
#
# 1 158.7763 83.0289 48.9964 0.0000 21.1254 0.0000
# 2 83.0289 176.0233 41.3607 0.0000 3.6437 0.0000
# 3 48.9964 41.3607 75.9435 0.0000 16.3082 0.0000
# 4 0.0000 0.0000 0.0000 6.4837 0.0000 4.1900
# 5 21.1254 3.6437 16.3082 0.0000 39.6222 0.0000
# 6 0.0000 0.0000 0.0000 4.1900 0.0000 19.8393
#
#
#
# Elastic Compliance Matrix: (Units=1/GPa)
#
#
# Indices 1 2 3 4 5 6 
#
# 1 0.009793 -0.003711 -0.003564 0.000000 -0.003413 0.000000
# 2 -0.003711 0.007954 -0.002419 0.000000 0.002243 0.000000
# 3 -0.003564 -0.002419 0.017912 0.000000 -0.005250 0.000000
# 4 0.000000 0.000000 0.000000 0.178610 0.000000 -0.037722
# 5 -0.003413 0.002243 -0.005250 0.000000 0.029013 0.000000
# 6 0.000000 0.000000 0.000000 -0.037722 0.000000 0.058372
#
#
# Mechanical properties :
#
#
# Convention : Reuss Voigt Hill
#
# Bulk Modulus (GPa) = 61.46280 84.16835 72.81558
# Shear Modulus (GPa) = 15.31564 29.01286 22.16425
#
# Velocity S-wave (km/s) = 2.71203 3.73270 3.26253
# Velocity P-wave (km/s) = 6.27084 7.68102 7.01147
#
# Compressibility (1/GPa) = 0.01627000
#
# Stress axis : x y z
#
# Youngs Moduli (GPa) = 102.11719 125.73023 55.82910
#
# Poissons Ratio (x) = 0.46659 0.19897
# Poissons Ratio (y) = 0.37896 0.13505
# Poissons Ratio (z) = 0.36393 0.30415
#
# Static dielectric constant tensor:
#      x y z
#    x 1.758270 0.000000 0.138990 
#    y 0.000000 1.761440 0.000000 
#    z 0.138990 0.000000 2.428920 
# 
# From -- ./inp_files/120761.got.cif
#   From: 2010.05.17/outbox.cif.g08.bks.cpg/sg12_61_cif.got.tgz:120761.got - 2010.06.03 13:09:07.
