data_PCOD9218214
_publ_section_title
;
Structure prediction by ZEFSAII (Michael W. Deem and Ramdas Pophale) SiO2 
 PCOD9218214
Probable space group: C 2/M
;
_chemical_formula_sum "Si O2"
_cell_formula_units_Z 64
_cell_length_a 29.456086
_cell_length_b 19.508081
_cell_length_c 9.464492
_cell_angle_alpha 90.000000
_cell_angle_beta 34.410798
_cell_angle_gamma 90.000000
_cell_volume 3073.473639
_symmetry_space_group_name_H-M "C 2/M"
_symmetry_group_IT_number 12
_symmetry_cell_setting 'monoclinic'
loop_
_space_group_symop_operation_xyz
x,y,z
-x,y,-z
-x,-y,-z
x,-y,z
1/2+x,1/2+y,z
1/2-x,1/2+y,-z
1/2-x,1/2-y,-z
1/2+x,1/2-y,z
loop_
_atom_site_type_symbol
_atom_site_label
_atom_site_fract_x
_atom_site_fract_y
_atom_site_fract_z
Si Si1 0.830418 0.675324 0.348178
Si Si2 0.210273 0.786604 0.888978
Si Si3 0.758828 0.653122 0.036768
Si Si4 0.744510 0.578032 0.353139
Si Si5 0.447699 0.833620 0.495807
Si Si6 0.927955 0.425286 0.293400
Si Si7 0.431894 0.422739 0.054801
Si Si8 0.059407 0.776653 0.104419
O O1 0.751374 0.701614 0.632022
O O2 0.803261 0.631135 0.282027
O O3 0.867754 0.626503 0.372181
O O4 0.894489 0.732655 0.135789
O O5 0.216874 0.845123 0.991720
O O6 0.118210 0.770906 0.089057
O O7 0.258657 0.723532 0.833730
O O8 0.853736 0.658483 0.765149
O O9 0.740696 0.594495 0.196356
O O10 0.772007 0.500000 0.305970
O O11 0.656089 0.585003 0.648516
O O12 0.500000 0.844579 0.500000
O O13 0.464699 0.892510 0.338585
O O14 0.476724 0.762043 0.351700
O O15 0.891227 0.500000 0.414748
O O16 0.000000 0.431936 0.000000
O O17 0.434537 0.500000 0.983463
O O18 0.446340 0.356286 0.920778
O O19 0.500000 0.420827 0.000000
#
# Coordination Sequence:
#
# PCOD9218214 Si02
#       8
#     8   8   8   8   8   8   8   8
#     4  12  21  41  67  99 124 166 231 271 321 385
#     4  11  22  39  64  90 128 162 216 279 316 372
#     4  11  24  41  60  96 135 171 214 264 317 391
#     4  11  23  43  68  96 136 175 212 267 329 389
#     4  12  24  42  62  96 134 172 221 259 320 396
#     4  11  25  43  62  92 134 173 217 272 319 377
#     4  10  24  43  67 100 130 164 215 271 335 395
#     4  12  23  40  69  96 128 171 215 278 329 379
#
# _framework density 20.823343999999999
#
# number of rings (size 3 to 8) (size 9 to 14) (size 15 to 20)
#    0.000    0.750    6.250    1.500    1.750    2.750 
#    0.000    0.625    0.000    0.375    0.000    0.000 
#    0.000    0.000    0.000    0.000    0.000    0.000 
#
# Total GULP energy -178737.664504 kJ/mol
# GULP energy per Si atom -5585.552016 kJ/mol
# Density = 2.077595 g / cm^3
# Si number density = 20.823344 Si / 1000 Ang^3
#
#
#
# Elastic Constant Matrix: (Units=GPa)
#
#
# Indices 1 2 3 4 5 6 
#
# 1 67.4334 26.2456 4.2271 0.0000 16.6866 0.0000
# 2 26.2456 104.1492 13.6527 0.0000 15.5121 0.0000
# 3 4.2271 13.6527 42.7337 0.0000 15.5488 0.0000
# 4 0.0000 0.0000 0.0000 40.2670 0.0000 19.3932
# 5 16.6866 15.5121 15.5488 0.0000 34.7050 0.0000
# 6 0.0000 0.0000 0.0000 19.3932 0.0000 43.1716
#
#
#
# Elastic Compliance Matrix: (Units=1/GPa)
#
#
# Indices 1 2 3 4 5 6 
#
# 1 0.018118 -0.003662 0.002332 0.000000 -0.008119 0.000000
# 2 -0.003662 0.011161 -0.002424 0.000000 -0.002142 0.000000
# 3 0.002332 -0.002424 0.028625 0.000000 -0.012862 0.000000
# 4 0.000000 0.000000 0.000000 0.031690 0.000000 -0.014236
# 5 -0.008119 -0.002142 -0.012862 0.000000 0.039438 0.000000
# 6 0.000000 0.000000 0.000000 -0.014236 0.000000 0.029558
#
#
# Mechanical properties :
#
#
# Convention : Reuss Voigt Hill
#
# Bulk Modulus (GPa) = 19.84334 33.61857 26.73095
# Shear Modulus (GPa) = 27.33777 34.97477 31.15627
#
# Velocity S-wave (km/s) = 3.62725 4.10273 3.87229
# Velocity P-wave (km/s) = 5.20506 6.21473 5.73217
#
# Compressibility (1/GPa) = 0.05039475
#
# Stress axis : x y z
#
# Youngs Moduli (GPa) = 55.19467 89.59564 34.93507
#
# Poissons Ratio (x) = 0.32811 -0.08147
# Poissons Ratio (y) = 0.20213 0.08469
# Poissons Ratio (z) = -0.12871 0.21720
#
# Static dielectric constant tensor:
#      x y z
#    x 1.756600 0.000000 0.005150 
#    y 0.000000 1.829130 0.000000 
#    z 0.005150 0.000000 1.782270 
# 
# From -- ./inp_files/112840.got.cif
#   From: 2010.05.17/outbox.cif.g08.bks.cpg/sg12_57_cif.got.tgz:112840.got - 2010.06.03 13:09:07.
