data_PCOD9218210
_publ_section_title
;
Structure prediction by ZEFSAII (Michael W. Deem and Ramdas Pophale) SiO2 
 PCOD9218210
Probable space group: C 2/M
;
_chemical_formula_sum "Si O2"
_cell_formula_units_Z 50
_cell_length_a 19.473811
_cell_length_b 7.830547
_cell_length_c 14.083920
_cell_angle_alpha 90.000000
_cell_angle_beta 75.347230
_cell_angle_gamma 90.000000
_cell_volume 2077.815929
_symmetry_space_group_name_H-M "C 2/M"
_symmetry_group_IT_number 12
_symmetry_cell_setting 'monoclinic'
loop_
_space_group_symop_operation_xyz
x,y,z
-x,y,-z
-x,-y,-z
x,-y,z
1/2+x,1/2+y,z
1/2-x,1/2+y,-z
1/2-x,1/2-y,-z
1/2+x,1/2-y,z
loop_
_atom_site_type_symbol
_atom_site_label
_atom_site_fract_x
_atom_site_fract_y
_atom_site_fract_z
Si Si1 0.966082 0.811585 0.885097
Si Si2 0.396327 0.707532 0.394704
Si Si3 0.315132 0.302164 0.601981
Si Si4 0.448733 0.800053 0.675575
Si Si5 0.676803 0.803999 0.976433
Si Si6 0.320086 0.303053 0.237408
Si Si7 0.500000 0.000000 0.000000
O O1 0.953529 0.780585 0.778408
O O2 0.007508 0.653270 0.916642
O O3 0.997909 0.000000 0.888241
O O4 0.888695 0.803807 0.961732
O O5 0.397818 0.500000 0.396389
O O6 0.336385 0.763767 0.490271
O O7 0.473152 0.775660 0.395199
O O8 0.376695 0.761004 0.294832
O O9 0.293755 0.500000 0.602627
O O10 0.387708 0.288099 0.636226
O O11 0.254069 0.206923 0.680209
O O12 0.431789 0.000000 0.689170
O O13 0.684081 0.790851 0.860926
O O14 0.657888 0.000000 0.007273
O O15 0.750000 0.750000 0.000000
O O16 0.335119 0.500000 0.210080
#
# Coordination Sequence:
#
# PCOD9218210 Si02
#       7
#     8   8   8   8   8   8   2
#     4  12  26  46  71 101 141 181 227 286 343 406
#     4  10  24  43  66  97 133 173 224 279 344 410
#     4  11  23  43  67  95 132 178 225 278 342 409
#     4  12  25  43  67  99 135 177 229 280 339 411
#     4  12  25  45  68  99 135 177 232 283 343 415
#     4  11  24  42  67  98 132 173 221 278 347 406
#     4  12  26  48  68 106 138 184 230 278 342 418
#
# _framework density 24.063731000000001
#
# number of rings (size 3 to 8) (size 9 to 14) (size 15 to 20)
#    0.000    0.640    1.600    6.000    2.240    4.480 
#    0.000    0.000    0.000    0.000    0.000    0.000 
#    0.000    0.000    0.000    0.000    0.000    0.000 
#
# Total GULP energy -139898.399441 kJ/mol
# GULP energy per Si atom -5595.935978 kJ/mol
# Density = 2.400896 g / cm^3
# Si number density = 24.063731 Si / 1000 Ang^3
#
#
#
# Elastic Constant Matrix: (Units=GPa)
#
#
# Indices 1 2 3 4 5 6 
#
# 1 94.9441 1.9465 21.7408 0.0000 -4.4129 0.0000
# 2 1.9465 142.5124 18.5814 0.0000 3.0530 0.0000
# 3 21.7408 18.5814 120.2075 0.0000 3.2403 0.0000
# 4 0.0000 0.0000 0.0000 26.5314 0.0000 -0.8753
# 5 -4.4129 3.0530 3.2403 0.0000 44.6200 0.0000
# 6 0.0000 0.0000 0.0000 -0.8753 0.0000 23.8798
#
#
#
# Elastic Compliance Matrix: (Units=1/GPa)
#
#
# Indices 1 2 3 4 5 6 
#
# 1 0.011057 0.000089 -0.002047 0.000000 0.001236 0.000000
# 2 0.000089 0.007169 -0.001114 0.000000 -0.000401 0.000000
# 3 -0.002047 -0.001114 0.008882 0.000000 -0.000771 0.000000
# 4 0.000000 0.000000 0.000000 0.037737 0.000000 0.001383
# 5 0.001236 -0.000401 -0.000771 0.000000 0.022617 0.000000
# 6 0.000000 0.000000 0.000000 0.001383 0.000000 0.041927
#
#
# Mechanical properties :
#
#
# Convention : Reuss Voigt Hill
#
# Bulk Modulus (GPa) = 47.69581 49.13349 48.41465
# Shear Modulus (GPa) = 35.08269 40.03259 37.55764
#
# Velocity S-wave (km/s) = 3.82240 4.08316 3.95493
# Velocity P-wave (km/s) = 6.27253 6.53391 6.40455
#
# Compressibility (1/GPa) = 0.02096620
#
# Stress axis : x y z
#
# Youngs Moduli (GPa) = 90.44178 139.47979 112.58625
#
# Poissons Ratio (x) = -0.01247 0.23045
# Poissons Ratio (y) = -0.00808 0.12538
# Poissons Ratio (z) = 0.18512 0.15533
#
# Static dielectric constant tensor:
#      x y z
#    x 1.783330 0.000000 0.015950 
#    y 0.000000 1.868350 0.000000 
#    z 0.015950 0.000000 1.892560 
# 
# From -- ./inp_files/230036.got.cif
#   From: 2010.05.17/outbox.cif.g08.bks.cpg/sg12_116_cif.got.tgz:230036.got - 2010.06.03 13:09:07.
