data_PCOD9218404
_publ_section_title
;
Structure prediction by ZEFSAII (Michael W. Deem and Ramdas Pophale) SiO2 
 PCOD9218404
Probable space group: C 2/M
;
_chemical_formula_sum "Si O2"
_cell_formula_units_Z 56
_cell_length_a 27.601511
_cell_length_b 8.719593
_cell_length_c 17.979447
_cell_angle_alpha 90.000000
_cell_angle_beta 141.257918
_cell_angle_gamma 90.000000
_cell_volume 2708.019882
_symmetry_space_group_name_H-M "C 2/M"
_symmetry_group_IT_number 12
_symmetry_cell_setting 'monoclinic'
loop_
_space_group_symop_operation_xyz
x,y,z
-x,y,-z
-x,-y,-z
x,-y,z
1/2+x,1/2+y,z
1/2-x,1/2+y,-z
1/2-x,1/2-y,-z
1/2+x,1/2-y,z
loop_
_atom_site_type_symbol
_atom_site_label
_atom_site_fract_x
_atom_site_fract_y
_atom_site_fract_z
Si Si1 0.044251 0.182635 0.128384
Si Si2 0.352928 0.679315 0.442685
Si Si3 0.737243 0.179292 0.065938
Si Si4 0.878359 0.679482 0.316093
Si Si5 0.500525 0.821008 0.340468
Si Si6 0.289287 0.183411 0.622467
Si Si7 0.581610 0.679850 0.893620
O O1 0.126304 0.255161 0.251570
O O2 0.982989 0.204728 0.121491
O O3 0.057770 0.000000 0.134998
O O4 0.000000 0.237700 0.000000
O O5 0.353081 0.500000 0.422574
O O6 0.372880 0.783680 0.396101
O O7 0.424743 0.715815 0.582843
O O8 0.272408 0.716680 0.385704
O O9 0.814763 0.212530 0.203261
O O10 0.721151 0.000000 0.041215
O O11 0.750000 0.250000 0.000000
O O12 0.665956 0.265235 0.019597
O O13 0.860619 0.500000 0.281472
O O14 0.958644 0.708594 0.369248
O O15 0.439398 0.778351 0.203885
O O16 0.521102 0.000000 0.360761
O O17 0.250000 0.250000 0.500000
O O18 0.294302 0.000000 0.619436
O O19 0.583973 0.500000 0.877308
#
# Coordination Sequence:
#
# PCOD9218404 Si02
#       7
#     8   8   8   8   8   8   8
#     4  10  24  45  68  98 132 171 218 275 336 395
#     4  11  25  42  63  94 129 165 210 265 322 380
#     4  12  24  40  63  93 129 169 213 258 310 374
#     4  11  24  41  62  91 128 168 212 259 315 381
#     4  11  23  40  63  93 127 168 214 260 314 380
#     4  11  25  45  69  98 130 172 222 276 333 393
#     4  11  23  40  65  94 127 168 214 262 320 381
#
# _framework density 20.679316
#
# number of rings (size 3 to 8) (size 9 to 14) (size 15 to 20)
#    0.000    1.000    1.429    4.714    2.000   10.571 
#    0.000    0.000    0.000    0.000    0.000    0.000 
#    0.000    0.000    0.000    0.000    0.000    0.000 
#
# Total GULP energy -156518.002194 kJ/mol
# GULP energy per Si atom -5589.928650 kJ/mol
# Density = 2.063225 g / cm^3
# Si number density = 20.679316 Si / 1000 Ang^3
#
#
#
# Elastic Constant Matrix: (Units=GPa)
#
#
# Indices 1 2 3 4 5 6 
#
# 1 86.3585 62.9453 42.1953 0.0000 18.0332 0.0000
# 2 62.9453 74.6342 32.1683 0.0000 13.6935 0.0000
# 3 42.1953 32.1683 103.1386 0.0000 13.5768 0.0000
# 4 0.0000 0.0000 0.0000 36.7504 0.0000 4.4452
# 5 18.0332 13.6935 13.5768 0.0000 41.0236 0.0000
# 6 0.0000 0.0000 0.0000 4.4452 0.0000 25.6078
#
#
#
# Elastic Compliance Matrix: (Units=1/GPa)
#
#
# Indices 1 2 3 4 5 6 
#
# 1 0.033314 -0.025004 -0.005229 0.000000 -0.004567 0.000000
# 2 -0.025004 0.034814 -0.000571 0.000000 -0.000440 0.000000
# 3 -0.005229 -0.000571 0.012218 0.000000 -0.001554 0.000000
# 4 0.000000 0.000000 0.000000 0.027794 0.000000 -0.004825
# 5 -0.004567 -0.000440 -0.001554 0.000000 0.027045 0.000000
# 6 0.000000 0.000000 0.000000 -0.004825 0.000000 0.039888
#
#
# Mechanical properties :
#
#
# Convention : Reuss Voigt Hill
#
# Bulk Modulus (GPa) = 53.37125 59.86100 56.61613
# Shear Modulus (GPa) = 20.58240 29.13120 24.85680
#
# Velocity S-wave (km/s) = 3.15828 3.75735 3.47077
# Velocity P-wave (km/s) = 6.25817 6.91619 6.59539
#
# Compressibility (1/GPa) = 0.01873668
#
# Stress axis : x y z
#
# Youngs Moduli (GPa) = 30.01778 28.72432 81.84945
#
# Poissons Ratio (x) = 0.71823 0.42800
# Poissons Ratio (y) = 0.75058 0.04670
# Poissons Ratio (z) = 0.15697 0.01639
#
# Static dielectric constant tensor:
#      x y z
#    x 1.730760 0.000000 -0.019180 
#    y 0.000000 1.686640 0.000000 
#    z -0.019180 0.000000 1.769740 
# 
# From -- ./inp_files/292558.got.cif
#   From: 2010.05.17/outbox.cif.g08.bks.cpg/sg12_147_cif.got.tgz:292558.got - 2010.06.03 13:09:07.
