data_PCOD9218927
_publ_section_title
;
Structure prediction by ZEFSAII (Michael W. Deem and Ramdas Pophale) SiO2 
 PCOD9218927
Probable space group: C 2/M
;
_chemical_formula_sum "Si O2"
_cell_formula_units_Z 56
_cell_length_a 8.719717
_cell_length_b 17.863258
_cell_length_c 21.852626
_cell_angle_alpha 90.000000
_cell_angle_beta 122.202584
_cell_angle_gamma 90.000000
_cell_volume 2880.208135
_symmetry_space_group_name_H-M "C 2/M"
_symmetry_group_IT_number 12
_symmetry_cell_setting 'monoclinic'
loop_
_space_group_symop_operation_xyz
x,y,z
-x,y,-z
-x,-y,-z
x,-y,z
1/2+x,1/2+y,z
1/2-x,1/2+y,-z
1/2-x,1/2-y,-z
1/2+x,1/2-y,z
loop_
_atom_site_type_symbol
_atom_site_label
_atom_site_fract_x
_atom_site_fract_y
_atom_site_fract_z
Si Si1 0.123456 0.912656 0.266039
Si Si2 0.906911 0.805393 0.846071
Si Si3 0.190956 0.273932 0.054643
Si Si4 0.327789 0.860450 0.423030
Si Si5 0.196192 0.915055 0.511346
Si Si6 0.681631 0.202138 0.368776
Si Si7 0.160716 0.191409 0.725906
O O1 0.167869 0.873101 0.210837
O O2 0.283649 0.897293 0.349040
O O3 0.950323 0.871006 0.260452
O O4 0.092442 0.000000 0.252358
O O5 0.854542 0.792275 0.906075
O O6 0.825370 0.730284 0.797665
O O7 0.123846 0.811728 0.883665
O O8 0.250000 0.250000 0.000000
O O9 0.000000 0.315279 0.000000
O O10 0.500000 0.883622 0.500000
O O11 0.172285 0.886595 0.437140
O O12 0.315262 0.771230 0.413755
O O13 0.314801 0.856750 0.575735
O O14 0.000000 0.914600 0.500000
O O15 0.266553 0.000000 0.527293
O O16 0.754732 0.167995 0.321023
O O17 0.490162 0.243408 0.317275
#
# Coordination Sequence:
#
# PCOD9218927 Si02
#       7
#     8   8   8   8   8   8   8
#     4  11  24  38  60  89 127 166 204 257 322 364
#     4  11  18  38  62  93 127 159 199 248 287 364
#     4   9  19  34  65 104 124 153 199 245 284 348
#     4  11  22  39  57  77 109 158 218 266 313 365
#     4  11  23  36  50  72 108 148 197 265 330 370
#     4  11  21  35  56  79 107 150 213 265 312 368
#     4  11  20  37  60  86 115 157 203 251 300 358
#
# _framework density 19.44304
#
# number of rings (size 3 to 8) (size 9 to 14) (size 15 to 20)
#    0.000    1.286    4.286    3.857    0.000    2.857 
#    0.000    0.000    0.000    6.857    0.000    0.000 
#    0.000    0.000    0.000    0.000    0.000    0.000 
#
# Total GULP energy -156108.475002 kJ/mol
# GULP energy per Si atom -5575.302679 kJ/mol
# Density = 1.939879 g / cm^3
# Si number density = 19.443040 Si / 1000 Ang^3
#
#
#
# Elastic Constant Matrix: (Units=GPa)
#
#
# Indices 1 2 3 4 5 6 
#
# 1 64.4208 6.2396 35.9289 0.0000 -8.1468 0.0000
# 2 6.2396 103.1467 33.3228 0.0000 -15.8883 0.0000
# 3 35.9289 33.3228 119.2262 0.0000 -9.9849 0.0000
# 4 0.0000 0.0000 0.0000 6.8640 0.0000 -4.8885
# 5 -8.1468 -15.8883 -9.9849 0.0000 50.8072 0.0000
# 6 0.0000 0.0000 0.0000 -4.8885 0.0000 17.7120
#
#
#
# Elastic Compliance Matrix: (Units=1/GPa)
#
#
# Indices 1 2 3 4 5 6 
#
# 1 0.018949 0.001079 -0.005825 0.000000 0.002231 0.000000
# 2 0.001079 0.011123 -0.003181 0.000000 0.003026 0.000000
# 3 -0.005825 -0.003181 0.011052 0.000000 0.000243 0.000000
# 4 0.000000 0.000000 0.000000 0.181332 0.000000 0.050047
# 5 0.002231 0.003026 0.000243 0.000000 0.021034 0.000000
# 6 0.000000 0.000000 0.000000 0.050047 0.000000 0.070272
#
#
# Mechanical properties :
#
#
# Convention : Reuss Voigt Hill
#
# Bulk Modulus (GPa) = 39.56982 48.64180 44.10581
# Shear Modulus (GPa) = 14.79115 29.16345 21.97730
#
# Velocity S-wave (km/s) = 2.76115 3.87711 3.36570
# Velocity P-wave (km/s) = 5.52821 6.71674 6.15125
#
# Compressibility (1/GPa) = 0.02527179
#
# Stress axis : x y z
#
# Youngs Moduli (GPa) = 52.77211 89.90071 90.47962
#
# Poissons Ratio (x) = -0.09703 0.52706
# Poissons Ratio (y) = -0.05696 0.28779
# Poissons Ratio (z) = 0.30741 0.28595
#
# Static dielectric constant tensor:
#      x y z
#    x 1.825780 0.000000 0.048310 
#    y 0.000000 1.644350 0.000000 
#    z 0.048310 0.000000 1.762220 
# 
# From -- ./inp_files/300867.got.cif
#   From: 2010.05.17/outbox.cif.g08.bks.cpg/sg12_151_cif.got.tgz:300867.got - 2010.06.03 13:09:07.
