data_PCOD9218465
_publ_section_title
;
Structure prediction by ZEFSAII (Michael W. Deem and Ramdas Pophale) SiO2 
 PCOD9218465
Probable space group: C 2/M
;
_chemical_formula_sum "Si O2"
_cell_formula_units_Z 36
_cell_length_a 8.443011
_cell_length_b 20.950021
_cell_length_c 8.895055
_cell_angle_alpha 90.000000
_cell_angle_beta 86.640747
_cell_angle_gamma 90.000000
_cell_volume 1570.665079
_symmetry_space_group_name_H-M "C 2/M"
_symmetry_group_IT_number 12
_symmetry_cell_setting 'monoclinic'
loop_
_space_group_symop_operation_xyz
x,y,z
-x,y,-z
-x,-y,-z
x,-y,z
1/2+x,1/2+y,z
1/2-x,1/2+y,-z
1/2-x,1/2-y,-z
1/2+x,1/2-y,z
loop_
_atom_site_type_symbol
_atom_site_label
_atom_site_fract_x
_atom_site_fract_y
_atom_site_fract_z
Si Si1 0.144059 0.387235 0.376547
Si Si2 0.423944 0.158541 0.154726
Si Si3 0.904688 0.217074 0.349929
Si Si4 0.101331 0.000000 0.664653
Si Si5 0.422696 0.390497 0.843145
O O1 0.240962 0.320992 0.385290
O O2 0.268826 0.443896 0.382378
O O3 0.000000 0.392542 0.500000
O O4 0.059417 0.385702 0.219434
O O5 0.384569 0.214138 0.275777
O O6 0.264095 0.120009 0.132368
O O7 0.500000 0.187031 0.000000
O O8 0.000000 0.218314 0.500000
O O9 0.000654 0.174480 0.223868
O O10 0.972627 0.944543 0.722571
O O11 0.500000 0.407122 0.000000
#
# Coordination Sequence:
#
# PCOD9218465 Si02
#       5
#     8   8   8   4   8
#     4  11  24  44  70 100 132 171 222 272 323 389
#     4  12  25  42  68 101 134 172 220 272 325 389
#     4  11  24  44  69  99 136 174 213 267 335 397
#     4  10  24  46  69  94 131 176 222 272 328 386
#     4  11  24  44  68  96 134 177 219 268 330 391
#
# _framework density 22.920228000000002
#
# number of rings (size 3 to 8) (size 9 to 14) (size 15 to 20)
#    0.000    0.889    0.000    7.333    0.000    6.222 
#    0.000   23.333    0.000    0.000    0.000    0.000 
#    0.000    0.000    0.000    0.000    0.000    0.000 
#
# Total GULP energy -100328.311723 kJ/mol
# GULP energy per Si atom -5573.795096 kJ/mol
# Density = 2.286806 g / cm^3
# Si number density = 22.920228 Si / 1000 Ang^3
#
#
#
# Elastic Constant Matrix: (Units=GPa)
#
#
# Indices 1 2 3 4 5 6 
#
# 1 179.9260 48.3680 55.0694 0.0000 -11.2757 0.0000
# 2 48.3680 77.4372 24.2516 0.0000 -14.1151 0.0000
# 3 55.0694 24.2516 49.3321 0.0000 -1.5430 0.0000
# 4 0.0000 0.0000 0.0000 -28.7781 0.0000 -24.0654
# 5 -11.2757 -14.1151 -1.5430 0.0000 42.8616 0.0000
# 6 0.0000 0.0000 0.0000 -24.0654 0.0000 4.8462
#
#
#
# Elastic Compliance Matrix: (Units=1/GPa)
#
#
# Indices 1 2 3 4 5 6 
#
# 1 0.009021 -0.002693 -0.008709 0.000000 0.001173 0.000000
# 2 -0.002693 0.017104 -0.005254 0.000000 0.004735 0.000000
# 3 -0.008709 -0.005254 0.032487 0.000000 -0.002852 0.000000
# 4 0.000000 0.000000 0.000000 -0.006744 0.000000 -0.033489
# 5 0.001173 0.004735 -0.002852 0.000000 0.025096 0.000000
# 6 0.000000 0.000000 0.000000 -0.033489 0.000000 0.040047
#
#
# Mechanical properties :
#
#
# Convention : Reuss Voigt Hill
#
# Bulk Modulus (GPa) = 39.52737 62.45257 50.98997
# Shear Modulus (GPa) = 31.49453 15.71970 23.60712
#
# Velocity S-wave (km/s) = 3.71090 2.62170 3.21279
# Velocity P-wave (km/s) = 5.97027 6.03915 6.00481
#
# Compressibility (1/GPa) = 0.02529893
#
# Stress axis : x y z
#
# Youngs Moduli (GPa) = 110.85218 58.46435 30.78171
#
# Poissons Ratio (x) = 0.15746 0.26809
# Poissons Ratio (y) = 0.29855 0.16173
# Poissons Ratio (z) = 0.96547 0.30717
#
# Static dielectric constant tensor:
#      x y z
#    x 1.839090 0.000000 0.020680 
#    y 0.000000 1.794490 0.000000 
#    z 0.020680 0.000000 1.929910 
# 
# From -- ./inp_files/37992.got.cif
#   From: 2010.05.17/outbox.cif.g08.bks.cpg/sg12_19_cif.got.tgz:37992.got - 2010.06.03 13:09:07.
