data_PCOD9218352
_publ_section_title
;
Structure prediction by ZEFSAII (Michael W. Deem and Ramdas Pophale) SiO2 
 PCOD9218352
Probable space group: C 2/M
;
_chemical_formula_sum "Si O2"
_cell_formula_units_Z 52
_cell_length_a 22.460007
_cell_length_b 9.469085
_cell_length_c 17.039676
_cell_angle_alpha 90.000000
_cell_angle_beta 35.845846
_cell_angle_gamma 90.000000
_cell_volume 2122.194098
_symmetry_space_group_name_H-M "C 2/M"
_symmetry_group_IT_number 12
_symmetry_cell_setting 'monoclinic'
loop_
_space_group_symop_operation_xyz
x,y,z
-x,y,-z
-x,-y,-z
x,-y,z
1/2+x,1/2+y,z
1/2-x,1/2+y,-z
1/2-x,1/2-y,-z
1/2+x,1/2-y,z
loop_
_atom_site_type_symbol
_atom_site_label
_atom_site_fract_x
_atom_site_fract_y
_atom_site_fract_z
Si Si1 0.264217 0.666746 0.727107
Si Si2 0.126765 0.707008 0.175025
Si Si3 0.413529 0.660965 0.170453
Si Si4 0.068201 0.336632 0.530374
Si Si5 0.153457 0.840837 0.581987
Si Si6 0.197267 0.000000 0.053313
Si Si7 0.594074 0.158861 0.025820
O O1 0.275827 0.500000 0.697566
O O2 0.179071 0.742043 0.761956
O O3 0.369474 0.750011 0.601998
O O4 0.209015 0.673517 0.870901
O O5 0.052264 0.660653 0.324748
O O6 0.134227 0.874812 0.164719
O O7 0.232344 0.622235 0.065006
O O8 0.089492 0.667299 0.125033
O O9 0.405458 0.500000 0.148334
O O10 0.404131 0.649456 0.274682
O O11 0.525261 0.731982 0.050759
O O12 0.103176 0.500000 0.491550
O O13 0.099469 0.249273 0.573940
O O14 0.250000 0.750000 0.500000
O O15 0.176735 0.000000 0.531050
O O16 0.559953 0.000000 0.040839
#
# Coordination Sequence:
#
# PCOD9218352 Si02
#       7
#     8   8   8   8   8   4   8
#     4  11  25  40  59  87 132 179 212 248 298 360
#     4  11  23  44  72 100 121 153 199 260 315 380
#     4  11  23  37  57  89 128 173 217 259 296 347
#     4  12  23  38  62  92 125 163 205 258 308 364
#     4  11  22  34  55  86 125 169 211 256 301 348
#     4  10  24  44  72 102 122 146 194 264 330 372
#     4  11  23  41  63  91 127 170 213 253 301 369
#
# _framework density 24.502942000000001
#
# number of rings (size 3 to 8) (size 9 to 14) (size 15 to 20)
#    0.000    0.923    4.615    2.308    3.231    4.308 
#    0.000    0.000    0.000    5.538    0.000    0.000 
#    0.000    0.000    0.000    0.000    0.000    0.000 
#
# Total GULP energy -144738.657610 kJ/mol
# GULP energy per Si atom -5566.871447 kJ/mol
# Density = 2.444717 g / cm^3
# Si number density = 24.502942 Si / 1000 Ang^3
#
#
#
# Elastic Constant Matrix: (Units=GPa)
#
#
# Indices 1 2 3 4 5 6 
#
# 1 69.6133 20.8488 12.6974 0.0000 24.8014 0.0000
# 2 20.8488 270.5677 52.4959 -0.0001 -1.1109 -0.0001
# 3 12.6974 52.4959 155.2126 -0.0001 -2.7334 0.0000
# 4 0.0000 -0.0001 -0.0001 36.6970 0.0000 -17.7260
# 5 24.8014 -1.1109 -2.7334 0.0000 23.4907 0.0000
# 6 0.0000 -0.0001 0.0000 -17.7260 0.0000 -39.8453
#
#
#
# Elastic Compliance Matrix: (Units=1/GPa)
#
#
# Indices 1 2 3 4 5 6 
#
# 1 0.024540 -0.001626 -0.001919 0.000000 -0.026209 0.000000
# 2 -0.001626 0.004063 -0.001210 0.000000 0.001768 0.000000
# 3 -0.001919 -0.001210 0.007058 0.000000 0.002790 0.000000
# 4 0.000000 0.000000 0.000000 0.022430 0.000000 -0.009979
# 5 -0.026209 0.001768 0.002790 0.000000 0.070650 0.000000
# 6 0.000000 0.000000 0.000000 -0.009979 0.000000 -0.020658
#
#
# Mechanical properties :
#
#
# Convention : Reuss Voigt Hill
#
# Bulk Modulus (GPa) = 38.24016 74.16420 56.20218
# Shear Modulus (GPa) = 39.58482 31.35858 35.47170
#
# Velocity S-wave (km/s) = 4.02371 3.58129 3.80893
# Velocity P-wave (km/s) = 6.10141 6.88724 6.50620
#
# Compressibility (1/GPa) = 0.02615052
#
# Stress axis : x y z
#
# Youngs Moduli (GPa) = 40.75012 246.10612 141.67947
#
# Poissons Ratio (x) = 0.40022 0.27189
# Poissons Ratio (y) = 0.06627 0.17145
# Poissons Ratio (z) = 0.07820 0.29781
#
# Static dielectric constant tensor:
#      x y z
#    x 1.988990 0.000000 0.034970 
#    y 0.000000 1.909810 0.000000 
#    z 0.034970 0.000000 2.076760 
# 
# From -- ./inp_files/329254.got.cif
#   From: 2010.05.17/outbox.cif.g08.bks.cpg/sg12_165_cif.got.tgz:329254.got - 2010.06.03 13:09:07.
