data_PCOD9218205
_publ_section_title
;
Structure prediction by ZEFSAII (Michael W. Deem and Ramdas Pophale) SiO2 
 PCOD9218205
Probable space group: C 2/M
;
_chemical_formula_sum "Si O2"
_cell_formula_units_Z 36
_cell_length_a 21.624623
_cell_length_b 10.759926
_cell_length_c 22.586009
_cell_angle_alpha 90.000000
_cell_angle_beta 19.259806
_cell_angle_gamma 90.000000
_cell_volume 1733.471618
_symmetry_space_group_name_H-M "C 2/M"
_symmetry_group_IT_number 12
_symmetry_cell_setting 'monoclinic'
loop_
_space_group_symop_operation_xyz
x,y,z
-x,y,-z
-x,-y,-z
x,-y,z
1/2+x,1/2+y,z
1/2-x,1/2+y,-z
1/2-x,1/2-y,-z
1/2+x,1/2-y,z
loop_
_atom_site_type_symbol
_atom_site_label
_atom_site_fract_x
_atom_site_fract_y
_atom_site_fract_z
Si Si1 0.960057 0.854197 0.604501
Si Si2 0.715739 0.000000 0.121480
Si Si3 0.546162 0.500000 0.740698
Si Si4 0.400634 0.719638 0.030426
Si Si5 0.144589 0.500000 0.624518
Si Si6 0.168999 0.736813 0.682527
O O1 0.750622 0.820017 0.811877
O O2 0.000000 0.823115 0.500000
O O3 0.110842 0.778516 0.505902
O O4 0.997280 0.000000 0.578524
O O5 0.787970 0.116961 0.094327
O O6 0.497663 0.000000 0.302458
O O7 0.828022 0.000000 0.956787
O O8 0.637739 0.500000 0.593134
O O9 0.622934 0.372499 0.699381
O O10 0.500000 0.668300 0.000000
O O11 0.557664 0.774686 0.844914
O O12 0.108901 0.625238 0.693679
#
# Coordination Sequence:
#
# PCOD9218205 Si02
#       6
#     8   4   4   8   4   8
#     4  11  23  39  63  95 133 172 219 265 330 392
#     4  10  25  44  67  98 129 176 223 265 335 394
#     4  10  24  43  66  93 137 166 223 274 322 384
#     4  11  23  42  68  97 136 170 215 275 331 396
#     4  12  24  43  69  93 137 176 228 269 323 390
#     4  11  24  43  67 101 130 178 219 270 335 392
#
# _framework density 20.767574
#
# number of rings (size 3 to 8) (size 9 to 14) (size 15 to 20)
#    0.000    1.111    3.333    2.333    1.556    5.778 
#    0.000    1.111    0.000    0.000    0.000    0.000 
#    0.000    0.000    0.000    0.000    0.000    0.000 
#
# Total GULP energy -100554.867099 kJ/mol
# GULP energy per Si atom -5586.381506 kJ/mol
# Density = 2.072031 g / cm^3
# Si number density = 20.767574 Si / 1000 Ang^3
#
#
#
# Elastic Constant Matrix: (Units=GPa)
#
#
# Indices 1 2 3 4 5 6 
#
# 1 79.7807 16.1069 18.8436 0.0005 4.9293 -0.0004
# 2 16.1069 86.3471 10.1705 -0.0025 4.1124 0.0028
# 3 18.8436 10.1705 93.5067 -0.0019 18.5959 0.0018
# 4 0.0005 -0.0025 -0.0019 19.5340 0.0001 -0.1404
# 5 4.9293 4.1124 18.5959 0.0001 39.2182 0.0005
# 6 -0.0004 0.0028 0.0018 -0.1404 0.0005 22.1505
#
#
#
# Elastic Compliance Matrix: (Units=1/GPa)
#
#
# Indices 1 2 3 4 5 6 
#
# 1 0.013579 -0.002231 -0.002430 -0.000001 -0.000321 0.000001
# 2 -0.002231 0.012115 -0.000741 0.000002 -0.000639 -0.000002
# 3 -0.002430 -0.000741 0.012353 0.000001 -0.005474 -0.000001
# 4 -0.000001 0.000002 0.000001 0.051195 -0.000001 0.000324
# 5 -0.000321 -0.000639 -0.005474 -0.000001 0.028201 0.000000
# 6 0.000001 -0.000002 -0.000001 0.000324 0.000000 0.045148
#
#
# Mechanical properties :
#
#
# Convention : Reuss Voigt Hill
#
# Bulk Modulus (GPa) = 36.70764 38.87515 37.79140
# Shear Modulus (GPa) = 27.40074 30.48145 28.94109
#
# Velocity S-wave (km/s) = 3.63630 3.83527 3.73711
# Velocity P-wave (km/s) = 5.94508 6.19453 6.07109
#
# Compressibility (1/GPa) = 0.02724229
#
# Stress axis : x y z
#
# Youngs Moduli (GPa) = 73.64531 82.54154 80.94924
#
# Poissons Ratio (x) = 0.18419 0.19670
# Poissons Ratio (y) = 0.16433 0.05999
# Poissons Ratio (z) = 0.17895 0.06117
#
# Static dielectric constant tensor:
#      x y z
#    x 1.747370 0.000000 0.025230 
#    y 0.000000 1.722470 0.000000 
#    z 0.025230 0.000000 1.728680 
# 
# From -- ./inp_files/23620.got.cif
#   From: 2010.05.17/outbox.cif.g08.bks.cpg/sg12_12_cif.got.tgz:23620.got - 2010.06.03 13:09:07.
