data_PCOD9218925
_publ_section_title
;
Structure prediction by ZEFSAII (Michael W. Deem and Ramdas Pophale) SiO2 
 PCOD9218925
Probable space group: C 2/M
;
_chemical_formula_sum "Si O2"
_cell_formula_units_Z 44
_cell_length_a 17.440642
_cell_length_b 21.120137
_cell_length_c 5.212782
_cell_angle_alpha 90.000000
_cell_angle_beta 82.840055
_cell_angle_gamma 90.000000
_cell_volume 1905.148767
_symmetry_space_group_name_H-M "C 2/M"
_symmetry_group_IT_number 12
_symmetry_cell_setting 'monoclinic'
loop_
_space_group_symop_operation_xyz
x,y,z
-x,y,-z
-x,-y,-z
x,-y,z
1/2+x,1/2+y,z
1/2-x,1/2+y,-z
1/2-x,1/2-y,-z
1/2+x,1/2-y,z
loop_
_atom_site_type_symbol
_atom_site_label
_atom_site_fract_x
_atom_site_fract_y
_atom_site_fract_z
Si Si1 0.701899 0.174069 0.145517
Si Si2 0.614270 0.353847 0.871978
Si Si3 0.294642 0.500000 0.593198
Si Si4 0.121359 0.000000 0.945373
Si Si5 0.326269 0.106246 0.341386
Si Si6 0.549918 0.000000 0.732759
Si Si7 0.418716 0.721682 0.625456
O O1 0.794549 0.164763 0.119131
O O2 0.674009 0.121812 0.359214
O O3 0.655744 0.234091 0.282566
O O4 0.676308 0.163054 0.862213
O O5 0.593057 0.428641 0.893118
O O6 0.599137 0.326222 0.597532
O O7 0.570945 0.317834 0.119050
O O8 0.305911 0.500000 0.283519
O O9 0.248017 0.562811 0.684803
O O10 0.366946 0.500000 0.753152
O O11 0.398294 0.061988 0.270322
O O12 0.500000 0.000000 0.500000
O O13 0.500000 0.000000 0.000000
O O14 0.500000 0.754265 0.500000
#
# Coordination Sequence:
#
# PCOD9218925 Si02
#       7
#     8   8   4   4   8   4   8
#     4  12  23  43  72 104 133 182 232 296 347 415
#     4  12  24  46  73 107 134 180 238 296 355 427
#     4  11  18  38  58 101 141 161 206 289 352 393
#     4  12  22  39  75 101 136 165 222 291 372 395
#     4  11  22  37  65  97 136 175 231 290 339 411
#     4  11  24  39  56  90 144 198 229 280 343 416
#     4  12  28  48  68  98 147 191 234 286 352 422
#
# _framework density 23.095310999999999
#
# number of rings (size 3 to 8) (size 9 to 14) (size 15 to 20)
#    0.000    0.364    3.636    6.000    0.000    5.091 
#    0.000    2.727    0.000    0.000    0.000    0.000 
#    0.000    0.000    0.000    0.000    0.000    0.000 
#
# Total GULP energy -122802.005349 kJ/mol
# GULP energy per Si atom -5581.909334 kJ/mol
# Density = 2.304275 g / cm^3
# Si number density = 23.095311 Si / 1000 Ang^3
#
#
#
# Elastic Constant Matrix: (Units=GPa)
#
#
# Indices 1 2 3 4 5 6 
#
# 1 78.7297 13.5699 22.8801 0.0000 -11.0579 0.0000
# 2 13.5699 82.7245 10.5034 0.0000 -10.3929 0.0000
# 3 22.8801 10.5034 114.2792 0.0000 -11.9116 0.0000
# 4 0.0000 0.0000 0.0000 50.9477 0.0000 -0.0696
# 5 -11.0579 -10.3929 -11.9116 0.0000 44.8135 0.0000
# 6 0.0000 0.0000 0.0000 -0.0696 0.0000 9.4154
#
#
#
# Elastic Compliance Matrix: (Units=1/GPa)
#
#
# Indices 1 2 3 4 5 6 
#
# 1 0.014032 -0.001691 -0.002400 0.000000 0.002432 0.000000
# 2 -0.001691 0.012739 -0.000584 0.000000 0.002382 0.000000
# 3 -0.002400 -0.000584 0.009471 0.000000 0.001790 0.000000
# 4 0.000000 0.000000 0.000000 0.019628 0.000000 0.000145
# 5 0.002432 0.002382 0.001790 0.000000 0.023943 0.000000
# 6 0.000000 0.000000 0.000000 0.000145 0.000000 0.106210
#
#
# Mechanical properties :
#
#
# Convention : Reuss Voigt Hill
#
# Bulk Modulus (GPa) = 37.18702 41.07113 39.12907
# Shear Modulus (GPa) = 24.46909 36.28732 30.37821
#
# Velocity S-wave (km/s) = 3.25850 3.96814 3.63070
# Velocity P-wave (km/s) = 5.50396 6.23031 5.87836
#
# Compressibility (1/GPa) = 0.02689111
#
# Stress axis : x y z
#
# Youngs Moduli (GPa) = 71.26327 78.49812 105.58185
#
# Poissons Ratio (x) = 0.13278 0.25345
# Poissons Ratio (y) = 0.12054 0.06165
# Poissons Ratio (z) = 0.17107 0.04584
#
# Static dielectric constant tensor:
#      x y z
#    x 1.918420 0.000000 -0.004000 
#    y 0.000000 1.890130 0.000000 
#    z -0.004000 0.000000 1.814410 
# 
# From -- ./inp_files/16109.got.cif
#   From: 2010.05.17/outbox.cif.g08.bks.cpg/sg12_9_cif.got.tgz:16109.got - 2010.06.03 13:09:07.
