data_PCOD9218719
_publ_section_title
;
Structure prediction by ZEFSAII (Michael W. Deem and Ramdas Pophale) SiO2 
 PCOD9218719
Probable space group: C 2/M
;
_chemical_formula_sum "Si O2"
_cell_formula_units_Z 56
_cell_length_a 16.128147
_cell_length_b 16.509098
_cell_length_c 9.252151
_cell_angle_alpha 90.000000
_cell_angle_beta 70.910216
_cell_angle_gamma 90.000000
_cell_volume 2328.014425
_symmetry_space_group_name_H-M "C 2/M"
_symmetry_group_IT_number 12
_symmetry_cell_setting 'monoclinic'
loop_
_space_group_symop_operation_xyz
x,y,z
-x,y,-z
-x,-y,-z
x,-y,z
1/2+x,1/2+y,z
1/2-x,1/2+y,-z
1/2-x,1/2-y,-z
1/2+x,1/2-y,z
loop_
_atom_site_type_symbol
_atom_site_label
_atom_site_fract_x
_atom_site_fract_y
_atom_site_fract_z
Si Si1 0.620036 0.180825 0.836986
Si Si2 0.423165 0.373462 0.158774
Si Si3 0.840562 0.714642 0.883793
Si Si4 0.940129 0.590649 0.406217
Si Si5 0.544037 0.653964 0.334011
Si Si6 0.211509 0.904018 0.388564
Si Si7 0.740847 0.121384 0.337583
O O1 0.602342 0.277285 0.837670
O O2 0.564714 0.140611 0.738817
O O3 0.715809 0.145160 0.742834
O O4 0.614548 0.163463 0.011949
O O5 0.470813 0.391078 0.282990
O O6 0.326577 0.413469 0.205275
O O7 0.500000 0.392170 0.000000
O O8 0.909069 0.783086 0.798881
O O9 0.808223 0.672829 0.755835
O O10 0.750000 0.750000 0.000000
O O11 0.972098 0.500000 0.354139
O O12 0.843738 0.584202 0.533120
O O13 0.000000 0.624419 0.500000
O O14 0.500000 0.693210 0.500000
O O15 0.621172 0.600055 0.354487
O O16 0.209492 0.854014 0.541169
O O17 0.231487 0.000000 0.397824
#
# Coordination Sequence:
#
# PCOD9218719 Si02
#       7
#     8   8   8   8   8   8   8
#     4  11  23  42  71 103 137 179 226 291 359 412
#     4  12  24  40  66 106 146 175 223 292 361 430
#     4  12  23  42  67 103 144 176 226 292 359 420
#     4  10  25  48  72 101 136 181 241 290 339 419
#     4  12  25  40  68 108 137 185 232 288 361 419
#     4  11  25  47  70  96 138 191 248 289 335 423
#     4  11  23  42  67  99 140 184 228 283 354 410
#
# _framework density 24.054834
#
# number of rings (size 3 to 8) (size 9 to 14) (size 15 to 20)
#    0.000    0.714    5.714    1.714    6.000    3.143 
#    0.000    2.857    0.000    5.571    0.000    0.000 
#    0.000    0.000    0.000    0.000    0.000    0.000 
#
# Total GULP energy -156077.626334 kJ/mol
# GULP energy per Si atom -5574.200940 kJ/mol
# Density = 2.400008 g / cm^3
# Si number density = 24.054834 Si / 1000 Ang^3
#
#
#
# Elastic Constant Matrix: (Units=GPa)
#
#
# Indices 1 2 3 4 5 6 
#
# 1 163.0993 21.3753 40.1935 0.0000 10.3665 0.0000
# 2 21.3753 80.3723 40.4568 0.0000 11.9612 0.0000
# 3 40.1935 40.4568 150.2025 0.0000 1.4244 0.0000
# 4 0.0000 0.0000 0.0000 -85.9733 0.0000 30.4938
# 5 10.3665 11.9612 1.4244 0.0000 72.2456 0.0000
# 6 0.0000 0.0000 0.0000 30.4938 0.0000 15.2627
#
#
#
# Elastic Compliance Matrix: (Units=1/GPa)
#
#
# Indices 1 2 3 4 5 6 
#
# 1 0.006677 -0.000884 -0.001541 0.000000 -0.000781 0.000000
# 2 -0.000884 0.014906 -0.003757 0.000000 -0.002267 0.000000
# 3 -0.001541 -0.003757 0.008076 0.000000 0.000684 0.000000
# 4 0.000000 0.000000 0.000000 -0.006807 0.000000 0.013601
# 5 -0.000781 -0.002267 0.000684 0.000000 0.014316 0.000000
# 6 0.000000 0.000000 0.000000 0.013601 0.000000 0.038346
#
#
# Mechanical properties :
#
#
# Convention : Reuss Voigt Hill
#
# Bulk Modulus (GPa) = 57.82247 66.41391 62.11819
# Shear Modulus (GPa) = 53.39628 19.75021 36.57325
#
# Velocity S-wave (km/s) = 4.71656 2.86851 3.90348
# Velocity P-wave (km/s) = 7.33152 6.21614 6.79675
#
# Compressibility (1/GPa) = 0.01729432
#
# Stress axis : x y z
#
# Youngs Moduli (GPa) = 149.77905 67.08918 123.83118
#
# Poissons Ratio (x) = 0.05928 0.19085
# Poissons Ratio (y) = 0.13234 0.46521
# Poissons Ratio (z) = 0.23084 0.25204
#
# Static dielectric constant tensor:
#      x y z
#    x 1.981570 0.000000 -0.023590 
#    y 0.000000 1.920010 0.000000 
#    z -0.023590 0.000000 1.950860 
# 
# From -- ./inp_files/75897.got.cif
#   From: 2010.05.17/outbox.cif.g08.bks.cpg/sg12_38_cif.got.tgz:75897.got - 2010.06.03 13:09:07.
