data_PCOD9218074
_publ_section_title
;
Structure prediction by ZEFSAII (Michael W. Deem and Ramdas Pophale) SiO2 
 PCOD9218074
Probable space group: C 2/M
;
_chemical_formula_sum "Si O2"
_cell_formula_units_Z 64
_cell_length_a 24.177985
_cell_length_b 14.884538
_cell_length_c 9.411914
_cell_angle_alpha 90.000000
_cell_angle_beta 70.529702
_cell_angle_gamma 90.000000
_cell_volume 3193.446350
_symmetry_space_group_name_H-M "C 2/M"
_symmetry_group_IT_number 12
_symmetry_cell_setting 'monoclinic'
loop_
_space_group_symop_operation_xyz
x,y,z
-x,y,-z
-x,-y,-z
x,-y,z
1/2+x,1/2+y,z
1/2-x,1/2+y,-z
1/2-x,1/2-y,-z
1/2+x,1/2-y,z
loop_
_atom_site_type_symbol
_atom_site_label
_atom_site_fract_x
_atom_site_fract_y
_atom_site_fract_z
Si Si1 0.184074 0.107589 0.623969
Si Si2 0.983715 0.106783 0.852571
Si Si3 0.778053 0.399950 0.757901
Si Si4 0.614140 0.105420 0.512929
Si Si5 0.751808 0.343928 0.076135
Si Si6 0.381277 0.394564 0.741603
Si Si7 0.575648 0.704142 0.576603
Si Si8 0.292618 0.897794 0.319832
O O1 0.217403 0.133613 0.741253
O O2 0.131133 0.171598 0.625431
O O3 0.235350 0.121261 0.463664
O O4 0.167345 0.000000 0.639774
O O5 0.021466 0.160194 0.704705
O O6 0.916580 0.118929 0.858960
O O7 0.996941 0.000000 0.829946
O O8 0.000000 0.133479 0.000000
O O9 0.781139 0.500000 0.690942
O O10 0.838575 0.360625 0.646856
O O11 0.774927 0.404344 0.928160
O O12 0.569557 0.188166 0.565653
O O13 0.651833 0.106848 0.625811
O O14 0.595676 0.000000 0.503962
O O15 0.686836 0.371139 0.181070
O O16 0.792442 0.340836 0.178503
O O17 0.750000 0.250000 0.000000
O O18 0.385793 0.500000 0.700460
O O19 0.410748 0.339302 0.588527
O O20 0.286160 0.000000 0.274199
#
# Coordination Sequence:
#
# PCOD9218074 Si02
#       8
#     8   8   8   8   8   8   8   8
#     4   9  18  30  51  78 106 143 189 227 275 340
#     4  10  24  42  61  88 120 150 184 236 295 347
#     4   9  19  33  47  73 114 152 183 230 285 332
#     4   9  21  38  57  83 116 154 196 241 284 336
#     4  12  23  31  51  84 118 155 196 231 278 339
#     4  11  23  40  59  85 120 155 192 233 286 349
#     4  12  21  35  63  84 111 151 198 241 281 346
#     4   9  18  35  51  73 114 156 190 229 282 339
#
# _framework density 20.041043999999999
#
# number of rings (size 3 to 8) (size 9 to 14) (size 15 to 20)
#    0.000    1.875    1.250    4.875    3.500    2.000 
#    0.000    0.000    0.000    1.875    0.000    0.000 
#    0.000    0.000    0.000    0.000    0.000    0.000 
#
# Total GULP energy -178467.120740 kJ/mol
# GULP energy per Si atom -5577.097523 kJ/mol
# Density = 1.999543 g / cm^3
# Si number density = 20.041044 Si / 1000 Ang^3
#
#
#
# Elastic Constant Matrix: (Units=GPa)
#
#
# Indices 1 2 3 4 5 6 
#
# 1 20.6756 2.3783 14.1600 0.0000 2.4828 0.0000
# 2 2.3783 85.8861 19.0251 0.0000 -0.5665 0.0000
# 3 14.1600 19.0251 103.0345 0.0000 7.4758 0.0000
# 4 0.0000 0.0000 0.0000 26.2630 0.0000 -1.0824
# 5 2.4828 -0.5665 7.4758 0.0000 10.7053 0.0000
# 6 0.0000 0.0000 0.0000 -1.0824 0.0000 15.1171
#
#
#
# Elastic Compliance Matrix: (Units=1/GPa)
#
#
# Indices 1 2 3 4 5 6 
#
# 1 0.053992 -0.000028 -0.006854 0.000000 -0.007738 0.000000
# 2 -0.000028 0.012195 -0.002418 0.000000 0.002340 0.000000
# 3 -0.006854 -0.002418 0.011574 0.000000 -0.006621 0.000000
# 4 0.000000 0.000000 0.000000 0.038189 0.000000 0.002734
# 5 -0.007738 0.002340 -0.006621 0.000000 0.099954 0.000000
# 6 0.000000 0.000000 0.000000 0.002734 0.000000 0.066346
#
#
# Mechanical properties :
#
#
# Convention : Reuss Voigt Hill
#
# Bulk Modulus (GPa) = 16.90245 31.19143 24.04694
# Shear Modulus (GPa) = 15.59722 22.01927 18.80824
#
# Velocity S-wave (km/s) = 2.79276 3.31827 3.06680
# Velocity P-wave (km/s) = 4.34184 5.50262 4.95633
#
# Compressibility (1/GPa) = 0.05916301
#
# Stress axis : x y z
#
# Youngs Moduli (GPa) = 18.52118 82.00002 86.39907
#
# Poissons Ratio (x) = 0.00229 0.59214
# Poissons Ratio (y) = 0.00052 0.20889
# Poissons Ratio (z) = 0.12694 0.19826
#
# Static dielectric constant tensor:
#      x y z
#    x 2.123630 0.000000 -1.012560 
#    y 0.000000 1.673210 0.000000 
#    z -1.012560 0.000000 4.482780 
# 
# From -- ./inp_files/104578.got.cif
#   From: 2010.05.17/outbox.cif.g08.bks.cpg/sg12_53_cif.got.tgz:104578.got - 2010.06.03 13:09:07.
