data_PCOD9218929
_publ_section_title
;
Structure prediction by ZEFSAII (Michael W. Deem and Ramdas Pophale) SiO2 
 PCOD9218929
Probable space group: C 2/M
;
_chemical_formula_sum "Si O2"
_cell_formula_units_Z 40
_cell_length_a 20.471444
_cell_length_b 11.179774
_cell_length_c 11.903232
_cell_angle_alpha 90.000000
_cell_angle_beta 53.960787
_cell_angle_gamma 90.000000
_cell_volume 2202.865289
_symmetry_space_group_name_H-M "C 2/M"
_symmetry_group_IT_number 12
_symmetry_cell_setting 'monoclinic'
loop_
_space_group_symop_operation_xyz
x,y,z
-x,y,-z
-x,-y,-z
x,-y,z
1/2+x,1/2+y,z
1/2-x,1/2+y,-z
1/2-x,1/2-y,-z
1/2+x,1/2-y,z
loop_
_atom_site_type_symbol
_atom_site_label
_atom_site_fract_x
_atom_site_fract_y
_atom_site_fract_z
Si Si1 0.899388 0.500000 0.980361
Si Si2 0.188770 0.751135 0.958906
Si Si3 0.482430 0.640382 0.889758
Si Si4 0.262574 0.856504 0.655770
Si Si5 0.369117 0.752261 0.373236
Si Si6 0.417299 0.000000 0.227094
O O1 0.848789 0.618682 0.008741
O O2 0.915690 0.500000 0.095833
O O3 0.988049 0.500000 0.832751
O O4 0.232788 0.797776 0.801706
O O5 0.250000 0.750000 0.000000
O O6 0.109658 0.834596 0.048638
O O7 0.499023 0.500000 0.876231
O O8 0.542766 0.699889 0.740071
O O9 0.500000 0.688115 0.000000
O O10 0.338212 0.781759 0.529194
O O11 0.192904 0.831604 0.632740
O O12 0.275882 0.000000 0.653387
O O13 0.371682 0.882958 0.314731
#
# Coordination Sequence:
#
# PCOD9218929 Si02
#       6
#     4   8   8   8   8   4
#     4  11  22  38  63  89 122 161 204 263 298 356
#     4  12  26  41  62  91 127 166 208 250 308 371
#     4  11  21  40  66  92 123 162 210 258 303 364
#     4  11  23  39  60  91 130 162 202 257 312 368
#     4  11  21  37  62  95 121 157 204 257 314 362
#     4  11  18  38  63  91 120 147 208 261 305 359
#
# _framework density 18.158169000000001
#
# number of rings (size 3 to 8) (size 9 to 14) (size 15 to 20)
#    0.000    0.800    7.000    1.200    2.800    0.000 
#    1.800    1.000    0.000    3.600    0.000    0.000 
#    0.000    0.000    0.000    0.000    0.000    0.000 
#
# Total GULP energy -111605.741475 kJ/mol
# GULP energy per Si atom -5580.287074 kJ/mol
# Density = 1.811684 g / cm^3
# Si number density = 18.158169 Si / 1000 Ang^3
#
#
#
# Elastic Constant Matrix: (Units=GPa)
#
#
# Indices 1 2 3 4 5 6 
#
# 1 82.8472 10.1899 32.9778 0.0000 -6.0495 0.0000
# 2 10.1899 84.6731 19.1976 0.0000 -1.4957 0.0000
# 3 32.9778 19.1976 119.8683 0.0000 -23.6030 0.0000
# 4 0.0000 0.0000 0.0000 22.1430 0.0000 18.1827
# 5 -6.0495 -1.4957 -23.6030 0.0000 18.1102 0.0000
# 6 0.0000 0.0000 0.0000 18.1827 0.0000 -80.5044
#
#
#
# Elastic Compliance Matrix: (Units=1/GPa)
#
#
# Indices 1 2 3 4 5 6 
#
# 1 0.013611 -0.000810 -0.003676 0.000000 -0.000312 0.000000
# 2 -0.000810 0.012362 -0.002165 0.000000 -0.002071 0.000000
# 3 -0.003676 -0.002165 0.012677 0.000000 0.015115 0.000000
# 4 0.000000 0.000000 0.000000 0.038096 0.000000 0.008604
# 5 -0.000312 -0.002071 0.015115 0.000000 0.074641 0.000000
# 6 0.000000 0.000000 0.000000 0.008604 0.000000 -0.010478
#
#
# Mechanical properties :
#
#
# Convention : Reuss Voigt Hill
#
# Bulk Modulus (GPa) = 39.45171 45.79103 42.62137
# Shear Modulus (GPa) = 30.73915 6.95131 18.84523
#
# Velocity S-wave (km/s) = 4.11890 1.95870 3.22504
# Velocity P-wave (km/s) = 6.66290 5.51253 6.11483
#
# Compressibility (1/GPa) = 0.02534744
#
# Stress axis : x y z
#
# Youngs Moduli (GPa) = 73.47220 80.89414 78.88431
#
# Poissons Ratio (x) = 0.06552 0.28999
# Poissons Ratio (y) = 0.05951 0.17077
# Poissons Ratio (z) = 0.27009 0.17512
#
# Static dielectric constant tensor:
#      x y z
#    x 1.623580 0.000000 -0.049490 
#    y 0.000000 1.624040 0.000000 
#    z -0.049490 0.000000 1.664470 
# 
# From -- ./inp_files/153327.got.cif
#   From: 2010.05.17/outbox.cif.g08.bks.cpg/sg12_77_cif.got.tgz:153327.got - 2010.06.03 13:09:07.
