data_PCOD9218288
_publ_section_title
;
Structure prediction by ZEFSAII (Michael W. Deem and Ramdas Pophale) SiO2 
 PCOD9218288
Probable space group: C 2/M
;
_chemical_formula_sum "Si O2"
_cell_formula_units_Z 44
_cell_length_a 17.905475
_cell_length_b 16.962960
_cell_length_c 6.905969
_cell_angle_alpha 90.000000
_cell_angle_beta 101.082123
_cell_angle_gamma 90.000000
_cell_volume 2058.435316
_symmetry_space_group_name_H-M "C 2/M"
_symmetry_group_IT_number 12
_symmetry_cell_setting 'monoclinic'
loop_
_space_group_symop_operation_xyz
x,y,z
-x,y,-z
-x,-y,-z
x,-y,z
1/2+x,1/2+y,z
1/2-x,1/2+y,-z
1/2-x,1/2-y,-z
1/2+x,1/2-y,z
loop_
_atom_site_type_symbol
_atom_site_label
_atom_site_fract_x
_atom_site_fract_y
_atom_site_fract_z
Si Si1 0.131558 0.371866 0.669443
Si Si2 0.500000 0.246934 0.500000
Si Si3 0.784263 0.171010 0.917938
Si Si4 0.086898 0.000000 0.458406
Si Si5 0.927820 0.500000 0.612006
Si Si6 0.936898 0.851931 0.811001
Si Si7 0.613954 0.000000 0.996210
Si Si8 0.211561 0.000000 0.860718
O O1 0.070483 0.303829 0.613225
O O2 0.218682 0.347700 0.730153
O O3 0.119417 0.424626 0.474869
O O4 0.111745 0.424879 0.850062
O O5 0.474481 0.298367 0.667724
O O6 0.866796 0.191457 0.877392
O O7 0.750000 0.250000 0.000000
O O8 0.797243 0.085937 0.034847
O O9 0.095544 0.925659 0.322876
O O10 0.000000 0.000000 0.500000
O O11 0.149692 0.000000 0.658590
O O12 0.941003 0.500000 0.845639
O O13 0.000000 0.500000 0.500000
O O14 0.000000 0.876047 0.000000
O O15 0.698156 0.000000 0.135268
#
# Coordination Sequence:
#
# PCOD9218288 Si02
#       8
#     8   4   8   4   4   8   4   4
#     4  10  24  44  66 103 141 178 240 288 357 436
#     4  12  26  46  68 108 140 184 242 292 358 442
#     4  11  25  48  74 105 149 191 238 305 366 428
#     4  12  24  44  74 101 140 191 246 300 359 431
#     4  11  22  43  67 102 132 183 230 286 353 438
#     4  12  27  46  73 103 144 185 242 302 361 428
#     4   9  23  44  72  97 139 185 224 295 361 424
#     4  10  24  45  74 106 140 189 245 288 363 439
#
# _framework density 21.375458999999999
#
# number of rings (size 3 to 8) (size 9 to 14) (size 15 to 20)
#    0.000    1.091    1.818    3.545    5.091    6.545 
#    3.273    0.000    0.000    0.000    0.000    0.000 
#    0.000    0.000    0.000    0.000    0.000    0.000 
#
# Total GULP energy -122836.829540 kJ/mol
# GULP energy per Si atom -5583.492252 kJ/mol
# Density = 2.132681 g / cm^3
# Si number density = 21.375459 Si / 1000 Ang^3
#
#
#
# Elastic Constant Matrix: (Units=GPa)
#
#
# Indices 1 2 3 4 5 6 
#
# 1 79.8718 15.6309 55.7317 0.0000 26.9929 0.0000
# 2 15.6309 103.2924 37.0354 0.0000 9.5687 0.0000
# 3 55.7317 37.0354 131.7088 0.0000 27.4428 0.0000
# 4 0.0000 0.0000 0.0000 8.5401 0.0000 3.0070
# 5 26.9929 9.5687 27.4428 0.0000 54.6972 0.0000
# 6 0.0000 0.0000 0.0000 3.0070 0.0000 23.8451
#
#
#
# Elastic Compliance Matrix: (Units=1/GPa)
#
#
# Indices 1 2 3 4 5 6 
#
# 1 0.019434 0.000130 -0.006988 0.000000 -0.006108 0.000000
# 2 0.000130 0.010776 -0.002992 0.000000 -0.000448 0.000000
# 3 -0.006988 -0.002992 0.011796 0.000000 -0.001947 0.000000
# 4 0.000000 0.000000 0.000000 0.122535 0.000000 -0.015452
# 5 -0.006108 -0.000448 -0.001947 0.000000 0.022352 0.000000
# 6 0.000000 0.000000 0.000000 -0.015452 0.000000 0.043886
#
#
# Mechanical properties :
#
#
# Convention : Reuss Voigt Hill
#
# Bulk Modulus (GPa) = 44.82662 59.07433 51.95048
# Shear Modulus (GPa) = 19.38637 31.18148 25.28392
#
# Velocity S-wave (km/s) = 3.01482 3.82350 3.44299
# Velocity P-wave (km/s) = 5.75634 6.86941 6.33736
#
# Compressibility (1/GPa) = 0.02230817
#
# Stress axis : x y z
#
# Youngs Moduli (GPa) = 51.45523 92.80076 84.77384
#
# Poissons Ratio (x) = -0.01209 0.59236
# Poissons Ratio (y) = -0.00670 0.25362
# Poissons Ratio (z) = 0.35954 0.27764
#
# Static dielectric constant tensor:
#      x y z
#    x 1.810430 0.000000 -0.033920 
#    y 0.000000 1.808530 0.000000 
#    z -0.033920 0.000000 1.753950 
# 
# From -- ./inp_files/20503.got.cif
#   From: 2010.05.17/outbox.cif.g08.bks.cpg/sg12_11_cif.got.tgz:20503.got - 2010.06.03 13:09:07.
