data_PCOD9218449
_publ_section_title
;
Structure prediction by ZEFSAII (Michael W. Deem and Ramdas Pophale) SiO2 
 PCOD9218449
Probable space group: C 2/M
;
_chemical_formula_sum "Si O2"
_cell_formula_units_Z 30
_cell_length_a 8.748933
_cell_length_b 21.605022
_cell_length_c 13.970182
_cell_angle_alpha 90.000000
_cell_angle_beta 153.029037
_cell_angle_gamma 90.000000
_cell_volume 1197.640290
_symmetry_space_group_name_H-M "C 2/M"
_symmetry_group_IT_number 12
_symmetry_cell_setting 'monoclinic'
loop_
_space_group_symop_operation_xyz
x,y,z
-x,y,-z
-x,-y,-z
x,-y,z
1/2+x,1/2+y,z
1/2-x,1/2+y,-z
1/2-x,1/2-y,-z
1/2+x,1/2-y,z
loop_
_atom_site_type_symbol
_atom_site_label
_atom_site_fract_x
_atom_site_fract_y
_atom_site_fract_z
Si Si1 0.500000 0.500000 0.500000
Si Si2 0.293112 0.601097 0.529195
Si Si3 0.530982 0.427525 0.163136
Si Si4 0.000000 0.720144 0.000000
Si Si5 0.520107 0.827001 0.805934
O O1 0.504178 0.553150 0.585414
O O2 0.448603 0.604734 0.721271
O O3 0.914163 0.574173 0.338294
O O4 0.220176 0.657035 0.416621
O O5 0.425973 0.500000 0.108246
O O6 0.276768 0.385099 0.961593
O O7 0.897323 0.683932 0.846296
O O8 0.708695 0.765662 0.875122
#
# Coordination Sequence:
#
# PCOD9218449 Si02
#       5
#     2   8   8   4   8
#     4  12  24  38  64 100 142 160 208 274 310 408
#     4  11  23  41  62  97 135 168 209 262 325 384
#     4  11  22  42  68  99 130 173 209 258 335 404
#     4  10  24  46  66  96 128 166 238 266 302 384
#     4  11  24  45  70  93 129 177 213 275 320 371
#
# _framework density 25.049258999999999
#
# number of rings (size 3 to 8) (size 9 to 14) (size 15 to 20)
#    0.000    1.067    5.333    0.800    5.600    1.067 
#    0.000   10.000    0.000    0.000    0.000    0.000 
#    0.000    0.000    0.000    0.000    0.000    0.000 
#
# Total GULP energy -83660.386974 kJ/mol
# GULP energy per Si atom -5577.359132 kJ/mol
# Density = 2.499225 g / cm^3
# Si number density = 25.049259 Si / 1000 Ang^3
#
#
#
# Elastic Constant Matrix: (Units=GPa)
#
#
# Indices 1 2 3 4 5 6 
#
# 1 109.1044 19.0903 40.2595 0.0026 -45.2822 0.0002
# 2 19.0903 82.5686 59.4311 0.0020 -13.3780 0.0002
# 3 40.2595 59.4311 161.6940 0.0052 -34.4162 -0.0004
# 4 0.0026 0.0020 0.0052 -5.5779 0.0042 -6.9575
# 5 -45.2822 -13.3780 -34.4162 0.0042 51.9538 0.0000
# 6 0.0002 0.0002 -0.0004 -6.9575 0.0000 49.6931
#
#
#
# Elastic Compliance Matrix: (Units=1/GPa)
#
#
# Indices 1 2 3 4 5 6 
#
# 1 0.014566 -0.000886 -0.000754 0.000013 0.011968 0.000002
# 2 -0.000886 0.016525 -0.005951 0.000000 -0.000459 0.000000
# 3 -0.000754 -0.005951 0.009422 0.000008 0.004052 0.000001
# 4 0.000013 0.000000 0.000008 -0.152625 0.000028 -0.021369
# 5 0.011968 -0.000459 0.004052 0.000028 0.032245 0.000004
# 6 0.000002 0.000000 0.000001 -0.021369 0.000004 0.017132
#
#
# Mechanical properties :
#
#
# Convention : Reuss Voigt Hill
#
# Bulk Modulus (GPa) = 39.47686 65.65873 52.56780
# Shear Modulus (GPa) = -127.84231 34.85288 -46.49472
#
# Velocity S-wave (km/s) = -7.15172 3.73416 -4.31296
# Velocity P-wave (km/s) = 7.23894 6.69781 1.94186
#
# Compressibility (1/GPa) = 0.02533130
#
# Stress axis : x y z
#
# Youngs Moduli (GPa) = 68.65403 60.51459 106.13507
#
# Poissons Ratio (x) = 0.05363 0.07998
# Poissons Ratio (y) = 0.06084 0.63160
# Poissons Ratio (z) = 0.05174 0.36012
#
# Static dielectric constant tensor:
#      x y z
#    x 2.063000 0.000000 0.033920 
#    y 0.000000 1.935320 0.000000 
#    z 0.033920 0.000000 2.058840 
# 
# From -- ./inp_files/40135.got.cif
#   From: 2010.05.17/outbox.cif.g08.bks.cpg/sg12_21_cif.got.tgz:40135.got - 2010.06.03 13:09:07.
