data_PCOD9218548
_publ_section_title
;
Structure prediction by ZEFSAII (Michael W. Deem and Ramdas Pophale) SiO2 
 PCOD9218548
Probable space group: C 2/M
;
_chemical_formula_sum "Si O2"
_cell_formula_units_Z 38
_cell_length_a 19.072951
_cell_length_b 14.089320
_cell_length_c 22.079058
_cell_angle_alpha 90.000000
_cell_angle_beta 18.835172
_cell_angle_gamma 90.000000
_cell_volume 1915.512045
_symmetry_space_group_name_H-M "C 2/M"
_symmetry_group_IT_number 12
_symmetry_cell_setting 'monoclinic'
loop_
_space_group_symop_operation_xyz
x,y,z
-x,y,-z
-x,-y,-z
x,-y,z
1/2+x,1/2+y,z
1/2-x,1/2+y,-z
1/2-x,1/2-y,-z
1/2+x,1/2-y,z
loop_
_atom_site_type_symbol
_atom_site_label
_atom_site_fract_x
_atom_site_fract_y
_atom_site_fract_z
Si Si1 0.102385 0.000000 0.549738
Si Si2 0.393201 0.792563 0.938809
Si Si3 0.799314 0.000000 0.906862
Si Si4 0.000000 0.000000 0.000000
Si Si5 0.090420 0.804651 0.494166
Si Si6 0.184309 0.341744 0.205305
Si Si7 0.428200 0.000000 0.792817
O O1 0.030507 0.904471 0.574935
O O2 0.016608 0.000000 0.689131
O O3 0.362757 0.000000 0.336118
O O4 0.319574 0.900962 0.010855
O O5 0.649494 0.791269 0.716637
O O6 0.250000 0.750000 0.000000
O O7 0.339255 0.728867 0.041143
O O8 0.791754 0.000000 0.986779
O O9 0.180183 0.083161 0.867141
O O10 0.000000 0.805281 0.500000
O O11 0.978403 0.719907 0.622272
O O12 0.063967 0.406198 0.253674
#
# Coordination Sequence:
#
# PCOD9218548 Si02
#       7
#     4   8   4   2   8   8   4
#     4  12  24  42  67  98 137 174 222 277 340 397
#     4  12  24  43  70 100 139 177 229 281 342 403
#     4  12  23  41  66 105 131 174 223 282 344 394
#     4  10  24  48  66  92 138 174 226 272 336 400
#     4  12  26  44  66 100 137 183 227 275 336 408
#     4  11  24  44  68  97 133 181 221 284 336 405
#     4  11  24  42  67 100 134 167 227 285 338 395
#
# _framework density 19.838038000000001
#
# number of rings (size 3 to 8) (size 9 to 14) (size 15 to 20)
#    0.000    0.421    6.316    1.579    2.947    1.684 
#    0.000   11.579    0.000    0.000    0.000    0.000 
#    0.000    0.000    0.000    0.000    0.000    0.000 
#
# Total GULP energy -105878.103256 kJ/mol
# GULP energy per Si atom -5572.531750 kJ/mol
# Density = 1.979289 g / cm^3
# Si number density = 19.838038 Si / 1000 Ang^3
#
#
#
# Elastic Constant Matrix: (Units=GPa)
#
#
# Indices 1 2 3 4 5 6 
#
# 1 64.9637 34.9029 38.6770 0.0190 4.2432 0.0087
# 2 34.9029 184.3031 56.8123 0.0225 3.7575 0.0225
# 3 38.6770 56.8123 111.1975 0.0505 3.8343 0.0262
# 4 0.0190 0.0225 0.0505 14.1528 0.0002 10.2845
# 5 4.2432 3.7575 3.8343 0.0002 30.1334 -0.0081
# 6 0.0087 0.0225 0.0262 10.2845 -0.0081 22.4919
#
#
#
# Elastic Compliance Matrix: (Units=1/GPa)
#
#
# Indices 1 2 3 4 5 6 
#
# 1 0.020086 -0.001938 -0.005933 -0.000004 -0.001832 0.000002
# 2 -0.001938 0.006631 -0.002707 0.000006 -0.000210 -0.000005
# 3 -0.005933 -0.002707 0.012454 -0.000038 -0.000412 0.000008
# 4 -0.000004 0.000006 -0.000038 0.105818 -0.000009 -0.048386
# 5 -0.001832 -0.000210 -0.000412 -0.000009 0.033522 0.000018
# 6 0.000002 -0.000005 0.000008 -0.048386 0.000018 0.066585
#
#
# Mechanical properties :
#
#
# Convention : Reuss Voigt Hill
#
# Bulk Modulus (GPa) = 55.50614 69.02762 62.26688
# Shear Modulus (GPa) = 18.36486 28.69375 23.52931
#
# Velocity S-wave (km/s) = 3.04590 3.80728 3.44767
# Velocity P-wave (km/s) = 6.35692 7.36195 6.87782
#
# Compressibility (1/GPa) = 0.01801603
#
# Stress axis : x y z
#
# Youngs Moduli (GPa) = 49.78495 150.79584 80.29535
#
# Poissons Ratio (x) = 0.29218 0.47643
# Poissons Ratio (y) = 0.09646 0.21736
# Poissons Ratio (z) = 0.29539 0.40820
#
# Static dielectric constant tensor:
#      x y z
#    x 1.712640 0.000000 0.022970 
#    y 0.000000 1.675260 0.000010 
#    z 0.022970 0.000010 1.664070 
# 
# From -- ./inp_files/284685.got.cif
#   From: 2010.05.17/outbox.cif.g08.bks.cpg/sg12_143_cif.got.tgz:284685.got - 2010.06.03 13:09:07.
