data_PCOD9218880
_publ_section_title
;
Structure prediction by ZEFSAII (Michael W. Deem and Ramdas Pophale) SiO2 
 PCOD9218880
Probable space group: C 2/M
;
_chemical_formula_sum "Si O2"
_cell_formula_units_Z 56
_cell_length_a 16.502463
_cell_length_b 20.545156
_cell_length_c 8.565319
_cell_angle_alpha 90.000000
_cell_angle_beta 91.819536
_cell_angle_gamma 90.000000
_cell_volume 2902.570140
_symmetry_space_group_name_H-M "C 2/M"
_symmetry_group_IT_number 12
_symmetry_cell_setting 'monoclinic'
loop_
_space_group_symop_operation_xyz
x,y,z
-x,y,-z
-x,-y,-z
x,-y,z
1/2+x,1/2+y,z
1/2-x,1/2+y,-z
1/2-x,1/2-y,-z
1/2+x,1/2-y,z
loop_
_atom_site_type_symbol
_atom_site_label
_atom_site_fract_x
_atom_site_fract_y
_atom_site_fract_z
Si Si1 0.417867 0.244584 0.586881
Si Si2 0.197463 0.718447 0.687598
Si Si3 0.171382 0.923108 0.672271
Si Si4 0.908003 0.710662 0.044699
Si Si5 0.595327 0.365991 0.987382
Si Si6 0.847871 0.871778 0.677968
Si Si7 0.187874 0.663439 0.219950
O O1 0.500000 0.237874 0.500000
O O2 0.339184 0.247931 0.471216
O O3 0.414069 0.313020 0.675354
O O4 0.393284 0.184569 0.693321
O O5 0.257129 0.657979 0.672359
O O6 0.251309 0.774758 0.768756
O O7 0.116252 0.703084 0.778092
O O8 0.143719 0.906783 0.491259
O O9 0.262387 0.895280 0.704544
O O10 0.167430 0.000000 0.690654
O O11 0.123827 0.890704 0.817381
O O12 0.890902 0.787336 0.007243
O O13 0.844566 0.662581 0.956594
O O14 0.000000 0.698400 0.000000
O O15 0.637852 0.398028 0.144121
O O16 0.500000 0.377885 0.000000
#
# Coordination Sequence:
#
# PCOD9218880 Si02
#       7
#     8   8   8   8   8   8   8
#     4  11  20  31  58  93 121 148 183 243 317 366
#     4  11  18  33  56  86 121 156 191 240 299 363
#     4  12  26  43  62  83 117 167 216 249 284 346
#     4  11  20  32  58  98 128 152 182 245 320 371
#     4  11  24  39  62  93 128 155 195 249 301 359
#     4  11  22  39  62  88 120 161 196 246 300 354
#     4  11  19  36  56  87 120 151 198 242 301 356
#
# _framework density 19.293247000000001
#
# number of rings (size 3 to 8) (size 9 to 14) (size 15 to 20)
#    0.000    0.857    7.143    3.000    4.000    0.857 
#    0.000    0.714    0.000    0.857    0.000    0.000 
#    0.000    0.000    0.000    0.000    0.000    0.000 
#
# Total GULP energy -155962.871981 kJ/mol
# GULP energy per Si atom -5570.102571 kJ/mol
# Density = 1.924933 g / cm^3
# Si number density = 19.293247 Si / 1000 Ang^3
#
#
#
# Elastic Constant Matrix: (Units=GPa)
#
#
# Indices 1 2 3 4 5 6 
#
# 1 77.9195 19.6063 37.7436 0.0000 -11.5895 0.0000
# 2 19.6063 42.6040 16.5261 0.0000 -3.6696 0.0000
# 3 37.7436 16.5261 112.5725 0.0000 -2.6211 0.0000
# 4 0.0000 0.0000 0.0000 12.4146 0.0000 -0.8800
# 5 -11.5895 -3.6696 -2.6211 0.0000 43.7386 0.0000
# 6 0.0000 0.0000 0.0000 -0.8800 0.0000 6.2417
#
#
#
# Elastic Compliance Matrix: (Units=1/GPa)
#
#
# Indices 1 2 3 4 5 6 
#
# 1 0.017172 -0.005702 -0.004832 0.000000 0.003782 0.000000
# 2 -0.005702 0.026937 -0.002028 0.000000 0.000628 0.000000
# 3 -0.004832 -0.002028 0.010782 0.000000 -0.000804 0.000000
# 4 0.000000 0.000000 0.000000 0.081363 0.000000 0.011471
# 5 0.003782 0.000628 -0.000804 0.000000 0.023870 0.000000
# 6 0.000000 0.000000 0.000000 0.011471 0.000000 0.161830
#
#
# Mechanical properties :
#
#
# Convention : Reuss Voigt Hill
#
# Bulk Modulus (GPa) = 33.59533 42.31644 37.95588
# Shear Modulus (GPa) = 14.00559 23.09366 18.54963
#
# Velocity S-wave (km/s) = 2.69724 3.46350 3.10410
# Velocity P-wave (km/s) = 5.21065 6.16241 5.70641
#
# Compressibility (1/GPa) = 0.02976605
#
# Stress axis : x y z
#
# Youngs Moduli (GPa) = 58.23503 37.12393 92.74457
#
# Poissons Ratio (x) = 0.21169 0.44816
# Poissons Ratio (y) = 0.33207 0.18808
# Poissons Ratio (z) = 0.28140 0.07529
#
# Static dielectric constant tensor:
#      x y z
#    x 1.697530 0.000000 0.053810 
#    y 0.000000 1.659680 0.000000 
#    z 0.053810 0.000000 1.924910 
# 
# From -- ./inp_files/76800.got.cif
#   From: 2010.05.17/outbox.cif.g08.bks.cpg/sg12_39_cif.got.tgz:76800.got - 2010.06.03 13:09:07.
