data_PCOD9218520
_publ_section_title
;
Structure prediction by ZEFSAII (Michael W. Deem and Ramdas Pophale) SiO2 
 PCOD9218520
Probable space group: C 2/M
;
_chemical_formula_sum "Si O2"
_cell_formula_units_Z 60
_cell_length_a 11.115513
_cell_length_b 23.071006
_cell_length_c 19.490433
_cell_angle_alpha 90.000000
_cell_angle_beta 31.913110
_cell_angle_gamma 90.000000
_cell_volume 2642.235073
_symmetry_space_group_name_H-M "C 2/M"
_symmetry_group_IT_number 12
_symmetry_cell_setting 'monoclinic'
loop_
_space_group_symop_operation_xyz
x,y,z
-x,y,-z
-x,-y,-z
x,-y,z
1/2+x,1/2+y,z
1/2-x,1/2+y,-z
1/2-x,1/2-y,-z
1/2+x,1/2-y,z
loop_
_atom_site_type_symbol
_atom_site_label
_atom_site_fract_x
_atom_site_fract_y
_atom_site_fract_z
Si Si1 0.051031 0.381231 0.665299
Si Si2 0.597046 0.935743 0.782090
Si Si3 0.943319 0.000000 0.792716
Si Si4 0.060368 0.087191 0.611367
Si Si5 0.746197 0.118052 0.954103
Si Si6 0.337955 0.304528 0.782615
Si Si7 0.268519 0.736680 0.573640
Si Si8 0.094914 0.190277 0.876515
O O1 0.004049 0.421829 0.752377
O O2 0.184595 0.413438 0.540236
O O3 0.226686 0.331384 0.604248
O O4 0.823944 0.347391 0.755214
O O5 0.869953 0.933940 0.650235
O O6 0.535849 0.000000 0.834335
O O7 0.485491 0.892883 0.891383
O O8 0.030276 0.049910 0.694464
O O9 0.844369 0.053697 0.889216
O O10 0.973383 0.152121 0.667723
O O11 0.731800 0.155295 0.892083
O O12 0.908190 0.158206 0.921800
O O13 0.546496 0.267090 0.713568
O O14 0.169369 0.257513 0.830284
O O15 0.500000 0.755081 0.500000
O O16 0.250000 0.750000 0.500000
O O17 0.000000 0.187990 0.000000
#
# Coordination Sequence:
#
# PCOD9218520 Si02
#       8
#     8   8   4   8   8   8   8   8
#     4  11  25  44  68 104 143 185 236 298 371 435
#     4  12  25  43  72  99 140 186 237 301 361 437
#     4  10  24  47  71 102 140 187 234 301 359 431
#     4  11  23  44  70 107 139 177 238 297 368 427
#     4  11  25  47  69 105 141 188 245 290 366 436
#     4  10  26  39  72 102 144 187 233 300 360 432
#     4  11  23  43  69 105 149 196 240 298 382 451
#     4  11  25  47  68 103 141 190 237 291 359 447
#
# _framework density 22.708047000000001
#
# number of rings (size 3 to 8) (size 9 to 14) (size 15 to 20)
#    0.000    1.067    4.000    1.200    6.533    4.267 
#    1.200    3.667    0.000    0.000    0.000    0.000 
#    0.000    0.000    0.000    0.000    0.000    0.000 
#
# Total GULP energy -167067.595741 kJ/mol
# GULP energy per Si atom -5568.919858 kJ/mol
# Density = 2.265636 g / cm^3
# Si number density = 22.708047 Si / 1000 Ang^3
#
#
#
# Elastic Constant Matrix: (Units=GPa)
#
#
# Indices 1 2 3 4 5 6 
#
# 1 60.9328 28.0617 22.8358 0.0121 -0.6753 -0.0197
# 2 28.0617 116.1499 32.5260 0.0124 -9.6874 -0.0199
# 3 22.8358 32.5260 110.6927 -0.0061 6.1629 -0.0107
# 4 0.0121 0.0124 -0.0061 37.7741 -0.0077 8.8530
# 5 -0.6753 -9.6874 6.1629 -0.0077 23.2438 0.0098
# 6 -0.0197 -0.0199 -0.0107 8.8530 0.0098 17.2330
#
#
#
# Elastic Compliance Matrix: (Units=1/GPa)
#
#
# Indices 1 2 3 4 5 6 
#
# 1 0.019253 -0.003891 -0.002811 -0.000010 -0.000317 0.000021
# 2 -0.003891 0.010705 -0.002624 -0.000003 0.005044 0.000005
# 3 -0.002811 -0.002624 0.010607 0.000002 -0.003988 0.000001
# 4 -0.000010 -0.000003 0.000002 0.030097 0.000014 -0.015461
# 5 -0.000317 0.005044 -0.003988 0.000014 0.046173 -0.000031
# 6 0.000021 0.000005 0.000001 -0.015461 -0.000031 0.065971
#
#
# Mechanical properties :
#
#
# Convention : Reuss Voigt Hill
#
# Bulk Modulus (GPa) = 45.63271 50.51361 48.07316
# Shear Modulus (GPa) = 23.95074 29.27363 26.61219
#
# Velocity S-wave (km/s) = 3.25118 3.59434 3.42706
# Velocity P-wave (km/s) = 5.85086 6.28640 6.07253
#
# Compressibility (1/GPa) = 0.02191411
#
# Stress axis : x y z
#
# Youngs Moduli (GPa) = 51.93890 93.41397 94.27822
#
# Poissons Ratio (x) = 0.36346 0.26502
# Poissons Ratio (y) = 0.20209 0.24736
# Poissons Ratio (z) = 0.14600 0.24509
#
# Static dielectric constant tensor:
#      x y z
#    x 1.899360 -0.000010 0.036630 
#    y -0.000010 1.880920 0.000000 
#    z 0.036630 0.000000 1.900410 
# 
# From -- ./inp_files/307297.got.cif
#   From: 2010.05.17/outbox.cif.g08.bks.cpg/sg12_154_cif.got.tgz:307297.got - 2010.06.03 13:09:07.
