data_PCOD9218068
_publ_section_title
;
Structure prediction by ZEFSAII (Michael W. Deem and Ramdas Pophale) SiO2 
 PCOD9218068
Probable space group: C 2/M
;
_chemical_formula_sum "Si O2"
_cell_formula_units_Z 48
_cell_length_a 8.833911
_cell_length_b 22.976381
_cell_length_c 12.811585
_cell_angle_alpha 90.000000
_cell_angle_beta 93.480104
_cell_angle_gamma 90.000000
_cell_volume 2595.588854
_symmetry_space_group_name_H-M "C 2/M"
_symmetry_group_IT_number 12
_symmetry_cell_setting 'monoclinic'
loop_
_space_group_symop_operation_xyz
x,y,z
-x,y,-z
-x,-y,-z
x,-y,z
1/2+x,1/2+y,z
1/2-x,1/2+y,-z
1/2-x,1/2-y,-z
1/2+x,1/2-y,z
loop_
_atom_site_type_symbol
_atom_site_label
_atom_site_fract_x
_atom_site_fract_y
_atom_site_fract_z
Si Si1 0.251309 0.739550 0.748720
Si Si2 0.518603 0.067129 0.237465
Si Si3 0.999465 0.682692 0.122558
Si Si4 0.353235 0.929509 0.432169
Si Si5 0.833611 0.066967 0.382550
Si Si6 0.997513 0.818800 0.375779
O O1 0.367681 0.781781 0.813754
O O2 0.133719 0.778013 0.677715
O O3 0.347742 0.699736 0.673903
O O4 0.155466 0.703640 0.829282
O O5 0.522714 0.114555 0.147921
O O6 0.384810 0.084556 0.313638
O O7 0.676690 0.069070 0.309901
O O8 0.497231 0.000000 0.204437
O O9 0.000000 0.694370 0.000000
O O10 0.500000 0.905742 0.500000
O O11 0.212023 0.915594 0.500176
O O12 0.360942 0.000000 0.436422
O O13 0.948935 0.115059 0.348008
O O14 0.887368 0.000000 0.382947
O O15 0.000000 0.809595 0.500000
#
# Coordination Sequence:
#
# PCOD9218068 Si02
#       6
#     8   8   8   8   8   8
#     4  10  24  42  56  83 117 151 191 235 286 334
#     4   9  17  32  56  85 116 145 183 237 290 336
#     4  11  22  40  64  84 106 147 198 249 286 328
#     4   7  12  24  45  75 108 145 179 209 259 331
#     4   9  17  32  55  83 117 155 186 221 278 344
#     4  11  22  38  58  85 119 154 186 225 278 348
#
# _framework density 18.492913000000001
#
# number of rings (size 3 to 8) (size 9 to 14) (size 15 to 20)
#    0.000    2.500    1.667    3.000    2.333    0.667 
#    0.000    0.833    0.000    0.000    0.000    2.333 
#    0.000    0.000    0.000    0.000    0.000    0.000 
#
# Total GULP energy -133887.733513 kJ/mol
# GULP energy per Si atom -5578.655563 kJ/mol
# Density = 1.845082 g / cm^3
# Si number density = 18.492913 Si / 1000 Ang^3
#
#
#
# Elastic Constant Matrix: (Units=GPa)
#
#
# Indices 1 2 3 4 5 6 
#
# 1 89.8465 54.5147 34.7115 0.0000 -16.3233 0.0000
# 2 54.5147 105.5490 41.2546 0.0000 -14.5613 0.0000
# 3 34.7115 41.2546 93.6924 0.0000 -17.4732 0.0000
# 4 0.0000 0.0000 0.0000 -31.1022 0.0000 -64.4511
# 5 -16.3233 -14.5613 -17.4732 0.0000 18.2638 0.0000
# 6 0.0000 0.0000 0.0000 -64.4511 0.0000 -38.5969
#
#
#
# Elastic Compliance Matrix: (Units=1/GPa)
#
#
# Indices 1 2 3 4 5 6 
#
# 1 0.017791 -0.007333 -0.001810 0.000000 0.008322 0.000000
# 2 -0.007333 0.014893 -0.003468 0.000000 0.002003 0.000000
# 3 -0.001810 -0.003468 0.014671 0.000000 0.009653 0.000000
# 4 0.000000 0.000000 0.000000 0.013068 0.000000 -0.021822
# 5 0.008322 0.002003 0.009653 0.000000 0.073023 0.000000
# 6 0.000000 0.000000 0.000000 -0.021822 0.000000 0.010531
#
#
# Mechanical properties :
#
#
# Convention : Reuss Voigt Hill
#
# Bulk Modulus (GPa) = 45.18051 61.11661 53.14856
# Shear Modulus (GPa) = 28.31626 0.28674 14.30150
#
# Velocity S-wave (km/s) = 3.91729 0.39420 2.78393
# Velocity P-wave (km/s) = 6.70407 5.77301 6.25588
#
# Compressibility (1/GPa) = 0.02213344
#
# Stress axis : x y z
#
# Youngs Moduli (GPa) = 56.20880 67.14420 68.16152
#
# Poissons Ratio (x) = 0.49237 0.12339
# Poissons Ratio (y) = 0.41218 0.23635
# Poissons Ratio (z) = 0.10175 0.23283
#
# Static dielectric constant tensor:
#      x y z
#    x 1.666180 0.000000 0.002630 
#    y 0.000000 1.646200 0.000000 
#    z 0.002630 0.000000 1.610930 
# 
# From -- ./inp_files/122053.got.cif
#   From: 2010.05.17/outbox.cif.g08.bks.cpg/sg12_62_cif.got.tgz:122053.got - 2010.06.03 13:09:07.
