data_PCOD9218065
_publ_section_title
;
Structure prediction by ZEFSAII (Michael W. Deem and Ramdas Pophale) SiO2 
 PCOD9218065
Probable space group: C 2/M
;
_chemical_formula_sum "Si O2"
_cell_formula_units_Z 38
_cell_length_a 12.018743
_cell_length_b 20.657094
_cell_length_c 11.400258
_cell_angle_alpha 90.000000
_cell_angle_beta 141.503491
_cell_angle_gamma 90.000000
_cell_volume 1761.810739
_symmetry_space_group_name_H-M "C 2/M"
_symmetry_group_IT_number 12
_symmetry_cell_setting 'monoclinic'
loop_
_space_group_symop_operation_xyz
x,y,z
-x,y,-z
-x,-y,-z
x,-y,z
1/2+x,1/2+y,z
1/2-x,1/2+y,-z
1/2-x,1/2-y,-z
1/2+x,1/2-y,z
loop_
_atom_site_type_symbol
_atom_site_label
_atom_site_fract_x
_atom_site_fract_y
_atom_site_fract_z
Si Si1 0.000000 0.374070 0.500000
Si Si2 0.110967 0.115840 0.769685
Si Si3 0.956101 0.574588 0.208733
Si Si4 0.500000 0.500000 0.500000
Si Si5 0.859716 0.332361 0.796661
Si Si6 0.828281 0.203820 0.665981
O O1 0.051433 0.414941 0.657907
O O2 0.169073 0.330045 0.604679
O O3 0.182913 0.165358 0.728273
O O4 0.963331 0.152039 0.724602
O O5 0.043150 0.056123 0.636156
O O6 0.271628 0.095131 0.991555
O O7 0.996189 0.500000 0.212951
O O8 0.117001 0.620793 0.295166
O O9 0.920176 0.260166 0.818086
O O10 0.000000 0.364969 0.000000
O O11 0.750000 0.250000 0.500000
#
# Coordination Sequence:
#
# PCOD9218065 Si02
#       6
#     4   8   8   2   8   8
#     4  12  27  43  72  97 141 186 224 280 342 409
#     4  11  26  43  76 101 136 180 232 286 345 401
#     4  11  25  48  67 104 138 185 229 278 341 417
#     4  12  24  46  70 108 132 172 234 294 332 400
#     4  10  24  41  72 101 135 179 226 289 340 401
#     4  12  24  46  67 105 140 177 232 283 344 413
#
# _framework density 21.568718000000001
#
# number of rings (size 3 to 8) (size 9 to 14) (size 15 to 20)
#    0.000    0.842    3.158    2.842    4.421    2.947 
#    1.895    1.053    0.000    0.000    0.000    0.000 
#    0.000    0.000    0.000    0.000    0.000    0.000 
#
# Total GULP energy -105775.835495 kJ/mol
# GULP energy per Si atom -5567.149237 kJ/mol
# Density = 2.151963 g / cm^3
# Si number density = 21.568718 Si / 1000 Ang^3
#
#
#
# Elastic Constant Matrix: (Units=GPa)
#
#
# Indices 1 2 3 4 5 6 
#
# 1 150.0065 65.6278 37.7129 0.0000 3.3311 0.0000
# 2 65.6278 142.2850 33.7889 0.0000 1.7593 0.0000
# 3 37.7129 33.7889 98.7355 0.0000 -26.6542 0.0000
# 4 0.0000 0.0000 0.0000 36.1746 0.0000 -11.5946
# 5 3.3311 1.7593 -26.6542 0.0000 39.2448 0.0000
# 6 0.0000 0.0000 0.0000 -11.5946 0.0000 9.8816
#
#
#
# Elastic Compliance Matrix: (Units=1/GPa)
#
#
# Indices 1 2 3 4 5 6 
#
# 1 0.008955 -0.003393 -0.002967 0.000000 -0.002623 0.000000
# 2 -0.003393 0.009158 -0.002291 0.000000 -0.001679 0.000000
# 3 -0.002967 -0.002291 0.014867 0.000000 0.010452 0.000000
# 4 0.000000 0.000000 0.000000 0.044307 0.000000 0.051988
# 5 -0.002623 -0.001679 0.010452 0.000000 0.032878 0.000000
# 6 0.000000 0.000000 0.000000 0.051988 0.000000 0.162199
#
#
# Mechanical properties :
#
#
# Convention : Reuss Voigt Hill
#
# Bulk Modulus (GPa) = 63.78905 73.92070 68.85487
# Shear Modulus (GPa) = 16.95525 33.98667 25.47096
#
# Velocity S-wave (km/s) = 2.80680 3.97386 3.44018
# Velocity P-wave (km/s) = 6.33586 7.44326 6.91177
#
# Compressibility (1/GPa) = 0.01567667
#
# Stress axis : x y z
#
# Youngs Moduli (GPa) = 111.66566 109.19231 67.26240
#
# Poissons Ratio (x) = 0.37054 0.19960
# Poissons Ratio (y) = 0.37893 0.15410
# Poissons Ratio (z) = 0.33137 0.25017
#
# Static dielectric constant tensor:
#      x y z
#    x 3.218100 0.000000 -0.341460 
#    y 0.000000 1.752710 0.000000 
#    z -0.341460 0.000000 1.985960 
# 
# From -- ./inp_files/134199.got.cif
#   From: 2010.05.17/outbox.cif.g08.bks.cpg/sg12_68_cif.got.tgz:134199.got - 2010.06.03 13:09:07.
