data_PCOD9218236
_publ_section_title
;
Structure prediction by ZEFSAII (Michael W. Deem and Ramdas Pophale) SiO2 
 PCOD9218236
Probable space group: C 2/M
;
_chemical_formula_sum "Si O2"
_cell_formula_units_Z 28
_cell_length_a 13.085607
_cell_length_b 14.093457
_cell_length_c 7.361671
_cell_angle_alpha 90.000000
_cell_angle_beta 63.006467
_cell_angle_gamma 90.000000
_cell_volume 1209.744536
_symmetry_space_group_name_H-M "C 2/M"
_symmetry_group_IT_number 12
_symmetry_cell_setting 'monoclinic'
loop_
_space_group_symop_operation_xyz
x,y,z
-x,y,-z
-x,-y,-z
x,-y,z
1/2+x,1/2+y,z
1/2-x,1/2+y,-z
1/2-x,1/2-y,-z
1/2+x,1/2-y,z
loop_
_atom_site_type_symbol
_atom_site_label
_atom_site_fract_x
_atom_site_fract_y
_atom_site_fract_z
Si Si1 0.851289 0.295727 0.302748
Si Si2 0.909942 0.000000 0.826724
Si Si3 0.000000 0.649965 0.500000
Si Si4 0.747985 0.500000 0.366345
Si Si5 0.500000 0.658796 0.000000
Si Si6 0.697721 0.000000 0.269914
O O1 0.750000 0.250000 0.500000
O O2 0.818308 0.402642 0.270803
O O3 0.957677 0.297243 0.356275
O O4 0.889815 0.225572 0.114233
O O5 0.978051 0.090874 0.845764
O O6 0.788058 0.000000 0.035947
O O7 0.868657 0.000000 0.653133
O O8 0.890555 0.587472 0.649234
O O9 0.733736 0.500000 0.595180
#
# Coordination Sequence:
#
# PCOD9218236 Si02
#       6
#     8   4   4   4   4   4
#     4  11  25  44  68 105 137 178 233 282 341 413
#     4  11  25  45  68  99 140 181 228 292 331 413
#     4   9  20  38  66  93 134 178 216 283 344 391
#     4  10  24  43  71  97 134 183 223 283 340 402
#     4  11  26  43  66 102 140 179 232 279 350 402
#     4   9  19  43  64  96 132 174 226 280 336 400
#
# _framework density 23.145382999999999
#
# number of rings (size 3 to 8) (size 9 to 14) (size 15 to 20)
#    0.000    1.714    0.000    4.286    8.000    2.857 
#    0.000    2.857    0.000    0.000    0.000    0.000 
#    0.000    0.000    0.000    0.000    0.000    0.000 
#
# Total GULP energy -78305.336305 kJ/mol
# GULP energy per Si atom -5593.238307 kJ/mol
# Density = 2.309270 g / cm^3
# Si number density = 23.145383 Si / 1000 Ang^3
#
#
#
# Elastic Constant Matrix: (Units=GPa)
#
#
# Indices 1 2 3 4 5 6 
#
# 1 143.3224 43.5799 15.2888 0.0000 22.0335 0.0000
# 2 43.5799 172.2426 33.3636 0.0000 -6.6355 0.0000
# 3 15.2888 33.3636 61.0855 0.0000 -26.3998 0.0000
# 4 0.0000 0.0000 0.0000 14.3452 0.0000 2.4875
# 5 22.0335 -6.6355 -26.3998 0.0000 44.1280 0.0000
# 6 0.0000 0.0000 0.0000 2.4875 0.0000 4.2221
#
#
#
# Elastic Compliance Matrix: (Units=1/GPa)
#
#
# Indices 1 2 3 4 5 6 
#
# 1 0.009164 -0.001711 -0.004650 0.000000 -0.007615 0.000000
# 2 -0.001711 0.006891 -0.003397 0.000000 -0.000141 0.000000
# 3 -0.004650 -0.003397 0.027207 0.000000 0.018088 0.000000
# 4 0.000000 0.000000 0.000000 0.077641 0.000000 -0.045742
# 5 -0.007615 -0.000141 0.018088 0.000000 0.037263 0.000000
# 6 0.000000 0.000000 0.000000 -0.045742 0.000000 0.263795
#
#
# Mechanical properties :
#
#
# Convention : Reuss Voigt Hill
#
# Bulk Modulus (GPa) = 42.11225 62.34613 52.22919
# Shear Modulus (GPa) = 11.12612 31.50029 21.31321
#
# Velocity S-wave (km/s) = 2.19488 3.69314 3.03783
# Velocity P-wave (km/s) = 4.96563 6.72168 5.90925
#
# Compressibility (1/GPa) = 0.02374606
#
# Stress axis : x y z
#
# Youngs Moduli (GPa) = 109.11789 145.11170 36.75592
#
# Poissons Ratio (x) = 0.24834 0.17092
# Poissons Ratio (y) = 0.18674 0.12484
# Poissons Ratio (z) = 0.50741 0.49288
#
# Static dielectric constant tensor:
#      x y z
#    x 1.863850 0.000000 -0.010450 
#    y 0.000000 1.872160 0.000000 
#    z -0.010450 0.000000 1.842340 
# 
# From -- ./inp_files/45195.got.cif
#   From: 2010.05.17/outbox.cif.g08.bks.cpg/sg12_23_cif.got.tgz:45195.got - 2010.06.03 13:09:07.
