data_PCOD9218149
_publ_section_title
;
Structure prediction by ZEFSAII (Michael W. Deem and Ramdas Pophale) SiO2 
 PCOD9218149
Probable space group: C 2/M
;
_chemical_formula_sum "Si O2"
_cell_formula_units_Z 48
_cell_length_a 30.690945
_cell_length_b 16.764991
_cell_length_c 9.250368
_cell_angle_alpha 90.000000
_cell_angle_beta 27.738515
_cell_angle_gamma 90.000000
_cell_volume 2215.305405
_symmetry_space_group_name_H-M "C 2/M"
_symmetry_group_IT_number 12
_symmetry_cell_setting 'monoclinic'
loop_
_space_group_symop_operation_xyz
x,y,z
-x,y,-z
-x,-y,-z
x,-y,z
1/2+x,1/2+y,z
1/2-x,1/2+y,-z
1/2-x,1/2-y,-z
1/2+x,1/2-y,z
loop_
_atom_site_type_symbol
_atom_site_label
_atom_site_fract_x
_atom_site_fract_y
_atom_site_fract_z
Si Si1 0.122023 0.406085 0.417164
Si Si2 0.397312 0.500000 0.726979
Si Si3 0.983279 0.000000 0.880302
Si Si4 0.221679 0.672000 0.868524
Si Si5 0.734807 0.646055 0.795715
Si Si6 0.955490 0.301641 0.781734
Si Si7 0.137418 0.156675 0.790451
O O1 0.107256 0.500000 0.454497
O O2 0.163333 0.380676 0.450565
O O3 0.030674 0.358416 0.635735
O O4 0.202638 0.379449 0.065964
O O5 0.500000 0.500000 0.500000
O O6 0.338229 0.578044 0.942133
O O7 0.420701 0.500000 0.489439
O O8 0.923750 0.077797 0.015166
O O9 0.000000 0.000000 0.000000
O O10 0.214114 0.766699 0.922380
O O11 0.317560 0.660591 0.500096
O O12 0.136515 0.653672 0.007789
O O13 0.719835 0.655667 0.668490
O O14 0.000000 0.268546 0.500000
O O15 0.924622 0.231975 0.980031
#
# Coordination Sequence:
#
# PCOD9218149 Si02
#       7
#     8   4   4   8   8   8   8
#     4  11  24  41  68 101 133 171 224 277 327 392
#     4  12  24  42  70  99 132 175 221 278 329 406
#     4  12  30  40  64 101 136 169 219 280 345 392
#     4  10  24  42  70  93 134 176 219 275 335 395
#     4  11  22  42  69  97 129 174 222 270 331 395
#     4   9  21  41  68  96 126 176 226 267 321 398
#     4  11  24  45  67  96 134 174 218 275 341 394
#
# _framework density 21.667441
#
# number of rings (size 3 to 8) (size 9 to 14) (size 15 to 20)
#    0.000    1.333    2.500    2.500   10.500    4.333 
#    0.000    2.500    1.833    4.000    0.000    0.000 
#    0.000    0.000    0.000    0.000    0.000    0.000 
#
# Total GULP energy -134199.454526 kJ/mol
# GULP energy per Si atom -5591.643939 kJ/mol
# Density = 2.161812 g / cm^3
# Si number density = 21.667441 Si / 1000 Ang^3
#
#
#
# Elastic Constant Matrix: (Units=GPa)
#
#
# Indices 1 2 3 4 5 6 
#
# 1 87.4609 45.1757 5.5263 0.0000 -12.3339 0.0000
# 2 45.1757 119.4678 27.6766 0.0000 -12.3646 0.0000
# 3 5.5263 27.6766 75.4395 0.0000 3.6323 0.0000
# 4 0.0000 0.0000 0.0000 35.8107 0.0000 -17.4246
# 5 -12.3339 -12.3646 3.6323 0.0000 29.9741 0.0000
# 6 0.0000 0.0000 0.0000 -17.4246 0.0000 27.0363
#
#
#
# Elastic Compliance Matrix: (Units=1/GPa)
#
#
# Indices 1 2 3 4 5 6 
#
# 1 0.014667 -0.005318 0.000696 0.000000 0.003757 0.000000
# 2 -0.005318 0.011636 -0.004028 0.000000 0.003099 0.000000
# 3 0.000696 -0.004028 0.014835 0.000000 -0.003173 0.000000
# 4 0.000000 0.000000 0.000000 0.040682 0.000000 0.026219
# 5 0.003757 0.003099 -0.003173 0.000000 0.036571 0.000000
# 6 0.000000 0.000000 0.000000 0.026219 0.000000 0.053886
#
#
# Mechanical properties :
#
#
# Convention : Reuss Voigt Hill
#
# Bulk Modulus (GPa) = 41.95391 48.79173 45.37282
# Shear Modulus (GPa) = 25.31340 32.16351 28.73845
#
# Velocity S-wave (km/s) = 3.42170 3.85699 3.64585
# Velocity P-wave (km/s) = 5.91738 6.51172 6.22165
#
# Compressibility (1/GPa) = 0.02383568
#
# Stress axis : x y z
#
# Youngs Moduli (GPa) = 68.18197 85.94303 67.40651
#
# Poissons Ratio (x) = 0.45708 -0.04691
# Poissons Ratio (y) = 0.36262 0.27154
# Poissons Ratio (z) = -0.04745 0.34621
#
# Static dielectric constant tensor:
#      x y z
#    x 1.818680 0.000000 0.004720 
#    y 0.000000 1.744570 0.000000 
#    z 0.004720 0.000000 1.797960 
# 
# From -- ./inp_files/112764.got.cif
#   From: 2010.05.17/outbox.cif.g08.bks.cpg/sg12_57_cif.got.tgz:112764.got - 2010.06.03 13:09:07.
