data_PCOD9218818
_publ_section_title
;
Structure prediction by ZEFSAII (Michael W. Deem and Ramdas Pophale) SiO2 
 PCOD9218818
Probable space group: C 2/M
;
_chemical_formula_sum "Si O2"
_cell_formula_units_Z 48
_cell_length_a 26.104139
_cell_length_b 19.865619
_cell_length_c 14.781122
_cell_angle_alpha 90.000000
_cell_angle_beta 20.598611
_cell_angle_gamma 90.000000
_cell_volume 2696.734009
_symmetry_space_group_name_H-M "C 2/M"
_symmetry_group_IT_number 12
_symmetry_cell_setting 'monoclinic'
loop_
_space_group_symop_operation_xyz
x,y,z
-x,y,-z
-x,-y,-z
x,-y,z
1/2+x,1/2+y,z
1/2-x,1/2+y,-z
1/2-x,1/2-y,-z
1/2+x,1/2-y,z
loop_
_atom_site_type_symbol
_atom_site_label
_atom_site_fract_x
_atom_site_fract_y
_atom_site_fract_z
Si Si1 0.945711 0.138596 0.984471
Si Si2 0.398739 0.762493 0.926110
Si Si3 0.364661 0.421877 0.484744
Si Si4 0.830305 0.681765 0.274979
Si Si5 0.563669 0.689038 0.494527
Si Si6 0.677725 0.174221 0.506274
O O1 0.944488 0.207572 0.927273
O O2 0.033505 0.089339 0.773093
O O3 0.773483 0.127060 0.284149
O O4 0.000000 0.143461 0.000000
O O5 0.456629 0.734137 0.734506
O O6 0.507784 0.824169 0.766288
O O7 0.228154 0.779978 0.214162
O O8 0.343058 0.500000 0.536432
O O9 0.217732 0.380051 0.706820
O O10 0.429506 0.381598 0.462844
O O11 0.740657 0.748513 0.395718
O O12 0.791384 0.659723 0.440579
O O13 0.000000 0.696922 0.000000
O O14 0.500000 0.682614 0.500000
#
# Coordination Sequence:
#
# PCOD9218818 Si02
#       6
#     8   8   8   8   8   8
#     4  11  18  33  53  84 113 148 183 221 271 345
#     4  11  20  35  59  90 120 141 175 237 297 347
#     4  11  24  39  54  76 113 158 200 234 268 331
#     4  11  20  30  52  81 114 151 183 223 274 339
#     4  11  23  39  60  87 112 144 190 245 299 338
#     4  11  17  30  55  85 116 141 176 220 295 347
#
# _framework density 17.799308
#
# number of rings (size 3 to 8) (size 9 to 14) (size 15 to 20)
#    0.000    1.000    6.667    4.000    0.000    1.000 
#    0.000    0.000    0.000    1.000    0.000    1.167 
#    0.000    0.000    0.000    0.000    0.000    0.000 
#
# Total GULP energy -133670.600080 kJ/mol
# GULP energy per Si atom -5569.608337 kJ/mol
# Density = 1.775880 g / cm^3
# Si number density = 17.799308 Si / 1000 Ang^3
#
#
#
# Elastic Constant Matrix: (Units=GPa)
#
#
# Indices 1 2 3 4 5 6 
#
# 1 138.8302 41.0144 38.1145 -0.0003 14.8513 0.0002
# 2 41.0144 65.6215 20.5786 -0.0009 -3.3231 0.0004
# 3 38.1145 20.5786 116.1722 -0.0012 7.0737 0.0008
# 4 -0.0003 -0.0009 -0.0012 11.3984 0.0009 2.0370
# 5 14.8513 -3.3231 7.0737 0.0009 28.6812 -0.0005
# 6 0.0002 0.0004 0.0008 2.0370 -0.0005 10.8639
#
#
#
# Elastic Compliance Matrix: (Units=1/GPa)
#
#
# Indices 1 2 3 4 5 6 
#
# 1 0.010075 -0.005971 -0.001917 0.000000 -0.005436 0.000000
# 2 -0.005971 0.019869 -0.001918 0.000001 0.005867 0.000000
# 3 -0.001917 -0.001918 0.009675 0.000001 -0.001616 -0.000001
# 4 0.000000 0.000001 0.000001 0.090774 -0.000003 -0.017020
# 5 -0.005436 0.005867 -0.001616 -0.000003 0.038759 0.000003
# 6 0.000000 0.000000 -0.000001 -0.017020 0.000003 0.095239
#
#
# Mechanical properties :
#
#
# Convention : Reuss Voigt Hill
#
# Bulk Modulus (GPa) = 49.98046 57.78210 53.88128
# Shear Modulus (GPa) = 17.20155 24.91645 21.05900
#
# Velocity S-wave (km/s) = 3.11210 3.74552 3.44341
# Velocity P-wave (km/s) = 6.40738 7.15813 6.79313
#
# Compressibility (1/GPa) = 0.02000782
#
# Stress axis : x y z
#
# Youngs Moduli (GPa) = 99.25757 50.32840 103.36058
#
# Poissons Ratio (x) = 0.30052 0.19811
# Poissons Ratio (y) = 0.59268 0.19823
# Poissons Ratio (z) = 0.19025 0.09652
#
# Static dielectric constant tensor:
#      x y z
#    x 1.637990 0.000000 0.021870 
#    y 0.000000 1.596060 0.000000 
#    z 0.021870 0.000000 1.713570 
# 
# From -- ./inp_files/247100.got.cif
#   From: 2010.05.17/outbox.cif.g08.bks.cpg/sg12_124_cif.got.tgz:247100.got - 2010.06.03 13:09:07.
