data_PCOD9218805
_publ_section_title
;
Structure prediction by ZEFSAII (Michael W. Deem and Ramdas Pophale) SiO2 
 PCOD9218805
Probable space group: C 2/M
;
_chemical_formula_sum "Si O2"
_cell_formula_units_Z 40
_cell_length_a 19.758008
_cell_length_b 11.527604
_cell_length_c 19.868462
_cell_angle_alpha 90.000000
_cell_angle_beta 152.098997
_cell_angle_gamma 90.000000
_cell_volume 2117.588315
_symmetry_space_group_name_H-M "C 2/M"
_symmetry_group_IT_number 12
_symmetry_cell_setting 'monoclinic'
loop_
_space_group_symop_operation_xyz
x,y,z
-x,y,-z
-x,-y,-z
x,-y,z
1/2+x,1/2+y,z
1/2-x,1/2+y,-z
1/2-x,1/2-y,-z
1/2+x,1/2-y,z
loop_
_atom_site_type_symbol
_atom_site_label
_atom_site_fract_x
_atom_site_fract_y
_atom_site_fract_z
Si Si1 0.858329 0.731452 0.684239
Si Si2 0.395861 0.364277 0.844895
Si Si3 0.692765 0.500000 0.586545
Si Si4 0.072695 0.637471 0.391406
Si Si5 0.645601 0.500000 0.704790
Si Si6 0.882387 0.247109 0.338546
O O1 0.937652 0.785592 0.818013
O O2 0.772921 0.614233 0.630235
O O3 0.953140 0.699644 0.702872
O O4 0.734823 0.823527 0.554423
O O5 0.393953 0.500000 0.825077
O O6 0.237889 0.322243 0.729760
O O7 0.500000 0.348774 0.000000
O O8 0.688100 0.500000 0.663039
O O9 0.522860 0.500000 0.420025
O O10 0.064120 0.500000 0.376799
O O11 0.966475 0.681601 0.356001
O O12 0.688058 0.632683 0.757950
O O13 0.000000 0.211602 0.500000
#
# Coordination Sequence:
#
# PCOD9218805 Si02
#       6
#     8   8   4   8   4   8
#     4  11  21  36  56  88 121 156 194 239 295 349
#     4  11  24  42  62  85 119 157 194 241 296 352
#     4  11  16  34  54  82 127 150 177 244 297 336
#     4  11  22  33  57  89 122 153 192 246 294 342
#     4  11  16  30  56  84 118 148 184 242 294 331
#     4  12  20  36  60  90 118 151 198 247 288 344
#
# _framework density 18.889413999999999
#
# number of rings (size 3 to 8) (size 9 to 14) (size 15 to 20)
#    0.000    0.800    9.000    1.200    0.000    0.800 
#    1.800    3.000    0.000    0.000    0.000    0.000 
#    0.000    0.000    0.000    0.000    0.000    0.000 
#
# Total GULP energy -111545.066159 kJ/mol
# GULP energy per Si atom -5577.253308 kJ/mol
# Density = 1.884642 g / cm^3
# Si number density = 18.889414 Si / 1000 Ang^3
#
#
#
# Elastic Constant Matrix: (Units=GPa)
#
#
# Indices 1 2 3 4 5 6 
#
# 1 92.5026 45.9145 18.2686 -0.0001 -20.6240 0.0001
# 2 45.9145 105.5863 26.4873 -0.0001 -25.5052 0.0001
# 3 18.2686 26.4873 33.4665 -0.0004 -15.7485 0.0002
# 4 -0.0001 -0.0001 -0.0004 16.1022 -0.0001 -4.9975
# 5 -20.6240 -25.5052 -15.7485 -0.0001 19.7331 0.0001
# 6 0.0001 0.0001 0.0002 -4.9975 0.0001 12.1305
#
#
#
# Elastic Compliance Matrix: (Units=1/GPa)
#
#
# Indices 1 2 3 4 5 6 
#
# 1 0.015189 -0.004016 -0.000136 0.000000 0.010574 0.000000
# 2 -0.004016 0.015182 -0.004107 0.000000 0.012147 0.000000
# 3 -0.000136 -0.004107 0.049068 0.000001 0.033709 0.000000
# 4 0.000000 0.000000 0.000001 0.071208 0.000002 0.029336
# 5 0.010574 0.012147 0.033709 0.000002 0.104331 0.000000
# 6 0.000000 0.000000 0.000000 0.029336 0.000000 0.094522
#
#
# Mechanical properties :
#
#
# Convention : Reuss Voigt Hill
#
# Bulk Modulus (GPa) = 15.89340 45.87734 30.88537
# Shear Modulus (GPa) = 12.92012 18.98550 15.95281
#
# Velocity S-wave (km/s) = 2.61815 3.17375 2.90924
# Velocity P-wave (km/s) = 4.19187 6.14576 5.26033
#
# Compressibility (1/GPa) = 0.06291922
#
# Stress axis : x y z
#
# Youngs Moduli (GPa) = 65.83903 65.86717 20.37972
#
# Poissons Ratio (x) = 0.26454 0.00278
# Poissons Ratio (y) = 0.26443 0.08371
# Poissons Ratio (z) = 0.00898 0.27054
#
# Static dielectric constant tensor:
#      x y z
#    x 1.644410 0.000000 -0.029280 
#    y 0.000000 1.685400 0.000000 
#    z -0.029280 0.000000 1.678560 
# 
# From -- ./inp_files/283428.got.cif
#   From: 2010.05.17/outbox.cif.g08.bks.cpg/sg12_142_cif.got.tgz:283428.got - 2010.06.03 13:09:07.
