data_PCOD9218896
_publ_section_title
;
Structure prediction by ZEFSAII (Michael W. Deem and Ramdas Pophale) SiO2 
 PCOD9218896
Probable space group: C 2/M
;
_chemical_formula_sum "Si O2"
_cell_formula_units_Z 40
_cell_length_a 14.183783
_cell_length_b 18.113633
_cell_length_c 9.361879
_cell_angle_alpha 90.000000
_cell_angle_beta 48.033752
_cell_angle_gamma 90.000000
_cell_volume 1788.398692
_symmetry_space_group_name_H-M "C 2/M"
_symmetry_group_IT_number 12
_symmetry_cell_setting 'monoclinic'
loop_
_space_group_symop_operation_xyz
x,y,z
-x,y,-z
-x,-y,-z
x,-y,z
1/2+x,1/2+y,z
1/2-x,1/2+y,-z
1/2-x,1/2-y,-z
1/2+x,1/2-y,z
loop_
_atom_site_type_symbol
_atom_site_label
_atom_site_fract_x
_atom_site_fract_y
_atom_site_fract_z
Si Si1 0.183402 0.500000 0.221051
Si Si2 0.700147 0.645814 0.806360
Si Si3 0.419746 0.000000 0.351265
Si Si4 0.625589 0.854662 0.778880
Si Si5 0.323125 0.276991 0.778882
Si Si6 0.467332 0.698805 0.234123
O O1 0.267782 0.572989 0.139416
O O2 0.125110 0.500000 0.439710
O O3 0.073605 0.500000 0.213542
O O4 0.818963 0.700878 0.693116
O O5 0.641132 0.641620 0.707020
O O6 0.585181 0.685138 0.006952
O O7 0.369898 0.927025 0.323104
O O8 0.741245 0.835042 0.769331
O O9 0.594736 0.779157 0.724222
O O10 0.500000 0.866500 0.000000
O O11 0.460044 0.304591 0.690298
O O12 0.250000 0.250000 0.000000
#
# Coordination Sequence:
#
# PCOD9218896 Si02
#       6
#     4   8   4   8   8   8
#     4  11  24  41  53  71 117 165 184 216 264 345
#     4   9  17  32  56  77 108 144 183 224 272 326
#     4  11  27  38  51  81 114 154 193 215 274 333
#     4  11  18  35  58  85 114 136 181 240 281 320
#     4   9  15  29  55  85 113 133 167 234 291 323
#     4   9  16  31  57  89 106 132 181 237 282 323
#
# _framework density 22.366377
#
# number of rings (size 3 to 8) (size 9 to 14) (size 15 to 20)
#    0.000    2.200    6.000    1.500    2.800    1.600 
#    0.000    5.000    0.000    4.800    0.000    0.000 
#    0.000    0.000    0.000    0.000    0.000    0.000 
#
# Total GULP energy -111438.733914 kJ/mol
# GULP energy per Si atom -5571.936696 kJ/mol
# Density = 2.231547 g / cm^3
# Si number density = 22.366377 Si / 1000 Ang^3
#
#
#
# Elastic Constant Matrix: (Units=GPa)
#
#
# Indices 1 2 3 4 5 6 
#
# 1 246.3959 72.5731 13.8116 0.0000 10.4421 0.0000
# 2 72.5731 116.5071 8.4054 0.0000 0.2226 0.0000
# 3 13.8116 8.4054 46.6745 0.0000 13.3642 0.0000
# 4 0.0000 0.0000 0.0000 -24.6741 0.0000 -12.1912
# 5 10.4421 0.2226 13.3642 0.0000 22.1579 0.0000
# 6 0.0000 0.0000 0.0000 -12.1912 0.0000 28.7882
#
#
#
# Elastic Compliance Matrix: (Units=1/GPa)
#
#
# Indices 1 2 3 4 5 6 
#
# 1 0.005096 -0.003147 -0.000317 0.000000 -0.002178 0.000000
# 2 -0.003147 0.010659 -0.001671 0.000000 0.002384 0.000000
# 3 -0.000317 -0.001671 0.026317 0.000000 -0.015706 0.000000
# 4 0.000000 0.000000 0.000000 -0.033516 0.000000 -0.014193
# 5 -0.002178 0.002384 -0.015706 0.000000 0.055606 0.000000
# 6 0.000000 0.000000 0.000000 -0.014193 0.000000 0.028726
#
#
# Mechanical properties :
#
#
# Convention : Reuss Voigt Hill
#
# Bulk Modulus (GPa) = 31.44525 66.57307 49.00916
# Shear Modulus (GPa) = 43.95239 26.24022 35.09630
#
# Velocity S-wave (km/s) = 4.43777 3.42892 3.96555
# Velocity P-wave (km/s) = 6.35201 6.74582 6.55187
#
# Compressibility (1/GPa) = 0.03180130
#
# Stress axis : x y z
#
# Youngs Moduli (GPa) = 196.25077 93.81360 37.99836
#
# Poissons Ratio (x) = 0.29523 0.01206
# Poissons Ratio (y) = 0.61760 0.06349
# Poissons Ratio (z) = 0.06229 0.15675
#
# Static dielectric constant tensor:
#      x y z
#    x 1.967140 0.000000 0.091570 
#    y 0.000000 1.829490 0.000000 
#    z 0.091570 0.000000 2.052200 
# 
# From -- ./inp_files/144228.got.cif
#   From: 2010.05.17/outbox.cif.g08.bks.cpg/sg12_73_cif.got.tgz:144228.got - 2010.06.03 13:09:07.
