data_PCOD9218165
_publ_section_title
;
Structure prediction by ZEFSAII (Michael W. Deem and Ramdas Pophale) SiO2 
 PCOD9218165
Probable space group: C 2/M
;
_chemical_formula_sum "Si O2"
_cell_formula_units_Z 32
_cell_length_a 17.636067
_cell_length_b 11.677491
_cell_length_c 14.775670
_cell_angle_alpha 90.000000
_cell_angle_beta 30.044060
_cell_angle_gamma 90.000000
_cell_volume 1523.513850
_symmetry_space_group_name_H-M "C 2/M"
_symmetry_group_IT_number 12
_symmetry_cell_setting 'monoclinic'
loop_
_space_group_symop_operation_xyz
x,y,z
-x,y,-z
-x,-y,-z
x,-y,z
1/2+x,1/2+y,z
1/2-x,1/2+y,-z
1/2-x,1/2-y,-z
1/2+x,1/2-y,z
loop_
_atom_site_type_symbol
_atom_site_label
_atom_site_fract_x
_atom_site_fract_y
_atom_site_fract_z
Si Si1 0.905839 0.135580 0.005847
Si Si2 0.103407 0.000000 0.301823
Si Si3 0.470485 0.000000 0.924309
Si Si4 0.078485 0.286944 0.694794
Si Si5 0.922823 0.258148 0.677335
O O1 0.748858 0.203480 0.160575
O O2 0.876799 0.000000 0.034103
O O3 0.000000 0.161865 0.000000
O O4 0.001812 0.178130 0.821931
O O5 0.065284 0.125403 0.304396
O O6 0.000000 0.000000 0.500000
O O7 0.287095 0.000000 0.110092
O O8 0.545872 0.890180 0.798234
O O9 0.500000 0.000000 0.000000
O O10 0.250000 0.250000 0.500000
O O11 0.001746 0.322314 0.678913
O O12 0.000000 0.272790 0.500000
#
# Coordination Sequence:
#
# PCOD9218165 Si02
#       5
#     8   4   4   8   8
#     4  11  25  45  70 100 142 185 233 299 367 433
#     4  10  24  42  76 103 138 188 239 300 364 414
#     4  12  28  48  77 107 143 190 245 301 360 435
#     4  12  28  44  72 104 145 186 243 296 360 429
#     4  11  25  45  71 101 144 184 242 295 364 433
#
# _framework density 21.004075
#
# number of rings (size 3 to 8) (size 9 to 14) (size 15 to 20)
#    0.000    0.750    2.500    3.000   12.250    0.500 
#    0.000    0.000    0.000    0.000    0.000    0.000 
#    0.000    0.000    0.000    0.000    0.000    0.000 
#
# Total GULP energy -89351.360959 kJ/mol
# GULP energy per Si atom -5584.460060 kJ/mol
# Density = 2.095627 g / cm^3
# Si number density = 21.004075 Si / 1000 Ang^3
#
#
#
# Elastic Constant Matrix: (Units=GPa)
#
#
# Indices 1 2 3 4 5 6 
#
# 1 153.1522 40.5004 67.7277 0.0000 28.3904 0.0000
# 2 40.5004 90.8242 34.8291 0.0000 15.8964 0.0000
# 3 67.7277 34.8291 193.4608 0.0000 1.3473 0.0000
# 4 0.0000 0.0000 0.0000 29.0847 0.0000 5.9136
# 5 28.3904 15.8964 1.3473 0.0000 33.0503 0.0000
# 6 0.0000 0.0000 0.0000 5.9136 0.0000 23.9289
#
#
#
# Elastic Compliance Matrix: (Units=1/GPa)
#
#
# Indices 1 2 3 4 5 6 
#
# 1 0.009718 -0.001900 -0.003009 0.000000 -0.007311 0.000000
# 2 -0.001900 0.013335 -0.001703 0.000000 -0.004713 0.000000
# 3 -0.003009 -0.001703 0.006507 0.000000 0.003139 0.000000
# 4 0.000000 0.000000 0.000000 0.036201 0.000000 -0.008947
# 5 -0.007311 -0.004713 0.003139 0.000000 0.038676 0.000000
# 6 0.000000 0.000000 0.000000 -0.008947 0.000000 0.044002
#
#
# Mechanical properties :
#
#
# Convention : Reuss Voigt Hill
#
# Bulk Modulus (GPa) = 61.21187 80.39461 70.80324
# Shear Modulus (GPa) = 29.92068 36.83810 33.37939
#
# Velocity S-wave (km/s) = 3.77837 4.19245 3.99078
# Velocity P-wave (km/s) = 6.94557 7.86094 7.41739
#
# Compressibility (1/GPa) = 0.01633670
#
# Stress axis : x y z
#
# Youngs Moduli (GPa) = 102.90299 74.98910 153.67661
#
# Poissons Ratio (x) = 0.14247 0.46243
# Poissons Ratio (y) = 0.19550 0.26169
# Poissons Ratio (z) = 0.30965 0.12770
#
# Static dielectric constant tensor:
#      x y z
#    x 1.752940 0.000000 -0.005380 
#    y 0.000000 1.795980 0.000000 
#    z -0.005380 0.000000 1.612770 
# 
# From -- ./inp_files/56802.got.cif
#   From: 2010.05.17/outbox.cif.g08.bks.cpg/sg12_29_cif.got.tgz:56802.got - 2010.06.03 13:09:07.
