data_PCOD9218630
_publ_section_title
;
Structure prediction by ZEFSAII (Michael W. Deem and Ramdas Pophale) SiO2 
 PCOD9218630
Probable space group: C 2/M
;
_chemical_formula_sum "Si O2"
_cell_formula_units_Z 60
_cell_length_a 23.827105
_cell_length_b 20.729651
_cell_length_c 12.185649
_cell_angle_alpha 90.000000
_cell_angle_beta 26.542813
_cell_angle_gamma 90.000000
_cell_volume 2689.612056
_symmetry_space_group_name_H-M "C 2/M"
_symmetry_group_IT_number 12
_symmetry_cell_setting 'monoclinic'
loop_
_space_group_symop_operation_xyz
x,y,z
-x,y,-z
-x,-y,-z
x,-y,z
1/2+x,1/2+y,z
1/2-x,1/2+y,-z
1/2-x,1/2-y,-z
1/2+x,1/2-y,z
loop_
_atom_site_type_symbol
_atom_site_label
_atom_site_fract_x
_atom_site_fract_y
_atom_site_fract_z
Si Si1 0.650403 0.101854 0.758916
Si Si2 0.311882 0.885222 0.948011
Si Si3 0.131900 0.924964 0.064412
Si Si4 0.121178 0.742606 0.866169
Si Si5 0.074813 0.169989 0.481974
Si Si6 0.764136 0.622720 0.619619
Si Si7 0.989628 0.699468 0.316397
Si Si8 0.352713 0.000000 0.037427
O O1 0.688983 0.175904 0.715056
O O2 0.717867 0.085534 0.526217
O O3 0.669803 0.055739 0.827392
O O4 0.500000 0.101153 0.000000
O O5 0.240868 0.904278 0.960324
O O6 0.203058 0.861067 0.219882
O O7 0.369593 0.944756 0.911999
O O8 0.416097 0.829695 0.758666
O O9 0.011842 0.878609 0.295140
O O10 0.098860 0.000000 0.142810
O O11 0.187695 0.914983 0.846005
O O12 0.197167 0.808125 0.721094
O O13 0.072537 0.729668 0.073807
O O14 0.000000 0.747693 0.000000
O O15 0.000000 0.179249 0.500000
O O16 0.092318 0.240539 0.500579
O O17 0.901573 0.643199 0.423371
#
# Coordination Sequence:
#
# PCOD9218630 Si02
#       8
#     8   8   8   8   8   8   8   4
#     4  11  23  42  65  96 135 182 226 278 335 404
#     4  11  25  45  70 103 133 184 232 276 338 410
#     4  11  26  47  68  98 143 185 222 274 345 407
#     4  11  22  42  65  98 133 180 227 282 341 394
#     4  10  25  42  71  97 134 180 228 282 329 406
#     4  12  25  43  69 101 142 177 226 287 347 402
#     4  12  23  42  68 104 138 171 225 291 342 399
#     4  12  23  40  69  96 130 179 232 277 313 419
#
# _framework density 22.308050999999999
#
# number of rings (size 3 to 8) (size 9 to 14) (size 15 to 20)
#    0.000    0.800    6.000    1.400    3.733    1.867 
#    1.200    0.667    0.000    1.200    0.000    0.000 
#    0.000    0.000    0.000    0.000    0.000    0.000 
#
# Total GULP energy -167267.865130 kJ/mol
# GULP energy per Si atom -5575.595504 kJ/mol
# Density = 2.225728 g / cm^3
# Si number density = 22.308051 Si / 1000 Ang^3
#
#
#
# Elastic Constant Matrix: (Units=GPa)
#
#
# Indices 1 2 3 4 5 6 
#
# 1 45.4204 26.1263 8.7058 0.0005 5.7739 -0.0003
# 2 26.1263 93.3912 4.6498 0.0003 -4.2390 -0.0002
# 3 8.7058 4.6498 55.3248 0.0005 22.5753 -0.0003
# 4 0.0005 0.0003 0.0005 -5.3104 -0.0002 21.4527
# 5 5.7739 -4.2390 22.5753 -0.0002 37.8452 0.0001
# 6 -0.0003 -0.0002 -0.0003 21.4527 0.0001 21.7579
#
#
#
# Elastic Compliance Matrix: (Units=1/GPa)
#
#
# Indices 1 2 3 4 5 6 
#
# 1 0.027339 -0.007714 -0.002114 0.000001 -0.003774 0.000000
# 2 -0.007714 0.013084 -0.001274 0.000000 0.003402 0.000000
# 3 -0.002114 -0.001274 0.024374 0.000001 -0.014360 0.000000
# 4 0.000001 0.000000 0.000001 -0.037790 -0.000001 0.037260
# 5 -0.003774 0.003402 -0.014360 -0.000001 0.035946 0.000001
# 6 0.000000 0.000000 0.000000 0.037260 0.000001 0.009223
#
#
# Mechanical properties :
#
#
# Convention : Reuss Voigt Hill
#
# Bulk Modulus (GPa) = 23.47801 30.34449 26.91125
# Shear Modulus (GPa) = 46.05001 21.16883 33.60942
#
# Velocity S-wave (km/s) = 4.54836 3.08382 3.88571
# Velocity P-wave (km/s) = 6.17501 5.12951 5.67638
#
# Compressibility (1/GPa) = 0.04259305
#
# Stress axis : x y z
#
# Youngs Moduli (GPa) = 36.57818 76.43184 41.02671
#
# Poissons Ratio (x) = 0.58960 0.08671
# Poissons Ratio (y) = 0.28217 0.05227
# Poissons Ratio (z) = 0.07731 0.09738
#
# Static dielectric constant tensor:
#      x y z
#    x 1.866720 0.000000 -0.010300 
#    y 0.000000 1.794720 0.000000 
#    z -0.010300 0.000000 1.811020 
# 
# From -- ./inp_files/178005.got.cif
#   From: 2010.05.17/outbox.cif.g08.bks.cpg/sg12_90_cif.got.tgz:178005.got - 2010.06.03 13:09:07.
