data_PCOD9218894
_publ_section_title
;
Structure prediction by ZEFSAII (Michael W. Deem and Ramdas Pophale) SiO2 
 PCOD9218894
Probable space group: C 2/M
;
_chemical_formula_sum "Si O2"
_cell_formula_units_Z 48
_cell_length_a 15.475816
_cell_length_b 15.541557
_cell_length_c 10.794583
_cell_angle_alpha 90.000000
_cell_angle_beta 52.994477
_cell_angle_gamma 90.000000
_cell_volume 2073.342356
_symmetry_space_group_name_H-M "C 2/M"
_symmetry_group_IT_number 12
_symmetry_cell_setting 'monoclinic'
loop_
_space_group_symop_operation_xyz
x,y,z
-x,y,-z
-x,-y,-z
x,-y,z
1/2+x,1/2+y,z
1/2-x,1/2+y,-z
1/2-x,1/2-y,-z
1/2+x,1/2-y,z
loop_
_atom_site_type_symbol
_atom_site_label
_atom_site_fract_x
_atom_site_fract_y
_atom_site_fract_z
Si Si1 0.128277 0.096030 0.405469
Si Si2 0.912119 0.905095 0.186867
Si Si3 0.114672 0.126401 0.139952
Si Si4 0.087882 0.304242 0.034536
Si Si5 0.336809 0.904607 0.810461
Si Si6 0.734464 0.233708 0.300160
O O1 0.158955 0.098362 0.233321
O O2 0.180778 0.184254 0.414662
O O3 0.000000 0.106380 0.500000
O O4 0.156405 0.000000 0.430630
O O5 0.823203 0.831540 0.282227
O O6 0.995953 0.912839 0.226160
O O7 0.864883 0.000000 0.205141
O O8 0.000000 0.885229 0.000000
O O9 0.083735 0.225027 0.135610
O O10 0.209115 0.101123 0.961359
O O11 0.099357 0.383595 0.117769
O O12 0.195212 0.278754 0.868067
O O13 0.000000 0.312088 0.000000
O O14 0.348985 0.831327 0.695076
O O15 0.362312 0.000000 0.744782
#
# Coordination Sequence:
#
# PCOD9218894 Si02
#       6
#     8   8   8   8   8   8
#     4  11  24  40  59  79 101 146 205 243 272 318
#     4  11  19  29  55  92 122 144 173 223 283 340
#     4  11  18  35  54  81 114 143 184 233 272 318
#     4  11  19  32  53  84 121 147 175 213 281 349
#     4  11  20  31  54  85 115 151 180 214 279 345
#     4  11  19  35  55  81 116 143 183 232 277 329
#
# _framework density 23.151026000000002
#
# number of rings (size 3 to 8) (size 9 to 14) (size 15 to 20)
#    0.000    1.000    8.333    3.000    0.000    0.333 
#    0.000    0.833    0.000    2.500    0.000    0.000 
#    0.000    0.000    0.000    0.000    0.000    0.000 
#
# Total GULP energy -133631.937687 kJ/mol
# GULP energy per Si atom -5567.997404 kJ/mol
# Density = 2.309833 g / cm^3
# Si number density = 23.151026 Si / 1000 Ang^3
#
#
#
# Elastic Constant Matrix: (Units=GPa)
#
#
# Indices 1 2 3 4 5 6 
#
# 1 80.9633 61.2418 -9.6310 0.0000 -0.2650 0.0000
# 2 61.2418 194.8923 33.3689 0.0000 -24.9186 0.0000
# 3 -9.6310 33.3689 28.1420 0.0000 1.1329 0.0000
# 4 0.0000 0.0000 0.0000 14.5577 0.0000 -4.8330
# 5 -0.2650 -24.9186 1.1329 0.0000 22.6831 0.0000
# 6 0.0000 0.0000 0.0000 -4.8330 0.0000 14.2752
#
#
#
# Elastic Compliance Matrix: (Units=1/GPa)
#
#
# Indices 1 2 3 4 5 6 
#
# 1 0.028397 -0.016558 0.030131 0.000000 -0.019363 0.000000
# 2 -0.016558 0.017664 -0.027439 0.000000 0.020581 0.000000
# 3 0.030131 -0.027439 0.079741 0.000000 -0.033774 0.000000
# 4 0.000000 0.000000 0.000000 0.077391 0.000000 0.026201
# 5 -0.019363 0.020581 -0.033774 0.000000 0.068156 0.000000
# 6 0.000000 0.000000 0.000000 0.026201 0.000000 0.078922
#
#
# Mechanical properties :
#
#
# Convention : Reuss Voigt Hill
#
# Bulk Modulus (GPa) = 10.19698 52.66188 31.42943
# Shear Modulus (GPa) = 12.17455 24.90438 18.53947
#
# Velocity S-wave (km/s) = 2.29568 3.28340 2.83292
# Velocity P-wave (km/s) = 3.38246 6.09678 4.93010
#
# Compressibility (1/GPa) = 0.09806824
#
# Stress axis : x y z
#
# Youngs Moduli (GPa) = 35.21552 56.61344 12.54058
#
# Poissons Ratio (x) = 0.93739 -0.37786
# Poissons Ratio (y) = 0.58309 0.34411
# Poissons Ratio (z) = -1.06106 1.55344
#
# Static dielectric constant tensor:
#      x y z
#    x 2.050330 0.000000 0.055370 
#    y 0.000000 1.997600 0.000000 
#    z 0.055370 0.000000 1.896850 
# 
# From -- ./inp_files/225099.got.cif
#   From: 2010.05.17/outbox.cif.g08.bks.cpg/sg12_113_cif.got.tgz:225099.got - 2010.06.03 13:09:07.
