data_PCOD9218173
_publ_section_title
;
Structure prediction by ZEFSAII (Michael W. Deem and Ramdas Pophale) SiO2 
 PCOD9218173
Probable space group: C 2/M
;
_chemical_formula_sum "Si O2"
_cell_formula_units_Z 40
_cell_length_a 20.247391
_cell_length_b 23.281891
_cell_length_c 7.843973
_cell_angle_alpha 90.000000
_cell_angle_beta 27.583866
_cell_angle_gamma 90.000000
_cell_volume 1712.174358
_symmetry_space_group_name_H-M "C 2/M"
_symmetry_group_IT_number 12
_symmetry_cell_setting 'monoclinic'
loop_
_space_group_symop_operation_xyz
x,y,z
-x,y,-z
-x,-y,-z
x,-y,z
1/2+x,1/2+y,z
1/2-x,1/2+y,-z
1/2-x,1/2-y,-z
1/2+x,1/2-y,z
loop_
_atom_site_type_symbol
_atom_site_label
_atom_site_fract_x
_atom_site_fract_y
_atom_site_fract_z
Si Si1 0.404152 0.000000 0.952422
Si Si2 0.660610 0.123388 0.777004
Si Si3 0.921033 0.826317 0.363740
Si Si4 0.077958 0.300372 0.502615
Si Si5 0.234570 0.500000 0.085489
Si Si6 0.183041 0.879282 0.945511
O O1 0.567231 0.000000 0.517701
O O2 0.284609 0.000000 0.075369
O O3 0.386794 0.058193 0.094549
O O4 0.781640 0.137761 0.638418
O O5 0.732538 0.126943 0.427980
O O6 0.531871 0.165882 0.121141
O O7 0.890420 0.762159 0.496088
O O8 0.000000 0.820634 0.000000
O O9 0.025705 0.858284 0.255698
O O10 0.224124 0.336036 0.152128
O O11 0.000000 0.295917 0.500000
O O12 0.305185 0.442826 0.002858
#
# Coordination Sequence:
#
# PCOD9218173 Si02
#       6
#     4   8   8   8   4   8
#     4  11  23  40  63  92 125 157 200 252 303 364
#     4  11  23  41  66  91 121 162 206 251 301 358
#     4  10  24  43  62  91 125 160 205 252 300 360
#     4  12  24  39  62  93 126 162 205 250 301 362
#     4  11  23  40  63  92 125 157 200 252 303 364
#     4  11  23  41  66  91 121 162 206 251 301 358
#
# _framework density 23.362106000000001
#
# number of rings (size 3 to 8) (size 9 to 14) (size 15 to 20)
#    0.000    1.000    2.000    4.800    0.000    9.600 
#    0.000    4.000    0.000    0.000    0.000    0.000 
#    0.000    0.000    0.000    0.000    0.000    0.000 
#
# Total GULP energy -112081.844131 kJ/mol
# GULP energy per Si atom -5604.092207 kJ/mol
# Density = 2.330893 g / cm^3
# Si number density = 23.362106 Si / 1000 Ang^3
#
#
#
# Elastic Constant Matrix: (Units=GPa)
#
#
# Indices 1 2 3 4 5 6 
#
# 1 126.0164 35.8024 11.7128 -0.0083 -14.7631 -0.0603
# 2 35.8024 167.8952 25.1143 -0.0060 -23.5430 -0.0484
# 3 11.7128 25.1143 51.8059 -0.0236 -15.1369 -0.1687
# 4 -0.0083 -0.0060 -0.0236 -31.7998 0.0104 -486.6562
# 5 -14.7631 -23.5430 -15.1369 0.0104 53.8280 0.0725
# 6 -0.0603 -0.0484 -0.1687 -486.6562 0.0725-3616.6449
#
#
#
# Elastic Compliance Matrix: (Units=1/GPa)
#
#
# Indices 1 2 3 4 5 6 
#
# 1 0.008611 -0.001512 -0.000781 0.000000 0.001481 0.000000
# 2 -0.001512 0.006914 -0.002449 0.000000 0.001921 0.000000
# 3 -0.000781 -0.002449 0.022107 0.000001 0.004931 -0.000001
# 4 0.000000 0.000000 0.000001 0.029687 0.000000 -0.003995
# 5 0.001481 0.001921 0.004931 0.000000 0.021211 0.000000
# 6 0.000000 0.000000 -0.000001 -0.003995 0.000000 0.000261
#
#
# Mechanical properties :
#
#
# Convention : Reuss Voigt Hill
#
# Bulk Modulus (GPa) = 35.52531 54.55292 45.03912
# Shear Modulus (GPa) = 46.44330 -700.71748 -327.13709
#
# Velocity S-wave (km/s) = 4.46351 -17.33750 -11.84622
# Velocity P-wave (km/s) = 6.46555 19.42636 12.95338
#
# Compressibility (1/GPa) = 0.02814895
#
# Stress axis : x y z
#
# Youngs Moduli (GPa) = 116.12955 144.63193 45.23357
#
# Poissons Ratio (x) = 0.21864 0.03534
# Poissons Ratio (y) = 0.17556 0.11077
# Poissons Ratio (z) = 0.09074 0.35417
#
# Static dielectric constant tensor:
#      x y z
#    x 1.910480 0.000000 0.030100 
#    y 0.000000 1.788740 0.000000 
#    z 0.030100 0.000000 1.878930 
# 
# From -- ./inp_files/48634.got.cif
#   From: 2010.05.17/outbox.cif.g08.bks.cpg/sg12_25_cif.got.tgz:48634.got - 2010.06.03 13:09:07.
