data_PCOD9218392
_publ_section_title
;
Structure prediction by ZEFSAII (Michael W. Deem and Ramdas Pophale) SiO2 
 PCOD9218392
Probable space group: C 2/M
;
_chemical_formula_sum "Si O2"
_cell_formula_units_Z 40
_cell_length_a 20.583277
_cell_length_b 10.229563
_cell_length_c 8.987019
_cell_angle_alpha 90.000000
_cell_angle_beta 105.375133
_cell_angle_gamma 90.000000
_cell_volume 1824.564190
_symmetry_space_group_name_H-M "C 2/M"
_symmetry_group_IT_number 12
_symmetry_cell_setting 'monoclinic'
loop_
_space_group_symop_operation_xyz
x,y,z
-x,y,-z
-x,-y,-z
x,-y,z
1/2+x,1/2+y,z
1/2-x,1/2+y,-z
1/2-x,1/2-y,-z
1/2+x,1/2-y,z
loop_
_atom_site_type_symbol
_atom_site_label
_atom_site_fract_x
_atom_site_fract_y
_atom_site_fract_z
Si Si1 0.970794 0.638713 0.147567
Si Si2 0.813391 0.651756 0.271860
Si Si3 0.360536 0.654131 0.061137
Si Si4 0.935217 0.275149 0.546771
Si Si5 0.176665 0.151293 0.309520
O O1 0.931106 0.500000 0.135617
O O2 0.027166 0.637551 0.308266
O O3 0.931508 0.775017 0.134578
O O4 0.000000 0.638451 0.000000
O O5 0.798314 0.500000 0.221552
O O6 0.814205 0.753447 0.136066
O O7 0.886169 0.657863 0.396250
O O8 0.754109 0.699213 0.346864
O O9 0.357933 0.500000 0.097943
O O10 0.346905 0.667252 0.876982
O O11 0.880832 0.199621 0.614353
O O12 0.000000 0.211761 0.500000
O O13 0.182949 0.000000 0.349329
#
# Coordination Sequence:
#
# PCOD9218392 Si02
#       5
#     8   8   8   8   8
#     4  11  23  42  67  97 132 177 227 276 332 393
#     4  11  24  45  70  98 137 175 221 279 334 398
#     4  11  23  42  69  99 133 175 224 275 331 396
#     4  12  24  41  67 100 134 173 225 274 333 396
#     4  10  24  45  67  96 137 181 221 274 336 394
#
# _framework density 21.923043
#
# number of rings (size 3 to 8) (size 9 to 14) (size 15 to 20)
#    0.000    1.000    4.000    2.400    0.000    3.200 
#    0.000    3.000    0.000    0.000    0.000    0.000 
#    0.000    0.000    0.000    0.000    0.000    0.000 
#
# Total GULP energy -111380.055884 kJ/mol
# GULP energy per Si atom -5569.002794 kJ/mol
# Density = 2.187315 g / cm^3
# Si number density = 21.923043 Si / 1000 Ang^3
#
#
#
# Elastic Constant Matrix: (Units=GPa)
#
#
# Indices 1 2 3 4 5 6 
#
# 1 169.9593 52.9240 43.6380 0.0000 -27.4514 0.0000
# 2 52.9240 113.9328 30.1618 0.0000 -24.9239 0.0000
# 3 43.6380 30.1618 80.0259 0.0000 -17.9676 0.0000
# 4 0.0000 0.0000 0.0000 -30.9398 0.0000 11.6290
# 5 -27.4514 -24.9239 -17.9676 0.0000 61.2430 0.0000
# 6 0.0000 0.0000 0.0000 11.6290 0.0000 21.1363
#
#
#
# Elastic Compliance Matrix: (Units=1/GPa)
#
#
# Indices 1 2 3 4 5 6 
#
# 1 0.007641 -0.002437 -0.002892 0.000000 0.001585 0.000000
# 2 -0.002437 0.011107 -0.002235 0.000000 0.002772 0.000000
# 3 -0.002892 -0.002235 0.015437 0.000000 0.002323 0.000000
# 4 0.000000 0.000000 0.000000 -0.026782 0.000000 0.014735
# 5 0.001585 0.002772 0.002323 0.000000 0.018848 0.000000
# 6 0.000000 0.000000 0.000000 0.014735 0.000000 0.039205
#
#
# Mechanical properties :
#
#
# Convention : Reuss Voigt Hill
#
# Bulk Modulus (GPa) = 52.47515 68.59618 60.53566
# Shear Modulus (GPa) = 57.51243 26.10082 41.80663
#
# Velocity S-wave (km/s) = 5.12745 3.45420 4.37163
# Velocity P-wave (km/s) = 7.68390 6.87504 7.29070
#
# Compressibility (1/GPa) = 0.01905664
#
# Stress axis : x y z
#
# Youngs Moduli (GPa) = 130.86841 90.03073 64.77907
#
# Poissons Ratio (x) = 0.21942 0.18737
# Poissons Ratio (y) = 0.31894 0.14478
# Poissons Ratio (z) = 0.37853 0.20122
#
# Static dielectric constant tensor:
#      x y z
#    x 1.883110 0.000000 -0.024440 
#    y 0.000000 1.772580 0.000000 
#    z -0.024440 0.000000 1.826150 
# 
# From -- ./inp_files/93006.got.cif
#   From: 2010.05.17/outbox.cif.g08.bks.cpg/sg12_47_cif.got.tgz:93006.got - 2010.06.03 13:09:07.
