data_PCOD9218575
_publ_section_title
;
Structure prediction by ZEFSAII (Michael W. Deem and Ramdas Pophale) SiO2 
 PCOD9218575
Probable space group: C 2/M
;
_chemical_formula_sum "Si O2"
_cell_formula_units_Z 64
_cell_length_a 13.593453
_cell_length_b 30.448424
_cell_length_c 10.951793
_cell_angle_alpha 90.000000
_cell_angle_beta 42.922806
_cell_angle_gamma 90.000000
_cell_volume 3086.987369
_symmetry_space_group_name_H-M "C 2/M"
_symmetry_group_IT_number 12
_symmetry_cell_setting 'monoclinic'
loop_
_space_group_symop_operation_xyz
x,y,z
-x,y,-z
-x,-y,-z
x,-y,z
1/2+x,1/2+y,z
1/2-x,1/2+y,-z
1/2-x,1/2-y,-z
1/2+x,1/2-y,z
loop_
_atom_site_type_symbol
_atom_site_label
_atom_site_fract_x
_atom_site_fract_y
_atom_site_fract_z
Si Si1 0.667227 0.372122 0.556155
Si Si2 0.171678 0.739945 0.324581
Si Si3 0.030479 0.051857 0.327543
Si Si4 0.099490 0.189014 0.209881
Si Si5 0.325553 0.140283 0.671922
Si Si6 0.043011 0.360113 0.820839
Si Si7 0.732752 0.896666 0.029574
Si Si8 0.550385 0.238450 0.813876
O O1 0.584893 0.418147 0.638036
O O2 0.549844 0.335930 0.620094
O O3 0.743653 0.362222 0.616485
O O4 0.793114 0.374274 0.343221
O O5 0.189989 0.782599 0.223562
O O6 0.201524 0.690176 0.255409
O O7 0.281173 0.748205 0.335757
O O8 0.000000 0.740635 0.500000
O O9 0.000000 0.061398 0.500000
O O10 0.013618 0.000000 0.326904
O O11 0.181803 0.067616 0.128679
O O12 0.045633 0.225905 0.165686
O O13 0.197072 0.149547 0.075034
O O14 0.500000 0.134905 0.500000
O O15 0.262575 0.105597 0.827245
O O16 0.032336 0.310453 0.778339
O O17 0.935079 0.392797 0.851553
O O18 0.000000 0.358577 0.000000
O O19 0.500000 0.238966 0.000000
#
# Coordination Sequence:
#
# PCOD9218575 Si02
#       8
#     8   8   8   8   8   8   8   8
#     4  11  23  41  67  93 129 171 218 265 330 385
#     4  11  23  36  54  81 124 176 227 269 311 354
#     4  10  24  48  76 102 127 156 203 268 331 398
#     4  11  23  35  56  86 121 173 225 269 310 364
#     4  11  22  40  61  93 134 180 219 263 316 382
#     4  11  22  36  59  90 126 171 219 268 316 374
#     4  11  23  40  66  93 130 171 213 266 331 385
#     4  11  22  34  50  80 120 165 219 267 307 354
#
# _framework density 20.732188000000001
#
# number of rings (size 3 to 8) (size 9 to 14) (size 15 to 20)
#    0.000    1.125    2.500    4.500    1.750    7.000 
#    0.000    1.875    0.000    3.000    0.000    0.000 
#    0.000    0.000    0.000    0.000    0.000    0.000 
#
# Total GULP energy -178769.738065 kJ/mol
# GULP energy per Si atom -5586.554315 kJ/mol
# Density = 2.068500 g / cm^3
# Si number density = 20.732188 Si / 1000 Ang^3
#
#
#
# Elastic Constant Matrix: (Units=GPa)
#
#
# Indices 1 2 3 4 5 6 
#
# 1 78.6319 22.0547 17.5863 0.0000 -1.2885 0.0000
# 2 22.0547 91.7888 24.1759 0.0000 1.6882 0.0000
# 3 17.5863 24.1759 93.3253 0.0000 -6.8450 0.0000
# 4 0.0000 0.0000 0.0000 16.8758 0.0000 7.0935
# 5 -1.2885 1.6882 -6.8450 0.0000 33.2069 0.0000
# 6 0.0000 0.0000 0.0000 7.0935 0.0000 8.3001
#
#
#
# Elastic Compliance Matrix: (Units=1/GPa)
#
#
# Indices 1 2 3 4 5 6 
#
# 1 0.013943 -0.002865 -0.001863 0.000000 0.000303 0.000000
# 2 -0.002865 0.012331 -0.002750 0.000000 -0.001305 0.000000
# 3 -0.001863 -0.002750 0.011965 0.000000 0.002534 0.000000
# 4 0.000000 0.000000 0.000000 0.092477 0.000000 -0.079033
# 5 0.000303 -0.001305 0.002534 0.000000 0.030715 0.000000
# 6 0.000000 0.000000 0.000000 -0.079033 0.000000 0.188024
#
#
# Mechanical properties :
#
#
# Convention : Reuss Voigt Hill
#
# Bulk Modulus (GPa) = 42.95143 43.48664 43.21904
# Shear Modulus (GPa) = 13.43466 25.00517 19.21992
#
# Velocity S-wave (km/s) = 2.54837 3.47667 3.04806
# Velocity P-wave (km/s) = 5.42413 6.09403 5.76881
#
# Compressibility (1/GPa) = 0.02328211
#
# Stress axis : x y z
#
# Youngs Moduli (GPa) = 71.72224 81.09409 83.58002
#
# Poissons Ratio (x) = 0.23233 0.15571
# Poissons Ratio (y) = 0.20548 0.22987
# Poissons Ratio (z) = 0.13362 0.22303
#
# Static dielectric constant tensor:
#      x y z
#    x 1.758990 0.000000 0.015980 
#    y 0.000000 1.693460 0.000000 
#    z 0.015980 0.000000 1.846630 
# 
# From -- ./inp_files/149730.got.cif
#   From: 2010.05.17/outbox.cif.g08.bks.cpg/sg12_75_cif.got.tgz:149730.got - 2010.06.03 13:09:07.
