data_PCOD9218838
_publ_section_title
;
Structure prediction by ZEFSAII (Michael W. Deem and Ramdas Pophale) SiO2 
 PCOD9218838
Probable space group: C 2/M
;
_chemical_formula_sum "Si O2"
_cell_formula_units_Z 36
_cell_length_a 18.775605
_cell_length_b 18.273288
_cell_length_c 7.691315
_cell_angle_alpha 90.000000
_cell_angle_beta 30.371878
_cell_angle_gamma 90.000000
_cell_volume 1334.219255
_symmetry_space_group_name_H-M "C 2/M"
_symmetry_group_IT_number 12
_symmetry_cell_setting 'monoclinic'
loop_
_space_group_symop_operation_xyz
x,y,z
-x,y,-z
-x,-y,-z
x,-y,z
1/2+x,1/2+y,z
1/2-x,1/2+y,-z
1/2-x,1/2-y,-z
1/2+x,1/2-y,z
loop_
_atom_site_type_symbol
_atom_site_label
_atom_site_fract_x
_atom_site_fract_y
_atom_site_fract_z
Si Si1 0.228389 0.870207 0.787989
Si Si2 0.283312 0.669996 0.806088
Si Si3 0.483836 0.500000 0.747765
Si Si4 0.747432 0.000000 0.813226
Si Si5 0.059370 0.250087 0.053261
Si Si6 0.554283 0.000000 0.691839
O O1 0.229172 0.819963 0.959698
O O2 0.360122 0.924595 0.511096
O O3 0.177968 0.810951 0.753734
O O4 0.104081 0.928064 0.039155
O O5 0.283742 0.580588 0.809713
O O6 0.427078 0.708271 0.428895
O O7 0.142896 0.691580 0.994718
O O8 0.500000 0.500000 0.500000
O O9 0.618152 0.500000 0.597524
O O10 0.584128 0.000000 0.131188
O O11 0.000000 0.282930 0.000000
O O12 0.500000 0.000000 0.000000
#
# Coordination Sequence:
#
# PCOD9218838 Si02
#       6
#     8   8   4   4   8   4
#     4  11  24  48  81 114 159 215 268 332 407 491
#     4  12  27  51  81 119 161 217 280 334 406 492
#     4  11  17  43  74 109 146 197 263 321 388 483
#     4  12  25  47  84 108 161 202 273 330 408 477
#     4  12  28  49  80 117 171 219 271 341 411 482
#     4  11  30  48  80 130 168 203 272 349 416 481
#
# _framework density 26.982071999999999
#
# number of rings (size 3 to 8) (size 9 to 14) (size 15 to 20)
#    0.000    0.444    4.444    2.667    6.222    2.667 
#    0.000    2.778    0.000    0.000    0.000    0.000 
#    0.000    0.000    0.000    0.000    0.000    0.000 
#
# Total GULP energy -100455.784687 kJ/mol
# GULP energy per Si atom -5580.876927 kJ/mol
# Density = 2.692066 g / cm^3
# Si number density = 26.982072 Si / 1000 Ang^3
#
#
#
# Elastic Constant Matrix: (Units=GPa)
#
#
# Indices 1 2 3 4 5 6 
#
# 1 110.3123 54.7272 54.6436 -0.0002 -24.4749 0.0001
# 2 54.7272 130.1109 46.3722 -0.0002 -15.3036 0.0001
# 3 54.6436 46.3722 148.2739 -0.0004 -36.1851 0.0001
# 4 -0.0002 -0.0002 -0.0004 55.8634 0.0002 -14.5371
# 5 -24.4749 -15.3036 -36.1851 0.0002 55.6567 -0.0001
# 6 0.0001 0.0001 0.0001 -14.5371 -0.0001 46.1591
#
#
#
# Elastic Compliance Matrix: (Units=1/GPa)
#
#
# Indices 1 2 3 4 5 6 
#
# 1 0.013185 -0.004197 -0.002868 0.000000 0.002779 0.000000
# 2 -0.004197 0.010011 -0.001620 0.000000 -0.000146 0.000000
# 3 -0.002868 -0.001620 0.009380 0.000000 0.004391 0.000000
# 4 0.000000 0.000000 0.000000 0.019499 0.000000 0.006141
# 5 0.002779 -0.000146 0.004391 0.000000 0.022004 0.000000
# 6 0.000000 0.000000 0.000000 0.006141 0.000000 0.023598
#
#
# Mechanical properties :
#
#
# Convention : Reuss Voigt Hill
#
# Bulk Modulus (GPa) = 65.76457 77.79813 71.78135
# Shear Modulus (GPa) = 41.62689 47.06613 44.34651
#
# Velocity S-wave (km/s) = 3.93206 4.18107 4.05848
# Velocity P-wave (km/s) = 6.71127 7.22526 6.97300
#
# Compressibility (1/GPa) = 0.01520576
#
# Stress axis : x y z
#
# Youngs Moduli (GPa) = 75.84657 99.88915 106.61385
#
# Poissons Ratio (x) = 0.41919 0.30579
# Poissons Ratio (y) = 0.31829 0.17271
# Poissons Ratio (z) = 0.21754 0.16182
#
# Static dielectric constant tensor:
#      x y z
#    x 2.112740 0.000000 -0.000130 
#    y 0.000000 2.246950 0.000000 
#    z -0.000130 0.000000 2.331760 
# 
# From -- ./inp_files/88344.got.cif
#   From: 2010.05.17/outbox.cif.g08.bks.cpg/sg12_45_cif.got.tgz:88344.got - 2010.06.03 13:09:07.
