data_PCOD9218659
_publ_section_title
;
Structure prediction by ZEFSAII (Michael W. Deem and Ramdas Pophale) SiO2 
 PCOD9218659
Probable space group: C 2/M
;
_chemical_formula_sum "Si O2"
_cell_formula_units_Z 40
_cell_length_a 9.162939
_cell_length_b 18.484857
_cell_length_c 18.595101
_cell_angle_alpha 90.000000
_cell_angle_beta 143.295030
_cell_angle_gamma 90.000000
_cell_volume 1882.473329
_symmetry_space_group_name_H-M "C 2/M"
_symmetry_group_IT_number 12
_symmetry_cell_setting 'monoclinic'
loop_
_space_group_symop_operation_xyz
x,y,z
-x,y,-z
-x,-y,-z
x,-y,z
1/2+x,1/2+y,z
1/2-x,1/2+y,-z
1/2-x,1/2-y,-z
1/2+x,1/2-y,z
loop_
_atom_site_type_symbol
_atom_site_label
_atom_site_fract_x
_atom_site_fract_y
_atom_site_fract_z
Si Si1 0.906683 0.121780 0.647140
Si Si2 0.774527 0.275336 0.752146
Si Si3 0.000000 0.263117 0.500000
Si Si4 0.229941 0.500000 0.686037
Si Si5 0.732789 0.161706 0.858334
Si Si6 0.148376 0.000000 0.485875
Si Si7 0.227142 0.000000 0.142460
O O1 0.712854 0.184544 0.556355
O O2 0.799432 0.070239 0.666991
O O3 0.931293 0.070176 0.589308
O O4 0.160790 0.162850 0.758658
O O5 0.619817 0.275602 0.616198
O O6 0.747654 0.200974 0.786240
O O7 0.045592 0.294612 0.834488
O O8 0.374713 0.500000 0.816980
O O9 0.945191 0.500000 0.597457
O O10 0.644458 0.077970 0.816684
O O11 0.000000 0.162338 0.000000
O O12 0.000000 0.000000 0.500000
O O13 0.000000 0.000000 0.000000
#
# Coordination Sequence:
#
# PCOD9218659 Si02
#       7
#     8   8   4   4   8   4   4
#     4  11  23  41  63 102 137 181 226 270 346 416
#     4  12  26  41  72 103 137 180 226 289 342 417
#     4  12  22  41  64  99 142 172 222 274 354 401
#     4  11  22  44  68  88 146 183 220 278 342 409
#     4  11  26  48  71  98 136 181 235 285 343 405
#     4  11  25  36  65  97 140 185 223 274 336 420
#     4  10  25  44  72  96 127 174 229 282 339 397
#
# _framework density 21.248640000000002
#
# number of rings (size 3 to 8) (size 9 to 14) (size 15 to 20)
#    0.000    0.800    4.000    3.000    4.200    0.800 
#    0.000    0.000    0.000    2.400    0.000    0.000 
#    0.000    0.000    0.000    0.000    0.000    0.000 
#
# Total GULP energy -111701.162075 kJ/mol
# GULP energy per Si atom -5585.058104 kJ/mol
# Density = 2.120028 g / cm^3
# Si number density = 21.248640 Si / 1000 Ang^3
#
#
#
# Elastic Constant Matrix: (Units=GPa)
#
#
# Indices 1 2 3 4 5 6 
#
# 1 121.4614 59.2863 26.6760 -0.0004 8.6817 -0.0005
# 2 59.2863 119.5088 24.7885 0.0004 1.6590 0.0001
# 3 26.6760 24.7885 72.4956 0.0015 -6.6917 -0.0001
# 4 -0.0004 0.0004 0.0015 30.1383 0.0008 4.8873
# 5 8.6817 1.6590 -6.6917 0.0008 33.0008 -0.0002
# 6 -0.0005 0.0001 -0.0001 4.8873 -0.0002 18.3849
#
#
#
# Elastic Compliance Matrix: (Units=1/GPa)
#
#
# Indices 1 2 3 4 5 6 
#
# 1 0.011592 -0.005118 -0.002826 0.000000 -0.003365 0.000000
# 2 -0.005118 0.011305 -0.001947 0.000000 0.000383 0.000000
# 3 -0.002826 -0.001947 0.015874 -0.000001 0.004060 0.000000
# 4 0.000000 0.000000 -0.000001 0.034675 -0.000001 -0.009218
# 5 -0.003365 0.000383 0.004060 -0.000001 0.031992 0.000001
# 6 0.000000 0.000000 0.000000 -0.009218 0.000001 0.056843
#
#
# Mechanical properties :
#
#
# Convention : Reuss Voigt Hill
#
# Bulk Modulus (GPa) = 52.66043 59.44084 56.05064
# Shear Modulus (GPa) = 26.54016 29.81913 28.17964
#
# Velocity S-wave (km/s) = 3.53799 3.75019 3.64563
# Velocity P-wave (km/s) = 6.44412 6.84007 6.64504
#
# Compressibility (1/GPa) = 0.01898959
#
# Stress axis : x y z
#
# Youngs Moduli (GPa) = 86.26322 88.45655 62.99432
#
# Poissons Ratio (x) = 0.45271 0.17804
# Poissons Ratio (y) = 0.44148 0.12265
# Poissons Ratio (z) = 0.24381 0.17222
#
# Static dielectric constant tensor:
#      x y z
#    x 1.830000 0.000000 -0.107280 
#    y 0.000000 1.851630 -0.000010 
#    z -0.107280 -0.000010 2.145380 
# 
# From -- ./inp_files/258361.got.cif
#   From: 2010.05.17/outbox.cif.g08.bks.cpg/sg12_130_cif.got.tgz:258361.got - 2010.06.03 13:09:07.
