data_PCOD9218588
_publ_section_title
;
Structure prediction by ZEFSAII (Michael W. Deem and Ramdas Pophale) SiO2 
 PCOD9218588
Probable space group: C 2/M
;
_chemical_formula_sum "Si O2"
_cell_formula_units_Z 42
_cell_length_a 20.019051
_cell_length_b 25.164453
_cell_length_c 5.028845
_cell_angle_alpha 90.000000
_cell_angle_beta 126.271097
_cell_angle_gamma 90.000000
_cell_volume 2042.473700
_symmetry_space_group_name_H-M "C 2/M"
_symmetry_group_IT_number 12
_symmetry_cell_setting 'monoclinic'
loop_
_space_group_symop_operation_xyz
x,y,z
-x,y,-z
-x,-y,-z
x,-y,z
1/2+x,1/2+y,z
1/2-x,1/2+y,-z
1/2-x,1/2-y,-z
1/2+x,1/2-y,z
loop_
_atom_site_type_symbol
_atom_site_label
_atom_site_fract_x
_atom_site_fract_y
_atom_site_fract_z
Si Si1 0.412274 0.334048 0.923770
Si Si2 0.660580 0.222789 0.294935
Si Si3 0.000000 0.500000 0.000000
Si Si4 0.000000 0.577599 0.500000
Si Si5 0.340970 0.851990 0.208520
Si Si6 0.562695 0.500000 0.402135
Si Si7 0.159635 0.109801 0.730791
O O1 0.402672 0.270612 0.918284
O O2 0.348010 0.355305 0.553411
O O3 0.500000 0.348443 0.000000
O O4 0.393652 0.362806 0.158398
O O5 0.750000 0.250000 0.500000
O O6 0.650607 0.193927 0.551750
O O7 0.658850 0.177954 0.070214
O O8 0.018549 0.544828 0.811212
O O9 0.920055 0.611069 0.391979
O O10 0.255689 0.885440 0.043864
O O11 0.500000 0.500000 0.500000
O O12 0.621244 0.552238 0.567470
O O13 0.500000 0.500000 0.000000
#
# Coordination Sequence:
#
# PCOD9218588 Si02
#       7
#     8   8   2   4   8   4   8
#     4  12  25  40  67  97 135 182 223 272 334 413
#     4  12  23  43  64  99 142 179 227 273 344 403
#     4  10  24  50  70  98 132 182 218 294 356 386
#     4  11  26  46  76 100 142 176 240 291 340 416
#     4  12  25  43  68 103 135 181 224 282 342 405
#     4  12  26  44  69  95 126 167 220 282 330 393
#     4  12  24  45  65  95 135 175 223 281 341 400
#
# _framework density 20.563300999999999
#
# number of rings (size 3 to 8) (size 9 to 14) (size 15 to 20)
#    0.000    0.190    3.810    6.286    2.667    1.524 
#    0.000    1.905    0.000    0.000    0.000    0.000 
#    0.000    0.000    0.000    0.000    0.000    0.000 
#
# Total GULP energy -117136.892792 kJ/mol
# GULP energy per Si atom -5577.947276 kJ/mol
# Density = 2.051650 g / cm^3
# Si number density = 20.563301 Si / 1000 Ang^3
#
#
#
# Elastic Constant Matrix: (Units=GPa)
#
#
# Indices 1 2 3 4 5 6 
#
# 1 724.1835 766.5731 384.9809 0.0000 -397.4400 0.0000
# 2 766.5731 923.1166 432.1864 0.0000 -424.2906 0.0000
# 3 384.9809 432.1864 263.8321 0.0000 -223.5430 0.0000
# 4 0.0000 0.0000 0.0000 18.5733 0.0000 -30.2909
# 5 -397.4400 -424.2906 -223.5430 0.0000 294.9059 0.0000
# 6 0.0000 0.0000 0.0000 -30.2909 0.0000 41.5672
#
#
#
# Elastic Compliance Matrix: (Units=1/GPa)
#
#
# Indices 1 2 3 4 5 6 
#
# 1 0.015808 -0.008346 -0.004244 0.000000 0.006080 0.000000
# 2 -0.008346 0.009866 -0.004155 0.000000 -0.000203 0.000000
# 3 -0.004244 -0.004155 0.019228 0.000000 0.002876 0.000000
# 4 0.000000 0.000000 0.000000 -0.285689 0.000000 -0.208188
# 5 0.006080 -0.000203 0.002876 0.000000 0.013473 0.000000
# 6 0.000000 0.000000 0.000000 -0.208188 0.000000 -0.127653
#
#
# Mechanical properties :
#
#
# Convention : Reuss Voigt Hill
#
# Bulk Modulus (GPa) = 87.63723 564.29033 325.96378
# Shear Modulus (GPa) = -15.73953 92.83539 38.54793
#
# Velocity S-wave (km/s) = -2.76962 6.72638 4.33436
# Velocity P-wave (km/s) = 5.69939 18.31222 13.56135
#
# Compressibility (1/GPa) = 0.01141068
#
# Stress axis : x y z
#
# Youngs Moduli (GPa) = 63.25796 101.35548 52.00770
#
# Poissons Ratio (x) = 0.84591 0.22075
# Poissons Ratio (y) = 0.52795 0.21612
# Poissons Ratio (z) = 0.26850 0.42118
#
# Static dielectric constant tensor:
#      x y z
#    x 1.694550 0.000000 0.031730 
#    y 0.000000 1.730680 0.000000 
#    z 0.031730 0.000000 1.771940 
# 
# From -- ./inp_files/21771.got.cif
#   From: 2010.05.17/outbox.cif.g08.bks.cpg/sg12_11_cif.got.tgz:21771.got - 2010.06.03 13:09:07.
