data_PCOD9218145
_publ_section_title
;
Structure prediction by ZEFSAII (Michael W. Deem and Ramdas Pophale) SiO2 
 PCOD9218145
Probable space group: C 2/M
;
_chemical_formula_sum "Si O2"
_cell_formula_units_Z 28
_cell_length_a 16.457779
_cell_length_b 13.732027
_cell_length_c 4.927491
_cell_angle_alpha 90.000000
_cell_angle_beta 91.048671
_cell_angle_gamma 90.000000
_cell_volume 1113.419872
_symmetry_space_group_name_H-M "C 2/M"
_symmetry_group_IT_number 12
_symmetry_cell_setting 'monoclinic'
loop_
_space_group_symop_operation_xyz
x,y,z
-x,y,-z
-x,-y,-z
x,-y,z
1/2+x,1/2+y,z
1/2-x,1/2+y,-z
1/2-x,1/2-y,-z
1/2+x,1/2-y,z
loop_
_atom_site_type_symbol
_atom_site_label
_atom_site_fract_x
_atom_site_fract_y
_atom_site_fract_z
Si Si1 0.134588 0.613078 0.562216
Si Si2 0.060745 0.000000 0.756028
Si Si3 0.088617 0.733173 0.083207
Si Si4 0.678607 0.607967 0.442871
O O1 0.120596 0.500000 0.627101
O O2 0.079077 0.649432 0.312721
O O3 0.228568 0.624238 0.472293
O O4 0.125748 0.681483 0.822795
O O5 0.000000 0.000000 0.500000
O O6 0.120443 0.908475 0.700132
O O7 0.000000 0.000000 0.000000
O O8 0.142658 0.812360 0.242384
O O9 0.000000 0.772054 0.000000
O O10 0.676347 0.500000 0.306809
#
# Coordination Sequence:
#
# PCOD9218145 Si02
#       4
#     8   4   8   8
#     4  11  25  48  76 106 147 204 261 313 372 446
#     4  10  24  42  70 110 149 186 235 300 382 454
#     4  12  26  45  74 110 151 202 255 313 378 446
#     4   9  24  49  73 110 153 198 246 311 384 464
#
# _framework density 25.147748
#
# number of rings (size 3 to 8) (size 9 to 14) (size 15 to 20)
#    0.857    0.571    0.000    3.429    0.000   12.000 
#    0.000    0.000    0.000    0.000    0.000    0.000 
#    0.000    0.000    0.000    0.000    0.000    0.000 
#
# Total GULP energy -78448.665443 kJ/mol
# GULP energy per Si atom -5603.476103 kJ/mol
# Density = 2.509051 g / cm^3
# Si number density = 25.147748 Si / 1000 Ang^3
#
#
#
# Elastic Constant Matrix: (Units=GPa)
#
#
# Indices 1 2 3 4 5 6 
#
# 1 101.7458 13.1427 33.3490 0.0000 -20.4992 0.0000
# 2 13.1427 130.3348 25.4543 0.0000 1.8510 0.0000
# 3 33.3490 25.4543 117.6786 0.0000 -28.5487 0.0000
# 4 0.0000 0.0000 0.0000 33.3582 0.0000 -6.3776
# 5 -20.4992 1.8510 -28.5487 0.0000 52.6693 0.0000
# 6 0.0000 0.0000 0.0000 -6.3776 0.0000 30.7087
#
#
#
# Elastic Compliance Matrix: (Units=1/GPa)
#
#
# Indices 1 2 3 4 5 6 
#
# 1 0.011313 -0.000743 -0.002269 0.000000 0.003199 0.000000
# 2 -0.000743 0.008151 -0.001948 0.000000 -0.001632 0.000000
# 3 -0.002269 -0.001948 0.010782 0.000000 0.005030 0.000000
# 4 0.000000 0.000000 0.000000 0.031217 0.000000 0.006483
# 5 0.003199 -0.001632 0.005030 0.000000 0.023015 0.000000
# 6 0.000000 0.000000 0.000000 0.006483 0.000000 0.033910
#
#
# Mechanical properties :
#
#
# Convention : Reuss Voigt Hill
#
# Bulk Modulus (GPa) = 49.19998 54.85014 52.02506
# Shear Modulus (GPa) = 37.01369 41.86814 39.44091
#
# Velocity S-wave (km/s) = 3.84063 4.08473 3.96456
# Velocity P-wave (km/s) = 6.26690 6.64117 6.45675
#
# Compressibility (1/GPa) = 0.02032521
#
# Stress axis : x y z
#
# Youngs Moduli (GPa) = 88.39641 122.68176 92.74348
#
# Poissons Ratio (x) = 0.09116 0.21044
# Poissons Ratio (y) = 0.06568 0.18070
# Poissons Ratio (z) = 0.20058 0.23904
#
# Static dielectric constant tensor:
#      x y z
#    x 1.996920 0.000000 -0.021660 
#    y 0.000000 2.111390 0.000000 
#    z -0.021660 0.000000 1.939360 
# 
# From -- ./inp_files/30514.got.cif
#   From: 2010.05.17/outbox.cif.g08.bks.cpg/sg12_16_cif.got.tgz:30514.got - 2010.06.03 13:09:07.
