data_PCOD9218398
_publ_section_title
;
Structure prediction by ZEFSAII (Michael W. Deem and Ramdas Pophale) SiO2 
 PCOD9218398
Probable space group: C 2/M
;
_chemical_formula_sum "Si O2"
_cell_formula_units_Z 44
_cell_length_a 10.666754
_cell_length_b 22.893331
_cell_length_c 16.128760
_cell_angle_alpha 90.000000
_cell_angle_beta 144.306346
_cell_angle_gamma 90.000000
_cell_volume 2297.983100
_symmetry_space_group_name_H-M "C 2/M"
_symmetry_group_IT_number 12
_symmetry_cell_setting 'monoclinic'
loop_
_space_group_symop_operation_xyz
x,y,z
-x,y,-z
-x,-y,-z
x,-y,z
1/2+x,1/2+y,z
1/2-x,1/2+y,-z
1/2-x,1/2-y,-z
1/2+x,1/2-y,z
loop_
_atom_site_type_symbol
_atom_site_label
_atom_site_fract_x
_atom_site_fract_y
_atom_site_fract_z
Si Si1 0.158162 0.625510 0.432642
Si Si2 0.893645 0.726043 0.330311
Si Si3 0.729272 0.221327 0.081778
Si Si4 0.500000 0.333191 0.500000
Si Si5 0.688989 0.568546 0.161538
Si Si6 0.608464 0.631942 0.278149
O O1 0.313981 0.627742 0.438698
O O2 0.281139 0.604753 0.581054
O O3 0.115915 0.692772 0.436822
O O4 0.928108 0.596913 0.288691
O O5 0.807168 0.731406 0.191000
O O6 0.754240 0.683272 0.313671
O O7 0.910018 0.788706 0.381938
O O8 0.884847 0.165294 0.171054
O O9 0.500000 0.205532 0.000000
O O10 0.750000 0.250000 0.000000
O O11 0.713370 0.500000 0.158243
O O12 0.600511 0.582002 0.205277
O O13 0.500000 0.592407 0.000000
#
# Coordination Sequence:
#
# PCOD9218398 Si02
#       6
#     8   8   8   4   8   8
#     4  11  23  36  62  91 121 162 208 250 306 368
#     4  11  20  34  56  83 129 168 207 238 292 359
#     4  12  25  35  53  89 136 178 206 245 298 365
#     4  12  20  34  55  92 129 168 194 244 296 370
#     4  10  24  45  68  88 112 149 205 269 320 365
#     4  11  22  38  60  93 120 165 208 250 301 364
#
# _framework density 19.147224999999999
#
# number of rings (size 3 to 8) (size 9 to 14) (size 15 to 20)
#    0.000    0.909    5.455    3.273    5.091    1.455 
#    0.000    0.455    0.000    0.545    0.000    0.000 
#    0.000    0.000    0.000    0.000    0.000    0.000 
#
# Total GULP energy -122603.503551 kJ/mol
# GULP energy per Si atom -5572.886525 kJ/mol
# Density = 1.910364 g / cm^3
# Si number density = 19.147225 Si / 1000 Ang^3
#
#
#
# Elastic Constant Matrix: (Units=GPa)
#
#
# Indices 1 2 3 4 5 6 
#
# 1 138.7368 16.7522 68.8455 0.0000 3.2180 0.0002
# 2 16.7522 27.6231 20.6874 0.0001 -8.0559 0.0000
# 3 68.8455 20.6874 119.5214 -0.0006 -23.5381 -0.0005
# 4 0.0000 0.0001 -0.0006 25.6106 -0.0003 2.6054
# 5 3.2180 -8.0559 -23.5381 -0.0003 23.4091 0.0000
# 6 0.0002 0.0000 -0.0005 2.6054 0.0000 8.5472
#
#
#
# Elastic Compliance Matrix: (Units=1/GPa)
#
#
# Indices 1 2 3 4 5 6 
#
# 1 0.012338 -0.004464 -0.008692 0.000000 -0.011972 -0.000001
# 2 -0.004464 0.044723 -0.002516 0.000000 0.013475 0.000000
# 3 -0.008692 -0.002516 0.017299 0.000001 0.017723 0.000001
# 4 0.000000 0.000000 0.000001 0.040296 0.000001 -0.012283
# 5 -0.011972 0.013475 0.017723 0.000001 0.066822 0.000001
# 6 -0.000001 0.000000 0.000001 -0.012283 0.000001 0.120742
#
#
# Mechanical properties :
#
#
# Convention : Reuss Voigt Hill
#
# Bulk Modulus (GPa) = 23.24710 55.38353 39.31532
# Shear Modulus (GPa) = 14.37190 23.48645 18.92918
#
# Velocity S-wave (km/s) = 2.74268 3.50612 3.14763
# Velocity P-wave (km/s) = 4.71140 6.73635 5.81273
#
# Compressibility (1/GPa) = 0.04301612
#
# Stress axis : x y z
#
# Youngs Moduli (GPa) = 81.05243 22.35998 57.80704
#
# Poissons Ratio (x) = 0.09982 0.50244
# Poissons Ratio (y) = 0.36185 0.14542
# Poissons Ratio (z) = 0.70448 0.05625
#
# Static dielectric constant tensor:
#      x y z
#    x 1.691270 0.000000 0.007420 
#    y 0.000000 1.692250 0.000000 
#    z 0.007420 0.000000 1.789010 
# 
# From -- ./inp_files/265598.got.cif
#   From: 2010.05.17/outbox.cif.g08.bks.cpg/sg12_133_cif.got.tgz:265598.got - 2010.06.03 13:09:07.
