data_PCOD9218042
_publ_section_title
;
Structure prediction by ZEFSAII (Michael W. Deem and Ramdas Pophale) SiO2 
 PCOD9218042
Probable space group: C 2/M
;
_chemical_formula_sum "Si O2"
_cell_formula_units_Z 64
_cell_length_a 15.051130
_cell_length_b 30.935172
_cell_length_c 9.136277
_cell_angle_alpha 90.000000
_cell_angle_beta 49.202883
_cell_angle_gamma 90.000000
_cell_volume 3220.347997
_symmetry_space_group_name_H-M "C 2/M"
_symmetry_group_IT_number 12
_symmetry_cell_setting 'monoclinic'
loop_
_space_group_symop_operation_xyz
x,y,z
-x,y,-z
-x,-y,-z
x,-y,z
1/2+x,1/2+y,z
1/2-x,1/2+y,-z
1/2-x,1/2-y,-z
1/2+x,1/2-y,z
loop_
_atom_site_type_symbol
_atom_site_label
_atom_site_fract_x
_atom_site_fract_y
_atom_site_fract_z
Si Si1 0.007056 0.288423 0.659567
Si Si2 0.154885 0.950472 0.388541
Si Si3 0.725491 0.846870 0.486179
Si Si4 0.766414 0.677461 0.059625
Si Si5 0.620092 0.635835 0.952714
Si Si6 0.363861 0.100688 0.162838
Si Si7 0.399663 0.695912 0.518155
Si Si8 0.036665 0.947626 0.205593
O O1 0.123723 0.310603 0.596939
O O2 0.037028 0.237733 0.616085
O O3 0.000000 0.304480 0.500000
O O4 0.884395 0.300141 0.869779
O O5 0.290885 0.942445 0.224231
O O6 0.100494 0.937741 0.291520
O O7 0.095292 0.933376 0.602543
O O8 0.125586 0.000000 0.432571
O O9 0.774871 0.860359 0.277079
O O10 0.665981 0.884429 0.641907
O O11 0.835327 0.829960 0.462195
O O12 0.810623 0.635969 0.106584
O O13 0.698829 0.706691 0.252885
O O14 0.673057 0.662291 0.035615
O O15 0.500000 0.651963 0.000000
O O16 0.589900 0.586517 0.034326
O O17 0.500000 0.097213 0.000000
O O18 0.500000 0.670375 0.500000
O O19 0.046319 0.000000 0.159373
#
# Coordination Sequence:
#
# PCOD9218042 Si02
#       8
#     8   8   8   8   8   8   8   8
#     4  11  22  42  65  85 118 162 205 252 313 364
#     4   9  18  35  61  92 124 158 203 250 295 355
#     4  11  23  40  59  93 122 155 206 259 301 364
#     4  11  23  42  64  88 120 164 208 249 307 372
#     4  12  23  38  63  94 128 161 197 255 311 364
#     4  11  21  37  64  89 118 162 209 248 296 363
#     4  10  24  41  63  86 119 158 204 259 308 364
#     4   9  19  37  62  93 126 164 200 243 305 364
#
# _framework density 19.873629000000001
#
# number of rings (size 3 to 8) (size 9 to 14) (size 15 to 20)
#    0.000    1.500    3.750    2.625    0.000    3.500 
#    2.250    0.625    0.000    0.000    0.000    2.625 
#    0.000    0.000    0.000    0.000    0.000    0.000 
#
# Total GULP energy -178315.897438 kJ/mol
# GULP energy per Si atom -5572.371795 kJ/mol
# Density = 1.982840 g / cm^3
# Si number density = 19.873629 Si / 1000 Ang^3
#
#
#
# Elastic Constant Matrix: (Units=GPa)
#
#
# Indices 1 2 3 4 5 6 
#
# 1 75.6863 18.8594 17.9465 0.0000 -16.4298 0.0000
# 2 18.8594 58.2229 39.5092 0.0000 -9.5579 0.0000
# 3 17.9465 39.5092 135.8571 0.0000 -7.2996 0.0000
# 4 0.0000 0.0000 0.0000 27.5761 0.0000 -4.9868
# 5 -16.4298 -9.5579 -7.2996 0.0000 35.5160 0.0000
# 6 0.0000 0.0000 0.0000 -4.9868 0.0000 21.3868
#
#
#
# Elastic Compliance Matrix: (Units=1/GPa)
#
#
# Indices 1 2 3 4 5 6 
#
# 1 0.015594 -0.003580 -0.000691 0.000000 0.006109 0.000000
# 2 -0.003580 0.022966 -0.006029 0.000000 0.003285 0.000000
# 3 -0.000691 -0.006029 0.009203 0.000000 -0.000051 0.000000
# 4 0.000000 0.000000 0.000000 0.037860 0.000000 0.008828
# 5 0.006109 0.003285 -0.000051 0.000000 0.031856 0.000000
# 6 0.000000 0.000000 0.000000 0.008828 0.000000 0.048816
#
#
# Mechanical properties :
#
#
# Convention : Reuss Voigt Hill
#
# Bulk Modulus (GPa) = 36.81491 46.93295 41.87393
# Shear Modulus (GPa) = 25.51696 29.79253 27.65475
#
# Velocity S-wave (km/s) = 3.58713 3.87602 3.73437
# Velocity P-wave (km/s) = 5.97674 6.61047 6.30157
#
# Compressibility (1/GPa) = 0.02716291
#
# Stress axis : x y z
#
# Youngs Moduli (GPa) = 64.12616 43.54335 108.66477
#
# Poissons Ratio (x) = 0.15587 0.07506
# Poissons Ratio (y) = 0.22955 0.65518
# Poissons Ratio (z) = 0.04429 0.26254
#
# Static dielectric constant tensor:
#      x y z
#    x 1.784710 0.000000 -0.011850 
#    y 0.000000 1.713340 0.000000 
#    z -0.011850 0.000000 1.740480 
# 
# From -- ./inp_files/68593.got.cif
#   From: 2010.05.17/outbox.cif.g08.bks.cpg/sg12_35_cif.got.tgz:68593.got - 2010.06.03 13:09:07.
