data_PCOD9218713
_publ_section_title
;
Structure prediction by ZEFSAII (Michael W. Deem and Ramdas Pophale) SiO2 
 PCOD9218713
Probable space group: C 2/M
;
_chemical_formula_sum "Si O2"
_cell_formula_units_Z 42
_cell_length_a 12.110252
_cell_length_b 26.702391
_cell_length_c 5.445162
_cell_angle_alpha 90.000000
_cell_angle_beta 74.237665
_cell_angle_gamma 90.000000
_cell_volume 1694.604269
_symmetry_space_group_name_H-M "C 2/M"
_symmetry_group_IT_number 12
_symmetry_cell_setting 'monoclinic'
loop_
_space_group_symop_operation_xyz
x,y,z
-x,y,-z
-x,-y,-z
x,-y,z
1/2+x,1/2+y,z
1/2-x,1/2+y,-z
1/2-x,1/2-y,-z
1/2+x,1/2-y,z
loop_
_atom_site_type_symbol
_atom_site_label
_atom_site_fract_x
_atom_site_fract_y
_atom_site_fract_z
Si Si1 0.067127 0.920981 0.707267
Si Si2 0.500000 0.000000 0.500000
Si Si3 0.623010 0.226557 0.309967
Si Si4 0.187740 0.172611 0.473620
Si Si5 0.370042 0.138631 0.016725
Si Si6 0.321572 0.055463 0.651470
O O1 0.094982 0.861556 0.665440
O O2 0.191489 0.946396 0.649116
O O3 0.000000 0.935490 0.500000
O O4 0.000000 0.931054 0.000000
O O5 0.423379 0.046231 0.400471
O O6 0.500000 0.211950 0.500000
O O7 0.728673 0.202487 0.395085
O O8 0.633671 0.286095 0.325409
O O9 0.630660 0.198337 0.048145
O O10 0.271355 0.134561 0.278756
O O11 0.335141 0.103335 0.812100
O O12 0.500000 0.128271 0.000000
O O13 0.357277 0.000000 0.756264
#
# Coordination Sequence:
#
# PCOD9218713 Si02
#       6
#     8   2   8   8   8   8
#     4  12  27  51  80 114 157 211 257 318 387 474
#     4   8  24  48  74 108 152 194 244 348 380 466
#     4  11  23  43  65 105 147 195 256 315 387 455
#     4  11  25  44  69 102 149 203 251 317 378 468
#     4  12  24  42  75 107 151 199 259 324 399 465
#     4  10  25  47  76 110 151 191 258 322 394 459
#
# _framework density 24.784544
#
# number of rings (size 3 to 8) (size 9 to 14) (size 15 to 20)
#    0.571    0.381    3.810    2.286    4.000    1.143 
#    6.857    2.857    0.000    0.000    0.000    0.000 
#    0.000    0.000    0.000    0.000    0.000    0.000 
#
# Total GULP energy -117096.556267 kJ/mol
# GULP energy per Si atom -5576.026489 kJ/mol
# Density = 2.472813 g / cm^3
# Si number density = 24.784544 Si / 1000 Ang^3
#
#
#
# Elastic Constant Matrix: (Units=GPa)
#
#
# Indices 1 2 3 4 5 6 
#
# 1 181.7450 36.3303 51.2501 0.0000 -0.4089 0.0000
# 2 36.3303 122.1696 17.2841 0.0000 3.2083 0.0000
# 3 51.2501 17.2841 100.6352 0.0000 -13.5387 0.0000
# 4 0.0000 0.0000 0.0000 -12.3817 0.0000 9.5313
# 5 -0.4089 3.2083 -13.5387 0.0000 31.1463 0.0000
# 6 0.0000 0.0000 0.0000 9.5313 0.0000 -1.9912
#
#
#
# Elastic Compliance Matrix: (Units=1/GPa)
#
#
# Indices 1 2 3 4 5 6 
#
# 1 0.006741 -0.001501 -0.003338 0.000000 -0.001208 0.000000
# 2 -0.001501 0.008797 -0.000925 0.000000 -0.001328 0.000000
# 3 -0.003338 -0.000925 0.012535 0.000000 0.005500 0.000000
# 4 0.000000 0.000000 0.000000 0.030084 0.000000 0.143998
# 5 -0.001208 -0.001328 0.005500 0.000000 0.034618 0.000000
# 6 0.000000 0.000000 0.000000 0.143998 0.000000 0.187063
#
#
# Mechanical properties :
#
#
# Convention : Reuss Voigt Hill
#
# Bulk Modulus (GPa) = 60.43605 68.25320 64.34463
# Shear Modulus (GPa) = 16.84178 23.33370 20.08774
#
# Velocity S-wave (km/s) = 2.60960 3.07165 2.85001
# Velocity P-wave (km/s) = 5.78943 6.33865 6.07026
#
# Compressibility (1/GPa) = 0.01654642
#
# Stress axis : x y z
#
# Youngs Moduli (GPa) = 148.35467 113.67010 79.77351
#
# Poissons Ratio (x) = 0.17057 0.26624
# Poissons Ratio (y) = 0.22262 0.07382
# Poissons Ratio (z) = 0.49513 0.10519
#
# Static dielectric constant tensor:
#      x y z
#    x 2.059050 0.000000 0.007820 
#    y 0.000000 2.011180 0.000000 
#    z 0.007820 0.000000 1.998350 
# 
# From -- ./inp_files/8368.got.cif
#   From: 2010.05.17/outbox.cif.g08.bks.cpg/sg12_5_cif.got.tgz:8368.got - 2010.06.03 13:09:07.
