data_PCOD9218798
_publ_section_title
;
Structure prediction by ZEFSAII (Michael W. Deem and Ramdas Pophale) SiO2 
 PCOD9218798
Probable space group: C 2/M
;
_chemical_formula_sum "Si O2"
_cell_formula_units_Z 30
_cell_length_a 22.478968
_cell_length_b 12.242353
_cell_length_c 22.551404
_cell_angle_alpha 90.000000
_cell_angle_beta 12.633999
_cell_angle_gamma 90.000000
_cell_volume 1357.400264
_symmetry_space_group_name_H-M "C 2/M"
_symmetry_group_IT_number 12
_symmetry_cell_setting 'monoclinic'
loop_
_space_group_symop_operation_xyz
x,y,z
-x,y,-z
-x,-y,-z
x,-y,z
1/2+x,1/2+y,z
1/2-x,1/2+y,-z
1/2-x,1/2-y,-z
1/2+x,1/2-y,z
loop_
_atom_site_type_symbol
_atom_site_label
_atom_site_fract_x
_atom_site_fract_y
_atom_site_fract_z
Si Si1 0.360645 0.171692 0.528594
Si Si2 0.462675 0.000000 0.818156
Si Si3 0.724521 0.500000 0.232936
Si Si4 0.354858 0.813241 0.018133
Si Si5 0.000000 0.500000 0.500000
Si Si6 0.918045 0.000000 0.285221
O O1 0.626673 0.219358 0.237162
O O2 0.444406 0.095536 0.502567
O O3 0.188357 0.102454 0.648547
O O4 0.142355 0.263887 0.759756
O O5 0.763713 0.000000 0.498357
O O6 0.413070 0.109460 0.905017
O O7 0.238120 0.000000 0.984820
O O8 0.500000 0.500000 0.500000
O O9 0.723228 0.394382 0.193521
O O10 0.000000 0.500000 0.000000
#
# Coordination Sequence:
#
# PCOD9218798 Si02
#       6
#     8   4   4   8   2   4
#     4  11  25  44  67  99 130 180 227 267 336 398
#     4  11  24  44  66  99 138 167 217 288 327 389
#     4  11  24  41  64  97 132 174 224 278 321 397
#     4  11  25  42  67  98 134 173 224 273 338 396
#     4  10  28  46  68  94 140 172 222 290 316 390
#     4  11  24  42  68  97 134 177 224 273 326 395
#
# _framework density 22.101071999999998
#
# number of rings (size 3 to 8) (size 9 to 14) (size 15 to 20)
#    0.000    1.067    0.000    4.800    5.600   14.933 
#    0.000    0.000    0.000    0.000    0.000    0.000 
#    0.000    0.000    0.000    0.000    0.000    0.000 
#
# Total GULP energy -83620.004840 kJ/mol
# GULP energy per Si atom -5574.666989 kJ/mol
# Density = 2.205077 g / cm^3
# Si number density = 22.101072 Si / 1000 Ang^3
#
#
#
# Elastic Constant Matrix: (Units=GPa)
#
#
# Indices 1 2 3 4 5 6 
#
# 1 66.1888 36.0707 -7.4793 2.5863 6.7648 7.0991
# 2 36.0707 110.7289 29.7574 2.8307 1.6542 7.9524
# 3 -7.4793 29.7574 104.7197 4.0363 8.5671 11.1099
# 4 2.5863 2.8307 4.0363 129.5517 -1.3341 272.9651
# 5 6.7648 1.6542 8.5671 -1.3341 35.3772 -3.5402
# 6 7.0991 7.9524 11.1099 272.9651 -3.5402 709.3003
#
#
#
# Elastic Compliance Matrix: (Units=1/GPa)
#
#
# Indices 1 2 3 4 5 6 
#
# 1 0.020152 -0.007551 0.003973 0.000093 -0.004483 -0.000237
# 2 -0.007551 0.012612 -0.004279 0.000029 0.001891 -0.000001
# 3 0.003973 -0.004279 0.011341 0.000098 -0.003325 -0.000224
# 4 0.000093 0.000029 0.000098 0.040810 -0.000076 -0.015709
# 5 -0.004483 0.001891 -0.003325 -0.000076 0.029863 0.000254
# 6 -0.000237 -0.000001 -0.000224 -0.015709 0.000254 0.007462
#
#
# Mechanical properties :
#
#
# Convention : Reuss Voigt Hill
#
# Bulk Modulus (GPa) = 35.22103 44.25943 39.74023
# Shear Modulus (GPa) = 33.91721 189.73177 111.82449
#
# Velocity S-wave (km/s) = 3.92170 9.27543 7.12086
# Velocity P-wave (km/s) = 6.03964 11.60952 9.25360
#
# Compressibility (1/GPa) = 0.02839213
#
# Stress axis : x y z
#
# Youngs Moduli (GPa) = 49.62219 79.29106 88.17615
#
# Poissons Ratio (x) = 0.59872 -0.35035
# Poissons Ratio (y) = 0.37469 0.37730
# Poissons Ratio (z) = -0.19717 0.33928
#
# Static dielectric constant tensor:
#      x y z
#    x 1.780410 -0.000070 0.004340 
#    y -0.000070 1.580810 0.000030 
#    z 0.004340 0.000030 1.778630 
# 
# From -- ./inp_files/19250.got.cif
#   From: 2010.05.17/outbox.cif.g08.bks.cpg/sg12_10_cif.got.tgz:19250.got - 2010.06.03 13:09:07.
