data_PCOD9218429
_publ_section_title
;
Structure prediction by ZEFSAII (Michael W. Deem and Ramdas Pophale) SiO2 
 PCOD9218429
Probable space group: C 2/M
;
_chemical_formula_sum "Si O2"
_cell_formula_units_Z 48
_cell_length_a 15.874486
_cell_length_b 24.680285
_cell_length_c 11.200542
_cell_angle_alpha 90.000000
_cell_angle_beta 31.821613
_cell_angle_gamma 90.000000
_cell_volume 2313.807243
_symmetry_space_group_name_H-M "C 2/M"
_symmetry_group_IT_number 12
_symmetry_cell_setting 'monoclinic'
loop_
_space_group_symop_operation_xyz
x,y,z
-x,y,-z
-x,-y,-z
x,-y,z
1/2+x,1/2+y,z
1/2-x,1/2+y,-z
1/2-x,1/2-y,-z
1/2+x,1/2-y,z
loop_
_atom_site_type_symbol
_atom_site_label
_atom_site_fract_x
_atom_site_fract_y
_atom_site_fract_z
Si Si1 0.816999 0.500000 0.782800
Si Si2 0.310331 0.500000 0.781050
Si Si3 0.124777 0.306508 0.510463
Si Si4 0.337961 0.611385 0.124433
Si Si5 0.735206 0.813516 0.045956
Si Si6 0.829426 0.705617 0.263747
Si Si7 0.308263 0.618354 0.724064
O O1 0.737478 0.555732 0.831883
O O2 0.000000 0.500000 0.500000
O O3 0.756130 0.500000 0.998945
O O4 0.500000 0.500000 0.500000
O O5 0.250338 0.556901 0.802870
O O6 0.223701 0.358592 0.355011
O O7 0.137664 0.295727 0.635890
O O8 0.208219 0.251773 0.362385
O O9 0.944495 0.317056 0.690337
O O10 0.350292 0.655843 0.001489
O O11 0.500000 0.601080 0.000000
O O12 0.750000 0.750000 0.000000
O O13 0.747348 0.847044 0.909614
O O14 0.756014 0.648578 0.313937
O O15 0.000000 0.715686 0.000000
O O16 0.500000 0.619543 0.500000
#
# Coordination Sequence:
#
# PCOD9218429 Si02
#       7
#     4   4   8   8   8   8   8
#     4  12  25  49  80 107 147 193 248 303 368 434
#     4  10  24  45  73 101 138 190 243 293 352 428
#     4  11  25  42  67 100 144 183 231 292 361 433
#     4  12  28  45  71 107 144 186 241 299 361 434
#     4  12  24  42  71 100 136 186 236 284 365 431
#     4  11  23  42  66 100 141 182 230 292 355 425
#     4  11  23  42  69  97 135 183 235 289 354 425
#
# _framework density 20.745028999999999
#
# number of rings (size 3 to 8) (size 9 to 14) (size 15 to 20)
#    0.000    0.667    3.333    4.250    7.000    0.000 
#    0.000    1.250    0.000    0.000    0.000    0.000 
#    0.000    0.000    0.000    0.000    0.000    0.000 
#
# Total GULP energy -133920.309147 kJ/mol
# GULP energy per Si atom -5580.012881 kJ/mol
# Density = 2.069781 g / cm^3
# Si number density = 20.745029 Si / 1000 Ang^3
#
#
#
# Elastic Constant Matrix: (Units=GPa)
#
#
# Indices 1 2 3 4 5 6 
#
# 1 61.0706 30.3061 17.6709 -0.0003 -4.5847 -0.0001
# 2 30.3061 180.2383 38.9821 0.0001 -2.9448 0.0000
# 3 17.6709 38.9821 95.3733 -0.0006 1.8270 0.0004
# 4 -0.0003 0.0001 -0.0006 21.1737 0.0006 -3.2820
# 5 -4.5847 -2.9448 1.8270 0.0006 27.8545 0.0000
# 6 -0.0001 0.0000 0.0004 -3.2820 0.0000 26.7389
#
#
#
# Elastic Compliance Matrix: (Units=1/GPa)
#
#
# Indices 1 2 3 4 5 6 
#
# 1 0.018569 -0.002542 -0.002458 0.000000 0.002949 0.000000
# 2 -0.002542 0.006453 -0.002174 0.000000 0.000406 0.000000
# 3 -0.002458 -0.002174 0.011856 0.000000 -0.001412 0.000000
# 4 0.000000 0.000000 0.000000 0.048144 -0.000001 0.005909
# 5 0.002949 0.000406 -0.001412 -0.000001 0.036522 0.000000
# 6 0.000000 0.000000 0.000000 0.005909 0.000000 0.038124
#
#
# Mechanical properties :
#
#
# Convention : Reuss Voigt Hill
#
# Bulk Modulus (GPa) = 44.38755 56.73338 50.56047
# Shear Modulus (GPa) = 27.54430 31.80163 29.67297
#
# Velocity S-wave (km/s) = 3.64779 3.91957 3.78612
# Velocity P-wave (km/s) = 6.25979 6.92036 6.59835
#
# Compressibility (1/GPa) = 0.02252884
#
# Stress axis : x y z
#
# Youngs Moduli (GPa) = 53.85402 154.97712 84.34445
#
# Poissons Ratio (x) = 0.39403 0.20730
# Poissons Ratio (y) = 0.13692 0.18337
# Poissons Ratio (z) = 0.13236 0.33693
#
# Static dielectric constant tensor:
#      x y z
#    x 1.765500 0.000000 0.042860 
#    y 0.000000 1.730730 0.000000 
#    z 0.042860 0.000000 1.816170 
# 
# From -- ./inp_files/149683.got.cif
#   From: 2010.05.17/outbox.cif.g08.bks.cpg/sg12_75_cif.got.tgz:149683.got - 2010.06.03 13:09:07.
