data_PCOD9218652
_publ_section_title
;
Structure prediction by ZEFSAII (Michael W. Deem and Ramdas Pophale) SiO2 
 PCOD9218652
Probable space group: C 2/M
;
_chemical_formula_sum "Si O2"
_cell_formula_units_Z 26
_cell_length_a 9.912003
_cell_length_b 7.452485
_cell_length_c 14.308195
_cell_angle_alpha 90.000000
_cell_angle_beta 72.253167
_cell_angle_gamma 90.000000
_cell_volume 1006.636192
_symmetry_space_group_name_H-M "C 2/M"
_symmetry_group_IT_number 12
_symmetry_cell_setting 'monoclinic'
loop_
_space_group_symop_operation_xyz
x,y,z
-x,y,-z
-x,-y,-z
x,-y,z
1/2+x,1/2+y,z
1/2-x,1/2+y,-z
1/2-x,1/2-y,-z
1/2+x,1/2-y,z
loop_
_atom_site_type_symbol
_atom_site_label
_atom_site_fract_x
_atom_site_fract_y
_atom_site_fract_z
Si Si1 0.206169 0.285722 0.901594
Si Si2 0.263522 0.786550 0.606509
Si Si3 0.000000 0.000000 0.000000
Si Si4 0.535846 0.292645 0.279629
O O1 0.182445 0.500000 0.894623
O O2 0.071614 0.158564 0.918861
O O3 0.337451 0.220743 0.810937
O O4 0.250000 0.250000 0.000000
O O5 0.250000 0.750000 0.500000
O O6 0.402254 0.715353 0.628266
O O7 0.121053 0.712793 0.686745
O O8 0.266382 0.000000 0.617650
O O9 0.523731 0.500000 0.256272
#
# Coordination Sequence:
#
# PCOD9218652 Si02
#       4
#     8   8   2   8
#     4  11  25  45  70 102 139 185 233 290 343 418
#     4  11  24  43  68  98 134 174 224 280 342 409
#     4  12  26  44  72  96 146 182 236 280 360 410
#     4  10  25  44  67  98 134 177 228 282 340 409
#
# _framework density 25.828596999999998
#
# number of rings (size 3 to 8) (size 9 to 14) (size 15 to 20)
#    0.000    1.231    1.538    2.308    6.462    6.154 
#    0.000    0.000    0.000    0.000    0.000    0.000 
#    0.000    0.000    0.000    0.000    0.000    0.000 
#
# Total GULP energy -72554.596089 kJ/mol
# GULP energy per Si atom -5581.122776 kJ/mol
# Density = 2.576981 g / cm^3
# Si number density = 25.828597 Si / 1000 Ang^3
#
#
#
# Elastic Constant Matrix: (Units=GPa)
#
#
# Indices 1 2 3 4 5 6 
#
# 1 101.5494 13.8260 5.4901 0.0000 -1.3065 0.0000
# 2 13.8260 170.4930 12.2757 0.0000 -18.7619 0.0000
# 3 5.4901 12.2757 101.6699 0.0000 -8.4476 0.0000
# 4 0.0000 0.0000 0.0000 33.8269 0.0000 2.2727
# 5 -1.3065 -18.7619 -8.4476 0.0000 58.9938 0.0000
# 6 0.0000 0.0000 0.0000 2.2727 0.0000 23.9669
#
#
#
# Elastic Compliance Matrix: (Units=1/GPa)
#
#
# Indices 1 2 3 4 5 6 
#
# 1 0.009978 -0.000787 -0.000452 0.000000 -0.000094 0.000000
# 2 -0.000787 0.006174 -0.000548 0.000000 0.001868 0.000000
# 3 -0.000452 -0.000548 0.010030 0.000000 0.001252 0.000000
# 4 0.000000 0.000000 0.000000 0.029752 0.000000 -0.002821
# 5 -0.000094 0.001868 0.001252 0.000000 0.017722 0.000000
# 6 0.000000 0.000000 0.000000 -0.002821 0.000000 0.041992
#
#
# Mechanical properties :
#
#
# Convention : Reuss Voigt Hill
#
# Bulk Modulus (GPa) = 44.22912 48.54401 46.38656
# Shear Modulus (GPa) = 39.44552 46.16555 42.80553
#
# Velocity S-wave (km/s) = 3.91218 4.23233 4.07540
# Velocity P-wave (km/s) = 6.12929 6.53597 6.33590
#
# Compressibility (1/GPa) = 0.02260954
#
# Stress axis : x y z
#
# Youngs Moduli (GPa) = 100.22279 161.96599 99.69784
#
# Poissons Ratio (x) = 0.12746 0.04502
# Poissons Ratio (y) = 0.07887 0.05461
# Poissons Ratio (z) = 0.04526 0.08872
#
# Static dielectric constant tensor:
#      x y z
#    x 2.286070 0.000000 0.071840 
#    y 0.000000 1.969540 0.000000 
#    z 0.071840 0.000000 2.075560 
# 
# From -- ./inp_files/201769.got.cif
#   From: 2010.05.17/outbox.cif.g08.bks.cpg/sg12_101_cif.got.tgz:201769.got - 2010.06.03 13:09:07.
