data_PCOD9218655
_publ_section_title
;
Structure prediction by ZEFSAII (Michael W. Deem and Ramdas Pophale) SiO2 
 PCOD9218655
Probable space group: C 2/M
;
_chemical_formula_sum "Si O2"
_cell_formula_units_Z 64
_cell_length_a 12.047563
_cell_length_b 21.913602
_cell_length_c 12.526016
_cell_angle_alpha 90.000000
_cell_angle_beta 76.708019
_cell_angle_gamma 90.000000
_cell_volume 3218.347787
_symmetry_space_group_name_H-M "C 2/M"
_symmetry_group_IT_number 12
_symmetry_cell_setting 'monoclinic'
loop_
_space_group_symop_operation_xyz
x,y,z
-x,y,-z
-x,-y,-z
x,-y,z
1/2+x,1/2+y,z
1/2-x,1/2+y,-z
1/2-x,1/2-y,-z
1/2+x,1/2-y,z
loop_
_atom_site_type_symbol
_atom_site_label
_atom_site_fract_x
_atom_site_fract_y
_atom_site_fract_z
Si Si1 0.163956 0.640966 0.189062
Si Si2 0.179825 0.071440 0.684565
Si Si3 0.631044 0.844926 0.952765
Si Si4 0.281286 0.278081 0.764860
Si Si5 0.489815 0.652102 0.623162
Si Si6 0.360489 0.771207 0.411386
Si Si7 0.882436 0.592303 0.471016
Si Si8 0.932161 0.569601 0.228814
O O1 0.262563 0.604987 0.228043
O O2 0.164295 0.711001 0.230683
O O3 0.044043 0.607864 0.237859
O O4 0.174333 0.636112 0.059327
O O5 0.274625 0.078576 0.569593
O O6 0.065778 0.107452 0.677826
O O7 0.160300 0.000000 0.707231
O O8 0.720011 0.796772 0.887186
O O9 0.620609 0.896991 0.862983
O O10 0.500000 0.822712 0.000000
O O11 0.368472 0.329360 0.700761
O O12 0.179735 0.276457 0.701285
O O13 0.500000 0.627135 0.500000
O O14 0.549227 0.718062 0.601812
O O15 0.250000 0.750000 0.500000
O O16 0.394615 0.835145 0.453310
O O17 0.862012 0.569059 0.354871
O O18 0.000000 0.569586 0.500000
O O19 0.961774 0.500000 0.194399
#
# Coordination Sequence:
#
# PCOD9218655 Si02
#       8
#     8   8   8   8   8   8   8   8
#     4  11  23  42  65  96 128 169 217 272 327 378
#     4  12  26  42  61  94 138 178 217 260 320 395
#     4  10  25  44  68  98 130 169 217 275 332 380
#     4  12  23  43  67  98 132 163 216 274 328 390
#     4  12  25  40  66  99 132 176 212 262 329 394
#     4  12  21  38  64  99 136 164 210 268 330 392
#     4  12  22  37  64  99 132 167 213 274 334 384
#     4  11  23  40  64  94 130 172 217 269 325 382
#
# _framework density 19.885981000000001
#
# number of rings (size 3 to 8) (size 9 to 14) (size 15 to 20)
#    0.000    0.500    6.250    2.250    1.750    3.500 
#    0.000    1.250    0.000    0.750    0.000    0.000 
#    0.000    0.000    0.000    0.000    0.000    0.000 
#
# Total GULP energy -178801.234298 kJ/mol
# GULP energy per Si atom -5587.538572 kJ/mol
# Density = 1.984072 g / cm^3
# Si number density = 19.885981 Si / 1000 Ang^3
#
#
#
# Elastic Constant Matrix: (Units=GPa)
#
#
# Indices 1 2 3 4 5 6 
#
# 1 66.0680 31.7260 33.5958 0.0000 19.7897 0.0000
# 2 31.7260 124.9896 16.7133 0.0000 11.3311 0.0000
# 3 33.5958 16.7133 104.8634 0.0000 16.5467 0.0000
# 4 0.0000 0.0000 0.0000 11.2597 0.0000 -3.7893
# 5 19.7897 11.3311 16.5467 0.0000 39.7511 0.0000
# 6 0.0000 0.0000 0.0000 -3.7893 0.0000 -8.6690
#
#
#
# Elastic Compliance Matrix: (Units=1/GPa)
#
#
# Indices 1 2 3 4 5 6 
#
# 1 0.022093 -0.004221 -0.005201 0.000000 -0.007631 0.000000
# 2 -0.004221 0.009119 -0.000024 0.000000 -0.000488 0.000000
# 3 -0.005201 -0.000024 0.011556 0.000000 -0.002214 0.000000
# 4 0.000000 0.000000 0.000000 0.077423 0.000000 -0.033842
# 5 -0.007631 -0.000488 -0.002214 0.000000 0.030016 0.000000
# 6 0.000000 0.000000 0.000000 -0.033842 0.000000 -0.100561
#
#
# Mechanical properties :
#
#
# Convention : Reuss Voigt Hill
#
# Bulk Modulus (GPa) = 41.88306 51.11013 46.49660
# Shear Modulus (GPa) = 65.36164 22.72745 44.04454
#
# Velocity S-wave (km/s) = 5.73930 3.38433 4.71133
# Velocity P-wave (km/s) = 8.06392 6.40539 7.28202
#
# Compressibility (1/GPa) = 0.02387600
#
# Stress axis : x y z
#
# Youngs Moduli (GPa) = 45.26272 109.65531 86.53655
#
# Poissons Ratio (x) = 0.46281 0.45011
# Poissons Ratio (y) = 0.19104 0.00210
# Poissons Ratio (z) = 0.23543 0.00266
#
# Static dielectric constant tensor:
#      x y z
#    x 1.695120 0.000000 -0.020080 
#    y 0.000000 1.711300 0.000000 
#    z -0.020080 0.000000 1.708650 
# 
# From -- ./inp_files/135353.got.cif
#   From: 2010.05.17/outbox.cif.g08.bks.cpg/sg12_68_cif.got.tgz:135353.got - 2010.06.03 13:09:07.
