data_PCOD9218311
_publ_section_title
;
Structure prediction by ZEFSAII (Michael W. Deem and Ramdas Pophale) SiO2 
 PCOD9218311
Probable space group: C 2/M
;
_chemical_formula_sum "Si O2"
_cell_formula_units_Z 64
_cell_length_a 17.748644
_cell_length_b 14.967383
_cell_length_c 22.528261
_cell_angle_alpha 90.000000
_cell_angle_beta 151.807410
_cell_angle_gamma 90.000000
_cell_volume 2827.368550
_symmetry_space_group_name_H-M "C 2/M"
_symmetry_group_IT_number 12
_symmetry_cell_setting 'monoclinic'
loop_
_space_group_symop_operation_xyz
x,y,z
-x,y,-z
-x,-y,-z
x,-y,z
1/2+x,1/2+y,z
1/2-x,1/2+y,-z
1/2-x,1/2-y,-z
1/2+x,1/2-y,z
loop_
_atom_site_type_symbol
_atom_site_label
_atom_site_fract_x
_atom_site_fract_y
_atom_site_fract_z
Si Si1 0.105823 0.845719 0.643823
Si Si2 0.765958 0.903518 0.382916
Si Si3 0.130806 0.104738 0.932864
Si Si4 0.174480 0.602085 0.094052
Si Si5 0.610937 0.398769 0.126699
Si Si6 0.617945 0.173844 0.399064
Si Si7 0.837657 0.244192 0.136222
Si Si8 0.969802 0.355172 0.411072
O O1 0.228252 0.845769 0.673228
O O2 0.200477 0.873912 0.767465
O O3 0.016445 0.751370 0.580522
O O4 0.952932 0.908396 0.529609
O O5 0.671527 0.875104 0.375863
O O6 0.705298 0.000000 0.321454
O O7 0.068482 0.169189 0.836920
O O8 0.996152 0.101057 0.889361
O O9 0.171051 0.000000 0.947974
O O10 0.273687 0.168118 0.057439
O O11 0.204784 0.500000 0.093979
O O12 0.195208 0.681318 0.061018
O O13 0.000000 0.603943 0.000000
O O14 0.638591 0.500000 0.123573
O O15 0.786569 0.368089 0.264942
O O16 0.500000 0.351874 0.000000
O O17 0.750000 0.250000 0.500000
O O18 0.450077 0.219711 0.265829
O O19 0.585837 0.116978 0.437038
O O20 0.000000 0.387302 0.500000
#
# Coordination Sequence:
#
# PCOD9218311 Si02
#       8
#     8   8   8   8   8   8   8   8
#     4  11  21  41  66  95 129 175 224 280 344 417
#     4  11  23  41  67  95 129 174 222 278 342 410
#     4  10  24  44  67  98 132 173 230 289 348 418
#     4  11  24  40  63  97 133 170 225 290 351 418
#     4  10  24  45  70  97 129 179 236 286 342 414
#     4  12  24  42  62 100 136 177 229 271 343 421
#     4  11  24  41  70  95 134 181 224 285 354 415
#     4  12  24  41  72 100 139 182 229 292 344 422
#
# _framework density 22.635888000000001
#
# number of rings (size 3 to 8) (size 9 to 14) (size 15 to 20)
#    0.000    1.000    3.750    2.625    5.250    2.250 
#    0.000    0.625    0.000    0.000    0.000    0.000 
#    0.000    0.000    0.000    0.000    0.000    0.000 
#
# Total GULP energy -178436.450586 kJ/mol
# GULP energy per Si atom -5576.139081 kJ/mol
# Density = 2.258437 g / cm^3
# Si number density = 22.635888 Si / 1000 Ang^3
#
#
#
# Elastic Constant Matrix: (Units=GPa)
#
#
# Indices 1 2 3 4 5 6 
#
# 1 154.6592 20.1848 13.5185 -0.0022 -1.1237 0.0014
# 2 20.1848 92.7225 6.0879 0.0223 -0.8000 -0.0008
# 3 13.5185 6.0879 69.5812 0.0084 -2.9345 -0.0009
# 4 -0.0022 0.0223 0.0084 6.0883 0.0063 -21.2171
# 5 -1.1237 -0.8000 -2.9345 0.0063 25.7666 0.0003
# 6 0.0014 -0.0008 -0.0009 -21.2171 0.0003 -12.3490
#
#
#
# Elastic Compliance Matrix: (Units=1/GPa)
#
#
# Indices 1 2 3 4 5 6 
#
# 1 0.006752 -0.001391 -0.001185 0.000002 0.000116 -0.000002
# 2 -0.001391 0.011135 -0.000695 -0.000006 0.000206 0.000010
# 3 -0.001185 -0.000695 0.014730 -0.000003 0.001604 0.000005
# 4 0.000002 -0.000006 -0.000003 0.023506 -0.000006 -0.040387
# 5 0.000116 0.000206 0.001604 -0.000006 0.039004 0.000011
# 6 -0.000002 0.000010 0.000005 -0.040387 0.000011 -0.011589
#
#
# Mechanical properties :
#
#
# Convention : Reuss Voigt Hill
#
# Bulk Modulus (GPa) = 38.35174 44.06058 41.20616
# Shear Modulus (GPa) = 50.62111 22.37931 36.50021
#
# Velocity S-wave (km/s) = 4.73411 3.14772 4.01994
# Velocity P-wave (km/s) = 6.84558 5.71996 6.30793
#
# Compressibility (1/GPa) = 0.02607444
#
# Stress axis : x y z
#
# Youngs Moduli (GPa) = 148.10849 89.80613 67.88657
#
# Poissons Ratio (x) = 0.12492 0.08046
# Poissons Ratio (y) = 0.20602 0.04720
# Poissons Ratio (z) = 0.17553 0.06244
#
# Static dielectric constant tensor:
#      x y z
#    x 1.949580 0.000010 -0.042250 
#    y 0.000010 2.048860 0.000010 
#    z -0.042250 0.000010 1.879690 
# 
# From -- ./inp_files/344109.got.cif
#   From: 2010.05.17/outbox.cif.g08.bks.cpg/sg12_173_cif.got.tgz:344109.got - 2010.06.03 13:09:07.
