data_PCOD9218979
_publ_section_title
;
Structure prediction by ZEFSAII (Michael W. Deem and Ramdas Pophale) SiO2 
 PCOD9218979
Probable space group: C 2/M
;
_chemical_formula_sum "Si O2"
_cell_formula_units_Z 52
_cell_length_a 13.347157
_cell_length_b 25.088575
_cell_length_c 9.106457
_cell_angle_alpha 90.000000
_cell_angle_beta 65.371798
_cell_angle_gamma 90.000000
_cell_volume 2771.998211
_symmetry_space_group_name_H-M "C 2/M"
_symmetry_group_IT_number 12
_symmetry_cell_setting 'monoclinic'
loop_
_space_group_symop_operation_xyz
x,y,z
-x,y,-z
-x,-y,-z
x,-y,z
1/2+x,1/2+y,z
1/2-x,1/2+y,-z
1/2-x,1/2-y,-z
1/2+x,1/2-y,z
loop_
_atom_site_type_symbol
_atom_site_label
_atom_site_fract_x
_atom_site_fract_y
_atom_site_fract_z
Si Si1 0.890186 0.170547 0.775809
Si Si2 0.334302 0.767946 0.632188
Si Si3 0.412836 0.252098 0.277875
Si Si4 0.181432 0.649829 0.109632
Si Si5 0.000000 0.667312 0.000000
Si Si6 0.318494 0.440008 0.159955
Si Si7 0.025667 0.939618 0.226238
O O1 0.929012 0.110911 0.712999
O O2 0.992442 0.203219 0.782916
O O3 0.068589 0.292732 0.854757
O O4 0.788830 0.168267 0.951808
O O5 0.351819 0.706111 0.663178
O O6 0.404125 0.775475 0.442925
O O7 0.206331 0.778072 0.675687
O O8 0.359002 0.802653 0.760743
O O9 0.223259 0.601982 0.186465
O O10 0.085435 0.636357 0.052021
O O11 0.276071 0.500000 0.204207
O O12 0.402219 0.428679 0.242482
O O13 0.396542 0.439885 0.966959
O O14 0.030493 0.000000 0.284927
#
# Coordination Sequence:
#
# PCOD9218979 Si02
#       7
#     8   8   8   8   4   8   8
#     4  11  19  33  54  78 110 146 177 220 271 319
#     4  11  22  36  50  79 110 147 179 220 275 319
#     4  11  23  35  53  75 110 144 185 221 264 330
#     4  11  21  34  54  80 109 146 179 226 267 322
#     4  12  22  36  51  76 109 142 186 224 264 324
#     4   8  15  30  51  79 108 137 177 222 267 315
#     4   8  15  28  50  79 108 137 177 221 263 318
#
# _framework density 18.759031
#
# number of rings (size 3 to 8) (size 9 to 14) (size 15 to 20)
#    0.000    1.846    3.077    3.692    0.000    2.462 
#    0.000    0.385    0.000    1.846    0.000    6.462 
#    0.000    0.000    0.000    0.000    0.000    0.000 
#
# Total GULP energy -145043.449877 kJ/mol
# GULP energy per Si atom -5578.594226 kJ/mol
# Density = 1.871633 g / cm^3
# Si number density = 18.759031 Si / 1000 Ang^3
#
#
#
# Elastic Constant Matrix: (Units=GPa)
#
#
# Indices 1 2 3 4 5 6 
#
# 1 105.1821 43.9206 15.9647 0.0000 -7.9132 0.0000
# 2 43.9206 97.4052 19.8366 0.0000 -1.4108 0.0000
# 3 15.9647 19.8366 65.9816 0.0000 0.4540 0.0000
# 4 0.0000 0.0000 0.0000 -1.5426 0.0000 3.4235
# 5 -7.9132 -1.4108 0.4540 0.0000 22.8330 0.0000
# 6 0.0000 0.0000 0.0000 3.4235 0.0000 36.7187
#
#
#
# Elastic Compliance Matrix: (Units=1/GPa)
#
#
# Indices 1 2 3 4 5 6 
#
# 1 0.012165 -0.005138 -0.001426 0.000000 0.003927 0.000000
# 2 -0.005138 0.013119 -0.002694 0.000000 -0.000917 0.000000
# 3 -0.001426 -0.002694 0.016318 0.000000 -0.000985 0.000000
# 4 0.000000 0.000000 0.000000 -0.537125 0.000000 0.050080
# 5 0.003927 -0.000917 -0.000985 0.000000 0.045120 0.000000
# 6 0.000000 0.000000 0.000000 0.050080 0.000000 0.022565
#
#
# Mechanical properties :
#
#
# Convention : Reuss Voigt Hill
#
# Bulk Modulus (GPa) = 43.31897 47.55696 45.43797
# Shear Modulus (GPa) = -12.44930 24.19165 5.87117
#
# Velocity S-wave (km/s) = -2.57892 3.59500 1.77104
# Velocity P-wave (km/s) = 3.77818 6.52982 5.33447
#
# Compressibility (1/GPa) = 0.02308457
#
# Stress axis : x y z
#
# Youngs Moduli (GPa) = 82.20623 76.22799 61.28381
#
# Poissons Ratio (x) = 0.39165 0.08737
# Poissons Ratio (y) = 0.42236 0.16513
# Poissons Ratio (z) = 0.11720 0.20539
#
# Static dielectric constant tensor:
#      x y z
#    x 1.702780 0.000000 0.008680 
#    y 0.000000 1.654760 0.000000 
#    z 0.008680 0.000000 1.653630 
# 
# From -- ./inp_files/136293.got.cif
#   From: 2010.05.17/outbox.cif.g08.bks.cpg/sg12_69_cif.got.tgz:136293.got - 2010.06.03 13:09:07.
