data_PCOD9218049
_publ_section_title
;
Structure prediction by ZEFSAII (Michael W. Deem and Ramdas Pophale) SiO2 
 PCOD9218049
Probable space group: C 2/M
;
_chemical_formula_sum "Si O2"
_cell_formula_units_Z 44
_cell_length_a 20.310452
_cell_length_b 7.723761
_cell_length_c 12.014563
_cell_angle_alpha 90.000000
_cell_angle_beta 66.346333
_cell_angle_gamma 90.000000
_cell_volume 1726.417632
_symmetry_space_group_name_H-M "C 2/M"
_symmetry_group_IT_number 12
_symmetry_cell_setting 'monoclinic'
loop_
_space_group_symop_operation_xyz
x,y,z
-x,y,-z
-x,-y,-z
x,-y,z
1/2+x,1/2+y,z
1/2-x,1/2+y,-z
1/2-x,1/2-y,-z
1/2+x,1/2-y,z
loop_
_atom_site_type_symbol
_atom_site_label
_atom_site_fract_x
_atom_site_fract_y
_atom_site_fract_z
Si Si1 0.423586 0.803423 0.090502
Si Si2 0.986467 0.000000 0.705686
Si Si3 0.913737 0.300548 0.469194
Si Si4 0.692753 0.207062 0.274542
Si Si5 0.359937 0.684835 0.918893
Si Si6 0.679896 0.697392 0.659401
O O1 0.389048 0.696274 0.212510
O O2 0.434043 0.000000 0.123449
O O3 0.500000 0.731530 0.000000
O O4 0.373584 0.802775 0.015375
O O5 0.966756 0.154375 0.388554
O O6 0.936197 0.146874 0.806537
O O7 0.940295 0.500000 0.453450
O O8 0.880786 0.246974 0.610991
O O9 0.844860 0.297334 0.432572
O O10 0.690778 0.263027 0.148400
O O11 0.758116 0.275656 0.305091
O O12 0.697600 0.000000 0.273999
O O13 0.334826 0.500000 0.983181
O O14 0.696735 0.500000 0.616661
#
# Coordination Sequence:
#
# PCOD9218049 Si02
#       6
#     8   4   8   8   8   8
#     4  11  24  42  67  97 130 170 224 283 339 403
#     4  10  24  43  67 102 130 182 223 280 335 398
#     4  11  23  42  68 101 138 177 228 285 336 398
#     4  10  24  43  65  96 137 182 227 277 335 405
#     4  10  24  41  64  94 130 178 221 276 335 400
#     4  11  23  41  68  99 135 179 227 280 339 403
#
# _framework density 25.486301999999998
#
# number of rings (size 3 to 8) (size 9 to 14) (size 15 to 20)
#    0.545    0.909    0.909    3.273    1.273    7.273 
#    0.000    1.818    0.000    0.000    0.000    0.000 
#    0.000    0.000    0.000    0.000    0.000    0.000 
#
# Total GULP energy -122629.557067 kJ/mol
# GULP energy per Si atom -5574.070776 kJ/mol
# Density = 2.542829 g / cm^3
# Si number density = 25.486302 Si / 1000 Ang^3
#
#
#
# Elastic Constant Matrix: (Units=GPa)
#
#
# Indices 1 2 3 4 5 6 
#
# 1 90.1470 10.5262 22.7249 0.0000 21.6039 0.0000
# 2 10.5262 90.1254 12.7616 -0.0002 -9.9548 -0.0005
# 3 22.7249 12.7616 103.4598 0.0000 9.2885 0.0000
# 4 0.0000 -0.0002 0.0000 376.9994 0.0000 1006.8702
# 5 21.6039 -9.9548 9.2885 0.0000 50.6636 0.0000
# 6 0.0000 -0.0005 0.0000 1006.8702 0.0000 2879.0985
#
#
#
# Elastic Compliance Matrix: (Units=1/GPa)
#
#
# Indices 1 2 3 4 5 6 
#
# 1 0.013196 -0.001852 -0.002168 0.000000 -0.005594 0.000000
# 2 -0.001852 0.011877 -0.001361 0.000000 0.003373 0.000000
# 3 -0.002168 -0.001361 0.010422 0.000000 -0.001254 0.000000
# 4 0.000000 0.000000 0.000000 0.040194 0.000000 -0.014056
# 5 -0.005594 0.003373 -0.001254 0.000000 0.023016 0.000000
# 6 0.000000 0.000000 0.000000 -0.014056 0.000000 0.005263
#
#
# Mechanical properties :
#
#
# Convention : Reuss Voigt Hill
#
# Bulk Modulus (GPa) = 40.43085 41.75083 41.09084
# Shear Modulus (GPa) = 40.65865 677.20027 358.92946
#
# Velocity S-wave (km/s) = 3.99847 16.31834 11.88015
# Velocity P-wave (km/s) = 6.10043 19.27351 14.29482
#
# Compressibility (1/GPa) = 0.02473359
#
# Stress axis : x y z
#
# Youngs Moduli (GPa) = 75.77891 84.19449 95.94883
#
# Poissons Ratio (x) = 0.15594 0.20801
# Poissons Ratio (y) = 0.14035 0.13059
# Poissons Ratio (z) = 0.16428 0.11459
#
# Static dielectric constant tensor:
#      x y z
#    x 2.137660 0.000000 -0.006100 
#    y 0.000000 1.919450 0.000000 
#    z -0.006100 0.000000 1.943890 
# 
# From -- ./inp_files/171963.got.cif
#   From: 2010.05.17/outbox.cif.g08.bks.cpg/sg12_86_cif.got.tgz:171963.got - 2010.06.03 13:09:07.
