data_PCOD9218633
_publ_section_title
;
Structure prediction by ZEFSAII (Michael W. Deem and Ramdas Pophale) SiO2 
 PCOD9218633
Probable space group: C 2/M
;
_chemical_formula_sum "Si O2"
_cell_formula_units_Z 36
_cell_length_a 9.519626
_cell_length_b 19.927857
_cell_length_c 13.833848
_cell_angle_alpha 90.000000
_cell_angle_beta 146.309004
_cell_angle_gamma 90.000000
_cell_volume 1455.768641
_symmetry_space_group_name_H-M "C 2/M"
_symmetry_group_IT_number 12
_symmetry_cell_setting 'monoclinic'
loop_
_space_group_symop_operation_xyz
x,y,z
-x,y,-z
-x,-y,-z
x,-y,z
1/2+x,1/2+y,z
1/2-x,1/2+y,-z
1/2-x,1/2-y,-z
1/2+x,1/2-y,z
loop_
_atom_site_type_symbol
_atom_site_label
_atom_site_fract_x
_atom_site_fract_y
_atom_site_fract_z
Si Si1 0.850976 0.500000 0.615003
Si Si2 0.862759 0.620460 0.325996
Si Si3 0.196888 0.386429 0.253471
Si Si4 0.131721 0.127094 0.853261
Si Si5 0.060906 0.728612 0.306156
O O1 0.973022 0.558564 0.615130
O O2 0.771399 0.441687 0.647975
O O3 0.584691 0.599159 0.201295
O O4 0.000000 0.649643 0.500000
O O5 0.866484 0.676085 0.244201
O O6 0.374053 0.396805 0.261630
O O7 0.209313 0.312937 0.308746
O O8 0.907270 0.390377 0.050028
O O9 0.079892 0.206765 0.816718
O O10 0.250000 0.750000 0.500000
#
# Coordination Sequence:
#
# PCOD9218633 Si02
#       5
#     4   8   8   8   8
#     4  10  25  46  63  91 133 172 229 255 327 378
#     4  11  23  42  67  96 128 174 212 272 317 393
#     4  10  25  43  64  97 132 175 211 273 318 391
#     4  11  23  40  68  98 131 165 220 263 335 376
#     4  11  22  41  68  98 135 165 212 268 333 389
#
# _framework density 24.729205
#
# number of rings (size 3 to 8) (size 9 to 14) (size 15 to 20)
#    0.000    1.333    2.222    2.333    0.000    9.778 
#    0.000    1.111    0.000    0.000    0.000    0.000 
#    0.000    0.000    0.000    0.000    0.000    0.000 
#
# Total GULP energy -100393.759399 kJ/mol
# GULP energy per Si atom -5577.431078 kJ/mol
# Density = 2.467292 g / cm^3
# Si number density = 24.729205 Si / 1000 Ang^3
#
#
#
# Elastic Constant Matrix: (Units=GPa)
#
#
# Indices 1 2 3 4 5 6 
#
# 1 172.6297 19.8278 33.5609 0.0001 8.5017 0.0004
# 2 19.8278 55.9021 -5.7140 0.0001 -3.4428 -0.0007
# 3 33.5609 -5.7140 89.4414 -0.0003 15.9687 0.0013
# 4 0.0001 0.0001 -0.0003 -32.6633 0.0000 19.6825
# 5 8.5017 -3.4428 15.9687 0.0000 33.7899 0.0009
# 6 0.0004 -0.0007 0.0013 19.6825 0.0009 -85.6430
#
#
#
# Elastic Compliance Matrix: (Units=1/GPa)
#
#
# Indices 1 2 3 4 5 6 
#
# 1 0.006625 -0.002653 -0.002522 0.000000 -0.000745 0.000000
# 2 -0.002653 0.019130 0.001912 0.000000 0.001713 0.000000
# 3 -0.002522 0.001912 0.013216 0.000000 -0.005416 0.000000
# 4 0.000000 0.000000 0.000000 -0.035537 0.000000 -0.008167
# 5 -0.000745 0.001713 -0.005416 0.000000 0.032516 0.000000
# 6 0.000000 0.000000 0.000000 -0.008167 0.000000 -0.013553
#
#
# Mechanical properties :
#
#
# Convention : Reuss Voigt Hill
#
# Bulk Modulus (GPa) = 30.82253 45.92476 38.37365
# Shear Modulus (GPa) = 125.81991 1.11661 63.46826
#
# Velocity S-wave (km/s) = 7.14070 0.67269 5.07159
# Velocity P-wave (km/s) = 8.97090 4.38346 7.06016
#
# Compressibility (1/GPa) = 0.03244379
#
# Stress axis : x y z
#
# Youngs Moduli (GPa) = 150.95392 52.27265 75.66546
#
# Poissons Ratio (x) = 0.13870 0.19084
# Poissons Ratio (y) = 0.40053 -0.14466
# Poissons Ratio (z) = 0.38073 -0.09994
#
# Static dielectric constant tensor:
#      x y z
#    x 1.992300 0.000000 0.038590 
#    y 0.000000 1.913060 0.000000 
#    z 0.038590 0.000000 2.011300 
# 
# From -- ./inp_files/77895.got.cif
#   From: 2010.05.17/outbox.cif.g08.bks.cpg/sg12_39_cif.got.tgz:77895.got - 2010.06.03 13:09:07.
