data_PCOD9218778
_publ_section_title
;
Structure prediction by ZEFSAII (Michael W. Deem and Ramdas Pophale) SiO2 
 PCOD9218778
Probable space group: C 2/M
;
_chemical_formula_sum "Si O2"
_cell_formula_units_Z 40
_cell_length_a 6.488433
_cell_length_b 26.245610
_cell_length_c 10.181232
_cell_angle_alpha 90.000000
_cell_angle_beta 104.249880
_cell_angle_gamma 90.000000
_cell_volume 1680.445051
_symmetry_space_group_name_H-M "C 2/M"
_symmetry_group_IT_number 12
_symmetry_cell_setting 'monoclinic'
loop_
_space_group_symop_operation_xyz
x,y,z
-x,y,-z
-x,-y,-z
x,-y,z
1/2+x,1/2+y,z
1/2-x,1/2+y,-z
1/2-x,1/2-y,-z
1/2+x,1/2-y,z
loop_
_atom_site_type_symbol
_atom_site_label
_atom_site_fract_x
_atom_site_fract_y
_atom_site_fract_z
Si Si1 0.170380 0.738157 0.109267
Si Si2 0.592537 0.869751 0.191672
Si Si3 0.707637 0.441025 0.117099
Si Si4 0.035427 0.096071 0.359874
Si Si5 0.666910 0.191863 0.632069
O O1 0.403542 0.752145 0.072863
O O2 0.223804 0.766684 0.257117
O O3 0.179348 0.676910 0.119865
O O4 0.403612 0.905202 0.111314
O O5 0.799002 0.899932 0.265963
O O6 0.484962 0.842185 0.299398
O O7 0.751886 0.500000 0.096184
O O8 0.662530 0.433653 0.265842
O O9 0.500000 0.425791 0.000000
O O10 0.000000 0.074436 0.500000
O O11 0.155259 0.151377 0.391227
O O12 0.500000 0.213841 0.500000
#
# Coordination Sequence:
#
# PCOD9218778 Si02
#       5
#     8   8   8   8   8
#     4  12  25  42  64 102 142 195 248 287 355 425
#     4  11  25  44  72 102 147 188 236 300 365 426
#     4  10  26  49  76 107 140 184 240 303 374 441
#     4  11  24  43  74 107 143 186 243 296 365 433
#     4  11  24  44  68 100 152 197 244 295 353 431
#
# _framework density 23.803217
#
# number of rings (size 3 to 8) (size 9 to 14) (size 15 to 20)
#    0.000    1.000    4.000    1.200    2.800    6.000 
#    0.000    3.000    0.000    0.000    0.000    0.000 
#    0.000    0.000    0.000    0.000    0.000    0.000 
#
# Total GULP energy -111829.380471 kJ/mol
# GULP energy per Si atom -5591.469024 kJ/mol
# Density = 2.374904 g / cm^3
# Si number density = 23.803217 Si / 1000 Ang^3
#
#
#
# Elastic Constant Matrix: (Units=GPa)
#
#
# Indices 1 2 3 4 5 6 
#
# 1 119.6350 47.9657 54.2163 0.0000 10.5437 0.0000
# 2 47.9657 77.5032 37.3491 0.0000 15.3346 0.0000
# 3 54.2163 37.3491 148.0485 0.0000 15.3118 0.0000
# 4 0.0000 0.0000 0.0000 22.8725 0.0000 10.8379
# 5 10.5437 15.3346 15.3118 0.0000 67.9011 0.0000
# 6 0.0000 0.0000 0.0000 10.8379 0.0000 28.4748
#
#
#
# Elastic Compliance Matrix: (Units=1/GPa)
#
#
# Indices 1 2 3 4 5 6 
#
# 1 0.012121 -0.006131 -0.002908 0.000000 0.000158 0.000000
# 2 -0.006131 0.018231 -0.002075 0.000000 -0.002697 0.000000
# 3 -0.002908 -0.002075 0.008445 0.000000 -0.000984 0.000000
# 4 0.000000 0.000000 0.000000 0.053340 0.000000 -0.020302
# 5 0.000158 -0.002697 -0.000984 0.000000 0.015534 0.000000
# 6 0.000000 0.000000 0.000000 -0.020302 0.000000 0.042846
#
#
# Mechanical properties :
#
#
# Convention : Reuss Voigt Hill
#
# Bulk Modulus (GPa) = 60.35919 69.36099 64.86009
# Shear Modulus (GPa) = 28.04752 37.56005 32.80379
#
# Velocity S-wave (km/s) = 3.43637 3.97664 3.71634
# Velocity P-wave (km/s) = 6.41541 7.09137 6.76184
#
# Compressibility (1/GPa) = 0.01656749
#
# Stress axis : x y z
#
# Youngs Moduli (GPa) = 82.50076 54.85204 118.41531
#
# Poissons Ratio (x) = 0.33632 0.34440
# Poissons Ratio (y) = 0.50584 0.24570
# Poissons Ratio (z) = 0.23995 0.11381
#
# Static dielectric constant tensor:
#      x y z
#    x 1.865930 0.000000 -0.025510 
#    y 0.000000 1.825490 0.000000 
#    z -0.025510 0.000000 1.988250 
# 
# From -- ./inp_files/115499.got.cif
#   From: 2010.05.17/outbox.cif.g08.bks.cpg/sg12_58_cif.got.tgz:115499.got - 2010.06.03 13:09:07.
