data_PCOD9218998
_publ_section_title
;
Structure prediction by ZEFSAII (Michael W. Deem and Ramdas Pophale) SiO2 
 PCOD9218998
Probable space group: C 2/M
;
_chemical_formula_sum "Si O2"
_cell_formula_units_Z 48
_cell_length_a 14.301056
_cell_length_b 23.017706
_cell_length_c 14.167369
_cell_angle_alpha 90.000000
_cell_angle_beta 29.903666
_cell_angle_gamma 90.000000
_cell_volume 2324.995698
_symmetry_space_group_name_H-M "C 2/M"
_symmetry_group_IT_number 12
_symmetry_cell_setting 'monoclinic'
loop_
_space_group_symop_operation_xyz
x,y,z
-x,y,-z
-x,-y,-z
x,-y,z
1/2+x,1/2+y,z
1/2-x,1/2+y,-z
1/2-x,1/2-y,-z
1/2+x,1/2-y,z
loop_
_atom_site_type_symbol
_atom_site_label
_atom_site_fract_x
_atom_site_fract_y
_atom_site_fract_z
Si Si1 0.608399 0.342716 0.987642
Si Si2 0.952186 0.761390 0.278388
Si Si3 0.165168 0.764713 0.283383
Si Si4 0.930727 0.630951 0.848521
Si Si5 0.203649 0.066234 0.434625
Si Si6 0.285121 0.391420 0.775577
O O1 0.699778 0.288907 0.850059
O O2 0.778321 0.372191 0.897218
O O3 0.500000 0.377158 0.000000
O O4 0.474821 0.312324 0.182797
O O5 0.750000 0.750000 0.500000
O O6 0.081427 0.776746 0.253631
O O7 0.026484 0.699605 0.174832
O O8 0.246051 0.826955 0.241343
O O9 0.000000 0.749454 0.500000
O O10 0.129177 0.599436 0.658536
O O11 0.839809 0.604546 0.022497
O O12 0.251813 0.067059 0.280375
O O13 0.002407 0.098263 0.614434
O O14 0.183888 0.000000 0.484013
#
# Coordination Sequence:
#
# PCOD9218998 Si02
#       6
#     8   8   8   8   8   8
#     4  11  23  37  57  89 128 167 214 252 295 365
#     4  11  21  35  57  87 128 165 209 247 300 379
#     4  11  19  34  53  88 123 164 196 240 305 371
#     4  11  23  39  59  87 123 164 209 255 305 367
#     4  11  25  40  62  93 123 158 209 263 323 379
#     4  11  20  37  62  87 123 160 200 246 312 382
#
# _framework density 20.645199999999999
#
# number of rings (size 3 to 8) (size 9 to 14) (size 15 to 20)
#    0.000    1.000    5.000    4.500    2.333    2.000 
#    0.000    0.000    0.000    0.500    0.000    1.167 
#    0.000    0.000    0.000    0.000    0.000    0.000 
#
# Total GULP energy -134094.458702 kJ/mol
# GULP energy per Si atom -5587.269113 kJ/mol
# Density = 2.059821 g / cm^3
# Si number density = 20.645200 Si / 1000 Ang^3
#
#
#
# Elastic Constant Matrix: (Units=GPa)
#
#
# Indices 1 2 3 4 5 6 
#
# 1 116.9492 0.8893 33.2121 0.0131 -18.9180 -0.0147
# 2 0.8893 52.7321 7.2135 0.0063 -6.1289 -0.0242
# 3 33.2121 7.2135 107.9040 -0.0031 -7.3447 -0.0106
# 4 0.0131 0.0063 -0.0031 8.2329 -0.0219 6.7478
# 5 -18.9180 -6.1289 -7.3447 -0.0219 33.6722 0.0222
# 6 -0.0147 -0.0242 -0.0106 6.7478 0.0222 8.1727
#
#
#
# Elastic Compliance Matrix: (Units=1/GPa)
#
#
# Indices 1 2 3 4 5 6 
#
# 1 0.010202 0.000828 -0.002837 -0.000019 0.005263 0.000019
# 2 0.000828 0.019564 -0.001308 -0.000141 0.003740 0.000164
# 3 -0.002837 -0.001308 0.010256 0.000024 0.000405 -0.000017
# 4 -0.000019 -0.000141 0.000024 0.375717 0.000418 -0.310209
# 5 0.005263 0.003740 0.000405 0.000418 0.033425 -0.000415
# 6 0.000019 0.000164 -0.000017 -0.310209 -0.000415 0.378482
#
#
# Mechanical properties :
#
#
# Convention : Reuss Voigt Hill
#
# Bulk Modulus (GPa) = 29.95237 40.02390 34.98814
# Shear Modulus (GPa) = 5.91431 25.76693 15.84062
#
# Velocity S-wave (km/s) = 1.69439 3.53665 2.77298
# Velocity P-wave (km/s) = 4.28574 6.00882 5.21888
#
# Compressibility (1/GPa) = 0.03338633
#
# Stress axis : x y z
#
# Youngs Moduli (GPa) = 98.02458 51.11535 97.50653
#
# Poissons Ratio (x) = -0.04231 0.27663
# Poissons Ratio (y) = -0.08115 0.12754
# Poissons Ratio (z) = 0.27810 0.06686
#
# Static dielectric constant tensor:
#      x y z
#    x 1.814910 0.000000 -0.055660 
#    y 0.000000 1.725480 0.000010 
#    z -0.055660 0.000010 1.786680 
# 
# From -- ./inp_files/218436.got.cif
#   From: 2010.05.17/outbox.cif.g08.bks.cpg/sg12_110_cif.got.tgz:218436.got - 2010.06.03 13:09:07.
