data_PCOD9218441
_publ_section_title
;
Structure prediction by ZEFSAII (Michael W. Deem and Ramdas Pophale) SiO2 
 PCOD9218441
Probable space group: C 2/M
;
_chemical_formula_sum "Si O2"
_cell_formula_units_Z 30
_cell_length_a 11.088916
_cell_length_b 27.328467
_cell_length_c 4.960273
_cell_angle_alpha 90.000000
_cell_angle_beta 87.242682
_cell_angle_gamma 90.000000
_cell_volume 1501.436081
_symmetry_space_group_name_H-M "C 2/M"
_symmetry_group_IT_number 12
_symmetry_cell_setting 'monoclinic'
loop_
_space_group_symop_operation_xyz
x,y,z
-x,y,-z
-x,-y,-z
x,-y,z
1/2+x,1/2+y,z
1/2-x,1/2+y,-z
1/2-x,1/2-y,-z
1/2+x,1/2-y,z
loop_
_atom_site_type_symbol
_atom_site_label
_atom_site_fract_x
_atom_site_fract_y
_atom_site_fract_z
Si Si1 0.000000 0.575435 0.500000
Si Si2 0.130322 0.848276 0.867506
Si Si3 0.723902 0.141920 0.647067
Si Si4 0.582889 0.761739 0.750089
Si Si5 0.000000 0.500000 0.000000
O O1 0.114729 0.609449 0.553481
O O2 0.981148 0.542304 0.765906
O O3 0.162700 0.864185 0.563972
O O4 0.134477 0.788934 0.859741
O O5 0.231895 0.868445 0.056888
O O6 0.000000 0.861458 0.000000
O O7 0.679668 0.198218 0.651865
O O8 0.500000 0.750052 0.500000
O O9 0.500000 0.783297 0.000000
#
# Coordination Sequence:
#
# PCOD9218441 Si02
#       5
#     4   8   8   8   2
#     4  11  24  42  70  96 118 150 192 256 338 369
#     4  11  23  37  54  85 129 175 211 243 280 330
#     4  12  22  38  62  87 120 161 214 250 295 368
#     4  11  21  35  54  84 126 170 214 255 288 331
#     4  10  24  46  64  98 126 134 184 266 344 404
#
# _framework density 19.980872999999999
#
# number of rings (size 3 to 8) (size 9 to 14) (size 15 to 20)
#    0.000    0.800    1.333    8.800    1.867    0.000 
#    0.000    0.000    0.000    0.000    0.000   65.333 
#    0.000    0.000    0.000    0.000    0.000    0.000 
#
# Total GULP energy -83608.504862 kJ/mol
# GULP energy per Si atom -5573.900324 kJ/mol
# Density = 1.993540 g / cm^3
# Si number density = 19.980873 Si / 1000 Ang^3
#
#
#
# Elastic Constant Matrix: (Units=GPa)
#
#
# Indices 1 2 3 4 5 6 
#
# 1 76.1319 25.5388 31.4118 0.0000 4.9670 0.0000
# 2 25.5388 42.6553 14.8387 0.0000 10.3672 0.0000
# 3 31.4118 14.8387 133.6449 0.0000 16.4538 0.0000
# 4 0.0000 0.0000 0.0000 24.2447 0.0000 6.7797
# 5 4.9670 10.3672 16.4538 0.0000 41.5245 0.0000
# 6 0.0000 0.0000 0.0000 6.7797 0.0000 -3.8550
#
#
#
# Elastic Compliance Matrix: (Units=1/GPa)
#
#
# Indices 1 2 3 4 5 6 
#
# 1 0.017678 -0.009847 -0.003263 0.000000 0.001637 0.000000
# 2 -0.009847 0.031020 -0.000338 0.000000 -0.006433 0.000000
# 3 -0.003263 -0.000338 0.008651 0.000000 -0.002953 0.000000
# 4 0.000000 0.000000 0.000000 0.027649 0.000000 0.048625
# 5 0.001637 -0.006433 -0.002953 0.000000 0.026663 0.000000
# 6 0.000000 0.000000 0.000000 0.048625 0.000000 -0.173886
#
#
# Mechanical properties :
#
#
# Convention : Reuss Voigt Hill
#
# Bulk Modulus (GPa) = 32.83745 44.00120 38.41932
# Shear Modulus (GPa) = -198.57564 24.42568 -87.07498
#
# Velocity S-wave (km/s) = -9.97991 3.50015 -6.60861
# Velocity P-wave (km/s) = 10.78555 6.19711 6.24195
#
# Compressibility (1/GPa) = 0.03045304
#
# Stress axis : x y z
#
# Youngs Moduli (GPa) = 56.56785 32.23689 115.59916
#
# Poissons Ratio (x) = 0.31743 0.37723
# Poissons Ratio (y) = 0.55702 0.03905
# Poissons Ratio (z) = 0.18459 0.01089
#
# Static dielectric constant tensor:
#      x y z
#    x 1.734660 0.000000 -0.032440 
#    y 0.000000 1.662140 0.000000 
#    z -0.032440 0.000000 1.718090 
# 
# From -- ./inp_files/7275.got.cif
#   From: 2010.05.17/outbox.cif.g08.bks.cpg/sg12_4_cif.got.tgz:7275.got - 2010.06.03 13:09:07.
