data_PCOD9218631
_publ_section_title
;
Structure prediction by ZEFSAII (Michael W. Deem and Ramdas Pophale) SiO2 
 PCOD9218631
Probable space group: C 2/M
;
_chemical_formula_sum "Si O2"
_cell_formula_units_Z 44
_cell_length_a 29.278320
_cell_length_b 8.805914
_cell_length_c 9.126404
_cell_angle_alpha 90.000000
_cell_angle_beta 105.637708
_cell_angle_gamma 90.000000
_cell_volume 2265.896006
_symmetry_space_group_name_H-M "C 2/M"
_symmetry_group_IT_number 12
_symmetry_cell_setting 'monoclinic'
loop_
_space_group_symop_operation_xyz
x,y,z
-x,y,-z
-x,-y,-z
x,-y,z
1/2+x,1/2+y,z
1/2-x,1/2+y,-z
1/2-x,1/2-y,-z
1/2+x,1/2-y,z
loop_
_atom_site_type_symbol
_atom_site_label
_atom_site_fract_x
_atom_site_fract_y
_atom_site_fract_z
Si Si1 0.872769 0.500000 0.890292
Si Si2 0.842712 0.833809 0.419574
Si Si3 0.561881 0.000000 0.784092
Si Si4 0.229595 0.672170 0.837805
Si Si5 0.175316 0.182282 0.256095
Si Si6 0.052119 0.249056 0.526734
Si Si7 0.457596 0.000000 0.731955
O O1 0.847322 0.334822 0.839521
O O2 0.917632 0.500000 0.818925
O O3 0.893794 0.500000 0.071424
O O4 0.818250 0.732676 0.275874
O O5 0.831389 0.788895 0.576740
O O6 0.899210 0.839242 0.449644
O O7 0.821461 0.000000 0.379872
O O8 0.559805 0.856464 0.674219
O O9 0.512156 0.000000 0.829572
O O10 0.221958 0.500000 0.872704
O O11 0.270411 0.682917 0.749385
O O12 0.250000 0.750000 0.000000
O O13 0.159208 0.000000 0.215346
O O14 0.048741 0.356335 0.381007
O O15 0.000000 0.175800 0.500000
#
# Coordination Sequence:
#
# PCOD9218631 Si02
#       7
#     4   8   4   8   8   8   4
#     4  12  21  36  72  88 126 170 209 246 324 362
#     4  11  23  40  64  88 121 163 208 253 307 367
#     4   9  21  33  59  95 127 155 213 256 303 374
#     4  11  26  43  64  90 126 157 201 257 310 371
#     4  10  25  43  60  93 125 162 211 259 298 375
#     4   9  19  37  58  89 126 158 204 260 305 366
#     4   9  17  37  59  91 121 161 213 256 297 372
#
# _framework density 19.418368000000001
#
# number of rings (size 3 to 8) (size 9 to 14) (size 15 to 20)
#    0.000    1.818    1.818    2.455    8.909    0.364 
#    0.000    0.000    0.000    3.273    0.000    0.000 
#    0.000    0.000    0.000    0.000    0.000    0.000 
#
# Total GULP energy -122531.513672 kJ/mol
# GULP energy per Si atom -5569.614258 kJ/mol
# Density = 1.937417 g / cm^3
# Si number density = 19.418368 Si / 1000 Ang^3
#
#
#
# Elastic Constant Matrix: (Units=GPa)
#
#
# Indices 1 2 3 4 5 6 
#
# 1 95.2723 26.2638 39.5357 0.0000 5.6032 0.0000
# 2 26.2638 109.9666 50.0958 0.0000 30.4147 0.0000
# 3 39.5357 50.0958 88.2516 0.0000 19.1608 0.0000
# 4 0.0000 0.0000 0.0000 14.1271 0.0000 7.1042
# 5 5.6032 30.4147 19.1608 0.0000 31.4104 0.0000
# 6 0.0000 0.0000 0.0000 7.1042 0.0000 23.6073
#
#
#
# Elastic Compliance Matrix: (Units=1/GPa)
#
#
# Indices 1 2 3 4 5 6 
#
# 1 0.013036 -0.001150 -0.005676 0.000000 0.002251 0.000000
# 2 -0.001150 0.014912 -0.005601 0.000000 -0.010817 0.000000
# 3 -0.005676 -0.005601 0.018046 0.000000 -0.004573 0.000000
# 4 0.000000 0.000000 0.000000 0.083408 0.000000 -0.025100
# 5 0.002251 -0.010817 -0.004573 0.000000 0.044699 0.000000
# 6 0.000000 0.000000 0.000000 -0.025100 0.000000 0.049913
#
#
# Mechanical properties :
#
#
# Convention : Reuss Voigt Hill
#
# Bulk Modulus (GPa) = 47.30295 58.36457 52.83376
# Shear Modulus (GPa) = 19.53774 25.66865 22.60320
#
# Velocity S-wave (km/s) = 3.17542 3.63970 3.41546
# Velocity P-wave (km/s) = 6.15282 6.91266 6.54378
#
# Compressibility (1/GPa) = 0.02114033
#
# Stress axis : x y z
#
# Youngs Moduli (GPa) = 76.70898 67.06147 55.41428
#
# Poissons Ratio (x) = 0.07715 0.31452
# Poissons Ratio (y) = 0.08825 0.31035
# Poissons Ratio (z) = 0.43538 0.37559
#
# Static dielectric constant tensor:
#      x y z
#    x 1.688900 0.000000 -0.007810 
#    y 0.000000 1.699140 0.000000 
#    z -0.007810 0.000000 1.692970 
# 
# From -- ./inp_files/108263.got.cif
#   From: 2010.05.17/outbox.cif.g08.bks.cpg/sg12_55_cif.got.tgz:108263.got - 2010.06.03 13:09:07.
