data_PCOD9218835
_publ_section_title
;
Structure prediction by ZEFSAII (Michael W. Deem and Ramdas Pophale) SiO2 
 PCOD9218835
Probable space group: C 2/M
;
_chemical_formula_sum "Si O2"
_cell_formula_units_Z 48
_cell_length_a 19.751671
_cell_length_b 19.465245
_cell_length_c 13.821470
_cell_angle_alpha 90.000000
_cell_angle_beta 30.186815
_cell_angle_gamma 90.000000
_cell_volume 2671.968901
_symmetry_space_group_name_H-M "C 2/M"
_symmetry_group_IT_number 12
_symmetry_cell_setting 'monoclinic'
loop_
_space_group_symop_operation_xyz
x,y,z
-x,y,-z
-x,-y,-z
x,-y,z
1/2+x,1/2+y,z
1/2-x,1/2+y,-z
1/2-x,1/2-y,-z
1/2+x,1/2-y,z
loop_
_atom_site_type_symbol
_atom_site_label
_atom_site_fract_x
_atom_site_fract_y
_atom_site_fract_z
Si Si1 0.140892 0.774451 0.381564
Si Si2 0.661322 0.794727 0.034817
Si Si3 0.384231 0.289980 0.370931
Si Si4 0.905356 0.922000 0.210205
Si Si5 0.860171 0.424159 0.804512
Si Si6 0.836492 0.389356 0.622899
O O1 0.138687 0.809231 0.488656
O O2 0.154043 0.693025 0.386825
O O3 0.000000 0.784818 0.500000
O O4 0.261848 0.795379 0.161897
O O5 0.514001 0.760601 0.207045
O O6 0.658678 0.868225 0.089758
O O7 0.750000 0.750000 0.000000
O O8 0.250000 0.250000 0.500000
O O9 0.416166 0.358620 0.270543
O O10 0.758531 0.916124 0.343554
O O11 0.927924 0.000000 0.219601
O O12 0.000000 0.911044 0.000000
O O13 0.825613 0.500000 0.880266
O O14 0.787499 0.409491 0.791366
O O15 0.016333 0.418397 0.580934
#
# Coordination Sequence:
#
# PCOD9218835 Si02
#       6
#     8   8   8   8   8   8
#     4  12  21  38  63  92 123 160 210 252 303 364
#     4  12  22  39  63  87 124 164 204 252 297 366
#     4  12  24  40  63  92 124 162 208 252 304 366
#     4  11  24  38  57  88 126 160 197 249 310 365
#     4  11  21  34  60  93 120 151 198 255 310 357
#     4  11  17  37  58  88 121 152 196 255 308 357
#
# _framework density 17.964281
#
# number of rings (size 3 to 8) (size 9 to 14) (size 15 to 20)
#    0.000    0.500    8.333    3.000    0.000    0.000 
#    0.000    0.833    0.000    1.000    0.000    4.667 
#    0.000    0.000    0.000    0.000    0.000    0.000 
#
# Total GULP energy -134037.103509 kJ/mol
# GULP energy per Si atom -5584.879313 kJ/mol
# Density = 1.792339 g / cm^3
# Si number density = 17.964281 Si / 1000 Ang^3
#
#
#
# Elastic Constant Matrix: (Units=GPa)
#
#
# Indices 1 2 3 4 5 6 
#
# 1 84.6288 54.6222 39.4718 0.0000 15.4143 -0.0001
# 2 54.6222 152.3302 35.8808 0.0000 20.7790 -0.0001
# 3 39.4718 35.8808 94.2991 0.0000 18.2496 -0.0001
# 4 0.0000 0.0000 0.0000 36.5759 0.0000 17.0631
# 5 15.4143 20.7790 18.2496 0.0000 34.6727 0.0001
# 6 -0.0001 -0.0001 -0.0001 17.0631 0.0001 23.2816
#
#
#
# Elastic Compliance Matrix: (Units=1/GPa)
#
#
# Indices 1 2 3 4 5 6 
#
# 1 0.017760 -0.004844 -0.005149 0.000000 -0.002282 0.000000
# 2 -0.004844 0.008867 -0.000818 0.000000 -0.002730 0.000000
# 3 -0.005149 -0.000818 0.013955 0.000000 -0.004566 0.000000
# 4 0.000000 0.000000 0.000000 0.041545 0.000000 -0.030448
# 5 -0.002282 -0.002730 -0.004566 0.000000 0.033895 0.000000
# 6 0.000000 0.000000 0.000000 -0.030448 0.000000 0.065268
#
#
# Mechanical properties :
#
#
# Convention : Reuss Voigt Hill
#
# Bulk Modulus (GPa) = 52.74491 65.68976 59.21734
# Shear Modulus (GPa) = 23.89700 32.32492 28.11096
#
# Velocity S-wave (km/s) = 3.65122 4.24653 3.96008
# Velocity P-wave (km/s) = 6.87022 7.79040 7.34473
#
# Compressibility (1/GPa) = 0.01895917
#
# Stress axis : x y z
#
# Youngs Moduli (GPa) = 56.30546 112.78136 71.66070
#
# Poissons Ratio (x) = 0.54634 0.36899
# Poissons Ratio (y) = 0.27276 0.05860
# Poissons Ratio (z) = 0.28993 0.09223
#
# Static dielectric constant tensor:
#      x y z
#    x 1.642170 0.000000 -0.021280 
#    y 0.000000 1.637240 0.000000 
#    z -0.021280 0.000000 1.630900 
# 
# From -- ./inp_files/234237.got.cif
#   From: 2010.05.17/outbox.cif.g08.bks.cpg/sg12_118_cif.got.tgz:234237.got - 2010.06.03 13:09:07.
