data_PCOD9218326
_publ_section_title
;
Structure prediction by ZEFSAII (Michael W. Deem and Ramdas Pophale) SiO2 
 PCOD9218326
Probable space group: C 2/M
;
_chemical_formula_sum "Si O2"
_cell_formula_units_Z 64
_cell_length_a 26.342250
_cell_length_b 14.358320
_cell_length_c 11.377274
_cell_angle_alpha 90.000000
_cell_angle_beta 42.659919
_cell_angle_gamma 90.000000
_cell_volume 2916.065037
_symmetry_space_group_name_H-M "C 2/M"
_symmetry_group_IT_number 12
_symmetry_cell_setting 'monoclinic'
loop_
_space_group_symop_operation_xyz
x,y,z
-x,y,-z
-x,-y,-z
x,-y,z
1/2+x,1/2+y,z
1/2-x,1/2+y,-z
1/2-x,1/2-y,-z
1/2+x,1/2-y,z
loop_
_atom_site_type_symbol
_atom_site_label
_atom_site_fract_x
_atom_site_fract_y
_atom_site_fract_z
Si Si1 0.267317 0.393544 0.976154
Si Si2 0.623686 0.333207 0.019537
Si Si3 0.037535 0.106376 0.773066
Si Si4 0.790070 0.708009 0.317811
Si Si5 0.931478 0.313052 0.199271
Si Si6 0.602594 0.817915 0.248628
Si Si7 0.163471 0.890892 0.380514
Si Si8 0.043757 0.606290 0.584558
O O1 0.245603 0.500000 0.993537
O O2 0.310944 0.387463 0.024089
O O3 0.323943 0.363790 0.775733
O O4 0.190874 0.337351 0.095226
O O5 0.551658 0.386177 0.091846
O O6 0.590713 0.267237 0.179201
O O7 0.665123 0.276044 0.846719
O O8 0.065445 0.198699 0.795496
O O9 0.081303 0.118885 0.574965
O O10 0.055697 0.000000 0.784724
O O11 0.750000 0.750000 0.500000
O O12 0.856998 0.650178 0.262995
O O13 0.725341 0.660464 0.352815
O O14 0.939466 0.354230 0.315515
O O15 0.000000 0.339612 0.000000
O O16 0.545298 0.892511 0.288917
O O17 0.579038 0.825426 0.425551
O O18 0.180427 0.000000 0.360028
O O19 0.071772 0.500000 0.522870
#
# Coordination Sequence:
#
# PCOD9218326 Si02
#       8
#     8   8   8   8   8   8   8   8
#     4  11  24  41  66 100 138 174 225 285 349 418
#     4  12  25  43  68 105 130 184 226 284 351 410
#     4  11  24  46  70 100 140 182 235 283 338 412
#     4  12  25  43  68  96 139 178 235 284 333 416
#     4  12  25  46  67 100 137 184 235 283 345 406
#     4  11  22  42  69  99 141 171 225 284 354 416
#     4  10  24  44  69 101 136 182 225 284 355 408
#     4  11  25  43  69 102 135 181 228 279 349 419
#
# _framework density 21.947382999999999
#
# number of rings (size 3 to 8) (size 9 to 14) (size 15 to 20)
#    0.000    0.750    5.000    2.250    3.500    1.500 
#    0.000    3.125    0.000    0.000    0.000    0.000 
#    0.000    0.000    0.000    0.000    0.000    0.000 
#
# Total GULP energy -178652.139046 kJ/mol
# GULP energy per Si atom -5582.879345 kJ/mol
# Density = 2.189743 g / cm^3
# Si number density = 21.947383 Si / 1000 Ang^3
#
#
#
# Elastic Constant Matrix: (Units=GPa)
#
#
# Indices 1 2 3 4 5 6 
#
# 1 92.1470 0.3170 35.7778 0.0000 12.4666 0.0000
# 2 0.3170 68.5470 15.9580 0.0000 11.7041 0.0000
# 3 35.7778 15.9580 129.3513 0.0000 11.8436 0.0000
# 4 0.0000 0.0000 0.0000 18.6837 0.0000 -8.2843
# 5 12.4666 11.7041 11.8436 0.0000 49.9478 0.0000
# 6 0.0000 0.0000 0.0000 -8.2843 0.0000 18.4238
#
#
#
# Elastic Compliance Matrix: (Units=1/GPa)
#
#
# Indices 1 2 3 4 5 6 
#
# 1 0.012506 0.001169 -0.003366 0.000000 -0.002597 0.000000
# 2 0.001169 0.015630 -0.001932 0.000000 -0.003496 0.000000
# 3 -0.003366 -0.001932 0.008977 0.000000 -0.000836 0.000000
# 4 0.000000 0.000000 0.000000 0.066851 0.000000 0.030060
# 5 -0.002597 -0.003496 -0.000836 0.000000 0.021687 0.000000
# 6 0.000000 0.000000 0.000000 0.030060 0.000000 0.067794
#
#
# Mechanical properties :
#
#
# Convention : Reuss Voigt Hill
#
# Bulk Modulus (GPa) = 34.65374 43.79453 39.22413
# Shear Modulus (GPa) = 23.66091 33.27724 28.46907
#
# Velocity S-wave (km/s) = 3.28697 3.89810 3.60551
# Velocity P-wave (km/s) = 5.49812 6.34491 5.93663
#
# Compressibility (1/GPa) = 0.02885692
#
# Stress axis : x y z
#
# Youngs Moduli (GPa) = 79.95924 63.98052 111.40053
#
# Poissons Ratio (x) = -0.07481 0.37493
# Poissons Ratio (y) = -0.09349 0.21517
# Poissons Ratio (z) = 0.26911 0.12358
#
# Static dielectric constant tensor:
#      x y z
#    x 1.773500 0.000000 0.074660 
#    y 0.000000 1.871920 0.000000 
#    z 0.074660 0.000000 1.531280 
# 
# From -- ./inp_files/183795.got.cif
#   From: 2010.05.17/outbox.cif.g08.bks.cpg/sg12_92_cif.got.tgz:183795.got - 2010.06.03 13:09:07.
