data_PCOD9218032
_publ_section_title
;
Structure prediction by ZEFSAII (Michael W. Deem and Ramdas Pophale) SiO2 
 PCOD9218032
Probable space group: C 2/M
;
_chemical_formula_sum "Si O2"
_cell_formula_units_Z 46
_cell_length_a 18.886446
_cell_length_b 12.262516
_cell_length_c 12.259629
_cell_angle_alpha 90.000000
_cell_angle_beta 127.241591
_cell_angle_gamma 90.000000
_cell_volume 2260.319217
_symmetry_space_group_name_H-M "C 2/M"
_symmetry_group_IT_number 12
_symmetry_cell_setting 'monoclinic'
loop_
_space_group_symop_operation_xyz
x,y,z
-x,y,-z
-x,-y,-z
x,-y,z
1/2+x,1/2+y,z
1/2-x,1/2+y,-z
1/2-x,1/2-y,-z
1/2+x,1/2-y,z
loop_
_atom_site_type_symbol
_atom_site_label
_atom_site_fract_x
_atom_site_fract_y
_atom_site_fract_z
Si Si1 0.003314 0.368014 0.635473
Si Si2 0.362972 0.175710 0.841656
Si Si3 0.646549 0.274123 0.385501
Si Si4 0.385761 0.500000 0.159197
Si Si5 0.081763 0.000000 0.421911
Si Si6 0.500000 0.000000 0.000000
Si Si7 0.715751 0.500000 0.726203
Si Si8 0.143969 0.243449 0.920936
O O1 0.008244 0.500000 0.657003
O O2 0.916086 0.313802 0.610163
O O3 0.000000 0.349191 0.500000
O O4 0.086411 0.306504 0.773845
O O5 0.367003 0.269402 0.757241
O O6 0.271938 0.106478 0.747408
O O7 0.373417 0.205155 0.977388
O O8 0.440807 0.093343 0.885234
O O9 0.750000 0.250000 0.500000
O O10 0.619489 0.391784 0.402184
O O11 0.477060 0.500000 0.311066
O O12 0.301381 0.500000 0.161471
O O13 0.382353 0.616083 0.097005
O O14 0.122234 0.000000 0.579612
O O15 0.250000 0.250000 0.000000
#
# Coordination Sequence:
#
# PCOD9218032 Si02
#       8
#     8   8   8   4   4   2   4   8
#     4  11  29  51  75 107 147 195 246 296 359 437
#     4  11  25  44  71 105 141 185 249 292 357 421
#     4  12  27  46  75 107 147 192 238 301 363 432
#     4  12  26  46  71 105 146 188 237 301 364 433
#     4  12  26  46  71 105 146 188 237 301 364 433
#     4  10  24  40  74  94 132 188 238 312 314 432
#     4  11  23  43  71 106 134 194 245 299 347 421
#     4  12  27  46  75 107 147 192 238 301 363 432
#
# _framework density 20.351108
#
# number of rings (size 3 to 8) (size 9 to 14) (size 15 to 20)
#    0.000    0.522    5.217    1.304   14.609    0.696 
#    0.000    0.870    0.000    0.000    0.000    0.000 
#    0.000    0.000    0.000    0.000    0.000    0.000 
#
# Total GULP energy -128161.622329 kJ/mol
# GULP energy per Si atom -5572.244449 kJ/mol
# Density = 2.030479 g / cm^3
# Si number density = 20.351108 Si / 1000 Ang^3
#
#
#
# Elastic Constant Matrix: (Units=GPa)
#
#
# Indices 1 2 3 4 5 6 
#
# 1 103.0590 40.0020 49.3273 0.0000 7.9891 0.0000
# 2 40.0020 143.0411 54.5038 0.0000 -1.8810 0.0000
# 3 49.3273 54.5038 134.3505 0.0000 0.3467 0.0000
# 4 0.0000 0.0000 0.0000 73.6743 0.0000 -14.3479
# 5 7.9891 -1.8810 0.3467 0.0000 49.2930 0.0000
# 6 0.0000 0.0000 0.0000 -14.3479 0.0000 11.1173
#
#
#
# Elastic Compliance Matrix: (Units=1/GPa)
#
#
# Indices 1 2 3 4 5 6 
#
# 1 0.012456 -0.002094 -0.003719 0.000000 -0.002073 0.000000
# 2 -0.002094 0.008627 -0.002733 0.000000 0.000688 0.000000
# 3 -0.003719 -0.002733 0.009916 0.000000 0.000429 0.000000
# 4 0.000000 0.000000 0.000000 0.018130 0.000000 0.023398
# 5 -0.002073 0.000688 0.000429 0.000000 0.020646 0.000000
# 6 0.000000 0.000000 0.000000 0.023398 0.000000 0.120147
#
#
# Mechanical properties :
#
#
# Convention : Reuss Voigt Hill
#
# Bulk Modulus (GPa) = 71.89665 74.23519 73.06592
# Shear Modulus (GPa) = 23.62394 42.59144 33.10769
#
# Velocity S-wave (km/s) = 3.41077 4.57971 4.03777
# Velocity P-wave (km/s) = 7.13554 8.03252 7.59728
#
# Compressibility (1/GPa) = 0.01390885
#
# Stress axis : x y z
#
# Youngs Moduli (GPa) = 80.27993 115.91674 100.84621
#
# Poissons Ratio (x) = 0.24271 0.37501
# Poissons Ratio (y) = 0.16809 0.27559
# Poissons Ratio (z) = 0.29853 0.31678
#
# Static dielectric constant tensor:
#      x y z
#    x 1.732510 0.000000 0.024220 
#    y 0.000000 1.678170 0.000000 
#    z 0.024220 0.000000 1.731240 
# 
# From -- ./inp_files/165507.got.cif
#   From: 2010.05.17/outbox.cif.g08.bks.cpg/sg12_83_cif.got.tgz:165507.got - 2010.06.03 13:09:07.
