data_PCOD9218505
_publ_section_title
;
Structure prediction by ZEFSAII (Michael W. Deem and Ramdas Pophale) SiO2 
 PCOD9218505
Probable space group: C 2/M
;
_chemical_formula_sum "Si O2"
_cell_formula_units_Z 44
_cell_length_a 14.411372
_cell_length_b 8.915495
_cell_length_c 18.648370
_cell_angle_alpha 90.000000
_cell_angle_beta 129.394529
_cell_angle_gamma 90.000000
_cell_volume 1851.635543
_symmetry_space_group_name_H-M "C 2/M"
_symmetry_group_IT_number 12
_symmetry_cell_setting 'monoclinic'
loop_
_space_group_symop_operation_xyz
x,y,z
-x,y,-z
-x,-y,-z
x,-y,z
1/2+x,1/2+y,z
1/2-x,1/2+y,-z
1/2-x,1/2-y,-z
1/2+x,1/2-y,z
loop_
_atom_site_type_symbol
_atom_site_label
_atom_site_fract_x
_atom_site_fract_y
_atom_site_fract_z
Si Si1 0.724900 0.000000 0.950181
Si Si2 0.091204 0.753682 0.981061
Si Si3 0.267905 0.327631 0.322785
Si Si4 0.532255 0.334538 0.220948
Si Si5 0.129025 0.179667 0.473343
Si Si6 0.089868 0.675018 0.720004
O O1 0.655350 0.125745 0.966180
O O2 0.804305 0.130629 0.947308
O O3 0.000000 0.708357 0.000000
O O4 0.010097 0.834811 0.880881
O O5 0.278219 0.500000 0.304336
O O6 0.134403 0.289197 0.282621
O O7 0.355316 0.305810 0.433382
O O8 0.297157 0.215408 0.273140
O O9 0.575218 0.500000 0.262975
O O10 0.424429 0.282819 0.219127
O O11 0.250000 0.250000 0.500000
O O12 0.020894 0.272680 0.385436
O O13 0.117976 0.000000 0.453480
O O14 0.084766 0.500000 0.738320
#
# Coordination Sequence:
#
# PCOD9218505 Si02
#       6
#     4   8   8   8   8   8
#     4  10  24  46  76 110 138 184 236 288 358 440
#     4  11  25  49  77 106 146 186 238 295 363 434
#     4  11  25  44  68 102 137 185 233 284 350 413
#     4  12  26  45  69 102 142 179 228 291 354 412
#     4  11  22  40  69  95 136 184 236 288 342 407
#     4  12  26  44  67  99 140 186 234 290 344 411
#
# _framework density 23.762775999999999
#
# number of rings (size 3 to 8) (size 9 to 14) (size 15 to 20)
#    0.000    0.727    2.727    4.364    2.545    7.273 
#    3.273    0.000    0.000    0.000    0.000    0.000 
#    0.000    0.000    0.000    0.000    0.000    0.000 
#
# Total GULP energy -122566.288280 kJ/mol
# GULP energy per Si atom -5571.194922 kJ/mol
# Density = 2.370869 g / cm^3
# Si number density = 23.762776 Si / 1000 Ang^3
#
#
#
# Elastic Constant Matrix: (Units=GPa)
#
#
# Indices 1 2 3 4 5 6 
#
# 1 113.1345 -1.1127 -9.6840 0.0000 -16.0882 0.0000
# 2 -1.1127 74.1754 -22.8140 0.0000 3.4902 0.0000
# 3 -9.6840 -22.8140 54.2963 0.0000 -8.4246 0.0000
# 4 0.0000 0.0000 0.0000 -157.5515 0.0000 -122.0494
# 5 -16.0882 3.4902 -8.4246 0.0000 35.9996 0.0000
# 6 0.0000 0.0000 0.0000 -122.0494 0.0000 -46.6528
#
#
#
# Elastic Compliance Matrix: (Units=1/GPa)
#
#
# Indices 1 2 3 4 5 6 
#
# 1 0.009797 0.000790 0.002850 0.000000 0.004969 0.000000
# 2 0.000790 0.015546 0.006739 0.000000 0.000423 0.000000
# 3 0.002850 0.006739 0.022677 0.000000 0.005927 0.000000
# 4 0.000000 0.000000 0.000000 0.006183 0.000000 -0.016174
# 5 0.004969 0.000423 0.005927 0.000000 0.031345 0.000000
# 6 0.000000 0.000000 0.000000 -0.016174 0.000000 0.020879
#
#
# Mechanical properties :
#
#
# Convention : Reuss Voigt Hill
#
# Bulk Modulus (GPa) = 14.53962 19.37608 16.95785
# Shear Modulus (GPa) = 46.04237 -15.29314 15.37462
#
# Velocity S-wave (km/s) = 4.40657 -2.53963 2.54639
# Velocity P-wave (km/s) = 5.65884 0.65420 3.97458
#
# Compressibility (1/GPa) = 0.06877757
#
# Stress axis : x y z
#
# Youngs Moduli (GPa) = 102.06815 64.32489 44.09779
#
# Poissons Ratio (x) = -0.05081 -0.12569
# Poissons Ratio (y) = -0.08062 -0.29716
# Poissons Ratio (z) = -0.29092 -0.43346
#
# Static dielectric constant tensor:
#      x y z
#    x 1.904820 0.000000 0.016050 
#    y 0.000000 1.808740 0.000000 
#    z 0.016050 0.000000 1.973000 
# 
# From -- ./inp_files/267805.got.cif
#   From: 2010.05.17/outbox.cif.g08.bks.cpg/sg12_134_cif.got.tgz:267805.got - 2010.06.03 13:09:07.
