data_PCOD9218500
_publ_section_title
;
Structure prediction by ZEFSAII (Michael W. Deem and Ramdas Pophale) SiO2 
 PCOD9218500
Probable space group: C 2/M
;
_chemical_formula_sum "Si O2"
_cell_formula_units_Z 40
_cell_length_a 8.687387
_cell_length_b 28.469371
_cell_length_c 14.398418
_cell_angle_alpha 90.000000
_cell_angle_beta 32.719891
_cell_angle_gamma 90.000000
_cell_volume 1924.879614
_symmetry_space_group_name_H-M "C 2/M"
_symmetry_group_IT_number 12
_symmetry_cell_setting 'monoclinic'
loop_
_space_group_symop_operation_xyz
x,y,z
-x,y,-z
-x,-y,-z
x,-y,z
1/2+x,1/2+y,z
1/2-x,1/2+y,-z
1/2-x,1/2-y,-z
1/2+x,1/2-y,z
loop_
_atom_site_type_symbol
_atom_site_label
_atom_site_fract_x
_atom_site_fract_y
_atom_site_fract_z
Si Si1 0.570928 0.183994 0.642053
Si Si2 0.000000 0.750145 0.500000
Si Si3 0.269636 0.098882 0.547962
Si Si4 0.892912 0.500000 0.192489
Si Si5 0.226270 0.592125 0.952731
Si Si6 0.797189 0.500000 0.456963
Si Si7 0.000000 0.137212 0.000000
O O1 0.730105 0.214920 0.638349
O O2 0.533921 0.217627 0.572158
O O3 0.754965 0.137568 0.520339
O O4 0.262782 0.166820 0.828253
O O5 0.500000 0.120523 0.500000
O O6 0.393277 0.049377 0.450073
O O7 0.991997 0.087504 0.748324
O O8 0.906390 0.500000 0.296690
O O9 0.548698 0.500000 0.355153
O O10 0.052882 0.545297 0.070190
O O11 0.360139 0.610583 0.981817
O O12 0.000000 0.619566 0.000000
#
# Coordination Sequence:
#
# PCOD9218500 Si02
#       7
#     8   4   8   4   8   4   4
#     4  11  24  46  71 104 137 179 231 285 350 417
#     4  10  24  46  74  98 136 182 224 288 356 410
#     4  12  23  44  68 100 143 182 230 286 345 410
#     4  11  24  41  62  97 139 186 243 285 329 410
#     4  12  25  44  68  97 142 187 235 286 339 403
#     4  11  24  41  67  99 142 186 235 276 346 411
#     4  12  26  45  70 108 136 174 238 283 346 426
#
# _framework density 20.780521
#
# number of rings (size 3 to 8) (size 9 to 14) (size 15 to 20)
#    0.000    0.600    5.000    2.400    2.800    2.800 
#    0.000    0.000    0.000    0.000    0.000    0.000 
#    0.000    0.000    0.000    0.000    0.000    0.000 
#
# Total GULP energy -111526.342081 kJ/mol
# GULP energy per Si atom -5576.317104 kJ/mol
# Density = 2.073322 g / cm^3
# Si number density = 20.780521 Si / 1000 Ang^3
#
#
#
# Elastic Constant Matrix: (Units=GPa)
#
#
# Indices 1 2 3 4 5 6 
#
# 1 103.5979 40.7569 20.7196 0.0000 -5.4927 0.0000
# 2 40.7569 114.5061 37.3918 0.0000 7.6643 0.0000
# 3 20.7196 37.3918 133.0737 0.0000 4.8066 0.0000
# 4 0.0000 0.0000 0.0000 34.0839 0.0000 22.0009
# 5 -5.4927 7.6643 4.8066 0.0000 26.0960 0.0000
# 6 0.0000 0.0000 0.0000 22.0009 0.0000 73.1003
#
#
#
# Elastic Compliance Matrix: (Units=1/GPa)
#
#
# Indices 1 2 3 4 5 6 
#
# 1 0.011642 -0.004142 -0.000786 0.000000 0.003812 0.000000
# 2 -0.004142 0.011233 -0.002377 0.000000 -0.003733 0.000000
# 3 -0.000786 -0.002377 0.008341 0.000000 -0.001004 0.000000
# 4 0.000000 0.000000 0.000000 0.036414 0.000000 -0.010959
# 5 0.003812 -0.003733 -0.001004 0.000000 0.040404 0.000000
# 6 0.000000 0.000000 0.000000 -0.010959 0.000000 0.016978
#
#
# Mechanical properties :
#
#
# Convention : Reuss Voigt Hill
#
# Bulk Modulus (GPa) = 60.21931 60.99049 60.60490
# Shear Modulus (GPa) = 34.44544 43.47667 38.96106
#
# Velocity S-wave (km/s) = 4.07576 4.57900 4.33469
# Velocity P-wave (km/s) = 7.15477 7.57429 7.36752
#
# Compressibility (1/GPa) = 0.01660597
#
# Stress axis : x y z
#
# Youngs Moduli (GPa) = 85.89885 89.02013 119.88754
#
# Poissons Ratio (x) = 0.36872 0.09428
# Poissons Ratio (y) = 0.35579 0.28493
# Poissons Ratio (z) = 0.06755 0.21157
#
# Static dielectric constant tensor:
#      x y z
#    x 1.822200 0.000000 0.013340 
#    y 0.000000 1.755380 0.000000 
#    z 0.013340 0.000000 1.712330 
# 
# From -- ./inp_files/201162.got.cif
#   From: 2010.05.17/outbox.cif.g08.bks.cpg/sg12_101_cif.got.tgz:201162.got - 2010.06.03 13:09:07.
