data_PCOD9218638
_publ_section_title
;
Structure prediction by ZEFSAII (Michael W. Deem and Ramdas Pophale) SiO2 
 PCOD9218638
Probable space group: C 2/M
;
_chemical_formula_sum "Si O2"
_cell_formula_units_Z 32
_cell_length_a 9.309044
_cell_length_b 10.070187
_cell_length_c 16.703945
_cell_angle_alpha 90.000000
_cell_angle_beta 64.673617
_cell_angle_gamma 90.000000
_cell_volume 1415.386895
_symmetry_space_group_name_H-M "C 2/M"
_symmetry_group_IT_number 12
_symmetry_cell_setting 'monoclinic'
loop_
_space_group_symop_operation_xyz
x,y,z
-x,y,-z
-x,-y,-z
x,-y,z
1/2+x,1/2+y,z
1/2-x,1/2+y,-z
1/2-x,1/2-y,-z
1/2+x,1/2-y,z
loop_
_atom_site_type_symbol
_atom_site_label
_atom_site_fract_x
_atom_site_fract_y
_atom_site_fract_z
Si Si1 0.512388 0.212490 0.322815
Si Si2 0.848868 0.773250 0.199262
Si Si3 0.481650 0.500000 0.406850
Si Si4 0.195599 0.146277 0.079032
Si Si5 0.366618 0.000000 0.467506
O O1 0.690665 0.155601 0.270806
O O2 0.427626 0.203688 0.257195
O O3 0.536057 0.363565 0.350795
O O4 0.397094 0.130379 0.407669
O O5 0.776354 0.685325 0.144526
O O6 0.003410 0.850820 0.130614
O O7 0.500000 0.500000 0.500000
O O8 0.293634 0.500000 0.445882
O O9 0.249068 0.000000 0.043200
O O10 0.250000 0.250000 0.000000
O O11 0.500000 0.000000 0.500000
#
# Coordination Sequence:
#
# PCOD9218638 Si02
#       5
#     8   8   4   8   4
#     4  11  24  42  67 100 137 183 234 284 344 405
#     4  10  25  43  70  99 139 182 227 282 339 410
#     4  12  24  42  66  96 139 184 231 288 348 404
#     4  11  26  48  73 105 142 182 227 283 348 417
#     4  12  24  40  64  96 135 182 233 284 346 406
#
# _framework density 22.608658999999999
#
# number of rings (size 3 to 8) (size 9 to 14) (size 15 to 20)
#    0.000    1.000    0.000    5.250   10.500    4.000 
#    4.500    0.000    0.000    0.000    0.000    0.000 
#    0.000    0.000    0.000    0.000    0.000    0.000 
#
# Total GULP energy -89354.744189 kJ/mol
# GULP energy per Si atom -5584.671512 kJ/mol
# Density = 2.255720 g / cm^3
# Si number density = 22.608659 Si / 1000 Ang^3
#
#
#
# Elastic Constant Matrix: (Units=GPa)
#
#
# Indices 1 2 3 4 5 6 
#
# 1 151.4787 12.9644 31.1184 0.0000 0.9047 0.0000
# 2 12.9644 154.3583 53.4665 0.0000 6.6326 0.0000
# 3 31.1184 53.4665 108.0501 0.0000 5.4140 0.0000
# 4 0.0000 0.0000 0.0000 1.3431 0.0000 -1.1438
# 5 0.9047 6.6326 5.4140 0.0000 38.5276 0.0000
# 6 0.0000 0.0000 0.0000 -1.1438 0.0000 4.5903
#
#
#
# Elastic Compliance Matrix: (Units=1/GPa)
#
#
# Indices 1 2 3 4 5 6 
#
# 1 0.007019 0.000130 -0.002091 0.000000 0.000107 0.000000
# 2 0.000130 0.007846 -0.003879 0.000000 -0.000809 0.000000
# 3 -0.002091 -0.003879 0.011824 0.000000 -0.000945 0.000000
# 4 0.000000 0.000000 0.000000 0.945086 0.000000 0.235491
# 5 0.000107 -0.000809 -0.000945 0.000000 0.026225 0.000000
# 6 0.000000 0.000000 0.000000 0.235491 0.000000 0.276531
#
#
# Mechanical properties :
#
#
# Convention : Reuss Voigt Hill
#
# Bulk Modulus (GPa) = 66.62852 67.66507 67.14680
# Shear Modulus (GPa) = 3.87232 29.98138 16.92685
#
# Velocity S-wave (km/s) = 1.31014 3.64552 2.73919
# Velocity P-wave (km/s) = 5.64119 6.90750 6.30621
#
# Compressibility (1/GPa) = 0.01500859
#
# Stress axis : x y z
#
# Youngs Moduli (GPa) = 142.46146 127.45354 84.57165
#
# Poissons Ratio (x) = -0.01661 0.17687
# Poissons Ratio (y) = -0.01856 0.32809
# Poissons Ratio (z) = 0.29795 0.49445
#
# Static dielectric constant tensor:
#      x y z
#    x 1.802830 0.000000 0.016320 
#    y 0.000000 1.827720 0.000000 
#    z 0.016320 0.000000 1.796400 
# 
# From -- ./inp_files/193364.got.cif
#   From: 2010.05.17/outbox.cif.g08.bks.cpg/sg12_97_cif.got.tgz:193364.got - 2010.06.03 13:09:07.
