data_PCOD9218368
_publ_section_title
;
Structure prediction by ZEFSAII (Michael W. Deem and Ramdas Pophale) SiO2 
 PCOD9218368
Probable space group: C 2/M
;
_chemical_formula_sum "Si O2"
_cell_formula_units_Z 44
_cell_length_a 9.083083
_cell_length_b 24.975764
_cell_length_c 12.413690
_cell_angle_alpha 90.000000
_cell_angle_beta 46.618970
_cell_angle_gamma 90.000000
_cell_volume 2046.770481
_symmetry_space_group_name_H-M "C 2/M"
_symmetry_group_IT_number 12
_symmetry_cell_setting 'monoclinic'
loop_
_space_group_symop_operation_xyz
x,y,z
-x,y,-z
-x,-y,-z
x,-y,z
1/2+x,1/2+y,z
1/2-x,1/2+y,-z
1/2-x,1/2-y,-z
1/2+x,1/2-y,z
loop_
_atom_site_type_symbol
_atom_site_label
_atom_site_fract_x
_atom_site_fract_y
_atom_site_fract_z
Si Si1 0.261999 0.435868 0.602427
Si Si2 0.639693 0.680853 0.142105
Si Si3 0.000000 0.756025 0.000000
Si Si4 0.191244 0.060083 0.843840
Si Si5 0.553610 0.086557 0.084833
Si Si6 0.220778 0.631091 0.407438
O O1 0.500000 0.432957 0.500000
O O2 0.213931 0.500000 0.627301
O O3 0.206527 0.407735 0.517885
O O4 0.160252 0.401872 0.750622
O O5 0.557172 0.709590 0.075590
O O6 0.433250 0.663492 0.306709
O O7 0.790135 0.632803 0.028744
O O8 0.798467 0.720241 0.121913
O O9 0.346928 0.057512 0.863624
O O10 0.252430 0.094926 0.712600
O O11 0.140598 0.000000 0.832172
O O12 0.000000 0.084898 0.000000
O O13 0.500000 0.058148 0.000000
O O14 0.000000 0.658996 0.500000
#
# Coordination Sequence:
#
# PCOD9218368 Si02
#       6
#     8   8   4   8   8   8
#     4  11  26  42  62  99 146 190 225 272 331 391
#     4  11  23  45  70 103 122 176 220 284 348 412
#     4  10  24  44  78  92 132 156 230 288 352 414
#     4  11  23  38  61  94 131 179 232 273 306 378
#     4  12  23  41  68  94 132 177 231 276 324 397
#     4  12  24  43  68  97 141 182 223 275 339 405
#
# _framework density 21.497281000000001
#
# number of rings (size 3 to 8) (size 9 to 14) (size 15 to 20)
#    0.000    0.727    4.545    3.273    0.000    2.182 
#    0.000    0.909    0.000    0.000    0.000    0.000 
#    0.000    0.000    0.000    0.000    0.000    0.000 
#
# Total GULP energy -122626.317558 kJ/mol
# GULP energy per Si atom -5573.923525 kJ/mol
# Density = 2.144835 g / cm^3
# Si number density = 21.497281 Si / 1000 Ang^3
#
#
#
# Elastic Constant Matrix: (Units=GPa)
#
#
# Indices 1 2 3 4 5 6 
#
# 1 131.3536 27.3758 48.2599 0.0000 -10.3504 0.0000
# 2 27.3758 63.5529 26.6096 0.0000 -12.2316 0.0000
# 3 48.2599 26.6096 143.3354 0.0000 -14.3226 0.0000
# 4 0.0000 0.0000 0.0000 47.3158 0.0000 5.7456
# 5 -10.3504 -12.2316 -14.3226 0.0000 57.1346 0.0000
# 6 0.0000 0.0000 0.0000 5.7456 0.0000 45.2057
#
#
#
# Elastic Compliance Matrix: (Units=1/GPa)
#
#
# Indices 1 2 3 4 5 6 
#
# 1 0.009157 -0.002808 -0.002519 0.000000 0.000426 0.000000
# 2 -0.002808 0.018415 -0.002185 0.000000 0.002886 0.000000
# 3 -0.002519 -0.002185 0.008347 0.000000 0.001168 0.000000
# 4 0.000000 0.000000 0.000000 0.021466 0.000000 -0.002728
# 5 0.000426 0.002886 0.001168 0.000000 0.018490 0.000000
# 6 0.000000 0.000000 0.000000 -0.002728 0.000000 0.022468
#
#
# Mechanical properties :
#
#
# Convention : Reuss Voigt Hill
#
# Bulk Modulus (GPa) = 47.85761 60.30360 54.08061
# Shear Modulus (GPa) = 41.55152 45.66434 43.60793
#
# Velocity S-wave (km/s) = 4.40122 4.61390 4.50881
# Velocity P-wave (km/s) = 6.93816 7.51643 7.23308
#
# Compressibility (1/GPa) = 0.02089532
#
# Stress axis : x y z
#
# Youngs Moduli (GPa) = 109.20095 54.30478 119.79971
#
# Poissons Ratio (x) = 0.15247 0.30182
# Poissons Ratio (y) = 0.30660 0.26175
# Poissons Ratio (z) = 0.27512 0.11865
#
# Static dielectric constant tensor:
#      x y z
#    x 1.896090 0.000000 -0.101640 
#    y 0.000000 1.789560 0.000000 
#    z -0.101640 0.000000 1.816710 
# 
# From -- ./inp_files/124084.got.cif
#   From: 2010.05.17/outbox.cif.g08.bks.cpg/sg12_63_cif.got.tgz:124084.got - 2010.06.03 13:09:07.
