data_PCOD9218846
_publ_section_title
;
Structure prediction by ZEFSAII (Michael W. Deem and Ramdas Pophale) SiO2 
 PCOD9218846
Probable space group: C 2/M
;
_chemical_formula_sum "Si O2"
_cell_formula_units_Z 48
_cell_length_a 10.038735
_cell_length_b 28.063406
_cell_length_c 9.297249
_cell_angle_alpha 90.000000
_cell_angle_beta 78.177290
_cell_angle_gamma 90.000000
_cell_volume 2563.667481
_symmetry_space_group_name_H-M "C 2/M"
_symmetry_group_IT_number 12
_symmetry_cell_setting 'monoclinic'
loop_
_space_group_symop_operation_xyz
x,y,z
-x,y,-z
-x,-y,-z
x,-y,z
1/2+x,1/2+y,z
1/2-x,1/2+y,-z
1/2-x,1/2-y,-z
1/2+x,1/2-y,z
loop_
_atom_site_type_symbol
_atom_site_label
_atom_site_fract_x
_atom_site_fract_y
_atom_site_fract_z
Si Si1 0.366197 0.500000 0.430440
Si Si2 0.068748 0.408334 0.833482
Si Si3 0.354751 0.736605 0.604140
Si Si4 0.077181 0.500000 0.634887
Si Si5 0.411655 0.159853 0.667218
Si Si6 0.843110 0.133702 0.700360
Si Si7 0.357143 0.394622 0.359623
O O1 0.500000 0.500000 0.500000
O O2 0.236345 0.500000 0.562866
O O3 0.359318 0.451464 0.341787
O O4 0.046270 0.452762 0.732000
O O5 0.228541 0.395860 0.808260
O O6 0.998853 0.362822 0.774266
O O7 0.000000 0.418300 0.000000
O O8 0.500000 0.723893 0.500000
O O9 0.250000 0.750000 0.500000
O O10 0.378065 0.784399 0.689599
O O11 0.309288 0.689781 0.698877
O O12 0.000000 0.500000 0.500000
O O13 0.500000 0.155265 0.500000
O O14 0.271835 0.130714 0.681983
O O15 0.841948 0.115383 0.534665
O O16 0.996947 0.125955 0.719366
#
# Coordination Sequence:
#
# PCOD9218846 Si02
#       7
#     4   8   8   4   8   8   8
#     4  12  18  29  54  87 112 139 173 232 288 343
#     4  12  25  41  57  84 124 160 190 233 293 358
#     4  11  18  29  56  88 114 140 190 254 294 326
#     4  12  23  39  66  89 112 146 199 247 284 339
#     4  11  20  36  58  88 115 149 197 246 291 337
#     4  11  19  35  55  86 118 149 187 244 296 337
#     4  11  19  32  56  86 115 141 195 243 292 332
#
# _framework density 18.723175000000001
#
# number of rings (size 3 to 8) (size 9 to 14) (size 15 to 20)
#    0.000    0.667    8.333    2.750    0.000    0.000 
#    0.000    1.667    0.000    0.000    0.000    7.000 
#    0.000    0.000    0.000    0.000    0.000    0.000 
#
# Total GULP energy -134117.454661 kJ/mol
# GULP energy per Si atom -5588.227278 kJ/mol
# Density = 1.868056 g / cm^3
# Si number density = 18.723175 Si / 1000 Ang^3
#
#
#
# Elastic Constant Matrix: (Units=GPa)
#
#
# Indices 1 2 3 4 5 6 
#
# 1 119.5873 25.8527 35.3626 0.0000 -16.9740 0.0000
# 2 25.8527 159.5154 27.2361 0.0000 -4.1340 0.0000
# 3 35.3626 27.2361 58.6267 0.0000 -13.2062 0.0000
# 4 0.0000 0.0000 0.0000 -2.1002 0.0000 4.4509
# 5 -16.9740 -4.1340 -13.2062 0.0000 15.2006 0.0000
# 6 0.0000 0.0000 0.0000 4.4509 0.0000 31.7225
#
#
#
# Elastic Compliance Matrix: (Units=1/GPa)
#
#
# Indices 1 2 3 4 5 6 
#
# 1 0.011012 -0.000819 -0.004404 0.000000 0.008248 0.000000
# 2 -0.000819 0.006885 -0.003094 0.000000 -0.001731 0.000000
# 3 -0.004404 -0.003094 0.024685 0.000000 0.015687 0.000000
# 4 0.000000 0.000000 0.000000 -0.367017 0.000000 0.051496
# 5 0.008248 -0.001731 0.015687 0.000000 0.088155 0.000000
# 6 0.000000 0.000000 0.000000 0.051496 0.000000 0.024298
#
#
# Mechanical properties :
#
#
# Convention : Reuss Voigt Hill
#
# Bulk Modulus (GPa) = 38.53977 57.18138 47.86058
# Shear Modulus (GPa) = -26.78116 25.58312 -0.59902
#
# Velocity S-wave (km/s) = -3.78613 3.70048 -0.56624
# Velocity P-wave (km/s) = 1.23110 6.99034 5.01898
#
# Compressibility (1/GPa) = 0.02594722
#
# Stress axis : x y z
#
# Youngs Moduli (GPa) = 90.80900 145.23835 40.51115
#
# Poissons Ratio (x) = 0.11896 0.17841
# Poissons Ratio (y) = 0.07438 0.12536
# Poissons Ratio (z) = 0.39991 0.44943
#
# Static dielectric constant tensor:
#      x y z
#    x 1.672810 0.000000 -0.009360 
#    y 0.000000 1.684770 0.000000 
#    z -0.009360 0.000000 1.597830 
# 
# From -- ./inp_files/42313.got.cif
#   From: 2010.05.17/outbox.cif.g08.bks.cpg/sg12_22_cif.got.tgz:42313.got - 2010.06.03 13:09:07.
