data_PCOD9218938
_publ_section_title
;
Structure prediction by ZEFSAII (Michael W. Deem and Ramdas Pophale) SiO2 
 PCOD9218938
Probable space group: C 2/M
;
_chemical_formula_sum "Si O2"
_cell_formula_units_Z 56
_cell_length_a 30.576123
_cell_length_b 7.592009
_cell_length_c 13.868404
_cell_angle_alpha 90.000000
_cell_angle_beta 102.272196
_cell_angle_gamma 90.000000
_cell_volume 3145.765427
_symmetry_space_group_name_H-M "C 2/M"
_symmetry_group_IT_number 12
_symmetry_cell_setting 'monoclinic'
loop_
_space_group_symop_operation_xyz
x,y,z
-x,y,-z
-x,-y,-z
x,-y,z
1/2+x,1/2+y,z
1/2-x,1/2+y,-z
1/2-x,1/2-y,-z
1/2+x,1/2-y,z
loop_
_atom_site_type_symbol
_atom_site_label
_atom_site_fract_x
_atom_site_fract_y
_atom_site_fract_z
Si Si1 0.949267 0.283957 0.861802
Si Si2 0.719079 0.283769 0.782404
Si Si3 0.143086 0.287488 0.249536
Si Si4 0.638265 0.300316 0.858154
Si Si5 0.268920 0.211248 0.613646
Si Si6 0.692905 0.788692 0.070760
Si Si7 0.451794 0.207355 0.083393
O O1 0.947609 0.500000 0.858557
O O2 0.907790 0.221722 0.777616
O O3 0.999648 0.225916 0.859599
O O4 0.942004 0.226710 0.970104
O O5 0.718550 0.500000 0.783370
O O6 0.670336 0.219170 0.791567
O O7 0.737021 0.226966 0.686339
O O8 0.756899 0.231597 0.878455
O O9 0.141029 0.500000 0.259780
O O10 0.180608 0.222058 0.341817
O O11 0.164025 0.254408 0.153512
O O12 0.629673 0.500000 0.825304
O O13 0.590305 0.228225 0.866829
O O14 0.669343 0.294860 0.968161
O O15 0.250000 0.250000 0.500000
O O16 0.270626 0.000000 0.624476
O O17 0.692635 0.000000 0.055691
O O18 0.458073 0.000000 0.073128
#
# Coordination Sequence:
#
# PCOD9218938 Si02
#       7
#     8   8   8   8   8   8   8
#     4   8  13  24  43  63  79 106 150 183 200 235
#     4   8  17  30  43  59  82 115 144 167 205 258
#     4   8  13  24  45  65  81 107 140 171 208 251
#     4  11  19  26  37  59  90 118 142 168 205 247
#     4   9  17  31  49  66  84 106 135 173 215 257
#     4   9  15  27  44  58  78 112 151 176 194 236
#     4   9  16  26  42  60  81 112 150 181 200 232
#
# _framework density 17.801708000000001
#
# number of rings (size 3 to 8) (size 9 to 14) (size 15 to 20)
#    0.000    3.143    1.429    3.429    0.000    0.000 
#    0.000    6.429    0.000    0.000    0.000    1.000 
#    0.000    8.000    0.000    0.000    0.000    0.000 
#
# Total GULP energy -155926.760774 kJ/mol
# GULP energy per Si atom -5568.812885 kJ/mol
# Density = 1.776119 g / cm^3
# Si number density = 17.801708 Si / 1000 Ang^3
#
#
#
# Elastic Constant Matrix: (Units=GPa)
#
#
# Indices 1 2 3 4 5 6 
#
# 1 179.4746 5.7082 63.7648 0.0000 15.9906 0.0000
# 2 5.7082 31.0945 0.3653 0.0000 0.6405 0.0000
# 3 63.7648 0.3653 79.8066 0.0000 16.3246 0.0000
# 4 0.0000 0.0000 0.0000 13.2146 0.0000 0.8594
# 5 15.9906 0.6405 16.3246 0.0000 18.3213 0.0000
# 6 0.0000 0.0000 0.0000 0.8594 0.0000 10.4690
#
#
#
# Elastic Compliance Matrix: (Units=1/GPa)
#
#
# Indices 1 2 3 4 5 6 
#
# 1 0.007871 -0.001344 -0.005977 0.000000 -0.001498 0.000000
# 2 -0.001344 0.032413 0.001122 0.000000 -0.000960 0.000000
# 3 -0.005977 0.001122 0.019861 0.000000 -0.012520 0.000000
# 4 0.000000 0.000000 0.000000 0.076080 0.000000 -0.006245
# 5 -0.001498 -0.000960 -0.012520 0.000000 0.067077 0.000000
# 6 0.000000 0.000000 0.000000 -0.006245 0.000000 0.096033
#
#
# Mechanical properties :
#
#
# Convention : Reuss Voigt Hill
#
# Bulk Modulus (GPa) = 20.94315 47.78359 34.36337
# Shear Modulus (GPa) = 15.26016 23.10346 19.18181
#
# Velocity S-wave (km/s) = 2.93103 3.60644 3.28613
# Velocity P-wave (km/s) = 4.82128 6.65149 5.80892
#
# Compressibility (1/GPa) = 0.04774831
#
# Stress axis : x y z
#
# Youngs Moduli (GPa) = 127.04145 30.85152 50.34887
#
# Poissons Ratio (x) = 0.04146 0.30092
# Poissons Ratio (y) = 0.17074 -0.05648
# Poissons Ratio (z) = 0.75929 -0.03461
#
# Static dielectric constant tensor:
#      x y z
#    x 1.669900 0.000000 0.007670 
#    y 0.000000 1.647510 0.000000 
#    z 0.007670 0.000000 1.582040 
# 
# From -- ./inp_files/247899.got.cif
#   From: 2010.05.17/outbox.cif.g08.bks.cpg/sg12_124_cif.got.tgz:247899.got - 2010.06.03 13:09:07.
