data_PCOD9218035
_publ_section_title
;
Structure prediction by ZEFSAII (Michael W. Deem and Ramdas Pophale) SiO2 
 PCOD9218035
Probable space group: C 2/M
;
_chemical_formula_sum "Si O2"
_cell_formula_units_Z 20
_cell_length_a 10.539757
_cell_length_b 14.756821
_cell_length_c 5.509879
_cell_angle_alpha 90.000000
_cell_angle_beta 97.974825
_cell_angle_gamma 90.000000
_cell_volume 848.682057
_symmetry_space_group_name_H-M "C 2/M"
_symmetry_group_IT_number 12
_symmetry_cell_setting 'monoclinic'
loop_
_space_group_symop_operation_xyz
x,y,z
-x,y,-z
-x,-y,-z
x,-y,z
1/2+x,1/2+y,z
1/2-x,1/2+y,-z
1/2-x,1/2-y,-z
1/2+x,1/2-y,z
loop_
_atom_site_type_symbol
_atom_site_label
_atom_site_fract_x
_atom_site_fract_y
_atom_site_fract_z
Si Si1 0.729642 0.602478 0.932242
Si Si2 0.422624 0.000000 0.725262
Si Si3 0.636566 0.230250 0.657569
O O1 0.683963 0.500000 0.984443
O O2 0.816233 0.647448 0.163051
O O3 0.825493 0.583615 0.731657
O O4 0.629846 0.678766 0.825052
O O5 0.500000 0.000000 0.500000
O O6 0.500000 0.000000 0.000000
O O7 0.500000 0.216417 0.500000
O O8 0.750000 0.250000 0.500000
#
# Coordination Sequence:
#
# PCOD9218035 Si02
#       3
#     8   4   8
#     4   9  25  43  68 106 144 196 252 310 373 455
#     4  10  24  40  77 109 147 195 263 310 375 458
#     4  11  26  44  71 105 150 199 250 313 380 451
#
# _framework density 23.565950999999998
#
# number of rings (size 3 to 8) (size 9 to 14) (size 15 to 20)
#    1.200    0.800    0.000    0.000   11.200    8.000 
#    0.000    2.000    0.000    0.000    0.000    0.000 
#    0.000    0.000    0.000    0.000    0.000    0.000 
#
# Total GULP energy -55861.350487 kJ/mol
# GULP energy per Si atom -5586.135049 kJ/mol
# Density = 2.351231 g / cm^3
# Si number density = 23.565951 Si / 1000 Ang^3
#
#
#
# Elastic Constant Matrix: (Units=GPa)
#
#
# Indices 1 2 3 4 5 6 
#
# 1 71.1013 10.7403 39.4328 0.0000 3.3560 0.0000
# 2 10.7403 179.8537 48.6606 0.0000 15.2113 0.0000
# 3 39.4328 48.6606 119.8349 0.0000 -5.3906 0.0000
# 4 0.0000 0.0000 0.0000 42.5206 0.0000 1.9117
# 5 3.3560 15.2113 -5.3906 0.0000 52.4523 0.0000
# 6 0.0000 0.0000 0.0000 1.9117 0.0000 25.8343
#
#
#
# Elastic Compliance Matrix: (Units=1/GPa)
#
#
# Indices 1 2 3 4 5 6 
#
# 1 0.017450 0.000790 -0.006152 0.000000 -0.001978 0.000000
# 2 0.000790 0.006517 -0.003007 0.000000 -0.002249 0.000000
# 3 -0.006152 -0.003007 0.011701 0.000000 0.002468 0.000000
# 4 0.000000 0.000000 0.000000 0.023596 0.000000 -0.001746
# 5 -0.001978 -0.002249 0.002468 0.000000 0.020097 0.000000
# 6 0.000000 0.000000 0.000000 -0.001746 0.000000 0.038837
#
#
# Mechanical properties :
#
#
# Convention : Reuss Voigt Hill
#
# Bulk Modulus (GPa) = 52.82754 63.16191 57.99472
# Shear Modulus (GPa) = 35.39861 42.29187 38.84524
#
# Velocity S-wave (km/s) = 3.87991 4.24089 4.06441
# Velocity P-wave (km/s) = 6.52205 7.13026 6.83292
#
# Compressibility (1/GPa) = 0.01892952
#
# Stress axis : x y z
#
# Youngs Moduli (GPa) = 57.30568 153.44943 85.46081
#
# Poissons Ratio (x) = -0.12116 0.52573
# Poissons Ratio (y) = -0.04525 0.25700
# Poissons Ratio (z) = 0.35253 0.46146
#
# Static dielectric constant tensor:
#      x y z
#    x 1.866860 0.000000 -0.010970 
#    y 0.000000 2.009370 0.000000 
#    z -0.010970 0.000000 1.919840 
# 
# From -- ./inp_files/4774.got.cif
#   From: 2010.05.17/outbox.cif.g08.bks.cpg/sg12_3_cif.got.tgz:4774.got - 2010.06.03 13:09:07.
