data_PCOD9218907
_publ_section_title
;
Structure prediction by ZEFSAII (Michael W. Deem and Ramdas Pophale) SiO2 
 PCOD9218907
Probable space group: C 2/M
;
_chemical_formula_sum "Si O2"
_cell_formula_units_Z 40
_cell_length_a 21.152543
_cell_length_b 10.382944
_cell_length_c 12.409556
_cell_angle_alpha 90.000000
_cell_angle_beta 58.072729
_cell_angle_gamma 90.000000
_cell_volume 2313.150097
_symmetry_space_group_name_H-M "C 2/M"
_symmetry_group_IT_number 12
_symmetry_cell_setting 'monoclinic'
loop_
_space_group_symop_operation_xyz
x,y,z
-x,y,-z
-x,-y,-z
x,-y,z
1/2+x,1/2+y,z
1/2-x,1/2+y,-z
1/2-x,1/2-y,-z
1/2+x,1/2-y,z
loop_
_atom_site_type_symbol
_atom_site_label
_atom_site_fract_x
_atom_site_fract_y
_atom_site_fract_z
Si Si1 0.876105 0.769526 0.633919
Si Si2 0.459699 0.272314 0.923051
Si Si3 0.118168 0.500000 0.040638
Si Si4 0.179129 0.500000 0.230486
Si Si5 0.842883 0.000000 0.993968
Si Si6 0.282101 0.500000 0.804262
Si Si7 0.979550 0.154752 0.354729
O O1 0.846839 0.627802 0.684948
O O2 0.911289 0.788037 0.484264
O O3 0.944654 0.801126 0.653402
O O4 0.812730 0.874313 0.716059
O O5 0.427800 0.128663 0.941786
O O6 0.514285 0.300664 0.773537
O O7 0.500000 0.291188 0.000000
O O8 0.392592 0.374530 0.971256
O O9 0.142086 0.500000 0.144799
O O10 0.194096 0.500000 0.902803
O O11 0.267585 0.500000 0.130845
O O12 0.818801 0.000000 0.890477
O O13 0.976389 0.000000 0.363748
#
# Coordination Sequence:
#
# PCOD9218907 Si02
#       7
#     8   8   4   4   4   4   8
#     4  11  19  34  57  87 115 146 180 238 288 333
#     4  12  23  39  59  82 117 153 194 231 267 337
#     4  11  23  37  55  88 118 151 186 227 295 330
#     4  11  22  34  58  89 123 140 176 249 288 338
#     4  11  21  37  57  88 112 149 194 227 289 330
#     4  11  18  36  62  81 119 146 182 239 286 346
#     4  11  20  35  58  84 114 149 195 224 282 340
#
# _framework density 17.292435999999999
#
# number of rings (size 3 to 8) (size 9 to 14) (size 15 to 20)
#    0.000    0.800    7.000    2.400    0.000    5.600 
#    0.000    0.000    0.000    7.200    0.000    0.000 
#    0.000    0.000    0.000    0.000    0.000    0.000 
#
# Total GULP energy -111776.599657 kJ/mol
# GULP energy per Si atom -5588.829983 kJ/mol
# Density = 1.725308 g / cm^3
# Si number density = 17.292436 Si / 1000 Ang^3
#
#
#
# Elastic Constant Matrix: (Units=GPa)
#
#
# Indices 1 2 3 4 5 6 
#
# 1 36.6435 17.2398 51.7379 0.0000 1.3671 0.0000
# 2 17.2398 140.2483 76.8475 0.0000 -22.1902 0.0000
# 3 51.7379 76.8475 184.8129 0.0000 -13.4214 0.0000
# 4 0.0000 0.0000 0.0000 4.4532 0.0000 -3.1771
# 5 1.3671 -22.1902 -13.4214 0.0000 28.5292 0.0000
# 6 0.0000 0.0000 0.0000 -3.1771 0.0000 3.3076
#
#
#
# Elastic Compliance Matrix: (Units=1/GPa)
#
#
# Indices 1 2 3 4 5 6 
#
# 1 0.047187 0.000569 -0.014059 0.000000 -0.008433 0.000000
# 2 0.000569 0.010182 -0.003955 0.000000 0.006032 0.000000
# 3 -0.014059 -0.003955 0.011199 0.000000 0.002866 0.000000
# 4 0.000000 0.000000 0.000000 0.713565 0.000000 0.685412
# 5 -0.008433 0.006032 0.002866 0.000000 0.041496 0.000000
# 6 0.000000 0.000000 0.000000 0.685412 0.000000 0.960703
#
#
# Mechanical properties :
#
#
# Convention : Reuss Voigt Hill
#
# Bulk Modulus (GPa) = 29.69297 72.59501 51.14399
# Shear Modulus (GPa) = 2.73157 21.64996 12.19077
#
# Velocity S-wave (km/s) = 1.25820 3.54219 2.65802
# Velocity P-wave (km/s) = 4.39535 7.66820 6.24982
#
# Compressibility (1/GPa) = 0.03367801
#
# Stress axis : x y z
#
# Youngs Moduli (GPa) = 21.19238 98.21604 89.29219
#
# Poissons Ratio (x) = -0.05586 1.25533
# Poissons Ratio (y) = -0.01205 0.35314
# Poissons Ratio (z) = 0.29794 0.38843
#
# Static dielectric constant tensor:
#      x y z
#    x 1.557080 0.000000 -0.005620 
#    y 0.000000 1.565250 0.000000 
#    z -0.005620 0.000000 1.590780 
# 
# From -- ./inp_files/171907.got.cif
#   From: 2010.05.17/outbox.cif.g08.bks.cpg/sg12_86_cif.got.tgz:171907.got - 2010.06.03 13:09:07.
