data_PCOD9218098
_publ_section_title
;
Structure prediction by ZEFSAII (Michael W. Deem and Ramdas Pophale) SiO2 
 PCOD9218098
Probable space group: C 2/M
;
_chemical_formula_sum "Si O2"
_cell_formula_units_Z 60
_cell_length_a 30.024281
_cell_length_b 9.102985
_cell_length_c 12.108185
_cell_angle_alpha 90.000000
_cell_angle_beta 108.141801
_cell_angle_gamma 90.000000
_cell_volume 3144.786098
_symmetry_space_group_name_H-M "C 2/M"
_symmetry_group_IT_number 12
_symmetry_cell_setting 'monoclinic'
loop_
_space_group_symop_operation_xyz
x,y,z
-x,y,-z
-x,-y,-z
x,-y,z
1/2+x,1/2+y,z
1/2-x,1/2+y,-z
1/2-x,1/2-y,-z
1/2+x,1/2-y,z
loop_
_atom_site_type_symbol
_atom_site_label
_atom_site_fract_x
_atom_site_fract_y
_atom_site_fract_z
Si Si1 0.176088 0.745038 0.975065
Si Si2 0.497158 0.177234 0.624998
Si Si3 0.350772 0.330654 0.803812
Si Si4 0.751495 0.325965 0.381610
Si Si5 0.343744 0.674881 0.410303
Si Si6 0.600731 0.169730 0.736334
Si Si7 0.898324 0.323911 0.649393
Si Si8 0.756589 0.000000 0.060534
O O1 0.135801 0.681548 0.865197
O O2 0.203377 0.872879 0.931700
O O3 0.152594 0.802963 0.069156
O O4 0.215320 0.626492 0.036872
O O5 0.500000 0.229810 0.500000
O O6 0.546956 0.210933 0.719352
O O7 0.450240 0.224878 0.651264
O O8 0.493462 0.000000 0.617553
O O9 0.363359 0.500000 0.790924
O O10 0.298090 0.307757 0.716224
O O11 0.384984 0.225640 0.761893
O O12 0.761072 0.500000 0.399347
O O13 0.750000 0.250000 0.500000
O O14 0.793174 0.246937 0.347820
O O15 0.339567 0.500000 0.413825
O O16 0.379549 0.727357 0.344837
O O17 0.362163 0.743217 0.539161
O O18 0.600714 0.000000 0.695240
O O19 0.893865 0.500000 0.634053
#
# Coordination Sequence:
#
# PCOD9218098 Si02
#       8
#     8   8   8   8   8   8   8   4
#     4  11  24  42  65  94 130 169 216 259 317 365
#     4   9  18  38  66  95 122 159 210 269 325 377
#     4  11  25  42  62  87 132 172 208 258 317 385
#     4  11  23  38  57  86 123 164 208 253 308 372
#     4  12  25  37  58  91 130 165 207 257 317 383
#     4  11  23  41  66  93 126 161 213 271 320 375
#     4  11  22  40  66  92 121 165 212 262 320 380
#     4  10  24  42  64  90 124 172 216 256 302 376
#
# _framework density 19.0792
#
# number of rings (size 3 to 8) (size 9 to 14) (size 15 to 20)
#    0.000    1.200    4.000    2.000    5.600    0.533 
#    0.000    2.667    0.000    3.200    0.000    0.000 
#    0.000    0.000    0.000    0.000    0.000    0.000 
#
# Total GULP energy -167085.252736 kJ/mol
# GULP energy per Si atom -5569.508425 kJ/mol
# Density = 1.903577 g / cm^3
# Si number density = 19.079200 Si / 1000 Ang^3
#
#
#
# Elastic Constant Matrix: (Units=GPa)
#
#
# Indices 1 2 3 4 5 6 
#
# 1 131.4546 42.7116 20.8706 0.0000 2.9543 0.0000
# 2 42.7116 100.1466 3.8878 0.0000 3.6001 0.0000
# 3 20.8706 3.8878 50.2603 0.0000 -1.0436 0.0000
# 4 0.0000 0.0000 0.0000 7.8183 0.0000 1.2413
# 5 2.9543 3.6001 -1.0436 0.0000 10.9057 0.0000
# 6 0.0000 0.0000 0.0000 1.2413 0.0000 23.4342
#
#
#
# Elastic Compliance Matrix: (Units=1/GPa)
#
#
# Indices 1 2 3 4 5 6 
#
# 1 0.009475 -0.003839 -0.003672 0.000000 -0.001651 0.000000
# 2 -0.003839 0.011697 0.000632 0.000000 -0.002761 0.000000
# 3 -0.003672 0.000632 0.021431 0.000000 0.002837 0.000000
# 4 0.000000 0.000000 0.000000 0.128990 0.000000 -0.006833
# 5 -0.001651 -0.002761 0.002837 0.000000 0.093325 0.000000
# 6 0.000000 0.000000 0.000000 -0.006833 0.000000 0.043035
#
#
# Mechanical properties :
#
#
# Convention : Reuss Voigt Hill
#
# Bulk Modulus (GPa) = 34.66713 46.31128 40.48920
# Shear Modulus (GPa) = 15.09094 22.72441 18.90767
#
# Velocity S-wave (km/s) = 2.81546 3.45491 3.15145
# Velocity P-wave (km/s) = 5.36457 6.34359 5.87451
#
# Compressibility (1/GPa) = 0.02884577
#
# Stress axis : x y z
#
# Youngs Moduli (GPa) = 105.54591 85.48945 46.66122
#
# Poissons Ratio (x) = 0.32819 0.17132
# Poissons Ratio (y) = 0.40518 -0.02949
# Poissons Ratio (z) = 0.38753 -0.05403
#
# Static dielectric constant tensor:
#      x y z
#    x 1.663120 0.000000 -0.006300 
#    y 0.000000 1.591660 0.000000 
#    z -0.006300 0.000000 1.680350 
# 
# From -- ./inp_files/187669.got.cif
#   From: 2010.05.17/outbox.cif.g08.bks.cpg/sg12_94_cif.got.tgz:187669.got - 2010.06.03 13:09:07.
