data_PCOD9218864
_publ_section_title
;
Structure prediction by ZEFSAII (Michael W. Deem and Ramdas Pophale) SiO2 
 PCOD9218864
Probable space group: C 2/M
;
_chemical_formula_sum "Si O2"
_cell_formula_units_Z 56
_cell_length_a 9.122538
_cell_length_b 27.128509
_cell_length_c 16.879559
_cell_angle_alpha 90.000000
_cell_angle_beta 133.523552
_cell_angle_gamma 90.000000
_cell_volume 3028.973191
_symmetry_space_group_name_H-M "C 2/M"
_symmetry_group_IT_number 12
_symmetry_cell_setting 'monoclinic'
loop_
_space_group_symop_operation_xyz
x,y,z
-x,y,-z
-x,-y,-z
x,-y,z
1/2+x,1/2+y,z
1/2-x,1/2+y,-z
1/2-x,1/2-y,-z
1/2+x,1/2-y,z
loop_
_atom_site_type_symbol
_atom_site_label
_atom_site_fract_x
_atom_site_fract_y
_atom_site_fract_z
Si Si1 0.617907 0.258864 0.740558
Si Si2 0.401493 0.596825 0.761917
Si Si3 0.233228 0.802418 0.064974
Si Si4 0.783339 0.335079 0.914989
Si Si5 0.577317 0.000000 0.908131
Si Si6 0.724516 0.415854 0.111427
Si Si7 0.646810 0.500000 0.831047
Si Si8 0.787531 0.306796 0.377026
O O1 0.621005 0.225401 0.820514
O O2 0.751162 0.305423 0.821213
O O3 0.396006 0.281143 0.643742
O O4 0.694766 0.224631 0.698185
O O5 0.597390 0.629022 0.859277
O O6 0.277802 0.583218 0.794513
O O7 0.503357 0.547574 0.765560
O O8 0.274627 0.636420 0.663759
O O9 0.255084 0.860288 0.093679
O O10 0.276247 0.798601 0.987657
O O11 0.000000 0.789837 0.000000
O O12 0.000000 0.360770 0.000000
O O13 0.619575 0.952156 0.871100
O O14 0.347764 0.000000 0.852610
O O15 0.746070 0.000000 0.041676
O O16 0.500000 0.431473 0.000000
O O17 0.000000 0.304235 0.500000
#
# Coordination Sequence:
#
# PCOD9218864 Si02
#       8
#     8   8   8   8   4   8   4   8
#     4  11  21  37  57  83 113 149 191 239 285 337
#     4  11  22  38  57  81 115 156 191 235 277 341
#     4  11  18  32  52  80 121 156 186 219 271 351
#     4  11  21  30  50  86 124 154 183 221 276 345
#     4  11  22  31  56  86 120 156 180 219 277 340
#     4  11  18  33  52  80 119 156 194 217 266 342
#     4  11  23  36  54  87 122 147 187 225 279 340
#     4  11  24  43  61  82 108 148 202 254 293 327
#
# _framework density 18.488112999999998
#
# number of rings (size 3 to 8) (size 9 to 14) (size 15 to 20)
#    0.000    1.000    5.714    3.643    4.000    0.000 
#    0.000    0.357    0.000    0.000    0.000    1.000 
#    0.000    0.000    0.000    0.000    0.000    0.000 
#
# Total GULP energy -156318.354961 kJ/mol
# GULP energy per Si atom -5582.798391 kJ/mol
# Density = 1.844603 g / cm^3
# Si number density = 18.488113 Si / 1000 Ang^3
#
#
#
# Elastic Constant Matrix: (Units=GPa)
#
#
# Indices 1 2 3 4 5 6 
#
# 1 67.2181 34.0497 20.1952 0.0000 4.1324 0.0000
# 2 34.0497 96.9628 25.6213 0.0000 9.8029 0.0000
# 3 20.1952 25.6213 72.0666 0.0000 19.0720 0.0000
# 4 0.0000 0.0000 0.0000 12.6113 0.0000 -0.5553
# 5 4.1324 9.8029 19.0720 0.0000 20.4023 0.0000
# 6 0.0000 0.0000 0.0000 -0.5553 0.0000 22.5596
#
#
#
# Elastic Compliance Matrix: (Units=1/GPa)
#
#
# Indices 1 2 3 4 5 6 
#
# 1 0.018853 -0.005857 -0.003900 0.000000 0.002641 0.000000
# 2 -0.005857 0.013280 -0.002266 0.000000 -0.003076 0.000000
# 3 -0.003900 -0.002266 0.020299 0.000000 -0.017097 0.000000
# 4 0.000000 0.000000 0.000000 0.079380 0.000000 0.001954
# 5 0.002641 -0.003076 -0.017097 0.000000 0.065940 0.000000
# 6 0.000000 0.000000 0.000000 0.001954 0.000000 0.044375
#
#
# Mechanical properties :
#
#
# Convention : Reuss Voigt Hill
#
# Bulk Modulus (GPa) = 35.22799 43.99776 39.61288
# Shear Modulus (GPa) = 18.13998 21.54006 19.84002
#
# Velocity S-wave (km/s) = 3.13576 3.41702 3.27941
# Velocity P-wave (km/s) = 5.67507 6.27834 5.98431
#
# Compressibility (1/GPa) = 0.02838652
#
# Stress axis : x y z
#
# Youngs Moduli (GPa) = 53.04144 75.30270 49.26330
#
# Poissons Ratio (x) = 0.44105 0.19212
# Poissons Ratio (y) = 0.31067 0.11162
# Poissons Ratio (z) = 0.20686 0.17062
#
# Static dielectric constant tensor:
#      x y z
#    x 1.660930 0.000000 0.001260 
#    y 0.000000 1.695130 0.000000 
#    z 0.001260 0.000000 1.623720 
# 
# From -- ./inp_files/259902.got.cif
#   From: 2010.05.17/outbox.cif.g08.bks.cpg/sg12_130_cif.got.tgz:259902.got - 2010.06.03 13:09:07.
