data_PCOD9218512
_publ_section_title
;
Structure prediction by ZEFSAII (Michael W. Deem and Ramdas Pophale) SiO2 
 PCOD9218512
Probable space group: C 2/M
;
_chemical_formula_sum "Si O2"
_cell_formula_units_Z 50
_cell_length_a 14.549189
_cell_length_b 14.874887
_cell_length_c 11.745194
_cell_angle_alpha 90.000000
_cell_angle_beta 78.720282
_cell_angle_gamma 90.000000
_cell_volume 2492.767233
_symmetry_space_group_name_H-M "C 2/M"
_symmetry_group_IT_number 12
_symmetry_cell_setting 'monoclinic'
loop_
_space_group_symop_operation_xyz
x,y,z
-x,y,-z
-x,-y,-z
x,-y,z
1/2+x,1/2+y,z
1/2-x,1/2+y,-z
1/2-x,1/2-y,-z
1/2+x,1/2-y,z
loop_
_atom_site_type_symbol
_atom_site_label
_atom_site_fract_x
_atom_site_fract_y
_atom_site_fract_z
Si Si1 0.210556 0.396196 0.735239
Si Si2 0.809097 0.398325 0.809562
Si Si3 0.634355 0.747779 0.366963
Si Si4 0.414660 0.242999 0.362541
Si Si5 0.500000 0.500000 0.000000
Si Si6 0.604845 0.841002 0.978711
Si Si7 0.102103 0.149078 0.856870
O O1 0.225349 0.500000 0.700933
O O2 0.302449 0.334087 0.695486
O O3 0.127926 0.348479 0.681213
O O4 0.175036 0.389285 0.874246
O O5 0.844200 0.500000 0.790231
O O6 0.822662 0.339358 0.693678
O O7 0.699102 0.399098 0.864335
O O8 0.859464 0.348427 0.901800
O O9 0.632519 0.742948 0.503791
O O10 0.526311 0.752653 0.353296
O O11 0.393530 0.318164 0.273716
O O12 0.520198 0.579717 0.900930
O O13 0.598385 0.739334 0.933436
O O14 0.500000 0.879782 0.000000
#
# Coordination Sequence:
#
# PCOD9218512 Si02
#       7
#     8   8   8   8   2   8   8
#     4  11  24  43  69 100 133 184 233 284 348 421
#     4  12  24  39  65 101 131 176 225 282 338 412
#     4  11  24  45  71  97 136 182 232 289 347 414
#     4  10  24  47  68  96 137 183 226 285 356 406
#     4  12  24  40  68 110 124 170 232 280 346 412
#     4  11  23  42  66  92 140 178 216 277 354 411
#     4  11  23  42  65  97 135 174 215 283 339 413
#
# _framework density 20.058029999999999
#
# number of rings (size 3 to 8) (size 9 to 14) (size 15 to 20)
#    0.000    0.960    4.800    3.360    0.000    3.840 
#    5.760    2.400    0.000    0.000    0.000    0.000 
#    0.000    0.000    0.000    0.000    0.000    0.000 
#
# Total GULP energy -139348.323302 kJ/mol
# GULP energy per Si atom -5573.932932 kJ/mol
# Density = 2.001238 g / cm^3
# Si number density = 20.058030 Si / 1000 Ang^3
#
#
#
# Elastic Constant Matrix: (Units=GPa)
#
#
# Indices 1 2 3 4 5 6 
#
# 1 63.1203 23.1509 21.6887 0.0000 -3.9409 0.0000
# 2 23.1509 105.0882 56.9323 0.0000 1.6353 0.0000
# 3 21.6887 56.9323 132.5833 0.0000 -2.6348 0.0000
# 4 0.0000 0.0000 0.0000 11.5366 0.0000 -4.8554
# 5 -3.9409 1.6353 -2.6348 0.0000 30.1862 0.0000
# 6 0.0000 0.0000 0.0000 -4.8554 0.0000 -6.2428
#
#
#
# Elastic Compliance Matrix: (Units=1/GPa)
#
#
# Indices 1 2 3 4 5 6 
#
# 1 0.017646 -0.003108 -0.001505 0.000000 0.002341 0.000000
# 2 -0.003108 0.012987 -0.005099 0.000000 -0.001554 0.000000
# 3 -0.001505 -0.005099 0.009997 0.000000 0.000952 0.000000
# 4 0.000000 0.000000 0.000000 0.065304 0.000000 -0.050791
# 5 0.002341 -0.001554 0.000952 0.000000 0.033601 0.000000
# 6 0.000000 0.000000 0.000000 -0.050791 0.000000 -0.120682
#
#
# Mechanical properties :
#
#
# Convention : Reuss Voigt Hill
#
# Bulk Modulus (GPa) = 47.15905 56.03729 51.59817
# Shear Modulus (GPa) = 110.25781 20.36400 65.31090
#
# Velocity S-wave (km/s) = 7.42218 3.18976 5.71241
# Velocity P-wave (km/s) = 9.84957 6.44704 8.32401
#
# Compressibility (1/GPa) = 0.02120484
#
# Stress axis : x y z
#
# Youngs Moduli (GPa) = 56.66936 76.99802 100.02711
#
# Poissons Ratio (x) = 0.23933 0.15058
# Poissons Ratio (y) = 0.17615 0.51007
# Poissons Ratio (z) = 0.08531 0.39264
#
# Static dielectric constant tensor:
#      x y z
#    x 1.788260 0.000000 -0.040100 
#    y 0.000000 1.628200 0.000000 
#    z -0.040100 0.000000 1.709480 
# 
# From -- ./inp_files/143665.got.cif
#   From: 2010.05.17/outbox.cif.g08.bks.cpg/sg12_72_cif.got.tgz:143665.got - 2010.06.03 13:09:07.
