data_PCOD9218407
_publ_section_title
;
Structure prediction by ZEFSAII (Michael W. Deem and Ramdas Pophale) SiO2 
 PCOD9218407
Probable space group: C 2/M
;
_chemical_formula_sum "Si O2"
_cell_formula_units_Z 40
_cell_length_a 10.095633
_cell_length_b 18.200166
_cell_length_c 14.151541
_cell_angle_alpha 90.000000
_cell_angle_beta 47.327447
_cell_angle_gamma 90.000000
_cell_volume 1911.795328
_symmetry_space_group_name_H-M "C 2/M"
_symmetry_group_IT_number 12
_symmetry_cell_setting 'monoclinic'
loop_
_space_group_symop_operation_xyz
x,y,z
-x,y,-z
-x,-y,-z
x,-y,z
1/2+x,1/2+y,z
1/2-x,1/2+y,-z
1/2-x,1/2-y,-z
1/2+x,1/2-y,z
loop_
_atom_site_type_symbol
_atom_site_label
_atom_site_fract_x
_atom_site_fract_y
_atom_site_fract_z
Si Si1 0.164167 0.585825 0.490457
Si Si2 0.421828 0.587232 0.743530
Si Si3 0.516064 0.179419 0.727840
Si Si4 0.852325 0.777291 0.651979
Si Si5 0.658617 0.824651 0.002574
O O1 0.148235 0.500000 0.519591
O O2 0.362216 0.596978 0.351672
O O3 0.133010 0.629941 0.601269
O O4 0.000000 0.604634 0.500000
O O5 0.386494 0.500000 0.749041
O O6 0.367318 0.638804 0.681330
O O7 0.306252 0.622326 0.884224
O O8 0.657359 0.236156 0.703905
O O9 0.382665 0.224732 0.726091
O O10 0.426610 0.140866 0.860816
O O11 0.000000 0.765826 0.500000
O O12 0.500000 0.812329 0.000000
O O13 0.750000 0.750000 0.000000
#
# Coordination Sequence:
#
# PCOD9218407 Si02
#       5
#     8   8   8   8   8
#     4  10  24  45  69 100 137 180 229 286 348 410
#     4  11  25  44  67  97 140 179 224 283 346 410
#     4  12  24  41  69  99 136 175 229 285 334 408
#     4  12  24  40  67 105 131 177 226 279 348 398
#     4  12  25  45  68 103 138 182 228 281 342 408
#
# _framework density 20.922740999999998
#
# number of rings (size 3 to 8) (size 9 to 14) (size 15 to 20)
#    0.000    0.600    6.000    1.200    2.800    4.000 
#    0.000    0.000    0.000    4.200    0.000    0.000 
#    0.000    0.000    0.000    0.000    0.000    0.000 
#
# Total GULP energy -111760.555514 kJ/mol
# GULP energy per Si atom -5588.027776 kJ/mol
# Density = 2.087512 g / cm^3
# Si number density = 20.922741 Si / 1000 Ang^3
#
#
#
# Elastic Constant Matrix: (Units=GPa)
#
#
# Indices 1 2 3 4 5 6 
#
# 1 126.1826 29.3350 51.5174 0.0000 7.6433 0.0000
# 2 29.3350 126.0788 45.0740 0.0000 8.1267 0.0000
# 3 51.5174 45.0740 161.1260 -0.0001 14.2108 0.0000
# 4 0.0000 0.0000 -0.0001 21.5245 0.0000 0.8531
# 5 7.6433 8.1267 14.2108 0.0000 34.7385 0.0000
# 6 0.0000 0.0000 0.0000 0.8531 0.0000 22.0369
#
#
#
# Elastic Compliance Matrix: (Units=1/GPa)
#
#
# Indices 1 2 3 4 5 6 
#
# 1 0.009298 -0.001197 -0.002575 0.000000 -0.000712 0.000000
# 2 -0.001197 0.009007 -0.002048 0.000000 -0.001006 0.000000
# 3 -0.002575 -0.002048 0.007792 0.000000 -0.002142 0.000000
# 4 0.000000 0.000000 0.000000 0.046530 0.000000 -0.001801
# 5 -0.000712 -0.001006 -0.002142 0.000000 0.030055 0.000000
# 6 0.000000 0.000000 0.000000 -0.001801 0.000000 0.045448
#
#
# Mechanical properties :
#
#
# Convention : Reuss Voigt Hill
#
# Bulk Modulus (GPa) = 69.17589 73.91560 71.54575
# Shear Modulus (GPa) = 30.37876 34.82404 32.60140
#
# Velocity S-wave (km/s) = 3.81458 4.08415 3.95166
# Velocity P-wave (km/s) = 7.24815 7.59242 7.42228
#
# Compressibility (1/GPa) = 0.01445590
#
# Stress axis : x y z
#
# Youngs Moduli (GPa) = 107.55246 111.02313 128.34351
#
# Poissons Ratio (x) = 0.13287 0.33051
# Poissons Ratio (y) = 0.12872 0.26289
# Poissons Ratio (z) = 0.27697 0.22741
#
# Static dielectric constant tensor:
#      x y z
#    x 1.770010 0.000000 -0.014660 
#    y 0.000000 1.750770 0.000000 
#    z -0.014660 0.000000 1.818550 
# 
# From -- ./inp_files/196765.got.cif
#   From: 2010.05.17/outbox.cif.g08.bks.cpg/sg12_99_cif.got.tgz:196765.got - 2010.06.03 13:09:07.
