data_PCOD9218784
_publ_section_title
;
Structure prediction by ZEFSAII (Michael W. Deem and Ramdas Pophale) SiO2 
 PCOD9218784
Probable space group: C 2/M
;
_chemical_formula_sum "Si O2"
_cell_formula_units_Z 64
_cell_length_a 24.635121
_cell_length_b 25.102773
_cell_length_c 12.211951
_cell_angle_alpha 90.000000
_cell_angle_beta 152.913712
_cell_angle_gamma 90.000000
_cell_volume 3438.661929
_symmetry_space_group_name_H-M "C 2/M"
_symmetry_group_IT_number 12
_symmetry_cell_setting 'monoclinic'
loop_
_space_group_symop_operation_xyz
x,y,z
-x,y,-z
-x,-y,-z
x,-y,z
1/2+x,1/2+y,z
1/2-x,1/2+y,-z
1/2-x,1/2-y,-z
1/2+x,1/2-y,z
loop_
_atom_site_type_symbol
_atom_site_label
_atom_site_fract_x
_atom_site_fract_y
_atom_site_fract_z
Si Si1 0.915148 0.215865 0.938415
Si Si2 0.141050 0.672684 0.255760
Si Si3 0.149785 0.289402 0.862878
Si Si4 0.634411 0.898367 0.707174
Si Si5 0.939864 0.759179 0.598234
Si Si6 0.731824 0.646114 0.730879
Si Si7 0.706871 0.843855 0.625923
Si Si8 0.642644 0.563351 0.742969
O O1 0.842359 0.264315 0.748971
O O2 0.846438 0.169643 0.878962
O O3 0.000000 0.191152 0.000000
O O4 0.997128 0.245528 0.172135
O O5 0.207185 0.640892 0.277637
O O6 0.181619 0.655459 0.450009
O O7 0.000000 0.663679 0.000000
O O8 0.132658 0.338725 0.752289
O O9 0.036529 0.253263 0.681436
O O10 0.250000 0.250000 0.000000
O O11 0.183539 0.318665 0.037552
O O12 0.500000 0.920212 0.500000
O O13 0.656742 0.889502 0.616369
O O14 0.755090 0.923523 0.979366
O O15 0.882761 0.816472 0.487357
O O16 0.845760 0.712015 0.425961
O O17 0.694368 0.593923 0.729812
O O18 0.500000 0.579037 0.500000
O O19 0.642589 0.500000 0.729561
#
# Coordination Sequence:
#
# PCOD9218784 Si02
#       8
#     8   8   8   8   8   8   8   8
#     4  11  20  30  47  75 121 181 221 234 277 351
#     4  11  20  35  53  80 127 176 212 246 297 363
#     4  11  22  33  47  84 131 170 205 251 307 370
#     4  11  24  39  66  97 125 164 212 261 331 385
#     4  12  19  31  51  81 128 168 206 249 295 364
#     4  11  23  35  60  89 115 169 220 249 310 382
#     4  12  21  35  51  84 135 173 204 256 294 367
#     4  10  26  51  73  93 121 157 210 280 340 394
#
# _framework density 18.611891
#
# number of rings (size 3 to 8) (size 9 to 14) (size 15 to 20)
#    0.000    0.875    6.250    2.625    7.000    0.250 
#    0.000    0.000    0.000    1.125    0.000    1.750 
#    0.000    0.000    0.000    0.000    0.000    0.000 
#
# Total GULP energy -178293.201502 kJ/mol
# GULP energy per Si atom -5571.662547 kJ/mol
# Density = 1.856953 g / cm^3
# Si number density = 18.611891 Si / 1000 Ang^3
#
#
#
# Elastic Constant Matrix: (Units=GPa)
#
#
# Indices 1 2 3 4 5 6 
#
# 1 143.9351 37.3732 40.6386 0.0000 6.1741 0.0000
# 2 37.3732 50.6258 24.1735 0.0000 4.4046 0.0000
# 3 40.6386 24.1735 80.9072 0.0000 -1.4722 0.0000
# 4 0.0000 0.0000 0.0000 15.2462 0.0000 1.9701
# 5 6.1741 4.4046 -1.4722 0.0000 41.8727 0.0000
# 6 0.0000 0.0000 0.0000 1.9701 0.0000 13.1874
#
#
#
# Elastic Compliance Matrix: (Units=1/GPa)
#
#
# Indices 1 2 3 4 5 6 
#
# 1 0.009221 -0.005258 -0.003077 0.000000 -0.000915 0.000000
# 2 -0.005258 0.026340 -0.005268 0.000000 -0.002181 0.000000
# 3 -0.003077 -0.005268 0.015508 0.000000 0.001553 0.000000
# 4 0.000000 0.000000 0.000000 0.066881 0.000000 -0.009992
# 5 -0.000915 -0.002181 0.001553 0.000000 0.024301 0.000000
# 6 0.000000 0.000000 0.000000 -0.009992 0.000000 0.077323
#
#
# Mechanical properties :
#
#
# Convention : Reuss Voigt Hill
#
# Bulk Modulus (GPa) = 41.90919 53.31539 47.61229
# Shear Modulus (GPa) = 19.62829 25.61345 22.62087
#
# Velocity S-wave (km/s) = 3.25100 3.71372 3.49004
# Velocity P-wave (km/s) = 6.05461 6.86273 6.47130
#
# Compressibility (1/GPa) = 0.02386111
#
# Stress axis : x y z
#
# Youngs Moduli (GPa) = 108.44912 37.96528 64.48371
#
# Poissons Ratio (x) = 0.19963 0.19842
# Poissons Ratio (y) = 0.57025 0.33973
# Poissons Ratio (z) = 0.33371 0.20002
#
# Static dielectric constant tensor:
#      x y z
#    x 1.642890 0.000000 0.077740 
#    y 0.000000 1.592590 0.000000 
#    z 0.077740 0.000000 1.684700 
# 
# From -- ./inp_files/178571.got.cif
#   From: 2010.05.17/outbox.cif.g08.bks.cpg/sg12_90_cif.got.tgz:178571.got - 2010.06.03 13:09:07.
