data_PCOD9218585
_publ_section_title
;
Structure prediction by ZEFSAII (Michael W. Deem and Ramdas Pophale) SiO2 
 PCOD9218585
Probable space group: C 2/M
;
_chemical_formula_sum "Si O2"
_cell_formula_units_Z 32
_cell_length_a 5.297618
_cell_length_b 16.423500
_cell_length_c 14.716179
_cell_angle_alpha 90.000000
_cell_angle_beta 103.322285
_cell_angle_gamma 90.000000
_cell_volume 1245.931376
_symmetry_space_group_name_H-M "C 2/M"
_symmetry_group_IT_number 12
_symmetry_cell_setting 'monoclinic'
loop_
_space_group_symop_operation_xyz
x,y,z
-x,y,-z
-x,-y,-z
x,-y,z
1/2+x,1/2+y,z
1/2-x,1/2+y,-z
1/2-x,1/2-y,-z
1/2+x,1/2-y,z
loop_
_atom_site_type_symbol
_atom_site_label
_atom_site_fract_x
_atom_site_fract_y
_atom_site_fract_z
Si Si1 0.361383 0.906215 0.077149
Si Si2 0.092354 0.805659 0.186845
Si Si3 0.718391 0.406656 0.723454
Si Si4 0.275803 0.842963 0.539744
O O1 0.113348 0.861272 0.098919
O O2 0.578950 0.906355 0.175696
O O3 0.298226 0.000000 0.051863
O O4 0.500000 0.868871 0.000000
O O5 0.340797 0.748822 0.188800
O O6 0.058072 0.871368 0.264964
O O7 0.696372 0.500000 0.691719
O O8 0.818871 0.349638 0.650357
O O9 0.500000 0.882233 0.500000
O O10 0.250000 0.750000 0.500000
O O11 0.000000 0.883046 0.500000
#
# Coordination Sequence:
#
# PCOD9218585 Si02
#       4
#     8   8   8   8
#     4  10  24  49  78 110 155 205 253 308 374 449
#     4  12  26  45  75 106 152 197 252 311 372 442
#     4  11  26  48  76 112 153 198 253 310 375 452
#     4  10  25  44  73 104 144 189 245 304 372 448
#
# _framework density 25.683596999999999
#
# number of rings (size 3 to 8) (size 9 to 14) (size 15 to 20)
#    0.000    1.250    2.500    0.750   10.500    3.000 
#    0.000    3.750    0.000    0.000    0.000    0.000 
#    0.000    0.000    0.000    0.000    0.000    0.000 
#
# Total GULP energy -89421.700044 kJ/mol
# GULP energy per Si atom -5588.856253 kJ/mol
# Density = 2.562514 g / cm^3
# Si number density = 25.683597 Si / 1000 Ang^3
#
#
#
# Elastic Constant Matrix: (Units=GPa)
#
#
# Indices 1 2 3 4 5 6 
#
# 1 172.5253 23.3513 71.4847 0.0000 -50.4372 0.0000
# 2 23.3513 119.6638 38.0169 0.0000 -21.7850 0.0000
# 3 71.4847 38.0169 217.8372 0.0000 -43.5385 0.0000
# 4 0.0000 0.0000 0.0000 40.4617 0.0000 -14.1057
# 5 -50.4372 -21.7850 -43.5385 0.0000 59.7765 0.0000
# 6 0.0000 0.0000 0.0000 -14.1057 0.0000 -13.1255
#
#
#
# Elastic Compliance Matrix: (Units=1/GPa)
#
#
# Indices 1 2 3 4 5 6 
#
# 1 0.008099 -0.000062 -0.001505 0.000000 0.005715 0.000000
# 2 -0.000062 0.009167 -0.001079 0.000000 0.002502 0.000000
# 3 -0.001505 -0.001079 0.005782 0.000000 0.002548 0.000000
# 4 0.000000 0.000000 0.000000 0.017979 0.000000 -0.019322
# 5 0.005715 0.002502 0.002548 0.000000 0.024319 0.000000
# 6 0.000000 0.000000 0.000000 -0.019322 0.000000 -0.055423
#
#
# Mechanical properties :
#
#
# Convention : Reuss Voigt Hill
#
# Bulk Modulus (GPa) = 56.31805 86.19244 71.25525
# Shear Modulus (GPa) = 236.58752 42.56745 139.57748
#
# Velocity S-wave (km/s) = 9.60813 4.07551 7.37990
# Velocity P-wave (km/s) = 12.04423 7.46850 10.02103
#
# Compressibility (1/GPa) = 0.01775630
#
# Stress axis : x y z
#
# Youngs Moduli (GPa) = 123.47447 109.08294 172.94856
#
# Poissons Ratio (x) = 0.00676 0.26022
# Poissons Ratio (y) = 0.00765 0.18668
# Poissons Ratio (z) = 0.18578 0.11774
#
# Static dielectric constant tensor:
#      x y z
#    x 2.136650 0.000000 0.086330 
#    y 0.000000 2.066060 0.000000 
#    z 0.086330 0.000000 1.971220 
# 
# From -- ./inp_files/190943.got.cif
#   From: 2010.05.17/outbox.cif.g08.bks.cpg/sg12_96_cif.got.tgz:190943.got - 2010.06.03 13:09:07.
