data_PCOD9218181
_publ_section_title
;
Structure prediction by ZEFSAII (Michael W. Deem and Ramdas Pophale) SiO2 
 PCOD9218181
Probable space group: C 2/M
;
_chemical_formula_sum "Si O2"
_cell_formula_units_Z 48
_cell_length_a 23.263875
_cell_length_b 8.815249
_cell_length_c 12.336483
_cell_angle_alpha 90.000000
_cell_angle_beta 68.782583
_cell_angle_gamma 90.000000
_cell_volume 2358.433017
_symmetry_space_group_name_H-M "C 2/M"
_symmetry_group_IT_number 12
_symmetry_cell_setting 'monoclinic'
loop_
_space_group_symop_operation_xyz
x,y,z
-x,y,-z
-x,-y,-z
x,-y,z
1/2+x,1/2+y,z
1/2-x,1/2+y,-z
1/2-x,1/2-y,-z
1/2+x,1/2-y,z
loop_
_atom_site_type_symbol
_atom_site_label
_atom_site_fract_x
_atom_site_fract_y
_atom_site_fract_z
Si Si1 0.149840 0.819692 0.831416
Si Si2 0.901061 0.823598 0.525392
Si Si3 0.743763 0.678070 0.385446
Si Si4 0.943478 0.320218 0.272359
Si Si5 0.425744 0.181346 0.731001
Si Si6 0.818139 0.681920 0.963443
O O1 0.211092 0.764761 0.726252
O O2 0.092738 0.766857 0.796546
O O3 0.151319 0.741520 0.947095
O O4 0.150489 0.000000 0.842084
O O5 0.827807 0.810198 0.596733
O O6 0.916631 0.729167 0.407478
O O7 0.933514 0.763652 0.611244
O O8 0.915478 0.000000 0.495391
O O9 0.760747 0.500000 0.376649
O O10 0.750000 0.750000 0.500000
O O11 0.934912 0.500000 0.263179
O O12 0.016168 0.286649 0.231214
O O13 0.424896 0.000000 0.712112
O O14 0.362521 0.225379 0.833490
O O15 0.814145 0.500000 0.969027
O O16 0.750000 0.750000 0.000000
#
# Coordination Sequence:
#
# PCOD9218181 Si02
#       6
#     8   8   8   8   8   8
#     4  12  25  41  63  94 129 165 210 259 314 371
#     4  11  23  38  61  94 129 163 205 258 313 370
#     4  11  22  37  60  91 126 163 204 253 310 368
#     4  11  23  41  64  90 124 166 211 257 312 373
#     4  10  24  43  64  90 122 166 212 255 309 377
#     4  11  24  45  69  94 125 161 208 259 313 374
#
# _framework density 20.352495999999999
#
# number of rings (size 3 to 8) (size 9 to 14) (size 15 to 20)
#    0.000    1.000    1.667    5.000    0.000   10.000 
#    0.000    3.333    0.000    0.000    0.000    0.000 
#    0.000    0.000    0.000    0.000    0.000    0.000 
#
# Total GULP energy -134324.399048 kJ/mol
# GULP energy per Si atom -5596.849960 kJ/mol
# Density = 2.030617 g / cm^3
# Si number density = 20.352496 Si / 1000 Ang^3
#
#
#
# Elastic Constant Matrix: (Units=GPa)
#
#
# Indices 1 2 3 4 5 6 
#
# 1 87.5551 33.0915 23.6129 0.0000 -1.2640 0.0000
# 2 33.0915 70.7170 26.7493 0.0000 -2.1829 0.0000
# 3 23.6129 26.7493 81.5875 0.0000 13.5302 0.0000
# 4 0.0000 0.0000 0.0000 30.0753 0.0000 4.7944
# 5 -1.2640 -2.1829 13.5302 0.0000 30.6023 0.0000
# 6 0.0000 0.0000 0.0000 4.7944 0.0000 36.6766
#
#
#
# Elastic Compliance Matrix: (Units=1/GPa)
#
#
# Indices 1 2 3 4 5 6 
#
# 1 0.014260 -0.005699 -0.002470 0.000000 0.001274 0.000000
# 2 -0.005699 0.018834 -0.005082 0.000000 0.003355 0.000000
# 3 -0.002470 -0.005082 0.015879 0.000000 -0.007485 0.000000
# 4 0.000000 0.000000 0.000000 0.033957 0.000000 -0.004439
# 5 0.001274 0.003355 -0.007485 0.000000 0.036279 0.000000
# 6 0.000000 0.000000 0.000000 -0.004439 0.000000 0.027846
#
#
# Mechanical properties :
#
#
# Convention : Reuss Voigt Hill
#
# Bulk Modulus (GPa) = 44.50203 45.19636 44.84920
# Shear Modulus (GPa) = 27.61732 29.89792 28.75762
#
# Velocity S-wave (km/s) = 3.68768 3.83692 3.76304
# Velocity P-wave (km/s) = 6.32812 6.47180 6.40036
#
# Compressibility (1/GPa) = 0.02247088
#
# Stress axis : x y z
#
# Youngs Moduli (GPa) = 70.12666 53.09679 62.97636
#
# Poissons Ratio (x) = 0.30261 0.15554
# Poissons Ratio (y) = 0.39967 0.32002
# Poissons Ratio (z) = 0.17320 0.26982
#
# Static dielectric constant tensor:
#      x y z
#    x 1.740310 0.000000 -0.016600 
#    y 0.000000 1.682310 0.000000 
#    z -0.016600 0.000000 1.697660 
# 
# From -- ./inp_files/172936.got.cif
#   From: 2010.05.17/outbox.cif.g08.bks.cpg/sg12_87_cif.got.tgz:172936.got - 2010.06.03 13:09:07.
