data_PCOD9218232
_publ_section_title
;
Structure prediction by ZEFSAII (Michael W. Deem and Ramdas Pophale) SiO2 
 PCOD9218232
Probable space group: C 2/M
;
_chemical_formula_sum "Si O2"
_cell_formula_units_Z 42
_cell_length_a 16.165771
_cell_length_b 13.511732
_cell_length_c 8.631865
_cell_angle_alpha 90.000000
_cell_angle_beta 111.114761
_cell_angle_gamma 90.000000
_cell_volume 1758.850429
_symmetry_space_group_name_H-M "C 2/M"
_symmetry_group_IT_number 12
_symmetry_cell_setting 'monoclinic'
loop_
_space_group_symop_operation_xyz
x,y,z
-x,y,-z
-x,-y,-z
x,-y,z
1/2+x,1/2+y,z
1/2-x,1/2+y,-z
1/2-x,1/2-y,-z
1/2+x,1/2-y,z
loop_
_atom_site_type_symbol
_atom_site_label
_atom_site_fract_x
_atom_site_fract_y
_atom_site_fract_z
Si Si1 0.963592 0.838341 0.144097
Si Si2 0.500000 0.000000 0.500000
Si Si3 0.695244 0.111758 0.333415
Si Si4 0.391480 0.181721 0.275394
Si Si5 0.624902 0.689414 0.435970
Si Si6 0.240859 0.110106 0.977780
O O1 0.948983 0.721813 0.170849
O O2 0.864904 0.880028 0.095399
O O3 0.041216 0.868736 0.313642
O O4 0.000000 0.857791 0.000000
O O5 0.564672 0.913459 0.620141
O O6 0.642664 0.210629 0.346704
O O7 0.786390 0.124571 0.492283
O O8 0.719501 0.118354 0.168449
O O9 0.656774 0.000000 0.338516
O O10 0.392841 0.266293 0.406587
O O11 0.292562 0.174571 0.139418
O O12 0.263041 0.000000 0.045315
#
# Coordination Sequence:
#
# PCOD9218232 Si02
#       6
#     8   2   8   8   8   8
#     4  12  26  43  67  99 136 182 224 279 337 407
#     4  12  24  44  74 104 132 178 228 288 336 396
#     4  10  24  43  70 103 134 179 227 287 343 405
#     4  12  24  46  69 100 137 178 225 283 341 401
#     4  11  24  43  68 101 135 181 227 278 346 407
#     4  11  25  45  69  99 137 179 225 277 344 404
#
# _framework density 23.879232999999999
#
# number of rings (size 3 to 8) (size 9 to 14) (size 15 to 20)
#    0.000    0.762    4.762    1.714    6.667    1.143 
#    0.000    2.381    0.000    0.000    0.000    0.000 
#    0.000    0.000    0.000    0.000    0.000    0.000 
#
# Total GULP energy -117162.385099 kJ/mol
# GULP energy per Si atom -5579.161195 kJ/mol
# Density = 2.382488 g / cm^3
# Si number density = 23.879233 Si / 1000 Ang^3
#
#
#
# Elastic Constant Matrix: (Units=GPa)
#
#
# Indices 1 2 3 4 5 6 
#
# 1 65.7040 -12.4790 43.2787 0.0000 16.0407 0.0000
# 2 -12.4790 69.7729 7.8618 0.0000 -3.3904 0.0000
# 3 43.2787 7.8618 141.7785 0.0000 27.8122 0.0000
# 4 0.0000 0.0000 0.0000 28.9324 0.0000 6.0124
# 5 16.0407 -3.3904 27.8122 0.0000 52.6400 0.0000
# 6 0.0000 0.0000 0.0000 6.0124 0.0000 17.7692
#
#
#
# Elastic Compliance Matrix: (Units=1/GPa)
#
#
# Indices 1 2 3 4 5 6 
#
# 1 0.020661 0.004230 -0.005980 0.000000 -0.002864 0.000000
# 2 0.004230 0.015396 -0.002328 0.000000 0.000933 0.000000
# 3 -0.005980 -0.002328 0.009683 0.000000 -0.003444 0.000000
# 4 0.000000 0.000000 0.000000 0.037177 0.000000 -0.012579
# 5 -0.002864 0.000933 -0.003444 0.000000 0.021749 0.000000
# 6 0.000000 0.000000 0.000000 -0.012579 0.000000 0.060534
#
#
# Mechanical properties :
#
#
# Convention : Reuss Voigt Hill
#
# Bulk Modulus (GPa) = 26.60607 39.39760 33.00184
# Shear Modulus (GPa) = 26.89838 35.77458 31.33648
#
# Velocity S-wave (km/s) = 3.35988 3.87479 3.62648
# Velocity P-wave (km/s) = 5.12034 6.04592 5.60228
#
# Compressibility (1/GPa) = 0.03758540
#
# Stress axis : x y z
#
# Youngs Moduli (GPa) = 48.40010 64.95052 103.27141
#
# Poissons Ratio (x) = -0.27473 0.61752
# Poissons Ratio (y) = -0.20473 0.24040
# Poissons Ratio (z) = 0.28941 0.15120
#
# Static dielectric constant tensor:
#      x y z
#    x 1.956690 0.000000 -0.007760 
#    y 0.000000 1.930580 0.000000 
#    z -0.007760 0.000000 1.904390 
# 
# From -- ./inp_files/73540.got.cif
#   From: 2010.05.17/outbox.cif.g08.bks.cpg/sg12_37_cif.got.tgz:73540.got - 2010.06.03 13:09:07.
