data_PCOD9218014
_publ_section_title
;
Structure prediction by ZEFSAII (Michael W. Deem and Ramdas Pophale) SiO2 
 PCOD9218014
Probable space group: C 2/M
;
_chemical_formula_sum "Si O2"
_cell_formula_units_Z 44
_cell_length_a 8.089265
_cell_length_b 17.210221
_cell_length_c 15.334256
_cell_angle_alpha 90.000000
_cell_angle_beta 117.316328
_cell_angle_gamma 90.000000
_cell_volume 1896.745441
_symmetry_space_group_name_H-M "C 2/M"
_symmetry_group_IT_number 12
_symmetry_cell_setting 'monoclinic'
loop_
_space_group_symop_operation_xyz
x,y,z
-x,y,-z
-x,-y,-z
x,-y,z
1/2+x,1/2+y,z
1/2-x,1/2+y,-z
1/2-x,1/2-y,-z
1/2+x,1/2-y,z
loop_
_atom_site_type_symbol
_atom_site_label
_atom_site_fract_x
_atom_site_fract_y
_atom_site_fract_z
Si Si1 0.747657 0.000000 0.993804
Si Si2 0.357520 0.650522 0.293282
Si Si3 0.857747 0.196330 0.788716
Si Si4 0.297116 0.408461 0.530057
Si Si5 0.942779 0.590320 0.347928
Si Si6 0.669495 0.000000 0.175918
Si Si7 0.500000 0.356920 0.000000
O O1 0.841298 0.080789 0.987245
O O2 0.544799 0.000000 0.902314
O O3 0.762391 0.000000 0.102333
O O4 0.223965 0.723953 0.268140
O O5 0.484367 0.665299 0.237970
O O6 0.511434 0.635721 0.405432
O O7 0.237213 0.574370 0.245757
O O8 0.679985 0.138901 0.747709
O O9 0.941506 0.196505 0.905152
O O10 0.334667 0.500000 0.523974
O O11 0.178268 0.405584 0.591594
O O12 0.149395 0.380592 0.421915
O O13 0.954232 0.500000 0.326337
#
# Coordination Sequence:
#
# PCOD9218014 Si02
#       7
#     4   8   8   8   8   4   4
#     4  10  24  40  68  90 113 163 211 251 296 361
#     4  11  23  40  62  91 125 162 200 256 302 367
#     4  11  25  38  59  90 129 161 205 254 308 353
#     4   8  14  31  59  87 116 155 202 247 301 359
#     4   8  16  31  57  88 118 156 202 251 299 363
#     4  11  22  44  66  89 118 161 213 245 301 371
#     4  11  24  42  62  93 124 160 200 257 302 356
#
# _framework density 23.197631000000001
#
# number of rings (size 3 to 8) (size 9 to 14) (size 15 to 20)
#    0.000    2.182    2.727    1.091    6.364    2.909 
#    0.000    0.000    0.000    0.000    0.000    3.818 
#    0.000    0.000    0.000    0.000    0.000    0.000 
#
# Total GULP energy -123114.568812 kJ/mol
# GULP energy per Si atom -5596.116764 kJ/mol
# Density = 2.314483 g / cm^3
# Si number density = 23.197631 Si / 1000 Ang^3
#
#
#
# Elastic Constant Matrix: (Units=GPa)
#
#
# Indices 1 2 3 4 5 6 
#
# 1 65.4507 10.5899 17.0564 0.0000 6.2790 0.0000
# 2 10.5899 93.5634 39.6170 0.0000 20.4165 0.0000
# 3 17.0564 39.6170 125.6506 0.0000 -5.9040 0.0000
# 4 0.0000 0.0000 0.0000 32.6979 0.0000 10.8680
# 5 6.2790 20.4165 -5.9040 0.0000 25.0121 0.0000
# 6 0.0000 0.0000 0.0000 10.8680 0.0000 41.1643
#
#
#
# Elastic Compliance Matrix: (Units=1/GPa)
#
#
# Indices 1 2 3 4 5 6 
#
# 1 0.016370 0.000313 -0.002554 0.000000 -0.004968 0.000000
# 2 0.000313 0.016398 -0.005911 0.000000 -0.014858 0.000000
# 3 -0.002554 -0.005911 0.010543 0.000000 0.007954 0.000000
# 4 0.000000 0.000000 0.000000 0.033525 0.000000 -0.008851
# 5 -0.004968 -0.014858 0.007954 0.000000 0.055234 0.000000
# 6 0.000000 0.000000 0.000000 -0.008851 0.000000 0.026630
#
#
# Mechanical properties :
#
#
# Convention : Reuss Voigt Hill
#
# Bulk Modulus (GPa) = 37.02872 46.57680 41.80276
# Shear Modulus (GPa) = 27.17316 34.26829 30.72072
#
# Velocity S-wave (km/s) = 3.42625 3.84765 3.64305
# Velocity P-wave (km/s) = 5.62576 6.31356 5.97956
#
# Compressibility (1/GPa) = 0.02700607
#
# Stress axis : x y z
#
# Youngs Moduli (GPa) = 61.08637 60.98488 94.85280
#
# Poissons Ratio (x) = -0.01907 0.24227
# Poissons Ratio (y) = -0.01910 0.56064
# Poissons Ratio (z) = 0.15603 0.36046
#
# Static dielectric constant tensor:
#      x y z
#    x 1.936970 0.000000 -0.028270 
#    y 0.000000 1.816740 0.000000 
#    z -0.028270 0.000000 1.824130 
# 
# From -- ./inp_files/257324.got.cif
#   From: 2010.05.17/outbox.cif.g08.bks.cpg/sg12_129_cif.got.tgz:257324.got - 2010.06.03 13:09:07.
