data_PCOD9218636
_publ_section_title
;
Structure prediction by ZEFSAII (Michael W. Deem and Ramdas Pophale) SiO2 
 PCOD9218636
Probable space group: C 2/M
;
_chemical_formula_sum "Si O2"
_cell_formula_units_Z 40
_cell_length_a 14.344982
_cell_length_b 18.087413
_cell_length_c 10.614797
_cell_angle_alpha 90.000000
_cell_angle_beta 136.861232
_cell_angle_gamma 90.000000
_cell_volume 1883.201173
_symmetry_space_group_name_H-M "C 2/M"
_symmetry_group_IT_number 12
_symmetry_cell_setting 'monoclinic'
loop_
_space_group_symop_operation_xyz
x,y,z
-x,y,-z
-x,-y,-z
x,-y,z
1/2+x,1/2+y,z
1/2-x,1/2+y,-z
1/2-x,1/2-y,-z
1/2+x,1/2-y,z
loop_
_atom_site_type_symbol
_atom_site_label
_atom_site_fract_x
_atom_site_fract_y
_atom_site_fract_z
Si Si1 0.360692 0.500000 0.439575
Si Si2 0.384927 0.000000 0.990623
Si Si3 0.717328 0.584330 0.143638
Si Si4 0.478332 0.715009 0.124977
Si Si5 0.042552 0.363219 0.762758
Si Si6 0.783696 0.119977 0.571542
O O1 0.500000 0.500000 0.500000
O O2 0.334050 0.569559 0.505909
O O3 0.252543 0.500000 0.221360
O O4 0.405926 0.926827 0.092653
O O5 0.500000 0.000000 0.000000
O O6 0.705031 0.500000 0.085119
O O7 0.869471 0.616571 0.273477
O O8 0.687206 0.584331 0.262597
O O9 0.616602 0.642036 0.975836
O O10 0.420289 0.782982 0.146508
O O11 0.622574 0.692503 0.328549
O O12 0.500000 0.737799 0.000000
O O13 0.878927 0.368972 0.595228
#
# Coordination Sequence:
#
# PCOD9218636 Si02
#       6
#     4   4   8   8   8   8
#     4  12  28  45  68 102 137 183 233 280 340 411
#     4  12  24  43  69  99 135 185 224 279 339 404
#     4  11  24  43  72 103 134 178 229 281 341 404
#     4  10  25  43  67  99 142 183 223 280 340 404
#     4  12  23  44  70 101 139 175 231 280 341 406
#     4  11  24  44  70  99 137 179 229 283 338 405
#
# _framework density 21.240428000000001
#
# number of rings (size 3 to 8) (size 9 to 14) (size 15 to 20)
#    0.000    0.800    4.000    2.400    4.200    2.000 
#    0.000    0.000    0.000    0.000    0.000    0.000 
#    0.000    0.000    0.000    0.000    0.000    0.000 
#
# Total GULP energy -111774.046621 kJ/mol
# GULP energy per Si atom -5588.702331 kJ/mol
# Density = 2.119208 g / cm^3
# Si number density = 21.240428 Si / 1000 Ang^3
#
#
#
# Elastic Constant Matrix: (Units=GPa)
#
#
# Indices 1 2 3 4 5 6 
#
# 1 113.8411 46.5820 40.6805 0.0000 22.2407 0.0000
# 2 46.5820 152.5214 52.1302 0.0000 -2.2759 0.0000
# 3 40.6805 52.1302 136.2935 0.0000 17.8994 0.0000
# 4 0.0000 0.0000 0.0000 -8.6907 0.0000 7.3202
# 5 22.2407 -2.2759 17.8994 0.0000 34.6682 0.0000
# 6 0.0000 0.0000 0.0000 7.3202 0.0000 32.6882
#
#
#
# Elastic Compliance Matrix: (Units=1/GPa)
#
#
# Indices 1 2 3 4 5 6 
#
# 1 0.012047 -0.003317 -0.001377 0.000000 -0.007235 0.000000
# 2 -0.003317 0.008605 -0.002848 0.000000 0.004163 0.000000
# 3 -0.001377 -0.002848 0.009382 0.000000 -0.004148 0.000000
# 4 0.000000 0.000000 0.000000 -0.096805 0.000000 0.021679
# 5 -0.007235 0.004163 -0.004148 0.000000 0.035901 0.000000
# 6 0.000000 0.000000 0.000000 0.021679 0.000000 0.025737
#
#
# Mechanical properties :
#
#
# Convention : Reuss Voigt Hill
#
# Bulk Modulus (GPa) = 66.88650 75.71569 71.30110
# Shear Modulus (GPa) = 334.80874 29.28402 182.04638
#
# Velocity S-wave (km/s) = 12.56862 3.71710 9.26788
# Velocity P-wave (km/s) = 15.56231 7.35845 12.17235
#
# Compressibility (1/GPa) = 0.01495070
#
# Stress axis : x y z
#
# Youngs Moduli (GPa) = 83.00930 116.21225 106.58537
#
# Poissons Ratio (x) = 0.38543 0.14676
# Poissons Ratio (y) = 0.27531 0.30356
# Poissons Ratio (z) = 0.11430 0.33098
#
# Static dielectric constant tensor:
#      x y z
#    x 1.811300 0.000000 0.024610 
#    y 0.000000 1.766170 0.000000 
#    z 0.024610 0.000000 1.746650 
# 
# From -- ./inp_files/145870.got.cif
#   From: 2010.05.17/outbox.cif.g08.bks.cpg/sg12_73_cif.got.tgz:145870.got - 2010.06.03 13:09:07.
