data_PCOD9218308
_publ_section_title
;
Structure prediction by ZEFSAII (Michael W. Deem and Ramdas Pophale) SiO2 
 PCOD9218308
Probable space group: C 2/M
;
_chemical_formula_sum "Si O2"
_cell_formula_units_Z 56
_cell_length_a 9.065759
_cell_length_b 24.270052
_cell_length_c 17.425793
_cell_angle_alpha 90.000000
_cell_angle_beta 132.736368
_cell_angle_gamma 90.000000
_cell_volume 2816.110953
_symmetry_space_group_name_H-M "C 2/M"
_symmetry_group_IT_number 12
_symmetry_cell_setting 'monoclinic'
loop_
_space_group_symop_operation_xyz
x,y,z
-x,y,-z
-x,-y,-z
x,-y,z
1/2+x,1/2+y,z
1/2-x,1/2+y,-z
1/2-x,1/2-y,-z
1/2+x,1/2-y,z
loop_
_atom_site_type_symbol
_atom_site_label
_atom_site_fract_x
_atom_site_fract_y
_atom_site_fract_z
Si Si1 0.987049 0.249596 0.581982
Si Si2 0.894567 0.698225 0.044786
Si Si3 0.123588 0.347178 0.735424
Si Si4 0.048066 0.110368 0.933493
Si Si5 0.785457 0.657745 0.737477
Si Si6 0.386772 0.562767 0.213865
Si Si7 0.660079 0.939965 0.623311
O O1 0.750000 0.250000 0.500000
O O2 0.000000 0.271558 0.500000
O O3 0.075281 0.289238 0.678485
O O4 0.097684 0.190698 0.634369
O O5 0.075217 0.701358 0.168436
O O6 0.750000 0.750000 0.000000
O O7 0.750338 0.646326 0.010505
O O8 0.000000 0.693537 0.000000
O O9 0.348976 0.351720 0.849290
O O10 0.122265 0.391960 0.668507
O O11 0.942042 0.362161 0.728420
O O12 0.083160 0.075941 0.866914
O O13 0.000000 0.083078 0.000000
O O14 0.729212 0.609997 0.779190
O O15 0.307461 0.500000 0.194047
O O16 0.613000 0.564438 0.326719
O O17 0.500000 0.937713 0.500000
O O18 0.646210 0.000000 0.657264
#
# Coordination Sequence:
#
# PCOD9218308 Si02
#       7
#     8   8   8   8   8   8   8
#     4  12  27  43  63  96 135 174 216 267 336 399
#     4  12  25  41  66  96 134 175 217 266 325 389
#     4  11  24  40  66  94 133 169 220 269 329 395
#     4  11  22  42  67  96 132 171 222 272 328 390
#     4  12  26  42  64  97 132 172 223 271 332 403
#     4  10  24  44  67  96 133 174 224 282 336 396
#     4   9  20  40  67  93 123 170 222 272 330 386
#
# _framework density 19.885580000000001
#
# number of rings (size 3 to 8) (size 9 to 14) (size 15 to 20)
#    0.000    1.000    4.286    1.714    8.000    0.857 
#    0.000    1.429    0.000    3.000    0.000    0.000 
#    0.000    0.000    0.000    0.000    0.000    0.000 
#
# Total GULP energy -156069.990782 kJ/mol
# GULP energy per Si atom -5573.928242 kJ/mol
# Density = 1.984032 g / cm^3
# Si number density = 19.885580 Si / 1000 Ang^3
#
#
#
# Elastic Constant Matrix: (Units=GPa)
#
#
# Indices 1 2 3 4 5 6 
#
# 1 124.9330 34.1909 20.6726 0.0000 1.1931 0.0000
# 2 34.1909 72.4707 13.5817 0.0000 6.8364 0.0000
# 3 20.6726 13.5817 89.9097 0.0000 18.2846 0.0000
# 4 0.0000 0.0000 0.0000 11.4732 0.0000 4.7066
# 5 1.1931 6.8364 18.2846 0.0000 32.2848 0.0000
# 6 0.0000 0.0000 0.0000 4.7066 0.0000 9.6556
#
#
#
# Elastic Compliance Matrix: (Units=1/GPa)
#
#
# Indices 1 2 3 4 5 6 
#
# 1 0.009465 -0.004269 -0.001858 0.000000 0.001606 0.000000
# 2 -0.004269 0.016244 -0.000910 0.000000 -0.002767 0.000000
# 3 -0.001858 -0.000910 0.013148 0.000000 -0.007185 0.000000
# 4 0.000000 0.000000 0.000000 0.108945 0.000000 -0.053105
# 5 0.001606 -0.002767 -0.007185 0.000000 0.035570 0.000000
# 6 0.000000 0.000000 0.000000 -0.053105 0.000000 0.129453
#
#
# Mechanical properties :
#
#
# Convention : Reuss Voigt Hill
#
# Bulk Modulus (GPa) = 40.34843 47.13375 43.74109
# Shear Modulus (GPa) = 14.91831 25.27394 20.09613
#
# Velocity S-wave (km/s) = 2.74196 3.56893 3.18242
# Velocity P-wave (km/s) = 5.50988 6.38255 5.96221
#
# Compressibility (1/GPa) = 0.02478411
#
# Stress axis : x y z
#
# Youngs Moduli (GPa) = 105.65681 61.56095 76.05650
#
# Poissons Ratio (x) = 0.26278 0.14132
# Poissons Ratio (y) = 0.45101 0.06919
# Poissons Ratio (z) = 0.19631 0.05600
#
# Static dielectric constant tensor:
#      x y z
#    x 1.699630 0.000000 -0.054780 
#    y 0.000000 1.716100 0.000000 
#    z -0.054780 0.000000 1.796110 
# 
# From -- ./inp_files/259246.got.cif
#   From: 2010.05.17/outbox.cif.g08.bks.cpg/sg12_130_cif.got.tgz:259246.got - 2010.06.03 13:09:07.
