data_PCOD9218213
_publ_section_title
;
Structure prediction by ZEFSAII (Michael W. Deem and Ramdas Pophale) SiO2 
 PCOD9218213
Probable space group: C 2/M
;
_chemical_formula_sum "Si O2"
_cell_formula_units_Z 44
_cell_length_a 15.145565
_cell_length_b 25.981210
_cell_length_c 5.233929
_cell_angle_alpha 90.000000
_cell_angle_beta 91.042958
_cell_angle_gamma 90.000000
_cell_volume 2059.210402
_symmetry_space_group_name_H-M "C 2/M"
_symmetry_group_IT_number 12
_symmetry_cell_setting 'monoclinic'
loop_
_space_group_symop_operation_xyz
x,y,z
-x,y,-z
-x,-y,-z
x,-y,z
1/2+x,1/2+y,z
1/2-x,1/2+y,-z
1/2-x,1/2-y,-z
1/2+x,1/2-y,z
loop_
_atom_site_type_symbol
_atom_site_label
_atom_site_fract_x
_atom_site_fract_y
_atom_site_fract_z
Si Si1 0.202124 0.557555 0.112366
Si Si2 0.557302 0.137457 0.260220
Si Si3 0.246405 0.798256 0.306520
Si Si4 0.559897 0.500000 0.255033
Si Si5 0.103042 0.735046 0.047100
Si Si6 0.202834 0.915685 0.393241
O O1 0.167442 0.500000 0.122838
O O2 0.132844 0.597095 0.219590
O O3 0.281635 0.562842 0.320540
O O4 0.225555 0.569934 0.821656
O O5 0.500000 0.124657 0.500000
O O6 0.596620 0.194809 0.280965
O O7 0.500000 0.138635 0.000000
O O8 0.250000 0.750000 0.500000
O O9 0.167215 0.782384 0.107560
O O10 0.214562 0.853581 0.409747
O O11 0.340372 0.797063 0.161741
O O12 0.500000 0.500000 0.500000
O O13 0.619425 0.447833 0.278937
O O14 0.500000 0.500000 0.000000
O O15 0.000000 0.749789 0.000000
#
# Coordination Sequence:
#
# PCOD9218213 Si02
#       6
#     8   8   8   4   8   8
#     4  12  23  43  71  99 137 185 233 286 353 426
#     4  11  24  40  66 100 139 184 228 285 351 417
#     4  11  25  44  71 104 141 190 246 298 366 449
#     4  12  26  50  74 108 142 186 246 310 376 438
#     4  10  24  43  66  99 140 184 232 293 360 435
#     4  12  25  46  72 102 140 185 239 300 366 438
#
# _framework density 21.367412999999999
#
# number of rings (size 3 to 8) (size 9 to 14) (size 15 to 20)
#    0.000    0.727    3.636    3.273   10.182    1.455 
#    3.273    0.000    0.000    0.000    0.000    0.000 
#    0.000    0.000    0.000    0.000    0.000    0.000 
#
# Total GULP energy -122732.525244 kJ/mol
# GULP energy per Si atom -5578.751147 kJ/mol
# Density = 2.131878 g / cm^3
# Si number density = 21.367413 Si / 1000 Ang^3
#
#
#
# Elastic Constant Matrix: (Units=GPa)
#
#
# Indices 1 2 3 4 5 6 
#
# 1 117.3223 37.0969 24.5741 0.0000 -8.8303 0.0000
# 2 37.0969 94.6246 4.1247 0.0000 11.1949 0.0000
# 3 24.5741 4.1247 75.9741 0.0000 -1.6329 0.0000
# 4 0.0000 0.0000 0.0000 22.6874 0.0000 9.2215
# 5 -8.8303 11.1949 -1.6329 0.0000 41.4627 0.0000
# 6 0.0000 0.0000 0.0000 9.2215 0.0000 -4.9699
#
#
#
# Elastic Compliance Matrix: (Units=1/GPa)
#
#
# Indices 1 2 3 4 5 6 
#
# 1 0.010884 -0.004532 -0.003201 0.000000 0.003415 0.000000
# 2 -0.004532 0.012836 0.000674 0.000000 -0.004404 0.000000
# 3 -0.003201 0.000674 0.014155 0.000000 -0.000306 0.000000
# 4 0.000000 0.000000 0.000000 0.025127 0.000000 0.046623
# 5 0.003415 -0.004404 -0.000306 0.000000 0.026023 0.000000
# 6 0.000000 0.000000 0.000000 0.046623 0.000000 -0.114705
#
#
# Mechanical properties :
#
#
# Convention : Reuss Voigt Hill
#
# Bulk Modulus (GPa) = 42.09091 46.61251 44.35171
# Shear Modulus (GPa) = -1372.00579 26.64438 -672.68071
#
# Velocity S-wave (km/s) = -25.36722 3.53507 -17.76231
# Velocity P-wave (km/s) = 28.95260 6.20680 19.99661
#
# Compressibility (1/GPa) = 0.02375810
#
# Stress axis : x y z
#
# Youngs Moduli (GPa) = 91.87868 77.90410 70.64848
#
# Poissons Ratio (x) = 0.35302 0.22615
# Poissons Ratio (y) = 0.41635 -0.04763
# Poissons Ratio (z) = 0.29411 -0.05252
#
# Static dielectric constant tensor:
#      x y z
#    x 1.779780 0.000000 0.060600 
#    y 0.000000 1.790030 0.000000 
#    z 0.060600 0.000000 1.845290 
# 
# From -- ./inp_files/11621.got.cif
#   From: 2010.05.17/outbox.cif.g08.bks.cpg/sg12_6_cif.got.tgz:11621.got - 2010.06.03 13:09:07.
