data_PCOD9218504
_publ_section_title
;
Structure prediction by ZEFSAII (Michael W. Deem and Ramdas Pophale) SiO2 
 PCOD9218504
Probable space group: C 2/M
;
_chemical_formula_sum "Si O2"
_cell_formula_units_Z 42
_cell_length_a 23.347150
_cell_length_b 14.518449
_cell_length_c 5.053056
_cell_angle_alpha 90.000000
_cell_angle_beta 84.974390
_cell_angle_gamma 90.000000
_cell_volume 1706.221488
_symmetry_space_group_name_H-M "C 2/M"
_symmetry_group_IT_number 12
_symmetry_cell_setting 'monoclinic'
loop_
_space_group_symop_operation_xyz
x,y,z
-x,y,-z
-x,-y,-z
x,-y,z
1/2+x,1/2+y,z
1/2-x,1/2+y,-z
1/2-x,1/2-y,-z
1/2+x,1/2-y,z
loop_
_atom_site_type_symbol
_atom_site_label
_atom_site_fract_x
_atom_site_fract_y
_atom_site_fract_z
Si Si1 0.716599 0.652679 0.020737
Si Si2 0.888336 0.704294 0.402558
Si Si3 0.000000 0.000000 0.500000
Si Si4 0.061932 0.390436 0.113242
Si Si5 0.607892 0.603481 0.390903
Si Si6 0.278494 0.902219 0.504784
O O1 0.651594 0.640724 0.150489
O O2 0.753547 0.598995 0.223560
O O3 0.750000 0.750000 0.000000
O O4 0.726804 0.611784 0.728471
O O5 0.895873 0.656441 0.116483
O O6 0.895166 0.813479 0.399963
O O7 0.824024 0.678735 0.519085
O O8 0.929425 0.658213 0.607500
O O9 0.042021 0.079477 0.346434
O O10 0.071524 0.500000 0.135311
O O11 0.000000 0.377460 0.000000
O O12 0.626925 0.500000 0.474212
O O13 0.307900 0.000000 0.547676
#
# Coordination Sequence:
#
# PCOD9218504 Si02
#       6
#     8   8   2   8   8   8
#     4  12  25  47  74 110 150 201 250 321 394 467
#     4  12  25  44  73 106 149 192 250 321 379 471
#     4   8  24  48  80 106 150 218 268 324 376 454
#     4  11  25  43  69 102 145 196 250 315 387 457
#     4  10  24  46  76 106 151 199 266 316 383 453
#     4  12  25  43  74 112 150 196 245 316 405 465
#
# _framework density 24.615796
#
# number of rings (size 3 to 8) (size 9 to 14) (size 15 to 20)
#    0.571    0.190    1.905    5.714    2.667    1.524 
#    0.000    2.857    0.000    5.714    0.000    0.000 
#    0.000    0.000    0.000    0.000    0.000    0.000 
#
# Total GULP energy -117136.504177 kJ/mol
# GULP energy per Si atom -5577.928770 kJ/mol
# Density = 2.455977 g / cm^3
# Si number density = 24.615796 Si / 1000 Ang^3
#
#
#
# Elastic Constant Matrix: (Units=GPa)
#
#
# Indices 1 2 3 4 5 6 
#
# 1 101.2951 24.1695 21.1832 0.0000 -19.4975 0.0000
# 2 24.1695 161.0400 43.4173 0.0000 2.2188 0.0000
# 3 21.1832 43.4173 66.5989 0.0000 8.2085 0.0000
# 4 0.0000 0.0000 0.0000 10.3577 0.0000 -10.5092
# 5 -19.4975 2.2188 8.2085 0.0000 48.5704 0.0000
# 6 0.0000 0.0000 0.0000 -10.5092 0.0000 64.5994
#
#
#
# Elastic Compliance Matrix: (Units=1/GPa)
#
#
# Indices 1 2 3 4 5 6 
#
# 1 0.011950 -0.000803 -0.003956 0.000000 0.005502 0.000000
# 2 -0.000803 0.007599 -0.004715 0.000000 0.000127 0.000000
# 3 -0.003956 -0.004715 0.019931 0.000000 -0.004741 0.000000
# 4 0.000000 0.000000 0.000000 0.115633 0.000000 0.018812
# 5 0.005502 0.000127 -0.004741 0.000000 0.023593 0.000000
# 6 0.000000 0.000000 0.000000 0.018812 0.000000 0.018540
#
#
# Mechanical properties :
#
#
# Convention : Reuss Voigt Hill
#
# Bulk Modulus (GPa) = 48.69850 56.27489 52.48670
# Shear Modulus (GPa) = 22.41769 40.71643 31.56706
#
# Velocity S-wave (km/s) = 3.02106 4.07145 3.58493
# Velocity P-wave (km/s) = 5.65645 6.70919 6.20518
#
# Compressibility (1/GPa) = 0.02053451
#
# Stress axis : x y z
#
# Youngs Moduli (GPa) = 83.68174 131.58831 50.17213
#
# Poissons Ratio (x) = 0.10564 0.19847
# Poissons Ratio (y) = 0.06718 0.23654
# Poissons Ratio (z) = 0.33102 0.62039
#
# Static dielectric constant tensor:
#      x y z
#    x 2.023570 0.000000 -0.019600 
#    y 0.000000 2.002030 0.000000 
#    z -0.019600 0.000000 1.911890 
# 
# From -- ./inp_files/24268.got.cif
#   From: 2010.05.17/outbox.cif.g08.bks.cpg/sg12_13_cif.got.tgz:24268.got - 2010.06.03 13:09:07.
