data_PCOD9218873
_publ_section_title
;
Structure prediction by ZEFSAII (Michael W. Deem and Ramdas Pophale) SiO2 
 PCOD9218873
Probable space group: C 2/M
;
_chemical_formula_sum "Si O2"
_cell_formula_units_Z 48
_cell_length_a 15.325755
_cell_length_b 13.860940
_cell_length_c 23.453468
_cell_angle_alpha 90.000000
_cell_angle_beta 152.249892
_cell_angle_gamma 90.000000
_cell_volume 2319.795509
_symmetry_space_group_name_H-M "C 2/M"
_symmetry_group_IT_number 12
_symmetry_cell_setting 'monoclinic'
loop_
_space_group_symop_operation_xyz
x,y,z
-x,y,-z
-x,-y,-z
x,-y,z
1/2+x,1/2+y,z
1/2-x,1/2+y,-z
1/2-x,1/2-y,-z
1/2+x,1/2-y,z
loop_
_atom_site_type_symbol
_atom_site_label
_atom_site_fract_x
_atom_site_fract_y
_atom_site_fract_z
Si Si1 0.218996 0.000000 0.022416
Si Si2 0.219170 0.290089 0.627083
Si Si3 0.519164 0.294889 0.708312
Si Si4 0.139175 0.000000 0.256805
Si Si5 0.711001 0.713027 0.041860
Si Si6 0.487427 0.000000 0.066223
Si Si7 0.822105 0.706616 0.801546
Si Si8 0.615353 0.500000 0.780213
O O1 0.997756 0.000000 0.876978
O O2 0.258298 0.100856 0.075819
O O3 0.351458 0.000000 0.043277
O O4 0.321524 0.275286 0.624833
O O5 0.251580 0.399840 0.669422
O O6 0.312926 0.221069 0.728485
O O7 0.000000 0.270652 0.500000
O O8 0.667072 0.276486 0.845015
O O9 0.626901 0.253656 0.715595
O O10 0.533947 0.407139 0.702568
O O11 0.988957 0.000000 0.220191
O O12 0.750000 0.750000 0.000000
O O13 0.491662 0.729868 0.924019
O O14 0.611141 0.902364 0.144354
O O15 0.333946 0.000000 0.925451
#
# Coordination Sequence:
#
# PCOD9218873 Si02
#       8
#     4   8   8   4   8   4   8   4
#     4  11  18  32  60  84 123 152 185 223 282 356
#     4  11  23  41  61  80 110 154 199 243 288 333
#     4  11  22  37  57  89 121 147 191 237 288 346
#     4   9  17  35  59  84 106 144 190 245 286 334
#     4  12  19  36  58  87 123 155 178 227 290 351
#     4  11  19  32  56  91 117 148 184 232 294 344
#     4  12  23  36  59  87 118 152 190 238 291 343
#     4   9  17  31  57  88 118 141 181 240 289 337
#
# _framework density 20.691479000000001
#
# number of rings (size 3 to 8) (size 9 to 14) (size 15 to 20)
#    0.000    1.000    6.667    2.250    0.000    1.333 
#    0.000    2.917    0.000    0.000    0.000    0.000 
#    0.000    0.000    0.000    0.000    0.000    0.000 
#
# Total GULP energy -133761.452647 kJ/mol
# GULP energy per Si atom -5573.393860 kJ/mol
# Density = 2.064438 g / cm^3
# Si number density = 20.691479 Si / 1000 Ang^3
#
#
#
# Elastic Constant Matrix: (Units=GPa)
#
#
# Indices 1 2 3 4 5 6 
#
# 1 84.0485 9.7432 10.6322 -0.0017 33.8603 0.0002
# 2 9.7432 81.2727 -4.1326 -0.0051 0.9860 0.0010
# 3 10.6322 -4.1326 59.2621 -0.0041 31.5528 0.0026
# 4 -0.0017 -0.0051 -0.0041 8.8516 0.0010 10.8106
# 5 33.8603 0.9860 31.5528 0.0010 37.3375 0.0002
# 6 0.0002 0.0010 0.0026 10.8106 0.0002 12.6429
#
#
#
# Elastic Compliance Matrix: (Units=1/GPa)
#
#
# Indices 1 2 3 4 5 6 
#
# 1 0.023278 -0.001767 0.012572 -0.000353 -0.031688 0.000300
# 2 -0.001767 0.012558 0.000938 -0.000196 0.000478 0.000166
# 3 0.012572 0.000938 0.037755 -0.000775 -0.043332 0.000655
# 4 -0.000353 -0.000196 -0.000775 -2.549041 0.001036 2.179626
# 5 -0.031688 0.000478 -0.043332 0.001036 0.092126 -0.000878
# 6 0.000300 0.000166 0.000655 2.179626 -0.000878 -1.784652
#
#
# Mechanical properties :
#
#
# Convention : Reuss Voigt Hill
#
# Bulk Modulus (GPa) = 10.30098 28.56321 19.43209
# Shear Modulus (GPa) = -1.20218 25.65577 12.22679
#
# Velocity S-wave (km/s) = -0.76306 3.52507 2.43350
# Velocity P-wave (km/s) = 2.05252 5.51384 4.16024
#
# Compressibility (1/GPa) = 0.09707816
#
# Stress axis : x y z
#
# Youngs Moduli (GPa) = 42.95813 79.63061 26.48657
#
# Poissons Ratio (x) = 0.14071 -0.33299
# Poissons Ratio (y) = 0.07591 -0.02485
# Poissons Ratio (z) = -0.54007 -0.07471
#
# Static dielectric constant tensor:
#      x y z
#    x 1.830910 0.000000 0.047010 
#    y 0.000000 1.981070 0.000000 
#    z 0.047010 0.000000 1.720390 
# 
# From -- ./inp_files/340251.got.cif
#   From: 2010.05.17/outbox.cif.g08.bks.cpg/sg12_171_cif.got.tgz:340251.got - 2010.06.03 13:09:07.
