data_PCOD9218460
_publ_section_title
;
Structure prediction by ZEFSAII (Michael W. Deem and Ramdas Pophale) SiO2 
 PCOD9218460
Probable space group: C 2/M
;
_chemical_formula_sum "Si O2"
_cell_formula_units_Z 44
_cell_length_a 28.851525
_cell_length_b 9.194382
_cell_length_c 24.448887
_cell_angle_alpha 90.000000
_cell_angle_beta 160.843745
_cell_angle_gamma 90.000000
_cell_volume 2128.221843
_symmetry_space_group_name_H-M "C 2/M"
_symmetry_group_IT_number 12
_symmetry_cell_setting 'monoclinic'
loop_
_space_group_symop_operation_xyz
x,y,z
-x,y,-z
-x,-y,-z
x,-y,z
1/2+x,1/2+y,z
1/2-x,1/2+y,-z
1/2-x,1/2-y,-z
1/2+x,1/2-y,z
loop_
_atom_site_type_symbol
_atom_site_label
_atom_site_fract_x
_atom_site_fract_y
_atom_site_fract_z
Si Si1 0.116800 0.292433 0.293430
Si Si2 0.701874 0.830595 0.098190
Si Si3 0.154603 0.329086 0.644283
Si Si4 0.118382 0.833044 0.489071
Si Si5 0.158814 0.324138 0.850486
Si Si6 0.752646 0.000000 0.527912
O O1 0.239869 0.337423 0.388466
O O2 0.148348 0.376571 0.384411
O O3 0.139643 0.125055 0.330335
O O4 0.963856 0.326157 0.099320
O O5 0.740323 0.755648 0.198348
O O6 0.778447 0.735666 0.136699
O O7 0.748416 0.000000 0.149091
O O8 0.190670 0.500000 0.677824
O O9 0.146191 0.247919 0.577070
O O10 0.000000 0.322386 0.500000
O O11 0.999570 0.739346 0.325569
O O12 0.070136 0.000000 0.443110
O O13 0.160542 0.500000 0.855325
O O14 0.250000 0.250000 0.000000
#
# Coordination Sequence:
#
# PCOD9218460 Si02
#       6
#     8   8   8   8   8   4
#     4  11  26  43  72 104 139 183 230 279 344 407
#     4  12  25  46  71 103 137 180 230 285 347 408
#     4  11  25  46  71  98 137 184 231 285 346 409
#     4  12  25  46  71 103 137 180 230 285 347 408
#     4  12  28  43  66 101 140 178 232 286 340 410
#     4  10  24  46  68  98 148 188 220 272 348 418
#
# _framework density 20.674536
#
# number of rings (size 3 to 8) (size 9 to 14) (size 15 to 20)
#    0.000    0.545    3.636    3.273   10.182    1.455 
#    0.000    2.727    0.000    0.000    0.000    0.000 
#    0.000    0.000    0.000    0.000    0.000    0.000 
#
# Total GULP energy -122571.934843 kJ/mol
# GULP energy per Si atom -5571.451584 kJ/mol
# Density = 2.062748 g / cm^3
# Si number density = 20.674536 Si / 1000 Ang^3
#
#
#
# Elastic Constant Matrix: (Units=GPa)
#
#
# Indices 1 2 3 4 5 6 
#
# 1 82.5966 38.8618 26.0280 0.0000 -0.1634 0.0000
# 2 38.8618 254.7746 44.4106 0.0000 -16.2363 0.0001
# 3 26.0280 44.4106 76.7651 0.0000 5.1400 0.0000
# 4 0.0000 0.0000 0.0000 32.8055 0.0000 -20.9530
# 5 -0.1634 -16.2363 5.1400 0.0000 38.5883 0.0001
# 6 0.0000 0.0001 0.0000 -20.9530 0.0001 46.2497
#
#
#
# Elastic Compliance Matrix: (Units=1/GPa)
#
#
# Indices 1 2 3 4 5 6 
#
# 1 0.014026 -0.001460 -0.003908 0.000000 -0.000034 0.000000
# 2 -0.001460 0.004709 -0.002383 0.000000 0.002293 0.000000
# 3 -0.003908 -0.002383 0.015941 0.000000 -0.003142 0.000000
# 4 0.000000 0.000000 0.000000 0.042895 0.000000 0.019433
# 5 -0.000034 0.002293 -0.003142 0.000000 0.027298 0.000000
# 6 0.000000 0.000000 0.000000 0.019433 0.000000 0.030426
#
#
# Mechanical properties :
#
#
# Convention : Reuss Voigt Hill
#
# Bulk Modulus (GPa) = 52.15740 70.30413 61.23077
# Shear Modulus (GPa) = 31.80907 43.85108 37.83007
#
# Velocity S-wave (km/s) = 3.92671 4.61045 4.28225
# Velocity P-wave (km/s) = 6.77062 7.90067 7.35738
#
# Compressibility (1/GPa) = 0.01917273
#
# Stress axis : x y z
#
# Youngs Moduli (GPa) = 71.29780 212.34838 62.73188
#
# Poissons Ratio (x) = 0.31009 0.24518
# Poissons Ratio (y) = 0.10412 0.14948
# Poissons Ratio (z) = 0.27866 0.50598
#
# Static dielectric constant tensor:
#      x y z
#    x 1.769670 0.000000 0.013800 
#    y 0.000000 1.762380 0.000000 
#    z 0.013800 0.000000 1.715430 
# 
# From -- ./inp_files/353593.got.cif
#   From: 2010.05.17/outbox.cif.g08.bks.cpg/sg12_177_cif.got.tgz:353593.got - 2010.06.03 13:09:07.
