data_PCOD9218668
_publ_section_title
;
Structure prediction by ZEFSAII (Michael W. Deem and Ramdas Pophale) SiO2 
 PCOD9218668
Probable space group: C 2/M
;
_chemical_formula_sum "Si O2"
_cell_formula_units_Z 44
_cell_length_a 7.458456
_cell_length_b 27.574510
_cell_length_c 9.148321
_cell_angle_alpha 90.000000
_cell_angle_beta 85.147600
_cell_angle_gamma 90.000000
_cell_volume 1874.730246
_symmetry_space_group_name_H-M "C 2/M"
_symmetry_group_IT_number 12
_symmetry_cell_setting 'monoclinic'
loop_
_space_group_symop_operation_xyz
x,y,z
-x,y,-z
-x,-y,-z
x,-y,z
1/2+x,1/2+y,z
1/2-x,1/2+y,-z
1/2-x,1/2-y,-z
1/2+x,1/2-y,z
loop_
_atom_site_type_symbol
_atom_site_label
_atom_site_fract_x
_atom_site_fract_y
_atom_site_fract_z
Si Si1 0.809374 0.411753 0.557825
Si Si2 0.000000 0.369134 0.000000
Si Si3 0.281393 0.408167 0.759933
Si Si4 0.689871 0.701770 0.922827
Si Si5 0.389492 0.000000 0.771433
Si Si6 0.716461 0.500000 0.100743
Si Si7 0.041760 0.826616 0.656609
O O1 0.733767 0.427708 0.404809
O O2 0.846297 0.454378 0.669519
O O3 0.677822 0.371619 0.628710
O O4 0.000000 0.388673 0.500000
O O5 0.101263 0.399337 0.867788
O O6 0.847512 0.336671 0.934054
O O7 0.380805 0.450344 0.844378
O O8 0.369141 0.354943 0.734192
O O9 0.636829 0.710436 0.758552
O O10 0.500000 0.683646 0.000000
O O11 0.750000 0.750000 0.000000
O O12 0.596974 0.000000 0.814797
O O13 0.273183 0.000000 0.928104
O O14 0.000000 0.806561 0.500000
#
# Coordination Sequence:
#
# PCOD9218668 Si02
#       7
#     8   4   8   8   4   4   8
#     4  11  21  39  64  91 132 191 238 288 351 406
#     4  12  24  43  78 104 142 186 236 295 360 420
#     4  11  23  41  66  99 142 187 238 293 341 413
#     4  12  25  47  77 108 141 179 233 294 367 440
#     4  11  22  36  59  93 138 185 252 298 340 413
#     4  11  23  37  58 100 144 184 245 299 344 396
#     4  10  25  45  70 105 144 185 238 292 358 434
#
# _framework density 23.470044000000001
#
# number of rings (size 3 to 8) (size 9 to 14) (size 15 to 20)
#    0.000    0.909    4.545    3.000    2.545    0.727 
#    0.000    4.545    0.000    0.000    0.000    0.000 
#    0.000    0.000    0.000    0.000    0.000    0.000 
#
# Total GULP energy -122998.980956 kJ/mol
# GULP energy per Si atom -5590.862771 kJ/mol
# Density = 2.341663 g / cm^3
# Si number density = 23.470044 Si / 1000 Ang^3
#
#
#
# Elastic Constant Matrix: (Units=GPa)
#
#
# Indices 1 2 3 4 5 6 
#
# 1 80.7579 10.9538 38.7057 0.0000 10.4426 0.0000
# 2 10.9538 57.5495 48.1601 0.0000 20.2535 0.0000
# 3 38.7057 48.1601 179.2689 0.0000 39.2412 0.0000
# 4 0.0000 0.0000 0.0000 28.1247 0.0000 8.5072
# 5 10.4426 20.2535 39.2412 0.0000 50.8460 0.0000
# 6 0.0000 0.0000 0.0000 8.5072 0.0000 13.0177
#
#
#
# Elastic Compliance Matrix: (Units=1/GPa)
#
#
# Indices 1 2 3 4 5 6 
#
# 1 0.013830 -0.000034 -0.002837 0.000000 -0.000637 0.000000
# 2 -0.000034 0.023596 -0.005145 0.000000 -0.005421 0.000000
# 3 -0.002837 -0.005145 0.008419 0.000000 -0.003865 0.000000
# 4 0.000000 0.000000 0.000000 0.044316 0.000000 -0.028961
# 5 -0.000637 -0.005421 -0.003865 0.000000 0.024941 0.000000
# 6 0.000000 0.000000 0.000000 -0.028961 0.000000 0.095745
#
#
# Mechanical properties :
#
#
# Convention : Reuss Voigt Hill
#
# Bulk Modulus (GPa) = 33.54260 57.02393 45.28327
# Shear Modulus (GPa) = 21.11333 33.04812 27.08073
#
# Velocity S-wave (km/s) = 3.00256 3.75653 3.40051
# Velocity P-wave (km/s) = 5.13256 6.56998 5.89525
#
# Compressibility (1/GPa) = 0.02981283
#
# Stress axis : x y z
#
# Youngs Moduli (GPa) = 72.30893 42.37939 118.77612
#
# Poissons Ratio (x) = 0.00142 0.33702
# Poissons Ratio (y) = 0.00243 0.61112
# Poissons Ratio (z) = 0.20517 0.21805
#
# Static dielectric constant tensor:
#      x y z
#    x 1.950250 0.000000 0.027450 
#    y 0.000000 2.030030 0.000000 
#    z 0.027450 0.000000 1.924690 
# 
# From -- ./inp_files/41640.got.cif
#   From: 2010.05.17/outbox.cif.g08.bks.cpg/sg12_21_cif.got.tgz:41640.got - 2010.06.03 13:09:07.
