data_PCOD9218596
_publ_section_title
;
Structure prediction by ZEFSAII (Michael W. Deem and Ramdas Pophale) SiO2 
 PCOD9218596
Probable space group: C 2/M
;
_chemical_formula_sum "Si O2"
_cell_formula_units_Z 60
_cell_length_a 11.149053
_cell_length_b 19.294890
_cell_length_c 20.111855
_cell_angle_alpha 90.000000
_cell_angle_beta 144.382641
_cell_angle_gamma 90.000000
_cell_volume 2519.595834
_symmetry_space_group_name_H-M "C 2/M"
_symmetry_group_IT_number 12
_symmetry_cell_setting 'monoclinic'
loop_
_space_group_symop_operation_xyz
x,y,z
-x,y,-z
-x,-y,-z
x,-y,z
1/2+x,1/2+y,z
1/2-x,1/2+y,-z
1/2-x,1/2-y,-z
1/2+x,1/2-y,z
loop_
_atom_site_type_symbol
_atom_site_label
_atom_site_fract_x
_atom_site_fract_y
_atom_site_fract_z
Si Si1 0.296429 0.654714 0.471024
Si Si2 0.038662 0.301192 0.587094
Si Si3 0.460394 0.500000 0.124756
Si Si4 0.087577 0.378580 0.242249
Si Si5 0.037735 0.769891 0.161064
Si Si6 0.667938 0.388300 0.130113
Si Si7 0.238584 0.630704 0.088728
Si Si8 0.083982 0.924343 0.701653
O O1 0.417109 0.727754 0.528943
O O2 0.415724 0.603418 0.574184
O O3 0.069078 0.662557 0.399779
O O4 0.255393 0.634980 0.376519
O O5 0.278229 0.291628 0.705606
O O6 0.000000 0.338253 0.500000
O O7 0.622813 0.438601 0.171667
O O8 0.297663 0.561699 0.074747
O O9 0.882604 0.398528 0.188974
O O10 0.036940 0.311634 0.173966
O O11 0.203797 0.427922 0.243863
O O12 0.116915 0.808922 0.130085
O O13 0.824073 0.803735 0.087000
O O14 0.500000 0.409790 0.000000
O O15 0.371814 0.625632 0.216897
O O16 0.000000 0.634396 0.000000
O O17 0.027070 0.000000 0.702982
#
# Coordination Sequence:
#
# PCOD9218596 Si02
#       8
#     8   8   4   8   8   8   8   8
#     4  11  23  41  66 100 137 192 244 285 360 435
#     4  11  19  38  70  96 132 186 240 286 349 433
#     4  10  24  52  78  95 140 189 258 286 358 449
#     4  12  26  43  70 105 147 192 238 293 373 431
#     4  11  24  44  71 105 144 180 242 298 359 441
#     4  11  27  46  72 106 140 191 241 304 366 431
#     4  11  26  47  76 104 138 188 246 302 365 438
#     4  12  27  44  69 105 147 190 247 305 360 429
#
# _framework density 23.813344000000001
#
# number of rings (size 3 to 8) (size 9 to 14) (size 15 to 20)
#    0.000    0.800    4.667    1.600    8.400    2.133 
#    0.000    0.000    0.000    2.000    0.000    0.000 
#    0.000    0.000    0.000    0.000    0.000    0.000 
#
# Total GULP energy -167251.078059 kJ/mol
# GULP energy per Si atom -5575.035935 kJ/mol
# Density = 2.375914 g / cm^3
# Si number density = 23.813344 Si / 1000 Ang^3
#
#
#
# Elastic Constant Matrix: (Units=GPa)
#
#
# Indices 1 2 3 4 5 6 
#
# 1 66.9478 2.4176 6.4769 0.0003 25.5347 -0.0002
# 2 2.4176 87.2290 8.2000 0.0003 6.7217 -0.0001
# 3 6.4769 8.2000 92.7223 0.0018 10.4307 -0.0004
# 4 0.0003 0.0003 0.0018 7.9300 0.0002 5.3675
# 5 25.5347 6.7217 10.4307 0.0002 51.8851 -0.0002
# 6 -0.0002 -0.0001 -0.0004 5.3675 -0.0002 20.3569
#
#
#
# Elastic Compliance Matrix: (Units=1/GPa)
#
#
# Indices 1 2 3 4 5 6 
#
# 1 0.018399 0.000213 -0.000289 0.000000 -0.009025 0.000000
# 2 0.000213 0.011652 -0.000884 0.000000 -0.001436 0.000000
# 3 -0.000289 -0.000884 0.011106 -0.000003 -0.001976 0.000001
# 4 0.000000 0.000000 -0.000003 0.153497 0.000000 -0.040472
# 5 -0.009025 -0.001436 -0.001976 0.000000 0.024298 0.000000
# 6 0.000000 0.000000 0.000001 -0.040472 0.000000 0.059795
#
#
# Mechanical properties :
#
#
# Convention : Reuss Voigt Hill
#
# Bulk Modulus (GPa) = 25.48620 31.23203 28.35912
# Shear Modulus (GPa) = 17.02154 31.35471 24.18812
#
# Velocity S-wave (km/s) = 2.67646 3.63255 3.19052
# Velocity P-wave (km/s) = 4.50299 5.54416 5.05048
#
# Compressibility (1/GPa) = 0.03923691
#
# Stress axis : x y z
#
# Youngs Moduli (GPa) = 54.34980 85.82256 90.04541
#
# Poissons Ratio (x) = -0.01825 0.02601
# Poissons Ratio (y) = -0.01156 0.07957
# Poissons Ratio (z) = 0.01570 0.07584
#
# Static dielectric constant tensor:
#      x y z
#    x 1.969060 0.000000 -0.045520 
#    y 0.000000 1.700330 0.000000 
#    z -0.045520 0.000000 1.925330 
# 
# From -- ./inp_files/336877.got.cif
#   From: 2010.05.17/outbox.cif.g08.bks.cpg/sg12_169_cif.got.tgz:336877.got - 2010.06.03 13:09:07.
