data_PCOD9218876
_publ_section_title
;
Structure prediction by ZEFSAII (Michael W. Deem and Ramdas Pophale) SiO2 
 PCOD9218876
Probable space group: C 2/M
;
_chemical_formula_sum "Si O2"
_cell_formula_units_Z 56
_cell_length_a 11.762120
_cell_length_b 19.818514
_cell_length_c 12.485737
_cell_angle_alpha 90.000000
_cell_angle_beta 75.641859
_cell_angle_gamma 90.000000
_cell_volume 2819.610587
_symmetry_space_group_name_H-M "C 2/M"
_symmetry_group_IT_number 12
_symmetry_cell_setting 'monoclinic'
loop_
_space_group_symop_operation_xyz
x,y,z
-x,y,-z
-x,-y,-z
x,-y,z
1/2+x,1/2+y,z
1/2-x,1/2+y,-z
1/2-x,1/2-y,-z
1/2+x,1/2-y,z
loop_
_atom_site_type_symbol
_atom_site_label
_atom_site_fract_x
_atom_site_fract_y
_atom_site_fract_z
Si Si1 0.884933 0.796454 0.273759
Si Si2 0.645505 0.777352 0.943814
Si Si3 0.326615 0.157729 0.366624
Si Si4 0.465915 0.923700 0.760558
Si Si5 0.362596 0.924789 0.003700
Si Si6 0.333971 0.860053 0.609047
Si Si7 0.420054 0.705057 0.623362
O O1 0.852296 0.765073 0.166957
O O2 0.854970 0.737222 0.366199
O O3 0.800084 0.857546 0.321005
O O4 0.017824 0.809090 0.277110
O O5 0.500000 0.775511 0.000000
O O6 0.750000 0.750000 0.000000
O O7 0.678796 0.856828 0.929572
O O8 0.422096 0.124700 0.267009
O O9 0.340502 0.128644 0.481683
O O10 0.193867 0.158254 0.359623
O O11 0.370878 0.908403 0.874718
O O12 0.405509 0.912721 0.661125
O O13 0.505260 0.000000 0.767731
O O14 0.310416 0.000000 0.033537
O O15 0.500000 0.930619 0.000000
O O16 0.384496 0.784760 0.625285
O O17 0.500000 0.691133 0.500000
#
# Coordination Sequence:
#
# PCOD9218876 Si02
#       7
#     8   8   8   8   8   8   8
#     4  11  21  34  56  81 113 148 182 234 294 351
#     4  11  24  38  57  88 121 151 195 253 308 349
#     4  11  20  31  53  79 111 147 184 231 281 345
#     4  11  22  36  55  81 113 151 196 242 284 334
#     4   9  19  37  58  79 109 153 200 244 295 357
#     4  11  20  32  53  80 114 145 182 231 285 347
#     4  11  18  33  52  80 109 146 187 224 282 353
#
# _framework density 19.860899
#
# number of rings (size 3 to 8) (size 9 to 14) (size 15 to 20)
#    0.000    1.286    4.286    3.857    4.000    1.143 
#    0.000    0.000    0.000    1.714    0.000    0.000 
#    0.000    0.000    0.000    0.000    0.000    0.286 
#
# Total GULP energy -155960.347448 kJ/mol
# GULP energy per Si atom -5570.012409 kJ/mol
# Density = 1.981570 g / cm^3
# Si number density = 19.860899 Si / 1000 Ang^3
#
#
#
# Elastic Constant Matrix: (Units=GPa)
#
#
# Indices 1 2 3 4 5 6 
#
# 1 83.6491 12.8811 21.5267 0.0000 28.4671 0.0000
# 2 12.8811 51.6996 8.9148 0.0000 5.0252 0.0000
# 3 21.5267 8.9148 92.6945 0.0000 30.6678 0.0000
# 4 0.0000 0.0000 0.0000 21.9703 0.0000 1.4057
# 5 28.4671 5.0252 30.6678 0.0000 35.8163 0.0000
# 6 0.0000 0.0000 0.0000 1.4057 0.0000 14.6978
#
#
#
# Elastic Compliance Matrix: (Units=1/GPa)
#
#
# Indices 1 2 3 4 5 6 
#
# 1 0.016871 -0.003025 0.000933 0.000000 -0.013784 0.000000
# 2 -0.003025 0.020276 -0.001537 0.000000 0.000875 0.000000
# 3 0.000933 -0.001537 0.015199 0.000000 -0.013540 0.000000
# 4 0.000000 0.000000 0.000000 0.045796 0.000000 -0.004380
# 5 -0.013784 0.000875 -0.013540 0.000000 0.050347 0.000000
# 6 0.000000 0.000000 0.000000 -0.004380 0.000000 0.068457
#
#
# Mechanical properties :
#
#
# Convention : Reuss Voigt Hill
#
# Bulk Modulus (GPa) = 22.17825 34.96537 28.57181
# Shear Modulus (GPa) = 20.90010 26.81156 23.85583
#
# Velocity S-wave (km/s) = 3.24747 3.67818 3.46951
# Velocity P-wave (km/s) = 5.02518 5.97344 5.51971
#
# Compressibility (1/GPa) = 0.04508922
#
# Stress axis : x y z
#
# Youngs Moduli (GPa) = 59.27240 49.31914 65.79368
#
# Poissons Ratio (x) = 0.14917 -0.06141
# Poissons Ratio (y) = 0.17928 0.10114
# Poissons Ratio (z) = -0.05532 0.07582
#
# Static dielectric constant tensor:
#      x y z
#    x 1.804560 0.000000 0.008430 
#    y 0.000000 1.674080 0.000000 
#    z 0.008430 0.000000 1.812970 
# 
# From -- ./inp_files/133251.got.cif
#   From: 2010.05.17/outbox.cif.g08.bks.cpg/sg12_67_cif.got.tgz:133251.got - 2010.06.03 13:09:07.
