data_PCOD9218892
_publ_section_title
;
Structure prediction by ZEFSAII (Michael W. Deem and Ramdas Pophale) SiO2 
 PCOD9218892
Probable space group: C 2/M
;
_chemical_formula_sum "Si O2"
_cell_formula_units_Z 56
_cell_length_a 19.355654
_cell_length_b 18.247175
_cell_length_c 9.307681
_cell_angle_alpha 90.000000
_cell_angle_beta 65.223498
_cell_angle_gamma 90.000000
_cell_volume 2984.740898
_symmetry_space_group_name_H-M "C 2/M"
_symmetry_group_IT_number 12
_symmetry_cell_setting 'monoclinic'
loop_
_space_group_symop_operation_xyz
x,y,z
-x,y,-z
-x,-y,-z
x,-y,z
1/2+x,1/2+y,z
1/2-x,1/2+y,-z
1/2-x,1/2-y,-z
1/2+x,1/2-y,z
loop_
_atom_site_type_symbol
_atom_site_label
_atom_site_fract_x
_atom_site_fract_y
_atom_site_fract_z
Si Si1 0.074755 0.778499 0.359254
Si Si2 0.891326 0.113242 0.137830
Si Si3 0.587156 0.213075 0.880390
Si Si4 0.216369 0.584213 0.277317
Si Si5 0.318927 0.190673 0.940839
Si Si6 0.525862 0.420076 0.227036
Si Si7 0.330480 0.781630 0.485502
O O1 0.110761 0.729047 0.203503
O O2 0.051456 0.855527 0.309717
O O3 0.136514 0.778420 0.432283
O O4 0.000000 0.746126 0.500000
O O5 0.899572 0.200137 0.108060
O O6 0.805770 0.088771 0.233106
O O7 0.943036 0.093434 0.229316
O O8 0.922668 0.080892 0.961769
O O9 0.611177 0.203492 0.694695
O O10 0.500000 0.195850 0.000000
O O11 0.648896 0.174633 0.929605
O O12 0.190449 0.500000 0.308979
O O13 0.205088 0.619942 0.129342
O O14 0.179161 0.643116 0.417573
O O15 0.250000 0.250000 0.000000
O O16 0.530041 0.500000 0.291392
O O17 0.250000 0.750000 0.500000
#
# Coordination Sequence:
#
# PCOD9218892 Si02
#       7
#     8   8   8   8   8   8   8
#     4  11  22  37  56  84 120 159 207 255 302 361
#     4  11  18  34  59  89 119 162 205 242 300 373
#     4  12  20  37  66  94 116 156 207 260 307 360
#     4  11  23  39  62  89 127 164 202 256 319 365
#     4  11  20  39  63  89 118 156 212 254 298 365
#     4  11  21  33  52  86 131 167 201 240 297 377
#     4  11  23  39  62  91 122 161 210 259 308 362
#
# _framework density 18.762098999999999
#
# number of rings (size 3 to 8) (size 9 to 14) (size 15 to 20)
#    0.000    0.857    5.714    4.286    0.000    0.286 
#    0.000    1.429    0.000   16.286    0.000    0.000 
#    0.000    0.000    0.000    0.000    0.000    0.000 
#
# Total GULP energy -156332.689149 kJ/mol
# GULP energy per Si atom -5583.310327 kJ/mol
# Density = 1.871940 g / cm^3
# Si number density = 18.762099 Si / 1000 Ang^3
#
#
#
# Elastic Constant Matrix: (Units=GPa)
#
#
# Indices 1 2 3 4 5 6 
#
# 1 90.6301 36.1919 32.1048 0.0000 17.2778 0.0000
# 2 36.1919 104.8048 34.0584 0.0000 9.1323 0.0000
# 3 32.1048 34.0584 90.2198 0.0000 9.9480 0.0000
# 4 0.0000 0.0000 0.0000 15.4979 0.0000 3.2458
# 5 17.2778 9.1323 9.9480 0.0000 36.0241 0.0000
# 6 0.0000 0.0000 0.0000 3.2458 0.0000 -2.2125
#
#
#
# Elastic Compliance Matrix: (Units=1/GPa)
#
#
# Indices 1 2 3 4 5 6 
#
# 1 0.014596 -0.003517 -0.003293 0.000000 -0.005200 0.000000
# 2 -0.003517 0.011822 -0.003163 0.000000 -0.000437 0.000000
# 3 -0.003293 -0.003163 0.013602 0.000000 -0.001375 0.000000
# 4 0.000000 0.000000 0.000000 0.049359 0.000000 0.072411
# 5 -0.005200 -0.000437 -0.001375 0.000000 0.030743 0.000000
# 6 0.000000 0.000000 0.000000 0.072411 0.000000 -0.345745
#
#
# Mechanical properties :
#
#
# Convention : Reuss Voigt Hill
#
# Bulk Modulus (GPa) = 49.81789 54.48497 52.15143
# Shear Modulus (GPa) = -25.12752 22.08189 -1.52282
#
# Velocity S-wave (km/s) = -3.66357 3.43438 -0.90189
# Velocity P-wave (km/s) = 2.95201 6.69549 5.17416
#
# Compressibility (1/GPa) = 0.02007311
#
# Stress axis : x y z
#
# Youngs Moduli (GPa) = 68.51108 84.58728 73.52111
#
# Poissons Ratio (x) = 0.29752 0.24210
# Poissons Ratio (y) = 0.24097 0.23256
# Poissons Ratio (z) = 0.22560 0.26756
#
# Static dielectric constant tensor:
#      x y z
#    x 1.688200 0.000000 0.011260 
#    y 0.000000 1.649380 0.000000 
#    z 0.011260 0.000000 1.678860 
# 
# From -- ./inp_files/75867.got.cif
#   From: 2010.05.17/outbox.cif.g08.bks.cpg/sg12_38_cif.got.tgz:75867.got - 2010.06.03 13:09:07.
