data_PCOD9218234
_publ_section_title
;
Structure prediction by ZEFSAII (Michael W. Deem and Ramdas Pophale) SiO2 
 PCOD9218234
Probable space group: C 2/M
;
_chemical_formula_sum "Si O2"
_cell_formula_units_Z 52
_cell_length_a 11.816376
_cell_length_b 26.808659
_cell_length_c 10.994645
_cell_angle_alpha 90.000000
_cell_angle_beta 131.928381
_cell_angle_gamma 90.000000
_cell_volume 2591.207808
_symmetry_space_group_name_H-M "C 2/M"
_symmetry_group_IT_number 12
_symmetry_cell_setting 'monoclinic'
loop_
_space_group_symop_operation_xyz
x,y,z
-x,y,-z
-x,-y,-z
x,-y,z
1/2+x,1/2+y,z
1/2-x,1/2+y,-z
1/2-x,1/2-y,-z
1/2+x,1/2-y,z
loop_
_atom_site_type_symbol
_atom_site_label
_atom_site_fract_x
_atom_site_fract_y
_atom_site_fract_z
Si Si1 0.700886 0.395096 0.524113
Si Si2 0.304806 0.000000 0.225887
Si Si3 0.737821 0.893649 0.902253
Si Si4 0.500000 0.321845 0.000000
Si Si5 0.459887 0.832996 0.611421
Si Si6 0.668570 0.000000 0.466714
Si Si7 0.083798 0.764691 0.827801
Si Si8 0.642740 0.632797 0.752453
O O1 0.792019 0.354342 0.510874
O O2 0.765389 0.449886 0.545034
O O3 0.522946 0.392727 0.364769
O O4 0.716886 0.379673 0.676837
O O5 0.236535 0.050029 0.120356
O O6 0.485699 0.000000 0.328250
O O7 0.288903 0.000000 0.359880
O O8 0.571254 0.875755 0.743825
O O9 0.763341 0.885591 0.063738
O O10 0.855231 0.856941 0.918564
O O11 0.509533 0.287988 0.126751
O O12 0.500000 0.825895 0.500000
O O13 0.499641 0.782645 0.711522
O O14 0.112592 0.808347 0.750580
O O15 0.250000 0.750000 0.000000
#
# Coordination Sequence:
#
# PCOD9218234 Si02
#       8
#     8   4   8   4   8   4   8   8
#     4  11  26  46  72  98 143 177 226 288 342 410
#     4  11  24  43  72 104 132 179 233 273 345 407
#     4  11  24  45  69 102 135 176 229 284 332 406
#     4  10  24  43  70  96 140 171 228 288 336 390
#     4  12  26  41  70 101 137 183 230 280 339 406
#     4  11  24  45  71 100 139 181 218 287 350 397
#     4  11  24  44  68  96 137 182 227 280 340 401
#     4  10  26  47  66 103 141 176 228 280 348 402
#
# _framework density 20.067862000000002
#
# number of rings (size 3 to 8) (size 9 to 14) (size 15 to 20)
#    0.000    1.077    4.615    0.923   12.923    4.000 
#    0.000    0.769    0.000    0.000    0.000    0.000 
#    0.000    0.000    0.000    0.000    0.000    0.000 
#
# Total GULP energy -145455.714098 kJ/mol
# GULP energy per Si atom -5594.450542 kJ/mol
# Density = 2.002219 g / cm^3
# Si number density = 20.067862 Si / 1000 Ang^3
#
#
#
# Elastic Constant Matrix: (Units=GPa)
#
#
# Indices 1 2 3 4 5 6 
#
# 1 83.7001 45.8128 1.9930 0.0000 -15.1608 0.0000
# 2 45.8128 160.1296 22.6284 0.0000 -27.5171 0.0000
# 3 1.9930 22.6284 45.1616 0.0000 -11.6612 0.0000
# 4 0.0000 0.0000 0.0000 29.4115 0.0000 2.3211
# 5 -15.1608 -27.5171 -11.6612 0.0000 20.6453 0.0000
# 6 0.0000 0.0000 0.0000 2.3211 0.0000 18.5502
#
#
#
# Elastic Compliance Matrix: (Units=1/GPa)
#
#
# Indices 1 2 3 4 5 6 
#
# 1 0.015253 -0.003348 0.003213 0.000000 0.008553 0.000000
# 2 -0.003348 0.008921 -0.002209 0.000000 0.008185 0.000000
# 3 0.003213 -0.002209 0.026877 0.000000 0.014596 0.000000
# 4 0.000000 0.000000 0.000000 0.034339 0.000000 -0.004297
# 5 0.008553 0.008185 0.014596 0.000000 0.073871 0.000000
# 6 0.000000 0.000000 0.000000 -0.004297 0.000000 0.054445
#
#
# Mechanical properties :
#
#
# Convention : Reuss Voigt Hill
#
# Bulk Modulus (GPa) = 21.56914 47.76218 34.66566
# Shear Modulus (GPa) = 21.38133 28.29190 24.83661
#
# Velocity S-wave (km/s) = 3.26767 3.75882 3.52181
# Velocity P-wave (km/s) = 5.00083 6.53378 5.81801
#
# Compressibility (1/GPa) = 0.04636254
#
# Stress axis : x y z
#
# Youngs Moduli (GPa) = 65.56227 112.08966 37.20710
#
# Poissons Ratio (x) = 0.37528 -0.11954
# Poissons Ratio (y) = 0.21950 0.08219
# Poissons Ratio (z) = -0.21065 0.24761
#
# Static dielectric constant tensor:
#      x y z
#    x 1.714410 0.000000 0.023160 
#    y 0.000000 1.687780 0.000000 
#    z 0.023160 0.000000 1.709500 
# 
# From -- ./inp_files/136057.got.cif
#   From: 2010.05.17/outbox.cif.g08.bks.cpg/sg12_69_cif.got.tgz:136057.got - 2010.06.03 13:09:07.
