data_PCOD9218270
_publ_section_title
;
Structure prediction by ZEFSAII (Michael W. Deem and Ramdas Pophale) SiO2 
 PCOD9218270
Probable space group: C 2/M
;
_chemical_formula_sum "Si O2"
_cell_formula_units_Z 56
_cell_length_a 12.371222
_cell_length_b 20.055385
_cell_length_c 11.591368
_cell_angle_alpha 90.000000
_cell_angle_beta 114.794709
_cell_angle_gamma 90.000000
_cell_volume 2610.815790
_symmetry_space_group_name_H-M "C 2/M"
_symmetry_group_IT_number 12
_symmetry_cell_setting 'monoclinic'
loop_
_space_group_symop_operation_xyz
x,y,z
-x,y,-z
-x,-y,-z
x,-y,z
1/2+x,1/2+y,z
1/2-x,1/2+y,-z
1/2-x,1/2-y,-z
1/2+x,1/2-y,z
loop_
_atom_site_type_symbol
_atom_site_label
_atom_site_fract_x
_atom_site_fract_y
_atom_site_fract_z
Si Si1 0.424862 0.427960 0.811311
Si Si2 0.496112 0.835508 0.862415
Si Si3 0.279884 0.865036 0.149428
Si Si4 0.719636 0.333602 0.677458
Si Si5 0.277435 0.575643 0.513918
Si Si6 0.390865 0.310548 0.118843
Si Si7 0.141484 0.305735 0.573220
O O1 0.482484 0.500000 0.853951
O O2 0.312151 0.419998 0.846246
O O3 0.375291 0.424099 0.658691
O O4 0.511703 0.366510 0.866434
O O5 0.592143 0.884038 0.845280
O O6 0.361242 0.839343 0.759899
O O7 0.545385 0.760833 0.860114
O O8 0.500000 0.846633 0.000000
O O9 0.311211 0.824512 0.278542
O O10 0.211421 0.820970 0.022982
O O11 0.677102 0.398734 0.589109
O O12 0.659524 0.323944 0.775581
O O13 0.688816 0.269657 0.583891
O O14 0.229558 0.500000 0.486672
O O15 0.186080 0.633501 0.513522
O O16 0.000000 0.303010 0.500000
#
# Coordination Sequence:
#
# PCOD9218270 Si02
#       7
#     8   8   8   8   8   8   8
#     4  10  24  45  69  96 132 177 228 276 322 397
#     4  12  22  40  64  96 140 170 214 273 338 401
#     4  11  22  42  65 100 133 173 218 272 338 393
#     4  12  25  40  67 102 138 174 223 280 335 402
#     4  10  24  44  64  92 134 182 225 271 335 399
#     4  12  24  38  67 102 135 173 214 275 345 399
#     4  11  23  41  68 101 131 174 228 282 329 392
#
# _framework density 21.449235000000002
#
# number of rings (size 3 to 8) (size 9 to 14) (size 15 to 20)
#    0.000    0.857    2.857    5.571    2.000    2.000 
#    0.000    5.000    0.000    0.857    0.000    0.000 
#    0.000    0.000    0.000    0.000    0.000    0.000 
#
# Total GULP energy -156497.833601 kJ/mol
# GULP energy per Si atom -5589.208343 kJ/mol
# Density = 2.140042 g / cm^3
# Si number density = 21.449235 Si / 1000 Ang^3
#
#
#
# Elastic Constant Matrix: (Units=GPa)
#
#
# Indices 1 2 3 4 5 6 
#
# 1 89.6413 29.6065 20.1690 0.0000 -6.4989 0.0000
# 2 29.6065 84.5705 45.7459 0.0000 -1.8998 0.0000
# 3 20.1690 45.7459 90.5635 0.0000 -12.1981 0.0000
# 4 0.0000 0.0000 0.0000 -7.1912 0.0000 1.6965
# 5 -6.4989 -1.8998 -12.1981 0.0000 40.5996 0.0000
# 6 0.0000 0.0000 0.0000 1.6965 0.0000 11.3868
#
#
#
# Elastic Compliance Matrix: (Units=1/GPa)
#
#
# Indices 1 2 3 4 5 6 
#
# 1 0.012766 -0.004151 -0.000518 0.000000 0.001694 0.000000
# 2 -0.004151 0.017744 -0.008354 0.000000 -0.002344 0.000000
# 3 -0.000518 -0.008354 0.015959 0.000000 0.004321 0.000000
# 4 0.000000 0.000000 0.000000 -0.134338 0.000000 0.020015
# 5 0.001694 -0.002344 0.004321 0.000000 0.026090 0.000000
# 6 0.000000 0.000000 0.000000 0.020015 0.000000 0.084839
#
#
# Mechanical properties :
#
#
# Convention : Reuss Voigt Hill
#
# Bulk Modulus (GPa) = 48.96532 50.64647 49.80590
# Shear Modulus (GPa) = 89.42159 20.24264 54.83211
#
# Velocity S-wave (km/s) = 6.46377 3.07538 5.06154
# Velocity P-wave (km/s) = 8.86483 6.02280 7.57824
#
# Compressibility (1/GPa) = 0.02042262
#
# Stress axis : x y z
#
# Youngs Moduli (GPa) = 78.33406 56.35760 62.65916
#
# Poissons Ratio (x) = 0.23392 0.03248
# Poissons Ratio (y) = 0.32514 0.52347
# Poissons Ratio (z) = 0.04060 0.47082
#
# Static dielectric constant tensor:
#      x y z
#    x 1.808380 0.000000 -0.035560 
#    y 0.000000 1.746610 0.000000 
#    z -0.035560 0.000000 1.795420 
# 
# From -- ./inp_files/133970.got.cif
#   From: 2010.05.17/outbox.cif.g08.bks.cpg/sg12_67_cif.got.tgz:133970.got - 2010.06.03 13:09:07.
