data_PCOD9218547
_publ_section_title
;
Structure prediction by ZEFSAII (Michael W. Deem and Ramdas Pophale) SiO2 
 PCOD9218547
Probable space group: C 2/M
;
_chemical_formula_sum "Si O2"
_cell_formula_units_Z 52
_cell_length_a 20.465621
_cell_length_b 23.081003
_cell_length_c 5.157180
_cell_angle_alpha 90.000000
_cell_angle_beta 64.212569
_cell_angle_gamma 90.000000
_cell_volume 2193.482848
_symmetry_space_group_name_H-M "C 2/M"
_symmetry_group_IT_number 12
_symmetry_cell_setting 'monoclinic'
loop_
_space_group_symop_operation_xyz
x,y,z
-x,y,-z
-x,-y,-z
x,-y,z
1/2+x,1/2+y,z
1/2-x,1/2+y,-z
1/2-x,1/2-y,-z
1/2+x,1/2-y,z
loop_
_atom_site_type_symbol
_atom_site_label
_atom_site_fract_x
_atom_site_fract_y
_atom_site_fract_z
Si Si1 0.584051 0.756520 0.909227
Si Si2 0.082222 0.621242 0.971985
Si Si3 0.300558 0.432511 0.878854
Si Si4 0.301292 0.726554 0.672975
Si Si5 0.417938 0.647224 0.746045
Si Si6 0.449335 0.000000 0.829522
Si Si7 0.767056 0.375705 0.510189
O O1 0.636463 0.764459 0.574800
O O2 0.500000 0.760980 0.000000
O O3 0.596594 0.814185 0.066047
O O4 0.589798 0.690261 0.995708
O O5 0.090867 0.561680 0.113605
O O6 0.147074 0.615225 0.655690
O O7 0.000000 0.621183 0.000000
O O8 0.287045 0.500000 0.945471
O O9 0.258554 0.393465 0.162357
O O10 0.385071 0.417027 0.799068
O O11 0.272246 0.415687 0.640308
O O12 0.356571 0.678175 0.682698
O O13 0.256444 0.689781 0.534578
O O14 0.250000 0.750000 0.000000
O O15 0.500000 0.650468 0.500000
O O16 0.500000 0.000000 0.500000
O O17 0.500000 0.000000 0.000000
#
# Coordination Sequence:
#
# PCOD9218547 Si02
#       7
#     8   8   8   8   8   4   8
#     4  11  22  43  70 104 144 187 239 291 361 430
#     4  10  25  44  68 102 136 187 240 290 352 425
#     4  11  26  46  73 105 141 188 242 299 363 428
#     4  11  24  41  70 106 146 189 235 298 365 427
#     4  11  23  42  69 103 144 189 238 295 355 430
#     4  10  24  48  66  92 132 178 231 290 341 406
#     4  11  25  46  71 103 144 186 240 299 359 429
#
# _framework density 23.706593000000002
#
# number of rings (size 3 to 8) (size 9 to 14) (size 15 to 20)
#    0.000    1.231    3.077    1.385    6.462    4.615 
#    5.538    0.000    0.000    3.231    0.000    0.000 
#    0.000    0.000    0.000    0.000    0.000    0.000 
#
# Total GULP energy -144795.527291 kJ/mol
# GULP energy per Si atom -5569.058742 kJ/mol
# Density = 2.365264 g / cm^3
# Si number density = 23.706593 Si / 1000 Ang^3
#
#
#
# Elastic Constant Matrix: (Units=GPa)
#
#
# Indices 1 2 3 4 5 6 
#
# 1 79.0302 -1.1022 44.4499 0.0000 -34.8418 0.0000
# 2 -1.1022 121.9029 22.4792 0.0000 -2.9386 0.0000
# 3 44.4499 22.4792 137.7871 0.0000 -30.9326 0.0000
# 4 0.0000 0.0000 0.0000 24.2239 0.0000 -10.5634
# 5 -34.8418 -2.9386 -30.9326 0.0000 50.9378 0.0000
# 6 0.0000 0.0000 0.0000 -10.5634 0.0000 10.7543
#
#
#
# Elastic Compliance Matrix: (Units=1/GPa)
#
#
# Indices 1 2 3 4 5 6 
#
# 1 0.019918 0.001208 -0.004109 0.000000 0.011199 0.000000
# 2 0.001208 0.008538 -0.001721 0.000000 0.000273 0.000000
# 3 -0.004109 -0.001721 0.009507 0.000000 0.002863 0.000000
# 4 0.000000 0.000000 0.000000 0.072213 0.000000 0.070932
# 5 0.011199 0.000273 0.002863 0.000000 0.029047 0.000000
# 6 0.000000 0.000000 0.000000 0.070932 0.000000 0.162659
#
#
# Mechanical properties :
#
#
# Convention : Reuss Voigt Hill
#
# Bulk Modulus (GPa) = 34.82007 52.26378 43.54192
# Shear Modulus (GPa) = 15.59095 35.37608 25.48351
#
# Velocity S-wave (km/s) = 2.56728 3.86715 3.28221
# Velocity P-wave (km/s) = 4.84847 6.48335 5.72457
#
# Compressibility (1/GPa) = 0.02871907
#
# Stress axis : x y z
#
# Youngs Moduli (GPa) = 50.20508 117.12145 105.19002
#
# Poissons Ratio (x) = -0.14145 0.43217
# Poissons Ratio (y) = -0.06063 0.18105
# Poissons Ratio (z) = 0.20627 0.20158
#
# Static dielectric constant tensor:
#      x y z
#    x 2.137710 0.000000 0.085210 
#    y 0.000000 1.924070 0.000000 
#    z 0.085210 0.000000 1.968870 
# 
# From -- ./inp_files/26173.got.cif
#   From: 2010.05.17/outbox.cif.g08.bks.cpg/sg12_14_cif.got.tgz:26173.got - 2010.06.03 13:09:07.
