data_PCOD9218529
_publ_section_title
;
Structure prediction by ZEFSAII (Michael W. Deem and Ramdas Pophale) SiO2 
 PCOD9218529
Probable space group: C 2/M
;
_chemical_formula_sum "Si O2"
_cell_formula_units_Z 64
_cell_length_a 12.837293
_cell_length_b 25.537298
_cell_length_c 14.927228
_cell_angle_alpha 90.000000
_cell_angle_beta 148.010146
_cell_angle_gamma 90.000000
_cell_volume 2592.472592
_symmetry_space_group_name_H-M "C 2/M"
_symmetry_group_IT_number 12
_symmetry_cell_setting 'monoclinic'
loop_
_space_group_symop_operation_xyz
x,y,z
-x,y,-z
-x,-y,-z
x,-y,z
1/2+x,1/2+y,z
1/2-x,1/2+y,-z
1/2-x,1/2-y,-z
1/2+x,1/2-y,z
loop_
_atom_site_type_symbol
_atom_site_label
_atom_site_fract_x
_atom_site_fract_y
_atom_site_fract_z
Si Si1 0.586217 0.059242 0.969198
Si Si2 0.225339 0.378243 0.755120
Si Si3 0.282118 0.639229 0.992259
Si Si4 0.641265 0.187073 0.282415
Si Si5 0.167165 0.747575 0.698768
Si Si6 0.769686 0.398905 0.442339
Si Si7 0.685042 0.422694 0.574050
Si Si8 0.434882 0.291587 0.693155
O O1 0.755882 0.094566 0.049073
O O2 0.394792 0.057523 0.764896
O O3 0.655582 0.000000 0.035829
O O4 0.500000 0.080822 0.000000
O O5 0.323900 0.383977 0.924656
O O6 0.209810 0.314605 0.734128
O O7 0.293675 0.402891 0.709103
O O8 0.005515 0.401404 0.610442
O O9 0.065000 0.664309 0.836115
O O10 0.429126 0.684820 0.128090
O O11 0.649473 0.215472 0.192967
O O12 0.793426 0.139794 0.394658
O O13 0.676118 0.238863 0.364497
O O14 0.083470 0.774399 0.725538
O O15 0.000000 0.753056 0.500000
O O16 0.683788 0.431038 0.464940
O O17 0.713675 0.339400 0.427681
O O18 0.500000 0.440374 0.500000
#
# Coordination Sequence:
#
# PCOD9218529 Si02
#       8
#     8   8   8   8   8   8   8   8
#     4  10  24  47  72  95 123 162 209 270 347 403
#     4  11  21  39  59  83 125 170 219 257 304 379
#     4  11  25  41  59  90 122 170 217 269 320 377
#     4  11  21  36  50  84 131 171 214 256 301 362
#     4  12  22  32  53  81 119 173 220 261 303 360
#     4  11  21  38  59  88 122 170 209 253 306 374
#     4  11  23  40  68  98 132 166 216 270 320 378
#     4  12  24  36  56  84 129 176 227 254 305 365
#
# _framework density 24.686855999999999
#
# number of rings (size 3 to 8) (size 9 to 14) (size 15 to 20)
#    0.000    0.875    6.250    2.250    5.250    2.250 
#    0.000    0.000    0.000    1.500    0.000    0.875 
#    0.000    0.000    0.000    0.000    0.000    0.000 
#
# Total GULP energy -178706.674831 kJ/mol
# GULP energy per Si atom -5584.583588 kJ/mol
# Density = 2.463067 g / cm^3
# Si number density = 24.686856 Si / 1000 Ang^3
#
#
#
# Elastic Constant Matrix: (Units=GPa)
#
#
# Indices 1 2 3 4 5 6 
#
# 1 212.7700 21.0996 28.3655 0.0000 -16.3540 0.0000
# 2 21.0996 63.8417 -3.5974 0.0000 -3.4929 0.0000
# 3 28.3655 -3.5974 82.9046 0.0000 -22.1832 0.0000
# 4 0.0000 0.0000 0.0000 6.3105 0.0000 -0.1174
# 5 -16.3540 -3.4929 -22.1832 0.0000 44.3942 0.0000
# 6 0.0000 0.0000 0.0000 -0.1174 0.0000 -0.5918
#
#
#
# Elastic Compliance Matrix: (Units=1/GPa)
#
#
# Indices 1 2 3 4 5 6 
#
# 1 0.005158 -0.001740 -0.001580 0.000000 0.000974 0.000000
# 2 -0.001740 0.016418 0.001711 0.000000 0.001505 0.000000
# 3 -0.001580 0.001711 0.014495 0.000000 0.006796 -0.000001
# 4 0.000000 0.000000 0.000000 0.157884 0.000000 -0.031328
# 5 0.000974 0.001505 0.006796 0.000000 0.026398 -0.000001
# 6 0.000000 0.000000 -0.000001 -0.031328 -0.000001 -1.683618
#
#
# Mechanical properties :
#
#
# Convention : Reuss Voigt Hill
#
# Bulk Modulus (GPa) = 30.43970 50.13908 40.28939
# Shear Modulus (GPa) = -3.45043 30.93248 13.74102
#
# Velocity S-wave (km/s) = -1.18352 3.54361 2.36182
# Velocity P-wave (km/s) = 3.23875 6.09073 4.87783
#
# Compressibility (1/GPa) = 0.03285184
#
# Stress axis : x y z
#
# Youngs Moduli (GPa) = 193.87530 60.90981 68.98863
#
# Poissons Ratio (x) = 0.10601 0.10898
# Poissons Ratio (y) = 0.33743 -0.11802
# Poissons Ratio (z) = 0.30627 -0.10420
#
# Static dielectric constant tensor:
#      x y z
#    x 2.291100 0.000000 -0.054190 
#    y 0.000000 1.900860 0.000000 
#    z -0.054190 0.000000 2.068890 
# 
# From -- ./inp_files/209429.got.cif
#   From: 2010.05.17/outbox.cif.g08.bks.cpg/sg12_105_cif.got.tgz:209429.got - 2010.06.03 13:09:07.
