data_PCOD9218742
_publ_section_title
;
Structure prediction by ZEFSAII (Michael W. Deem and Ramdas Pophale) SiO2 
 PCOD9218742
Probable space group: C 2/M
;
_chemical_formula_sum "Si O2"
_cell_formula_units_Z 52
_cell_length_a 15.297850
_cell_length_b 19.642009
_cell_length_c 8.969501
_cell_angle_alpha 90.000000
_cell_angle_beta 130.523396
_cell_angle_gamma 90.000000
_cell_volume 2048.700992
_symmetry_space_group_name_H-M "C 2/M"
_symmetry_group_IT_number 12
_symmetry_cell_setting 'monoclinic'
loop_
_space_group_symop_operation_xyz
x,y,z
-x,y,-z
-x,-y,-z
x,-y,z
1/2+x,1/2+y,z
1/2-x,1/2+y,-z
1/2-x,1/2-y,-z
1/2+x,1/2-y,z
loop_
_atom_site_type_symbol
_atom_site_label
_atom_site_fract_x
_atom_site_fract_y
_atom_site_fract_z
Si Si1 0.758112 0.848753 0.321851
Si Si2 0.132100 0.400455 0.622217
Si Si3 0.097552 0.750218 0.021736
Si Si4 0.192681 0.867910 0.963048
Si Si5 0.937241 0.255307 0.576568
Si Si6 0.059107 0.000000 0.825386
Si Si7 0.834074 0.000000 0.407468
Si Si8 0.816575 0.000000 0.709836
O O1 0.844921 0.802992 0.515276
O O2 0.766322 0.929701 0.351817
O O3 0.638264 0.808517 0.179549
O O4 0.790896 0.841801 0.184053
O O5 0.194881 0.407054 0.852510
O O6 0.117909 0.326108 0.534654
O O7 0.225293 0.438472 0.620232
O O8 0.000000 0.424349 0.500000
O O9 0.036589 0.727069 0.803256
O O10 0.188752 0.804368 0.069549
O O11 0.000000 0.791424 0.000000
O O12 0.080654 0.914832 0.845077
O O13 0.000000 0.226842 0.500000
O O14 0.109584 0.000000 0.059552
O O15 0.105891 0.000000 0.686881
O O16 0.905417 0.000000 0.655092
#
# Coordination Sequence:
#
# PCOD9218742 Si02
#       8
#     8   8   8   8   8   4   4   4
#     4  12  24  48  71 103 149 190 247 296 366 445
#     4  11  24  43  73 101 143 199 244 287 365 447
#     4  12  28  42  72 111 145 187 246 305 370 428
#     4  12  24  45  72 110 145 187 248 303 362 444
#     4  11  23  43  73 102 142 192 240 298 358 434
#     4  10  26  42  70 109 140 183 239 301 379 415
#     4  10  27  44  70 103 138 197 234 306 371 434
#     4  10  26  46  66 103 150 185 243 300 380 425
#
# _framework density 25.381938000000002
#
# number of rings (size 3 to 8) (size 9 to 14) (size 15 to 20)
#    0.462    0.308    3.077    4.385    4.308    1.846 
#    0.000    2.692    0.000    0.000    0.000    0.000 
#    0.000    0.000    0.000    0.000    0.000    0.000 
#
# Total GULP energy -144765.624345 kJ/mol
# GULP energy per Si atom -5567.908629 kJ/mol
# Density = 2.532417 g / cm^3
# Si number density = 25.381938 Si / 1000 Ang^3
#
#
#
# Elastic Constant Matrix: (Units=GPa)
#
#
# Indices 1 2 3 4 5 6 
#
# 1 121.7425 22.0460 33.0840 0.0000 2.2608 0.0000
# 2 22.0460 118.8026 29.6408 0.0000 21.4128 0.0000
# 3 33.0840 29.6408 125.2343 0.0000 22.8802 0.0000
# 4 0.0000 0.0000 0.0000 35.0047 0.0000 20.5238
# 5 2.2608 21.4128 22.8802 0.0000 43.8931 0.0000
# 6 0.0000 0.0000 0.0000 20.5238 0.0000 0.2430
#
#
#
# Elastic Compliance Matrix: (Units=1/GPa)
#
#
# Indices 1 2 3 4 5 6 
#
# 1 0.009067 -0.001355 -0.002332 0.000000 0.001410 0.000000
# 2 -0.001355 0.009695 -0.001200 0.000000 -0.004035 0.000000
# 3 -0.002332 -0.001200 0.009678 0.000000 -0.004339 0.000000
# 4 0.000000 0.000000 0.000000 -0.000589 0.000000 0.049728
# 5 0.001410 -0.004035 -0.004339 0.000000 0.026940 0.000000
# 6 0.000000 0.000000 0.000000 0.049728 0.000000 -0.084814
#
#
# Mechanical properties :
#
#
# Convention : Reuss Voigt Hill
#
# Bulk Modulus (GPa) = 53.57074 59.48009 56.52542
# Shear Modulus (GPa) = -356.46052 34.56207 -160.94922
#
# Velocity S-wave (km/s) = -11.86354 3.69410 -7.97174
# Velocity P-wave (km/s) = 12.90373 6.45601 7.90020
#
# Compressibility (1/GPa) = 0.01866691
#
# Stress axis : x y z
#
# Youngs Moduli (GPa) = 110.29024 103.14354 103.32828
#
# Poissons Ratio (x) = 0.13973 0.24098
# Poissons Ratio (y) = 0.14941 0.12396
# Poissons Ratio (z) = 0.25722 0.12374
#
# Static dielectric constant tensor:
#      x y z
#    x 2.120420 0.000000 0.009160 
#    y 0.000000 2.073690 0.000000 
#    z 0.009160 0.000000 2.124820 
# 
# From -- ./inp_files/78129.got.cif
#   From: 2010.05.17/outbox.cif.g08.bks.cpg/sg12_40_cif.got.tgz:78129.got - 2010.06.03 13:09:07.
