data_PCOD9218706
_publ_section_title
;
Structure prediction by ZEFSAII (Michael W. Deem and Ramdas Pophale) SiO2 
 PCOD9218706
Probable space group: C 2/M
;
_chemical_formula_sum "Si O2"
_cell_formula_units_Z 24
_cell_length_a 5.543204
_cell_length_b 32.327744
_cell_length_c 5.023073
_cell_angle_alpha 90.000000
_cell_angle_beta 93.660815
_cell_angle_gamma 90.000000
_cell_volume 898.294364
_symmetry_space_group_name_H-M "C 2/M"
_symmetry_group_IT_number 12
_symmetry_cell_setting 'monoclinic'
loop_
_space_group_symop_operation_xyz
x,y,z
-x,y,-z
-x,-y,-z
x,-y,z
1/2+x,1/2+y,z
1/2-x,1/2+y,-z
1/2-x,1/2-y,-z
1/2+x,1/2-y,z
loop_
_atom_site_type_symbol
_atom_site_label
_atom_site_fract_x
_atom_site_fract_y
_atom_site_fract_z
Si Si1 0.739204 0.000000 0.332632
Si Si2 0.248812 0.296771 0.387636
Si Si3 0.670033 0.590573 0.769818
Si Si4 0.000000 0.343122 0.000000
O O1 0.500000 0.000000 0.500000
O O2 0.742741 0.043445 0.179463
O O3 0.000000 0.000000 0.500000
O O4 0.500000 0.315665 0.500000
O O5 0.250000 0.250000 0.500000
O O6 0.000000 0.312744 0.500000
O O7 0.210273 0.308260 0.075044
O O8 0.500000 0.591045 0.500000
O O9 0.500000 0.603590 0.000000
O O10 0.892740 0.622051 0.788441
#
# Coordination Sequence:
#
# PCOD9218706 Si02
#       4
#     4   8   8   4
#     4  10  25  49  81 113 164 210 268 319 395 471
#     4  10  25  47  73 106 148 195 259 320 403 467
#     4  11  28  49  77 116 162 213 268 329 396 472
#     4  12  28  41  82 104 164 196 274 325 402 466
#
# _framework density 26.717305
#
# number of rings (size 3 to 8) (size 9 to 14) (size 15 to 20)
#    0.000    1.333    0.000    1.500   18.667    6.000 
#    0.000    0.000    0.000    0.000    0.000    0.000 
#    0.000    0.000    0.000    0.000    0.000    0.000 
#
# Total GULP energy -66804.324758 kJ/mol
# GULP energy per Si atom -5567.027063 kJ/mol
# Density = 2.665649 g / cm^3
# Si number density = 26.717305 Si / 1000 Ang^3
#
#
#
# Elastic Constant Matrix: (Units=GPa)
#
#
# Indices 1 2 3 4 5 6 
#
# 1 197.4289 28.0867 70.1625 0.0000 36.4519 0.0000
# 2 28.0867 250.3749 38.9544 0.0000 19.2941 0.0000
# 3 70.1625 38.9544 136.5946 0.0000 41.6816 0.0000
# 4 0.0000 0.0000 0.0000 41.8513 0.0000 3.0762
# 5 36.4519 19.2941 41.6816 0.0000 78.1802 0.0000
# 6 0.0000 0.0000 0.0000 3.0762 0.0000 -261.0190
#
#
#
# Elastic Compliance Matrix: (Units=1/GPa)
#
#
# Indices 1 2 3 4 5 6 
#
# 1 0.006339 -0.000169 -0.002769 0.000000 -0.001437 0.000000
# 2 -0.000169 0.004199 -0.000977 0.000000 -0.000436 0.000000
# 3 -0.002769 -0.000977 0.010216 0.000000 -0.003915 0.000000
# 4 0.000000 0.000000 0.000000 0.023873 0.000000 0.000281
# 5 -0.001437 -0.000436 -0.003915 0.000000 0.015656 0.000000
# 6 0.000000 0.000000 0.000000 0.000281 0.000000 -0.003828
#
#
# Mechanical properties :
#
#
# Convention : Reuss Voigt Hill
#
# Bulk Modulus (GPa) = 77.38476 95.42286 86.40381
# Shear Modulus (GPa) = 72.89260 1.61548 37.25404
#
# Velocity S-wave (km/s) = 5.22897 0.77844 3.73819
# Velocity P-wave (km/s) = 8.09218 6.04990 7.14439
#
# Compressibility (1/GPa) = 0.01292244
#
# Stress axis : x y z
#
# Youngs Moduli (GPa) = 157.76271 238.17019 97.88125
#
# Poissons Ratio (x) = 0.04037 0.27103
# Poissons Ratio (y) = 0.02674 0.09565
# Poissons Ratio (z) = 0.43683 0.23275
#
# Static dielectric constant tensor:
#      x y z
#    x 1.989320 0.000000 0.540080 
#    y 0.000000 2.142350 0.000000 
#    z 0.540080 0.000000 0.545410 
# 
# From -- ./inp_files/1156.got.cif
#   From: 2010.05.17/outbox.cif.g08.bks.cpg/sg12_1_cif.got.tgz:1156.got - 2010.06.03 13:09:07.
