data_PCOD9218698
_publ_section_title
;
Structure prediction by ZEFSAII (Michael W. Deem and Ramdas Pophale) SiO2 
 PCOD9218698
Probable space group: C 2/M
;
_chemical_formula_sum "Si O2"
_cell_formula_units_Z 56
_cell_length_a 24.241039
_cell_length_b 20.103939
_cell_length_c 5.407257
_cell_angle_alpha 90.000000
_cell_angle_beta 70.557123
_cell_angle_gamma 90.000000
_cell_volume 2484.900689
_symmetry_space_group_name_H-M "C 2/M"
_symmetry_group_IT_number 12
_symmetry_cell_setting 'monoclinic'
loop_
_space_group_symop_operation_xyz
x,y,z
-x,y,-z
-x,-y,-z
x,-y,z
1/2+x,1/2+y,z
1/2-x,1/2+y,-z
1/2-x,1/2-y,-z
1/2+x,1/2-y,z
loop_
_atom_site_type_symbol
_atom_site_label
_atom_site_fract_x
_atom_site_fract_y
_atom_site_fract_z
Si Si1 0.656089 0.631153 0.620553
Si Si2 0.155745 0.576793 0.006010
Si Si3 0.198192 0.242989 0.267946
Si Si4 0.906915 0.786154 0.909628
Si Si5 0.466386 0.154186 0.805989
Si Si6 0.430039 0.427425 0.626482
Si Si7 0.722211 0.117142 0.409127
O O1 0.695827 0.666698 0.355250
O O2 0.607023 0.585236 0.570365
O O3 0.707784 0.602122 0.711505
O O4 0.624877 0.695831 0.787281
O O5 0.138301 0.500000 0.046502
O O6 0.192418 0.586899 0.697797
O O7 0.097482 0.621332 0.091002
O O8 0.192547 0.593961 0.197856
O O9 0.137633 0.248570 0.212055
O O10 0.209103 0.303200 0.439117
O O11 0.250000 0.250000 0.000000
O O12 0.959246 0.734541 0.841947
O O13 0.919459 0.860893 0.798255
O O14 0.500000 0.139820 0.500000
O O15 0.500000 0.130502 0.000000
O O16 0.500000 0.429911 0.500000
O O17 0.411667 0.500000 0.755362
#
# Coordination Sequence:
#
# PCOD9218698 Si02
#       7
#     8   8   8   8   8   8   8
#     4  11  25  39  70 105 141 187 236 295 359 432
#     4  12  28  49  74 105 148 198 244 301 371 439
#     4  11  21  40  67 104 144 186 229 295 366 431
#     4  11  24  41  71 105 140 184 237 303 355 429
#     4  12  28  47  75 109 143 187 246 311 366 431
#     4  10  25  47  67  95 142 193 241 290 353 426
#     4  12  24  45  71 109 147 189 242 295 364 439
#
# _framework density 22.536114999999999
#
# number of rings (size 3 to 8) (size 9 to 14) (size 15 to 20)
#    0.000    0.714    2.857    3.857    8.000    2.286 
#    0.000    1.429    0.000    0.000    0.000    0.000 
#    0.000    0.000    0.000    0.000    0.000    0.000 
#
# Total GULP energy -156368.349360 kJ/mol
# GULP energy per Si atom -5584.583906 kJ/mol
# Density = 2.248482 g / cm^3
# Si number density = 22.536115 Si / 1000 Ang^3
#
#
#
# Elastic Constant Matrix: (Units=GPa)
#
#
# Indices 1 2 3 4 5 6 
#
# 1 135.8987 34.3835 37.5575 0.0000 24.5572 0.0000
# 2 34.3835 122.0048 12.1594 0.0000 4.3836 0.0000
# 3 37.5575 12.1594 98.3483 0.0000 11.7739 0.0000
# 4 0.0000 0.0000 0.0000 29.8864 0.0000 -5.3252
# 5 24.5572 4.3836 11.7739 0.0000 28.8356 0.0000
# 6 0.0000 0.0000 0.0000 -5.3252 0.0000 -2.5255
#
#
#
# Elastic Compliance Matrix: (Units=1/GPa)
#
#
# Indices 1 2 3 4 5 6 
#
# 1 0.009946 -0.002284 -0.002674 0.000000 -0.007031 0.000000
# 2 -0.002284 0.008845 -0.000308 0.000000 0.000726 0.000000
# 3 -0.002674 -0.000308 0.011512 0.000000 -0.002376 0.000000
# 4 0.000000 0.000000 0.000000 0.024322 0.000000 -0.051285
# 5 -0.007031 0.000726 -0.002376 0.000000 0.041527 0.000000
# 6 0.000000 0.000000 0.000000 -0.051285 0.000000 -0.287824
#
#
# Mechanical properties :
#
#
# Convention : Reuss Voigt Hill
#
# Bulk Modulus (GPa) = 50.58207 58.27251 54.42729
# Shear Modulus (GPa) = -28.64492 29.38273 0.36890
#
# Velocity S-wave (km/s) = -3.56907 3.61474 0.40503
# Velocity P-wave (km/s) = 2.34718 6.58296 4.94189
#
# Compressibility (1/GPa) = 0.01976985
#
# Stress axis : x y z
#
# Youngs Moduli (GPa) = 100.54517 113.06264 86.86816
#
# Poissons Ratio (x) = 0.25821 0.23229
# Poissons Ratio (y) = 0.22962 0.02678
# Poissons Ratio (z) = 0.26886 0.03486
#
# Static dielectric constant tensor:
#      x y z
#    x 1.868640 0.000000 0.026020 
#    y 0.000000 1.741560 0.000000 
#    z 0.026020 0.000000 1.950710 
# 
# From -- ./inp_files/25611.got.cif
#   From: 2010.05.17/outbox.cif.g08.bks.cpg/sg12_13_cif.got.tgz:25611.got - 2010.06.03 13:09:07.
