data_PCOD9218039
_publ_section_title
;
Structure prediction by ZEFSAII (Michael W. Deem and Ramdas Pophale) SiO2 
 PCOD9218039
Probable space group: C 2/M
;
_chemical_formula_sum "Si O2"
_cell_formula_units_Z 36
_cell_length_a 19.609471
_cell_length_b 14.653958
_cell_length_c 8.264899
_cell_angle_alpha 90.000000
_cell_angle_beta 137.122933
_cell_angle_gamma 90.000000
_cell_volume 1615.996064
_symmetry_space_group_name_H-M "C 2/M"
_symmetry_group_IT_number 12
_symmetry_cell_setting 'monoclinic'
loop_
_space_group_symop_operation_xyz
x,y,z
-x,y,-z
-x,-y,-z
x,-y,z
1/2+x,1/2+y,z
1/2-x,1/2+y,-z
1/2-x,1/2-y,-z
1/2+x,1/2-y,z
loop_
_atom_site_type_symbol
_atom_site_label
_atom_site_fract_x
_atom_site_fract_y
_atom_site_fract_z
Si Si1 0.384055 0.816213 0.625027
Si Si2 0.953414 0.800212 0.240000
Si Si3 0.212738 0.694103 0.196501
Si Si4 0.771228 0.500000 0.894781
Si Si5 0.994739 0.500000 0.793391
Si Si6 0.412141 0.500000 0.206158
O O1 0.466851 0.739270 0.745420
O O2 0.288676 0.775278 0.367556
O O3 0.352287 0.825573 0.755779
O O4 0.432034 0.909420 0.642284
O O5 0.000000 0.798414 0.500000
O O6 0.926905 0.903253 0.146961
O O7 0.859383 0.731993 0.067996
O O8 0.260921 0.596554 0.240112
O O9 0.703477 0.500000 0.936275
O O10 0.893409 0.500000 0.091056
O O11 0.000000 0.500000 0.000000
O O12 0.500000 0.500000 0.500000
#
# Coordination Sequence:
#
# PCOD9218039 Si02
#       6
#     8   8   8   4   4   4
#     4  11  23  41  68 100 135 176 228 284 336 404
#     4  11  23  43  64  92 136 179 223 282 337 407
#     4  11  23  41  70 100 130 178 234 279 344 400
#     4  12  22  42  74  94 134 188 222 278 345 406
#     4  12  20  43  70 100 137 175 226 287 344 395
#     4  10  24  41  61  93 136 183 224 266 342 416
#
# _framework density 22.277282
#
# number of rings (size 3 to 8) (size 9 to 14) (size 15 to 20)
#    0.000    0.889    4.444    3.333    0.000    4.444 
#    0.000    5.556    0.000    0.000    0.000    0.000 
#    0.000    0.000    0.000    0.000    0.000    0.000 
#
# Total GULP energy -100558.833813 kJ/mol
# GULP energy per Si atom -5586.601878 kJ/mol
# Density = 2.222658 g / cm^3
# Si number density = 22.277282 Si / 1000 Ang^3
#
#
#
# Elastic Constant Matrix: (Units=GPa)
#
#
# Indices 1 2 3 4 5 6 
#
# 1 70.3959 45.0903 2.6937 0.0000 29.3479 0.0000
# 2 45.0903 179.1677 25.6182 0.0000 6.5027 0.0000
# 3 2.6937 25.6182 72.1895 0.0000 7.1097 0.0000
# 4 0.0000 0.0000 0.0000 17.5816 0.0000 13.9999
# 5 29.3479 6.5027 7.1097 0.0000 23.6489 0.0000
# 6 0.0000 0.0000 0.0000 13.9999 0.0000 35.3809
#
#
#
# Elastic Compliance Matrix: (Units=1/GPa)
#
#
# Indices 1 2 3 4 5 6 
#
# 1 0.040954 -0.009451 0.006776 0.000000 -0.050261 0.000000
# 2 -0.009451 0.008085 -0.003558 0.000000 0.010575 0.000000
# 3 0.006776 -0.003558 0.016070 0.000000 -0.012262 0.000000
# 4 0.000000 0.000000 0.000000 0.083043 0.000000 -0.032860
# 5 -0.050261 0.010575 -0.012262 0.000000 0.105437 0.000000
# 6 0.000000 0.000000 0.000000 -0.032860 0.000000 0.041266
#
#
# Mechanical properties :
#
#
# Convention : Reuss Voigt Hill
#
# Bulk Modulus (GPa) = 18.99636 52.06194 35.52915
# Shear Modulus (GPa) = 15.39082 31.87900 23.63491
#
# Velocity S-wave (km/s) = 2.63130 3.78697 3.26074
# Velocity P-wave (km/s) = 4.21633 6.52244 5.49180
#
# Compressibility (1/GPa) = 0.05264166
#
# Stress axis : x y z
#
# Youngs Moduli (GPa) = 24.41782 123.68846 62.22841
#
# Poissons Ratio (x) = 1.16901 -0.42165
# Poissons Ratio (y) = 0.23078 0.22141
# Poissons Ratio (z) = -0.16545 0.44008
#
# Static dielectric constant tensor:
#      x y z
#    x 1.836160 0.000000 0.024630 
#    y 0.000000 1.803860 0.000000 
#    z 0.024630 0.000000 1.878700 
# 
# From -- ./inp_files/86455.got.cif
#   From: 2010.05.17/outbox.cif.g08.bks.cpg/sg12_44_cif.got.tgz:86455.got - 2010.06.03 13:09:07.
