data_PCOD9218919
_publ_section_title
;
Structure prediction by ZEFSAII (Michael W. Deem and Ramdas Pophale) SiO2 
 PCOD9218919
Probable space group: C 2/M
;
_chemical_formula_sum "Si O2"
_cell_formula_units_Z 64
_cell_length_a 18.244117
_cell_length_b 24.730150
_cell_length_c 14.359112
_cell_angle_alpha 90.000000
_cell_angle_beta 147.109906
_cell_angle_gamma 90.000000
_cell_volume 3518.037204
_symmetry_space_group_name_H-M "C 2/M"
_symmetry_group_IT_number 12
_symmetry_cell_setting 'monoclinic'
loop_
_space_group_symop_operation_xyz
x,y,z
-x,y,-z
-x,-y,-z
x,-y,z
1/2+x,1/2+y,z
1/2-x,1/2+y,-z
1/2-x,1/2-y,-z
1/2+x,1/2-y,z
loop_
_atom_site_type_symbol
_atom_site_label
_atom_site_fract_x
_atom_site_fract_y
_atom_site_fract_z
Si Si1 0.898231 0.754595 0.980189
Si Si2 0.246995 0.064341 0.112687
Si Si3 0.864531 0.283391 0.403819
Si Si4 0.807016 0.796800 0.491069
Si Si5 0.001573 0.864463 0.821402
Si Si6 0.968988 0.351715 0.859398
Si Si7 0.758367 0.896122 0.679304
Si Si8 0.477362 0.063075 0.702667
O O1 0.745321 0.760140 0.784650
O O2 0.000000 0.755335 0.000000
O O3 0.936595 0.808023 0.076822
O O4 0.929815 0.697252 0.060641
O O5 0.247642 0.082766 0.221528
O O6 0.391272 0.076666 0.219734
O O7 0.225957 0.000000 0.086158
O O8 0.126029 0.096342 0.932881
O O9 0.893009 0.236812 0.508477
O O10 0.792285 0.334110 0.374741
O O11 0.000000 0.302328 0.500000
O O12 0.750000 0.750000 0.500000
O O13 0.895245 0.843743 0.631566
O O14 0.678376 0.824396 0.305582
O O15 0.909553 0.894005 0.800977
O O16 0.975569 0.399544 0.791984
O O17 0.000000 0.367055 0.000000
O O18 0.655768 0.927211 0.502155
O O19 0.485245 0.000000 0.736126
#
# Coordination Sequence:
#
# PCOD9218919 Si02
#       8
#     8   8   8   8   8   8   8   8
#     4  11  18  37  59  86 121 160 196 238 299 366
#     4  11  25  42  60  89 129 164 202 255 310 363
#     4  12  23  35  58  93 127 160 200 247 304 366
#     4  12  20  38  60  90 128 163 196 251 306 357
#     4  12  22  37  62  89 128 165 205 241 298 365
#     4  11  21  40  69  88 115 160 210 254 305 364
#     4  12  21  38  64  91 124 166 205 245 299 372
#     4  11  25  43  62  89 123 160 207 264 312 354
#
# _framework density 18.191962
#
# number of rings (size 3 to 8) (size 9 to 14) (size 15 to 20)
#    0.000    0.500    8.750    1.875    0.000    3.750 
#    0.000    1.250    0.000    0.000    0.000    1.750 
#    0.000    0.000    0.000    0.000    0.000    0.000 
#
# Total GULP energy -178717.940589 kJ/mol
# GULP energy per Si atom -5584.935643 kJ/mol
# Density = 1.815056 g / cm^3
# Si number density = 18.191962 Si / 1000 Ang^3
#
#
#
# Elastic Constant Matrix: (Units=GPa)
#
#
# Indices 1 2 3 4 5 6 
#
# 1 30.1862 16.9936 16.9226 0.0000 -1.8008 0.0000
# 2 16.9936 77.8850 22.5089 0.0000 -5.0301 0.0000
# 3 16.9226 22.5089 90.5478 0.0000 -6.5547 0.0000
# 4 0.0000 0.0000 0.0000 24.8421 0.0000 0.5373
# 5 -1.8008 -5.0301 -6.5547 0.0000 29.1463 0.0000
# 6 0.0000 0.0000 0.0000 0.5373 0.0000 20.2224
#
#
#
# Elastic Compliance Matrix: (Units=1/GPa)
#
#
# Indices 1 2 3 4 5 6 
#
# 1 0.040385 -0.007145 -0.005774 0.000000 -0.000036 0.000000
# 2 -0.007145 0.015175 -0.002317 0.000000 0.001656 0.000000
# 3 -0.005774 -0.002317 0.012853 0.000000 0.002134 0.000000
# 4 0.000000 0.000000 0.000000 0.040277 0.000000 -0.001070
# 5 -0.000036 0.001656 0.002134 0.000000 0.035073 0.000000
# 6 0.000000 0.000000 0.000000 -0.001070 0.000000 0.049479
#
#
# Mechanical properties :
#
#
# Convention : Reuss Voigt Hill
#
# Bulk Modulus (GPa) = 26.35673 34.60769 30.48221
# Shear Modulus (GPa) = 21.15398 24.32175 22.73786
#
# Velocity S-wave (km/s) = 3.41371 3.66040 3.53921
# Velocity P-wave (km/s) = 5.48247 6.07697 5.78736
#
# Compressibility (1/GPa) = 0.03794098
#
# Stress axis : x y z
#
# Youngs Moduli (GPa) = 24.76170 65.89774 77.80006
#
# Poissons Ratio (x) = 0.47085 0.44922
# Poissons Ratio (y) = 0.17693 0.18026
# Poissons Ratio (z) = 0.14298 0.15269
#
# Static dielectric constant tensor:
#      x y z
#    x 1.632980 0.000000 -0.026010 
#    y 0.000000 1.618990 0.000000 
#    z -0.026010 0.000000 1.650490 
# 
# From -- ./inp_files/228159.got.cif
#   From: 2010.05.17/outbox.cif.g08.bks.cpg/sg12_115_cif.got.tgz:228159.got - 2010.06.03 13:09:07.
