data_PCOD9218678
_publ_section_title
;
Structure prediction by ZEFSAII (Michael W. Deem and Ramdas Pophale) SiO2 
 PCOD9218678
Probable space group: C 2/M
;
_chemical_formula_sum "Si O2"
_cell_formula_units_Z 24
_cell_length_a 10.696222
_cell_length_b 7.958486
_cell_length_c 32.536253
_cell_angle_alpha 90.000000
_cell_angle_beta 156.035136
_cell_angle_gamma 90.000000
_cell_volume 1124.975407
_symmetry_space_group_name_H-M "C 2/M"
_symmetry_group_IT_number 12
_symmetry_cell_setting 'monoclinic'
loop_
_space_group_symop_operation_xyz
x,y,z
-x,y,-z
-x,-y,-z
x,-y,z
1/2+x,1/2+y,z
1/2-x,1/2+y,-z
1/2-x,1/2-y,-z
1/2+x,1/2-y,z
loop_
_atom_site_type_symbol
_atom_site_label
_atom_site_fract_x
_atom_site_fract_y
_atom_site_fract_z
Si Si1 0.392663 0.500000 0.920719
Si Si2 0.453299 0.312688 0.788922
Si Si3 0.170552 0.000000 0.923227
Si Si4 0.711894 0.701308 0.441007
O O1 0.669514 0.500000 0.971317
O O2 0.185967 0.663604 0.849155
O O3 0.500000 0.500000 0.000000
O O4 0.529269 0.500000 0.794671
O O5 0.489445 0.342863 0.848956
O O6 0.109315 0.270517 0.672583
O O7 0.500000 0.000000 0.000000
O O8 0.701234 0.500000 0.434955
O O9 0.750000 0.750000 0.500000
O O10 0.000000 0.761261 0.500000
#
# Coordination Sequence:
#
# PCOD9218678 Si02
#       4
#     4   8   4   8
#     4  12  26  48  78 102 144 192 236 300 361 420
#     4  10  25  46  69 108 143 186 234 294 353 427
#     4  10  26  50  70 109 140 188 240 291 361 426
#     4  11  25  45  72 106 142 188 237 290 356 422
#
# _framework density 21.333801000000001
#
# number of rings (size 3 to 8) (size 9 to 14) (size 15 to 20)
#    1.000    0.333    1.667    2.000    4.667    8.000 
#    3.000    0.000    0.000    0.000    0.000    0.000 
#    0.000    0.000    0.000    0.000    0.000    0.000 
#
# Total GULP energy -66974.337243 kJ/mol
# GULP energy per Si atom -5581.194770 kJ/mol
# Density = 2.128524 g / cm^3
# Si number density = 21.333801 Si / 1000 Ang^3
#
#
#
# Elastic Constant Matrix: (Units=GPa)
#
#
# Indices 1 2 3 4 5 6 
#
# 1 182.2933 36.9242 94.4514 0.0000 -1.2392 0.0000
# 2 36.9242 138.4838 51.0302 0.0000 16.0829 0.0000
# 3 94.4514 51.0302 191.1959 0.0001 0.6009 0.0000
# 4 0.0000 0.0000 0.0001 33.0077 0.0000 -11.2570
# 5 -1.2392 16.0829 0.6009 0.0000 25.0870 0.0000
# 6 0.0000 0.0000 0.0000 -11.2570 0.0000 4.7980
#
#
#
# Elastic Compliance Matrix: (Units=1/GPa)
#
#
# Indices 1 2 3 4 5 6 
#
# 1 0.007455 -0.000824 -0.003466 0.000000 0.000980 0.000000
# 2 -0.000824 0.008805 -0.001925 0.000000 -0.005640 0.000000
# 3 -0.003466 -0.001925 0.007453 0.000000 0.000884 0.000000
# 4 0.000000 0.000000 0.000000 0.151584 0.000001 0.355640
# 5 0.000980 -0.005640 0.000884 0.000001 0.043504 0.000002
# 6 0.000000 0.000000 0.000000 0.355640 0.000002 1.042809
#
#
# Mechanical properties :
#
#
# Convention : Reuss Voigt Hill
#
# Bulk Modulus (GPa) = 88.62966 97.42051 93.02509
# Shear Modulus (GPa) = 3.91297 34.54968 19.23133
#
# Velocity S-wave (km/s) = 1.35578 4.02864 3.00567
# Velocity P-wave (km/s) = 6.63968 8.20999 7.46623
#
# Compressibility (1/GPa) = 0.01128290
#
# Stress axis : x y z
#
# Youngs Moduli (GPa) = 134.13665 113.56907 134.16630
#
# Poissons Ratio (x) = 0.09363 0.46501
# Poissons Ratio (y) = 0.11058 0.25829
# Poissons Ratio (z) = 0.46490 0.21864
#
# Static dielectric constant tensor:
#      x y z
#    x 1.787720 0.000000 0.003430 
#    y 0.000000 1.828160 0.000000 
#    z 0.003430 0.000000 1.771790 
# 
# From -- ./inp_files/242806.got.cif
#   From: 2010.05.17/outbox.cif.g08.bks.cpg/sg12_122_cif.got.tgz:242806.got - 2010.06.03 13:09:07.
