data_PCOD9218135
_publ_section_title
;
Structure prediction by ZEFSAII (Michael W. Deem and Ramdas Pophale) SiO2 
 PCOD9218135
Probable space group: C 2/M
;
_chemical_formula_sum "Si O2"
_cell_formula_units_Z 40
_cell_length_a 9.408693
_cell_length_b 17.234474
_cell_length_c 14.023366
_cell_angle_alpha 90.000000
_cell_angle_beta 58.766918
_cell_angle_gamma 90.000000
_cell_volume 1944.369219
_symmetry_space_group_name_H-M "C 2/M"
_symmetry_group_IT_number 12
_symmetry_cell_setting 'monoclinic'
loop_
_space_group_symop_operation_xyz
x,y,z
-x,y,-z
-x,-y,-z
x,-y,z
1/2+x,1/2+y,z
1/2-x,1/2+y,-z
1/2-x,1/2-y,-z
1/2+x,1/2-y,z
loop_
_atom_site_type_symbol
_atom_site_label
_atom_site_fract_x
_atom_site_fract_y
_atom_site_fract_z
Si Si1 0.500000 0.718320 0.000000
Si Si2 0.500000 0.760093 0.500000
Si Si3 0.944539 0.331432 0.180680
Si Si4 0.635156 0.697921 0.648279
Si Si5 0.764303 0.915129 0.076931
Si Si6 0.361079 0.589058 0.819539
O O1 0.459636 0.774321 0.926428
O O2 0.643752 0.660361 0.914936
O O3 0.558969 0.707969 0.569020
O O4 0.665570 0.809809 0.420191
O O5 0.901091 0.279492 0.286043
O O6 0.781094 0.362284 0.185096
O O7 0.069540 0.401338 0.156918
O O8 0.534255 0.631026 0.737149
O O9 0.814276 0.000000 0.097218
O O10 0.813280 0.912263 0.947932
O O11 0.362241 0.500000 0.786465
#
# Coordination Sequence:
#
# PCOD9218135 Si02
#       6
#     4   4   8   8   8   8
#     4  12  21  34  55  92 120 162 208 238 287 362
#     4  10  24  42  68  90 116 148 222 272 310 344
#     4  12  21  36  63  90 121 164 207 241 291 370
#     4  11  22  42  67  93 115 161 209 264 306 360
#     4  11  23  36  54  89 135 166 191 236 296 367
#     4  11  22  38  60  92 128 164 198 243 304 369
#
# _framework density 20.572223999999999
#
# number of rings (size 3 to 8) (size 9 to 14) (size 15 to 20)
#    0.000    0.800    6.000    2.700    0.000    1.600 
#    0.000    1.000    0.000    0.000    0.000    0.000 
#    0.000    0.000    0.000    0.000    0.000    0.000 
#
# Total GULP energy -111783.046424 kJ/mol
# GULP energy per Si atom -5589.152321 kJ/mol
# Density = 2.052540 g / cm^3
# Si number density = 20.572224 Si / 1000 Ang^3
#
#
#
# Elastic Constant Matrix: (Units=GPa)
#
#
# Indices 1 2 3 4 5 6 
#
# 1 88.0562 24.1685 29.9107 0.0000 -18.1731 0.0000
# 2 24.1685 114.8577 24.2451 0.0000 -10.3966 0.0000
# 3 29.9107 24.2451 75.4282 0.0000 -18.6176 0.0000
# 4 0.0000 0.0000 0.0000 12.2330 0.0000 -5.5533
# 5 -18.1731 -10.3966 -18.6176 0.0000 47.2516 0.0000
# 6 0.0000 0.0000 0.0000 -5.5533 0.0000 18.5043
#
#
#
# Elastic Compliance Matrix: (Units=1/GPa)
#
#
# Indices 1 2 3 4 5 6 
#
# 1 0.013933 -0.001756 -0.004135 0.000000 0.003343 0.000000
# 2 -0.001756 0.009602 -0.002254 0.000000 0.000549 0.000000
# 3 -0.004135 -0.002254 0.016735 0.000000 0.004507 0.000000
# 4 0.000000 0.000000 0.000000 0.094640 0.000000 0.028403
# 5 0.003343 0.000549 0.004507 0.000000 0.024346 0.000000
# 6 0.000000 0.000000 0.000000 0.028403 0.000000 0.062565
#
#
# Mechanical properties :
#
#
# Convention : Reuss Voigt Hill
#
# Bulk Modulus (GPa) = 41.70652 48.33230 45.01941
# Shear Modulus (GPa) = 20.31655 28.93229 24.62442
#
# Velocity S-wave (km/s) = 3.14597 3.75424 3.46348
# Velocity P-wave (km/s) = 5.78908 6.50672 6.15836
#
# Compressibility (1/GPa) = 0.02397706
#
# Stress axis : x y z
#
# Youngs Moduli (GPa) = 71.77184 104.15011 59.75639
#
# Poissons Ratio (x) = 0.18292 0.24712
# Poissons Ratio (y) = 0.12605 0.13471
# Poissons Ratio (z) = 0.29681 0.23479
#
# Static dielectric constant tensor:
#      x y z
#    x 1.777530 0.000000 -0.010640 
#    y 0.000000 1.704030 0.000000 
#    z -0.010640 0.000000 1.741940 
# 
# From -- ./inp_files/256094.got.cif
#   From: 2010.05.17/outbox.cif.g08.bks.cpg/sg12_129_cif.got.tgz:256094.got - 2010.06.03 13:09:07.
