data_PCOD9218021
_publ_section_title
;
Structure prediction by ZEFSAII (Michael W. Deem and Ramdas Pophale) SiO2 
 PCOD9218021
Probable space group: C 2/M
;
_chemical_formula_sum "Si O2"
_cell_formula_units_Z 34
_cell_length_a 9.657222
_cell_length_b 19.835623
_cell_length_c 13.916206
_cell_angle_alpha 90.000000
_cell_angle_beta 150.456132
_cell_angle_gamma 90.000000
_cell_volume 1314.452584
_symmetry_space_group_name_H-M "C 2/M"
_symmetry_group_IT_number 12
_symmetry_cell_setting 'monoclinic'
loop_
_space_group_symop_operation_xyz
x,y,z
-x,y,-z
-x,-y,-z
x,-y,z
1/2+x,1/2+y,z
1/2-x,1/2+y,-z
1/2-x,1/2-y,-z
1/2+x,1/2-y,z
loop_
_atom_site_type_symbol
_atom_site_label
_atom_site_fract_x
_atom_site_fract_y
_atom_site_fract_z
Si Si1 0.437764 0.000000 0.679543
Si Si2 0.972032 0.153998 0.818147
Si Si3 0.318273 0.357929 0.513329
Si Si4 0.482825 0.500000 0.868452
Si Si5 0.500000 0.000000 0.500000
Si Si6 0.598715 0.199005 0.199333
O O1 0.267673 0.068656 0.576884
O O2 0.682440 0.000000 0.905508
O O3 0.608773 0.000000 0.678813
O O4 0.877785 0.222515 0.812683
O O5 0.140424 0.158673 0.685216
O O6 0.957118 0.085082 0.867014
O O7 0.297747 0.169550 0.990161
O O8 0.286488 0.354172 0.608850
O O9 0.135775 0.307154 0.337820
O O10 0.329129 0.500000 0.669690
#
# Coordination Sequence:
#
# PCOD9218021 Si02
#       6
#     4   8   8   4   2   8
#     4  12  25  47  73 107 137 180 238 290 354 425
#     4  11  22  45  67 106 140 186 232 286 348 416
#     4  11  22  44  72 102 140 182 231 291 348 419
#     4  12  25  46  75  99 140 177 240 287 346 423
#     4  12  26  48  70 102 138 188 226 288 358 422
#     4  10  24  40  69 105 144 184 230 288 353 416
#
# _framework density 25.866281000000001
#
# number of rings (size 3 to 8) (size 9 to 14) (size 15 to 20)
#    0.000    0.941    4.706    1.765    0.000    4.706 
#    4.235    4.706    0.000    0.000    0.000    0.000 
#    0.000    0.000    0.000    0.000    0.000    0.000 
#
# Total GULP energy -94730.797489 kJ/mol
# GULP energy per Si atom -5572.399852 kJ/mol
# Density = 2.580741 g / cm^3
# Si number density = 25.866281 Si / 1000 Ang^3
#
#
#
# Elastic Constant Matrix: (Units=GPa)
#
#
# Indices 1 2 3 4 5 6 
#
# 1 71.7682 27.8382 32.5346 0.0004 2.5285 0.0012
# 2 27.8382 247.5560 66.8597 -0.0004 29.7391 -0.0021
# 3 32.5346 66.8597 189.0541 0.0016 2.8554 -0.0060
# 4 0.0004 -0.0004 0.0016 50.9315 -0.0010 8.1930
# 5 2.5285 29.7391 2.8554 -0.0010 47.9481 -0.0002
# 6 0.0012 -0.0021 -0.0060 8.1930 -0.0002 0.8471
#
#
#
# Elastic Compliance Matrix: (Units=1/GPa)
#
#
# Indices 1 2 3 4 5 6 
#
# 1 0.015390 -0.001125 -0.002251 -0.000011 0.000020 0.000071
# 2 -0.001125 0.004921 -0.001503 0.000001 -0.002903 -0.000004
# 3 -0.002251 -0.001503 0.006198 0.000013 0.000682 -0.000081
# 4 -0.000011 0.000001 0.000013 -0.035321 0.000000 0.341630
# 5 0.000020 -0.002903 0.000682 0.000000 0.022615 0.000002
# 6 0.000071 -0.000004 -0.000081 0.341630 0.000002 -2.123742
#
#
# Mechanical properties :
#
#
# Convention : Reuss Voigt Hill
#
# Bulk Modulus (GPa) = 59.69791 84.76034 72.22913
# Shear Modulus (GPa) = -2.38709 45.35505 21.48398
#
# Velocity S-wave (km/s) = -0.96170 4.19196 2.88510
# Velocity P-wave (km/s) = 4.67936 7.50132 6.25165
#
# Compressibility (1/GPa) = 0.01675100
#
# Stress axis : x y z
#
# Youngs Moduli (GPa) = 64.97794 203.22626 161.34266
#
# Poissons Ratio (x) = 0.22866 0.36316
# Poissons Ratio (y) = 0.07311 0.24245
# Poissons Ratio (z) = 0.14626 0.30539
#
# Static dielectric constant tensor:
#      x y z
#    x 2.098580 0.000000 -0.040890 
#    y 0.000000 2.192560 0.000000 
#    z -0.040890 0.000000 1.996820 
# 
# From -- ./inp_files/112244.got.cif
#   From: 2010.05.17/outbox.cif.g08.bks.cpg/sg12_57_cif.got.tgz:112244.got - 2010.06.03 13:09:07.
