data_PCOD9218219
_publ_section_title
;
Structure prediction by ZEFSAII (Michael W. Deem and Ramdas Pophale) SiO2 
 PCOD9218219
Probable space group: C 2/M
;
_chemical_formula_sum "Si O2"
_cell_formula_units_Z 52
_cell_length_a 22.301068
_cell_length_b 14.923219
_cell_length_c 9.332527
_cell_angle_alpha 90.000000
_cell_angle_beta 44.622151
_cell_angle_gamma 90.000000
_cell_volume 2181.671783
_symmetry_space_group_name_H-M "C 2/M"
_symmetry_group_IT_number 12
_symmetry_cell_setting 'monoclinic'
loop_
_space_group_symop_operation_xyz
x,y,z
-x,y,-z
-x,-y,-z
x,-y,z
1/2+x,1/2+y,z
1/2-x,1/2+y,-z
1/2-x,1/2-y,-z
1/2+x,1/2-y,z
loop_
_atom_site_type_symbol
_atom_site_label
_atom_site_fract_x
_atom_site_fract_y
_atom_site_fract_z
Si Si1 0.764133 0.902268 0.079324
Si Si2 0.767120 0.156772 0.553481
Si Si3 0.614502 0.644403 0.377450
Si Si4 0.619578 0.642323 0.882473
Si Si5 0.498332 0.500000 0.745798
Si Si6 0.582037 0.835502 0.286578
Si Si7 0.080639 0.655208 0.947479
O O1 0.806963 0.839107 0.123440
O O2 0.672338 0.875952 0.179252
O O3 0.760637 0.000000 0.154554
O O4 0.830141 0.905662 0.836549
O O5 0.750000 0.250000 0.500000
O O6 0.819828 0.170638 0.608470
O O7 0.831619 0.103850 0.338942
O O8 0.673660 0.117205 0.745368
O O9 0.544877 0.579620 0.568151
O O10 0.586056 0.734482 0.343775
O O11 0.449001 0.577946 0.927748
O O12 0.584052 0.739111 0.903068
O O13 0.500000 0.879427 0.500000
O O14 0.571351 0.844945 0.134739
O O15 0.000000 0.615603 0.000000
#
# Coordination Sequence:
#
# PCOD9218219 Si02
#       7
#     8   8   8   8   4   8   8
#     4  12  25  48  70 102 146 194 241 304 366 432
#     4  10  24  43  67  97 146 197 239 295 355 426
#     4  12  25  46  72 105 148 189 240 298 374 443
#     4  11  25  43  65 102 150 189 228 291 379 436
#     4  12  28  44  70 116 151 187 234 304 376 450
#     4  12  26  43  76 106 137 192 254 301 360 432
#     4  11  24  44  70 105 145 187 252 304 352 432
#
# _framework density 23.834931999999998
#
# number of rings (size 3 to 8) (size 9 to 14) (size 15 to 20)
#    0.000    0.615    4.615    3.231   10.769    2.154 
#    0.000    0.000    0.000    0.462    0.000    0.000 
#    0.000    0.000    0.000    0.000    0.000    0.000 
#
# Total GULP energy -144941.850890 kJ/mol
# GULP energy per Si atom -5574.686573 kJ/mol
# Density = 2.378068 g / cm^3
# Si number density = 23.834932 Si / 1000 Ang^3
#
#
#
# Elastic Constant Matrix: (Units=GPa)
#
#
# Indices 1 2 3 4 5 6 
#
# 1 147.2882 -5.3008 49.0814 0.0000 2.7472 0.0000
# 2 -5.3008 56.6195 14.4581 0.0000 -6.7317 0.0000
# 3 49.0814 14.4581 206.1379 0.0000 -15.0072 0.0000
# 4 0.0000 0.0000 0.0000 15.5780 0.0000 12.0399
# 5 2.7472 -6.7317 -15.0072 0.0000 42.2615 0.0000
# 6 0.0000 0.0000 0.0000 12.0399 0.0000 -20.3947
#
#
#
# Elastic Compliance Matrix: (Units=1/GPa)
#
#
# Indices 1 2 3 4 5 6 
#
# 1 0.007491 0.001075 -0.001932 0.000000 -0.001002 0.000000
# 2 0.001075 0.018395 -0.001374 0.000000 0.002372 0.000000
# 3 -0.001932 -0.001374 0.005544 0.000000 0.001875 0.000000
# 4 0.000000 0.000000 0.000000 0.044081 0.000000 0.026023
# 5 -0.001002 0.002372 0.001875 0.000000 0.024771 0.000000
# 6 0.000000 0.000000 0.000000 0.026023 0.000000 -0.033670
#
#
# Mechanical properties :
#
#
# Convention : Reuss Voigt Hill
#
# Bulk Modulus (GPa) = 37.07828 58.50254 47.79041
# Shear Modulus (GPa) = 62.45206 30.94276 46.69741
#
# Velocity S-wave (km/s) = 5.12433 3.60698 4.43109
# Velocity P-wave (km/s) = 7.11349 6.47651 6.80246
#
# Compressibility (1/GPa) = 0.02696997
#
# Stress axis : x y z
#
# Youngs Moduli (GPa) = 133.50143 54.36178 180.37612
#
# Poissons Ratio (x) = -0.05847 0.34846
# Poissons Ratio (y) = -0.14358 0.24776
# Poissons Ratio (z) = 0.25790 0.07467
#
# Static dielectric constant tensor:
#      x y z
#    x 1.996280 0.000000 -0.013590 
#    y 0.000000 1.893250 0.000000 
#    z -0.013590 0.000000 1.956020 
# 
# From -- ./inp_files/88370.got.cif
#   From: 2010.05.17/outbox.cif.g08.bks.cpg/sg12_45_cif.got.tgz:88370.got - 2010.06.03 13:09:07.
