data_PCOD9218053
_publ_section_title
;
Structure prediction by ZEFSAII (Michael W. Deem and Ramdas Pophale) SiO2 
 PCOD9218053
Probable space group: C 2/M
;
_chemical_formula_sum "Si O2"
_cell_formula_units_Z 48
_cell_length_a 29.299122
_cell_length_b 14.099815
_cell_length_c 8.291360
_cell_angle_alpha 90.000000
_cell_angle_beta 41.598104
_cell_angle_gamma 90.000000
_cell_volume 2274.036445
_symmetry_space_group_name_H-M "C 2/M"
_symmetry_group_IT_number 12
_symmetry_cell_setting 'monoclinic'
loop_
_space_group_symop_operation_xyz
x,y,z
-x,y,-z
-x,-y,-z
x,-y,z
1/2+x,1/2+y,z
1/2-x,1/2+y,-z
1/2-x,1/2-y,-z
1/2+x,1/2-y,z
loop_
_atom_site_type_symbol
_atom_site_label
_atom_site_fract_x
_atom_site_fract_y
_atom_site_fract_z
Si Si1 0.210926 0.289746 0.447844
Si Si2 0.092554 0.209741 0.569612
Si Si3 0.126266 0.000000 0.537691
Si Si4 0.763313 0.500000 0.681285
Si Si5 0.835340 0.293145 0.937997
Si Si6 0.893235 0.000000 0.028254
Si Si7 0.042680 0.202305 0.220045
Si Si8 0.782309 0.500000 0.016700
O O1 0.250000 0.250000 0.500000
O O2 0.138449 0.240002 0.601064
O O3 0.204866 0.402846 0.469986
O O4 0.264936 0.262456 0.162825
O O5 0.096735 0.096152 0.541639
O O6 0.131625 0.257465 0.315822
O O7 0.012258 0.233881 0.769298
O O8 0.111646 0.000000 0.765839
O O9 0.207543 0.000000 0.294789
O O10 0.682909 0.500000 0.846790
O O11 0.772290 0.500000 0.850277
O O12 0.890931 0.267424 0.928085
O O13 0.820027 0.404034 0.967991
O O14 0.931191 0.095868 0.876991
O O15 0.000000 0.204399 0.500000
#
# Coordination Sequence:
#
# PCOD9218053 Si02
#       8
#     8   8   4   4   8   4   8   4
#     4  12  24  41  66  97 135 170 216 278 328 386
#     4  11  23  43  62  94 130 173 217 267 329 392
#     4  12  25  37  67 100 135 169 217 273 334 398
#     4  12  24  40  71  97 130 172 224 264 330 390
#     4  11  23  43  64  94 126 175 220 270 326 384
#     4  12  24  42  62 102 136 174 213 267 345 402
#     4  10  24  41  65  92 136 174 220 271 327 398
#     4  12  24  41  70  97 128 174 229 274 320 395
#
# _framework density 21.107841000000001
#
# number of rings (size 3 to 8) (size 9 to 14) (size 15 to 20)
#    0.000    0.667    5.000    3.250    2.333    1.333 
#    0.000    4.583    0.000    0.000    0.000    2.333 
#    0.000    0.000    0.000    0.000    0.000    0.000 
#
# Total GULP energy -134364.315706 kJ/mol
# GULP energy per Si atom -5598.513154 kJ/mol
# Density = 2.105980 g / cm^3
# Si number density = 21.107841 Si / 1000 Ang^3
#
#
#
# Elastic Constant Matrix: (Units=GPa)
#
#
# Indices 1 2 3 4 5 6 
#
# 1 103.0003 16.4877 13.7907 0.0000 -36.1842 0.0000
# 2 16.4877 129.1159 -0.9761 0.0000 -10.6213 0.0000
# 3 13.7907 -0.9761 26.4867 0.0000 -9.0701 0.0000
# 4 0.0000 0.0000 0.0000 -66.9589 0.0000 -473.5420
# 5 -36.1842 -10.6213 -9.0701 0.0000 40.3269 0.0000
# 6 0.0000 0.0000 0.0000 -473.5420 0.0000-3031.3049
#
#
#
# Elastic Compliance Matrix: (Units=1/GPa)
#
#
# Indices 1 2 3 4 5 6 
#
# 1 0.014545 -0.000894 -0.003486 0.000000 0.012032 0.000000
# 2 -0.000894 0.008001 0.001308 0.000000 0.001599 0.000000
# 3 -0.003486 0.001308 0.041891 0.000000 0.006638 0.000000
# 4 0.000000 0.000000 0.000000 0.142520 0.000000 -0.022264
# 5 0.012032 0.001599 0.006638 0.000000 0.037507 0.000000
# 6 0.000000 0.000000 0.000000 -0.022264 0.000000 0.003148
#
#
# Mechanical properties :
#
#
# Convention : Reuss Voigt Hill
#
# Bulk Modulus (GPa) = 17.15474 35.24529 26.20002
# Shear Modulus (GPa) = 18.30243 -596.30068 -288.99912
#
# Velocity S-wave (km/s) = 2.94784 -16.82603 -11.71379
# Velocity P-wave (km/s) = 4.44198 18.99350 13.05798
#
# Compressibility (1/GPa) = 0.05829294
#
# Stress axis : x y z
#
# Youngs Moduli (GPa) = 68.75085 124.99092 23.87125
#
# Poissons Ratio (x) = 0.11174 0.08322
# Poissons Ratio (y) = 0.06146 -0.03122
# Poissons Ratio (z) = 0.23967 -0.16348
#
# Static dielectric constant tensor:
#      x y z
#    x 1.858280 0.000000 0.011590 
#    y 0.000000 1.707690 0.000000 
#    z 0.011590 0.000000 1.773280 
# 
# From -- ./inp_files/111531.got.cif
#   From: 2010.05.17/outbox.cif.g08.bks.cpg/sg12_56_cif.got.tgz:111531.got - 2010.06.03 13:09:07.
