data_PCOD9218150
_publ_section_title
;
Structure prediction by ZEFSAII (Michael W. Deem and Ramdas Pophale) SiO2 
 PCOD9218150
Probable space group: C 2/M
;
_chemical_formula_sum "Si O2"
_cell_formula_units_Z 52
_cell_length_a 22.384493
_cell_length_b 9.623102
_cell_length_c 16.811606
_cell_angle_alpha 90.000000
_cell_angle_beta 45.277228
_cell_angle_gamma 90.000000
_cell_volume 2573.047323
_symmetry_space_group_name_H-M "C 2/M"
_symmetry_group_IT_number 12
_symmetry_cell_setting 'monoclinic'
loop_
_space_group_symop_operation_xyz
x,y,z
-x,y,-z
-x,-y,-z
x,-y,z
1/2+x,1/2+y,z
1/2-x,1/2+y,-z
1/2-x,1/2-y,-z
1/2+x,1/2-y,z
loop_
_atom_site_type_symbol
_atom_site_label
_atom_site_fract_x
_atom_site_fract_y
_atom_site_fract_z
Si Si1 0.429996 0.342738 0.136435
Si Si2 0.220950 0.000000 0.548466
Si Si3 0.450451 0.836325 0.872379
Si Si4 0.837608 0.259487 0.506867
Si Si5 0.816820 0.661176 0.135509
Si Si6 0.473307 0.160048 0.676331
Si Si7 0.130308 0.162600 0.343958
O O1 0.408968 0.500000 0.181481
O O2 0.473453 0.256943 0.165968
O O3 0.352896 0.260579 0.170227
O O4 0.500000 0.348875 0.000000
O O5 0.182746 0.122871 0.525080
O O6 0.268105 0.123275 0.556999
O O7 0.429235 0.804090 0.801427
O O8 0.473783 0.000000 0.854951
O O9 0.372499 0.814591 0.004902
O O10 0.849090 0.218891 0.588116
O O11 0.928384 0.320889 0.397869
O O12 0.830487 0.500000 0.147272
O O13 0.718501 0.680448 0.214341
O O14 0.441297 0.256048 0.635731
O O15 0.456099 0.000000 0.672305
O O16 0.109985 0.000000 0.367327
#
# Coordination Sequence:
#
# PCOD9218150 Si02
#       7
#     8   4   8   8   8   8   8
#     4   9  17  31  53  85 121 156 199 254 308 356
#     4  10  24  42  70  96 126 156 202 256 328 366
#     4   9  19  38  60  86 121 165 209 250 304 366
#     4  11  23  46  66  96 125 161 202 260 312 381
#     4   9  19  38  60  86 121 165 209 250 304 366
#     4  11  25  42  64  92 126 168 212 255 303 367
#     4  11  25  42  64  92 126 168 212 255 303 367
#
# _framework density 20.209499000000001
#
# number of rings (size 3 to 8) (size 9 to 14) (size 15 to 20)
#    0.000    2.000    1.538    0.923    2.154    7.385 
#    2.769    0.000    0.000    0.000    0.000    0.000 
#    0.000    0.000    0.000    0.000    0.000    0.000 
#
# Total GULP energy -144753.196306 kJ/mol
# GULP energy per Si atom -5567.430627 kJ/mol
# Density = 2.016350 g / cm^3
# Si number density = 20.209499 Si / 1000 Ang^3
#
#
#
# Elastic Constant Matrix: (Units=GPa)
#
#
# Indices 1 2 3 4 5 6 
#
# 1 107.3599 51.4607 24.7871 0.0000 27.3641 0.0000
# 2 51.4607 80.5243 16.1975 -0.0001 9.6612 -0.0002
# 3 24.7871 16.1975 44.7614 0.0000 4.4902 0.0000
# 4 0.0000 -0.0001 0.0000 15.7137 0.0000 -0.7565
# 5 27.3641 9.6612 4.4902 0.0000 14.4050 0.0000
# 6 0.0000 -0.0002 0.0000 -0.7565 0.0000 30.9713
#
#
#
# Elastic Compliance Matrix: (Units=1/GPa)
#
#
# Indices 1 2 3 4 5 6 
#
# 1 0.026346 -0.010595 -0.006656 0.000000 -0.040866 0.000000
# 2 -0.010595 0.018539 -0.001665 0.000000 0.008211 0.000000
# 3 -0.006656 -0.001665 0.026064 0.000000 0.005636 0.000000
# 4 0.000000 0.000000 0.000000 0.063713 0.000000 0.001556
# 5 -0.040866 0.008211 0.005636 0.000000 0.139787 0.000000
# 6 0.000000 0.000000 0.000000 0.001556 0.000000 0.032326
#
#
# Mechanical properties :
#
#
# Convention : Reuss Voigt Hill
#
# Bulk Modulus (GPa) = 30.19646 46.39290 38.29468
# Shear Modulus (GPa) = 14.05894 21.56469 17.81182
#
# Velocity S-wave (km/s) = 2.64040 3.27013 2.97199
# Velocity P-wave (km/s) = 4.92643 6.10444 5.54680
#
# Compressibility (1/GPa) = 0.03311647
#
# Stress axis : x y z
#
# Youngs Moduli (GPa) = 37.95702 53.93965 38.36753
#
# Poissons Ratio (x) = 0.57148 0.25537
# Poissons Ratio (y) = 0.40215 0.06390
# Poissons Ratio (z) = 0.25264 0.08983
#
# Static dielectric constant tensor:
#      x y z
#    x 1.655540 0.000000 -0.007590 
#    y 0.000000 1.682870 0.000000 
#    z -0.007590 0.000000 1.800590 
# 
# From -- ./inp_files/282085.got.cif
#   From: 2010.05.17/outbox.cif.g08.bks.cpg/sg12_142_cif.got.tgz:282085.got - 2010.06.03 13:09:07.
