data_PCOD9218681
_publ_section_title
;
Structure prediction by ZEFSAII (Michael W. Deem and Ramdas Pophale) SiO2 
 PCOD9218681
Probable space group: C 2/M
;
_chemical_formula_sum "Si O2"
_cell_formula_units_Z 40
_cell_length_a 11.387543
_cell_length_b 23.281969
_cell_length_c 7.192255
_cell_angle_alpha 90.000000
_cell_angle_beta 117.641784
_cell_angle_gamma 90.000000
_cell_volume 1689.205902
_symmetry_space_group_name_H-M "C 2/M"
_symmetry_group_IT_number 12
_symmetry_cell_setting 'monoclinic'
loop_
_space_group_symop_operation_xyz
x,y,z
-x,y,-z
-x,-y,-z
x,-y,z
1/2+x,1/2+y,z
1/2-x,1/2+y,-z
1/2-x,1/2-y,-z
1/2+x,1/2-y,z
loop_
_atom_site_type_symbol
_atom_site_label
_atom_site_fract_x
_atom_site_fract_y
_atom_site_fract_z
Si Si1 0.237214 0.567580 0.925373
Si Si2 0.993591 0.366000 0.795952
Si Si3 0.868939 0.271241 0.276741
Si Si4 0.196374 0.144943 0.670494
Si Si5 0.377883 0.651367 0.783838
O O1 0.232495 0.500000 0.941224
O O2 0.334381 0.590468 0.837574
O O3 0.093089 0.593378 0.756238
O O4 0.288426 0.597509 0.155919
O O5 0.838434 0.355984 0.663941
O O6 0.075697 0.306064 0.860002
O O7 0.000000 0.395617 0.000000
O O8 0.832005 0.205030 0.247362
O O9 0.740510 0.303634 0.261795
O O10 0.000000 0.278771 0.500000
O O11 0.099097 0.143550 0.419464
O O12 0.500000 0.671120 0.000000
#
# Coordination Sequence:
#
# PCOD9218681 Si02
#       5
#     8   8   8   8   8
#     4  10  25  46  70 100 133 175 238 285 329 400
#     4   9  21  41  67  99 137 175 224 274 337 395
#     4  11  23  42  67  99 141 175 223 270 330 418
#     4  11  24  43  67 101 138 178 221 278 341 396
#     4  11  26  44  69 101 140 180 224 273 345 403
#
# _framework density 23.679763999999999
#
# number of rings (size 3 to 8) (size 9 to 14) (size 15 to 20)
#    0.000    1.600    2.000    0.600    2.800   14.400 
#    0.000    2.000    0.000    0.000    0.000    0.000 
#    0.000    0.000    0.000    0.000    0.000    0.000 
#
# Total GULP energy -111559.434085 kJ/mol
# GULP energy per Si atom -5577.971704 kJ/mol
# Density = 2.362587 g / cm^3
# Si number density = 23.679764 Si / 1000 Ang^3
#
#
#
# Elastic Constant Matrix: (Units=GPa)
#
#
# Indices 1 2 3 4 5 6 
#
# 1 77.1413 49.5741 26.8097 0.0000 0.4093 0.0000
# 2 49.5741 185.8656 33.7772 0.0000 -3.1623 0.0000
# 3 26.8097 33.7772 106.0657 0.0000 12.0090 0.0000
# 4 0.0000 0.0000 0.0000 15.2106 0.0000 -8.7121
# 5 0.4093 -3.1623 12.0090 0.0000 50.7906 0.0000
# 6 0.0000 0.0000 0.0000 -8.7121 0.0000 11.3864
#
#
#
# Elastic Compliance Matrix: (Units=1/GPa)
#
#
# Indices 1 2 3 4 5 6 
#
# 1 0.016467 -0.003846 -0.002975 0.000000 0.000331 0.000000
# 2 -0.003846 0.006641 -0.001226 0.000000 0.000734 0.000000
# 3 -0.002975 -0.001226 0.010867 0.000000 -0.002622 0.000000
# 4 0.000000 0.000000 0.000000 0.117032 0.000000 0.089544
# 5 0.000331 0.000734 -0.002622 0.000000 0.020352 0.000000
# 6 0.000000 0.000000 0.000000 0.089544 0.000000 0.156337
#
#
# Mechanical properties :
#
#
# Convention : Reuss Voigt Hill
#
# Bulk Modulus (GPa) = 55.92258 65.48827 60.70543
# Shear Modulus (GPa) = 14.29593 32.73829 23.51711
#
# Velocity S-wave (km/s) = 2.45974 3.72229 3.15482
# Velocity P-wave (km/s) = 5.63334 6.79630 6.24197
#
# Compressibility (1/GPa) = 0.01788187
#
# Stress axis : x y z
#
# Youngs Moduli (GPa) = 60.72803 150.57368 92.01831
#
# Poissons Ratio (x) = 0.57907 0.27376
# Poissons Ratio (y) = 0.23354 0.11282
# Poissons Ratio (z) = 0.18067 0.18461
#
# Static dielectric constant tensor:
#      x y z
#    x 1.977060 0.000000 0.065420 
#    y 0.000000 1.835120 0.000000 
#    z 0.065420 0.000000 2.052720 
# 
# From -- ./inp_files/50973.got.cif
#   From: 2010.05.17/outbox.cif.g08.bks.cpg/sg12_26_cif.got.tgz:50973.got - 2010.06.03 13:09:07.
