data_PCOD9218341
_publ_section_title
;
Structure prediction by ZEFSAII (Michael W. Deem and Ramdas Pophale) SiO2 
 PCOD9218341
Probable space group: C 2/M
;
_chemical_formula_sum "Si O2"
_cell_formula_units_Z 40
_cell_length_a 7.349318
_cell_length_b 28.472360
_cell_length_c 11.474203
_cell_angle_alpha 90.000000
_cell_angle_beta 137.527128
_cell_angle_gamma 90.000000
_cell_volume 1621.257029
_symmetry_space_group_name_H-M "C 2/M"
_symmetry_group_IT_number 12
_symmetry_cell_setting 'monoclinic'
loop_
_space_group_symop_operation_xyz
x,y,z
-x,y,-z
-x,-y,-z
x,-y,z
1/2+x,1/2+y,z
1/2-x,1/2+y,-z
1/2-x,1/2-y,-z
1/2+x,1/2-y,z
loop_
_atom_site_type_symbol
_atom_site_label
_atom_site_fract_x
_atom_site_fract_y
_atom_site_fract_z
Si Si1 0.962227 0.000000 0.793826
Si Si2 0.000000 0.339960 0.500000
Si Si3 0.500000 0.255865 0.000000
Si Si4 0.692305 0.106016 0.361153
Si Si5 0.068346 0.189431 0.805193
Si Si6 0.138475 0.500000 0.397862
Si Si7 0.690744 0.598071 0.975709
O O1 0.819695 0.000000 0.600542
O O2 0.687904 0.000000 0.741639
O O3 0.139175 0.954102 0.903340
O O4 0.049480 0.372971 0.410037
O O5 0.258864 0.306802 0.628329
O O6 0.279950 0.221290 0.837478
O O7 0.614374 0.290485 0.957016
O O8 0.485440 0.113386 0.157942
O O9 0.000000 0.124159 0.500000
O O10 0.702514 0.049475 0.370698
O O11 0.108082 0.134087 0.836147
O O12 0.500000 0.602260 0.000000
#
# Coordination Sequence:
#
# PCOD9218341 Si02
#       7
#     4   4   4   8   8   4   8
#     4  11  22  38  72  98 133 189 222 268 336 401
#     4  12  24  45  68 100 134 174 220 275 344 398
#     4  10  24  44  70  98 130 174 224 276 340 400
#     4  12  26  41  65  98 136 178 227 280 331 391
#     4  11  23  44  70  99 133 175 221 279 335 404
#     4  11  20  39  60  95 135 175 233 278 322 388
#     4  12  21  42  67  98 136 180 223 268 339 400
#
# _framework density 24.672214
#
# number of rings (size 3 to 8) (size 9 to 14) (size 15 to 20)
#    0.000    0.600    5.000    3.600    2.800    0.800 
#    0.000    1.000    0.000    0.000    0.000    0.000 
#    0.000    0.000    0.000    0.000    0.000    0.000 
#
# Total GULP energy -111882.335659 kJ/mol
# GULP energy per Si atom -5594.116783 kJ/mol
# Density = 2.461606 g / cm^3
# Si number density = 24.672214 Si / 1000 Ang^3
#
#
#
# Elastic Constant Matrix: (Units=GPa)
#
#
# Indices 1 2 3 4 5 6 
#
# 1 61.8218 15.0677 13.9239 0.0000 24.2904 0.0000
# 2 15.0677 109.7717 14.6280 0.0000 12.8903 0.0000
# 3 13.9239 14.6280 159.3497 0.0000 35.8049 0.0000
# 4 0.0000 0.0000 0.0000 27.4872 0.0000 3.5550
# 5 24.2904 12.8903 35.8049 0.0000 36.2828 0.0000
# 6 0.0000 0.0000 0.0000 3.5550 0.0000 -9.1582
#
#
#
# Elastic Compliance Matrix: (Units=1/GPa)
#
#
# Indices 1 2 3 4 5 6 
#
# 1 0.022557 -0.001414 0.001849 0.000000 -0.016423 0.000000
# 2 -0.001414 0.009598 -0.000262 0.000000 -0.002204 0.000000
# 3 0.001849 -0.000262 0.008217 0.000000 -0.009254 0.000000
# 4 0.000000 0.000000 0.000000 0.034641 0.000000 0.013447
# 5 -0.016423 -0.002204 -0.009254 0.000000 0.048471 0.000000
# 6 0.000000 0.000000 0.000000 0.013447 0.000000 -0.103972
#
#
# Mechanical properties :
#
#
# Convention : Reuss Voigt Hill
#
# Bulk Modulus (GPa) = 24.55961 46.46471 35.51216
# Shear Modulus (GPa) = 152.72239 30.07729 91.39984
#
# Velocity S-wave (km/s) = 7.87623 3.49531 6.09312
# Velocity P-wave (km/s) = 9.62752 5.92987 7.99539
#
# Compressibility (1/GPa) = 0.04071725
#
# Stress axis : x y z
#
# Youngs Moduli (GPa) = 44.33295 104.19152 121.69490
#
# Poissons Ratio (x) = 0.14733 -0.22502
# Poissons Ratio (y) = 0.06269 0.03190
# Poissons Ratio (z) = -0.08197 0.02732
#
# Static dielectric constant tensor:
#      x y z
#    x 2.070690 0.000000 0.066140 
#    y 0.000000 1.909170 0.000000 
#    z 0.066140 0.000000 2.002650 
# 
# From -- ./inp_files/201444.got.cif
#   From: 2010.05.17/outbox.cif.g08.bks.cpg/sg12_101_cif.got.tgz:201444.got - 2010.06.03 13:09:07.
