data_PCOD9218841
_publ_section_title
;
Structure prediction by ZEFSAII (Michael W. Deem and Ramdas Pophale) SiO2 
 PCOD9218841
Probable space group: C 2/M
;
_chemical_formula_sum "Si O2"
_cell_formula_units_Z 56
_cell_length_a 17.899094
_cell_length_b 22.385915
_cell_length_c 11.540555
_cell_angle_alpha 90.000000
_cell_angle_beta 43.797137
_cell_angle_gamma 90.000000
_cell_volume 3200.412099
_symmetry_space_group_name_H-M "C 2/M"
_symmetry_group_IT_number 12
_symmetry_cell_setting 'monoclinic'
loop_
_space_group_symop_operation_xyz
x,y,z
-x,y,-z
-x,-y,-z
x,-y,z
1/2+x,1/2+y,z
1/2-x,1/2+y,-z
1/2-x,1/2-y,-z
1/2+x,1/2-y,z
loop_
_atom_site_type_symbol
_atom_site_label
_atom_site_fract_x
_atom_site_fract_y
_atom_site_fract_z
Si Si1 0.869807 0.568897 0.632067
Si Si2 0.712528 0.796320 0.698464
Si Si3 0.658978 0.174521 0.503343
Si Si4 0.560828 0.230055 0.253648
Si Si5 0.751655 0.861272 0.043113
Si Si6 0.079101 0.214713 0.003312
Si Si7 0.117079 0.847798 0.327071
O O1 0.847553 0.500000 0.629383
O O2 0.821984 0.613505 0.587538
O O3 0.812548 0.587833 0.816737
O O4 0.000000 0.574908 0.500000
O O5 0.667901 0.827460 0.632684
O O6 0.767057 0.731691 0.609872
O O7 0.624294 0.774132 0.889958
O O8 0.800316 0.838997 0.660157
O O9 0.539152 0.191501 0.595624
O O10 0.662805 0.188961 0.109271
O O11 0.596017 0.280377 0.303765
O O12 0.518953 0.264459 0.186494
O O13 0.828760 0.827942 0.049572
O O14 0.822626 0.877775 0.850735
O O15 0.000000 0.184685 0.000000
O O16 0.000000 0.871230 0.500000
#
# Coordination Sequence:
#
# PCOD9218841 Si02
#       7
#     8   8   8   8   8   8   8
#     4  11  23  39  61  83 107 150 198 234 275 329
#     4  11  20  31  49  80 117 155 173 222 296 343
#     4  11  21  31  51  81 118 148 178 226 279 342
#     4  11  18  28  49  77 118 149 170 215 275 341
#     4  11  21  34  53  76 111 150 185 232 275 325
#     4  11  19  29  45  79 113 149 183 210 279 353
#     4  11  20  32  51  80 113 150 187 217 283 353
#
# _framework density 17.497747
#
# number of rings (size 3 to 8) (size 9 to 14) (size 15 to 20)
#    0.000    1.000    8.571    0.857    0.000    0.000 
#    0.000    0.000    0.000    1.714    0.000    3.000 
#    0.000    0.000    0.000    0.000    0.000    0.000 
#
# Total GULP energy -156067.303765 kJ/mol
# GULP energy per Si atom -5573.832277 kJ/mol
# Density = 1.745792 g / cm^3
# Si number density = 17.497747 Si / 1000 Ang^3
#
#
#
# Elastic Constant Matrix: (Units=GPa)
#
#
# Indices 1 2 3 4 5 6 
#
# 1 97.5706 21.7083 11.8841 0.0000 9.9365 0.0000
# 2 21.7083 62.3314 29.8431 0.0000 6.1995 0.0000
# 3 11.8841 29.8431 81.3139 0.0000 3.6250 0.0000
# 4 0.0000 0.0000 0.0000 11.6716 0.0000 -2.3275
# 5 9.9365 6.1995 3.6250 0.0000 26.3072 0.0000
# 6 0.0000 0.0000 0.0000 -2.3275 0.0000 13.5050
#
#
#
# Elastic Compliance Matrix: (Units=1/GPa)
#
#
# Indices 1 2 3 4 5 6 
#
# 1 0.011411 -0.003526 -0.000220 0.000000 -0.003449 0.000000
# 2 -0.003526 0.020902 -0.007039 0.000000 -0.002624 0.000000
# 3 -0.000220 -0.007039 0.014928 0.000000 -0.000315 0.000000
# 4 0.000000 0.000000 0.000000 0.088727 0.000000 0.015292
# 5 -0.003449 -0.002624 -0.000315 0.000000 0.039977 0.000000
# 6 0.000000 0.000000 0.000000 0.015292 0.000000 0.076682
#
#
# Mechanical properties :
#
#
# Convention : Reuss Voigt Hill
#
# Bulk Modulus (GPa) = 38.95368 40.89854 39.92611
# Shear Modulus (GPa) = 17.68314 22.14879 19.91596
#
# Velocity S-wave (km/s) = 3.18243 3.56168 3.37738
# Velocity P-wave (km/s) = 5.98450 6.35125 6.17060
#
# Compressibility (1/GPa) = 0.02567151
#
# Stress axis : x y z
#
# Youngs Moduli (GPa) = 87.63090 47.84127 66.98974
#
# Poissons Ratio (x) = 0.16869 0.01474
# Poissons Ratio (y) = 0.30898 0.47155
# Poissons Ratio (z) = 0.01928 0.33676
#
# Static dielectric constant tensor:
#      x y z
#    x 1.626550 0.000000 -0.001000 
#    y 0.000000 1.555030 0.000000 
#    z -0.001000 0.000000 1.682380 
# 
# From -- ./inp_files/160246.got.cif
#   From: 2010.05.17/outbox.cif.g08.bks.cpg/sg12_81_cif.got.tgz:160246.got - 2010.06.03 13:09:07.
