data_PCOD9218665
_publ_section_title
;
Structure prediction by ZEFSAII (Michael W. Deem and Ramdas Pophale) SiO2 
 PCOD9218665
Probable space group: C 2/M
;
_chemical_formula_sum "Si O2"
_cell_formula_units_Z 40
_cell_length_a 10.577898
_cell_length_b 8.076183
_cell_length_c 22.297551
_cell_angle_alpha 90.000000
_cell_angle_beta 96.120656
_cell_angle_gamma 90.000000
_cell_volume 1893.999864
_symmetry_space_group_name_H-M "C 2/M"
_symmetry_group_IT_number 12
_symmetry_cell_setting 'monoclinic'
loop_
_space_group_symop_operation_xyz
x,y,z
-x,y,-z
-x,-y,-z
x,-y,z
1/2+x,1/2+y,z
1/2-x,1/2+y,-z
1/2-x,1/2-y,-z
1/2+x,1/2-y,z
loop_
_atom_site_type_symbol
_atom_site_label
_atom_site_fract_x
_atom_site_fract_y
_atom_site_fract_z
Si Si1 0.605387 0.000000 0.453666
Si Si2 0.928907 0.315417 0.374228
Si Si3 0.377845 0.500000 0.451150
Si Si4 0.691748 0.303100 0.173488
Si Si5 0.632821 0.801336 0.035884
Si Si6 0.545499 0.304511 0.758921
O O1 0.500000 0.000000 0.500000
O O2 0.569479 0.154933 0.409674
O O3 0.747838 0.000000 0.482018
O O4 0.868634 0.500000 0.378882
O O5 0.874951 0.162511 0.408821
O O6 0.936833 0.278401 0.304693
O O7 0.500000 0.500000 0.500000
O O8 0.704691 0.500000 0.182186
O O9 0.652554 0.267728 0.103383
O O10 0.578893 0.243016 0.211727
O O11 0.827067 0.224331 0.196345
O O12 0.629231 0.000000 0.039632
O O13 0.500000 0.744083 0.000000
O O14 0.750000 0.750000 0.000000
O O15 0.529495 0.500000 0.748218
#
# Coordination Sequence:
#
# PCOD9218665 Si02
#       6
#     4   8   4   8   8   8
#     4  10  26  50  70 108 140 182 234 284 350 414
#     4  10  25  45  68 104 139 181 230 289 344 417
#     4  12  26  48  78 102 140 190 228 289 350 416
#     4  11  25  42  67 100 135 179 229 285 342 410
#     4  11  24  42  66  97 135 179 226 281 342 409
#     4  11  24  44  68  99 136 181 230 282 349 409
#
# _framework density 21.119325
#
# number of rings (size 3 to 8) (size 9 to 14) (size 15 to 20)
#    0.600    0.600    1.000    3.600    2.800   11.200 
#    1.800    0.000    0.000    0.000    0.000    0.000 
#    0.000    0.000    0.000    0.000    0.000    0.000 
#
# Total GULP energy -111742.428915 kJ/mol
# GULP energy per Si atom -5587.121446 kJ/mol
# Density = 2.107126 g / cm^3
# Si number density = 21.119325 Si / 1000 Ang^3
#
#
#
# Elastic Constant Matrix: (Units=GPa)
#
#
# Indices 1 2 3 4 5 6 
#
# 1 108.6701 2.1810 10.7931 0.0000 -6.0865 0.0000
# 2 2.1810 88.6999 6.9664 0.0000 -14.8265 0.0000
# 3 10.7931 6.9664 98.8394 0.0000 -7.5052 0.0000
# 4 0.0000 0.0000 0.0000 31.3819 0.0000 7.8241
# 5 -6.0865 -14.8265 -7.5052 0.0000 30.2184 0.0000
# 6 0.0000 0.0000 0.0000 7.8241 0.0000 17.6251
#
#
#
# Elastic Compliance Matrix: (Units=1/GPa)
#
#
# Indices 1 2 3 4 5 6 
#
# 1 0.009386 0.000129 -0.000903 0.000000 0.001730 0.000000
# 2 0.000129 0.012300 -0.000429 0.000000 0.005954 0.000000
# 3 -0.000903 -0.000429 0.010413 0.000000 0.002194 0.000000
# 4 0.000000 0.000000 0.000000 0.035831 0.000000 -0.015906
# 5 0.001730 0.005954 0.002194 0.000000 0.036907 0.000000
# 6 0.000000 0.000000 0.000000 -0.015906 0.000000 0.063798
#
#
# Mechanical properties :
#
#
# Convention : Reuss Voigt Hill
#
# Bulk Modulus (GPa) = 33.67691 37.34340 35.51015
# Shear Modulus (GPa) = 27.63376 34.26301 30.94839
#
# Velocity S-wave (km/s) = 3.62119 4.03221 3.83222
# Velocity P-wave (km/s) = 5.78486 6.27685 6.03587
#
# Compressibility (1/GPa) = 0.02969394
#
# Stress axis : x y z
#
# Youngs Moduli (GPa) = 106.54049 81.30243 96.03548
#
# Poissons Ratio (x) = -0.01051 0.08669
# Poissons Ratio (y) = -0.01377 0.04119
# Poissons Ratio (z) = 0.09618 0.03487
#
# Static dielectric constant tensor:
#      x y z
#    x 1.756740 0.000000 0.008790 
#    y 0.000000 1.788690 0.000000 
#    z 0.008790 0.000000 1.736480 
# 
# From -- ./inp_files/331790.got.cif
#   From: 2010.05.17/outbox.cif.g08.bks.cpg/sg12_166_cif.got.tgz:331790.got - 2010.06.03 13:09:07.
