data_PCOD9218047
_publ_section_title
;
Structure prediction by ZEFSAII (Michael W. Deem and Ramdas Pophale) SiO2 
 PCOD9218047
Probable space group: C 2/M
;
_chemical_formula_sum "Si O2"
_cell_formula_units_Z 40
_cell_length_a 10.230541
_cell_length_b 27.697369
_cell_length_c 8.165600
_cell_angle_alpha 90.000000
_cell_angle_beta 45.241999
_cell_angle_gamma 90.000000
_cell_volume 1642.997172
_symmetry_space_group_name_H-M "C 2/M"
_symmetry_group_IT_number 12
_symmetry_cell_setting 'monoclinic'
loop_
_space_group_symop_operation_xyz
x,y,z
-x,y,-z
-x,-y,-z
x,-y,z
1/2+x,1/2+y,z
1/2-x,1/2+y,-z
1/2-x,1/2-y,-z
1/2+x,1/2-y,z
loop_
_atom_site_type_symbol
_atom_site_label
_atom_site_fract_x
_atom_site_fract_y
_atom_site_fract_z
Si Si1 0.318821 0.945370 0.744905
Si Si2 0.697210 0.196729 0.253070
Si Si3 0.249391 0.695436 0.852575
Si Si4 0.503783 0.554836 0.745591
Si Si5 0.147960 0.154665 0.556887
O O1 0.500000 0.921874 0.500000
O O2 0.158378 0.949100 0.751526
O O3 0.379622 0.000000 0.737129
O O4 0.196159 0.928896 0.007959
O O5 0.500000 0.208236 0.500000
O O6 0.794214 0.248321 0.138756
O O7 0.791892 0.163649 0.307866
O O8 0.670447 0.176606 0.094040
O O9 0.467558 0.687827 0.694668
O O10 0.214787 0.669838 0.709550
O O11 0.485634 0.500000 0.696525
O O12 0.588162 0.599869 0.576612
#
# Coordination Sequence:
#
# PCOD9218047 Si02
#       5
#     8   8   8   8   8
#     4   8  15  30  54  86 124 165 221 275 317 379
#     4  11  23  41  67  94 123 171 217 271 340 392
#     4  10  24  41  63  94 129 165 217 273 330 398
#     4   9  19  34  58  91 130 176 217 268 329 390
#     4  11  22  42  64  91 133 170 214 271 323 395
#
# _framework density 24.345752999999998
#
# number of rings (size 3 to 8) (size 9 to 14) (size 15 to 20)
#    0.000    2.200    2.000    2.400    5.600    1.600 
#    0.000    2.000    0.000    1.200    0.000    1.400 
#    0.000    0.000    0.000    0.000    0.000    0.000 
#
# Total GULP energy -111458.078154 kJ/mol
# GULP energy per Si atom -5572.903908 kJ/mol
# Density = 2.429034 g / cm^3
# Si number density = 24.345753 Si / 1000 Ang^3
#
#
#
# Elastic Constant Matrix: (Units=GPa)
#
#
# Indices 1 2 3 4 5 6 
#
# 1 109.1590 32.1720 63.5057 0.0000 12.0583 0.0000
# 2 32.1720 161.5292 24.6150 0.0000 21.8949 0.0000
# 3 63.5057 24.6150 143.0241 0.0000 31.6792 0.0000
# 4 0.0000 0.0000 0.0000 -27.4751 0.0000 -27.3452
# 5 12.0583 21.8949 31.6792 0.0000 51.9137 0.0000
# 6 0.0000 0.0000 0.0000 -27.3452 0.0000 -12.7970
#
#
#
# Elastic Compliance Matrix: (Units=1/GPa)
#
#
# Indices 1 2 3 4 5 6 
#
# 1 0.012874 -0.001870 -0.005674 0.000000 0.001261 0.000000
# 2 -0.001870 0.006882 0.000223 0.000000 -0.002604 0.000000
# 3 -0.005674 0.000223 0.010640 0.000000 -0.005269 0.000000
# 4 0.000000 0.000000 0.000000 0.032302 0.000000 -0.069025
# 5 0.001261 -0.002604 -0.005269 0.000000 0.023283 0.000000
# 6 0.000000 0.000000 0.000000 -0.069025 0.000000 0.069353
#
#
# Mechanical properties :
#
#
# Convention : Reuss Voigt Hill
#
# Bulk Modulus (GPa) = 63.47778 72.69974 68.08876
# Shear Modulus (GPa) = 28.53424 21.88963 25.21193
#
# Velocity S-wave (km/s) = 3.42722 3.00178 3.22153
# Velocity P-wave (km/s) = 6.46461 6.47614 6.47038
#
# Compressibility (1/GPa) = 0.01575354
#
# Stress axis : x y z
#
# Youngs Moduli (GPa) = 77.67828 145.29828 93.98809
#
# Poissons Ratio (x) = 0.27176 0.53324
# Poissons Ratio (y) = 0.14529 -0.02094
# Poissons Ratio (z) = 0.44071 -0.03238
#
# Static dielectric constant tensor:
#      x y z
#    x 1.947520 0.000000 0.058950 
#    y 0.000000 1.978900 0.000000 
#    z 0.058950 0.000000 2.021050 
# 
# From -- ./inp_files/53978.got.cif
#   From: 2010.05.17/outbox.cif.g08.bks.cpg/sg12_27_cif.got.tgz:53978.got - 2010.06.03 13:09:07.
