data_PCOD9218044
_publ_section_title
;
Structure prediction by ZEFSAII (Michael W. Deem and Ramdas Pophale) SiO2 
 PCOD9218044
Probable space group: C 2/M
;
_chemical_formula_sum "Si O2"
_cell_formula_units_Z 40
_cell_length_a 9.241528
_cell_length_b 9.864063
_cell_length_c 21.198510
_cell_angle_alpha 90.000000
_cell_angle_beta 101.241094
_cell_angle_gamma 90.000000
_cell_volume 1895.362654
_symmetry_space_group_name_H-M "C 2/M"
_symmetry_group_IT_number 12
_symmetry_cell_setting 'monoclinic'
loop_
_space_group_symop_operation_xyz
x,y,z
-x,y,-z
-x,-y,-z
x,-y,z
1/2+x,1/2+y,z
1/2-x,1/2+y,-z
1/2-x,1/2-y,-z
1/2+x,1/2-y,z
loop_
_atom_site_type_symbol
_atom_site_label
_atom_site_fract_x
_atom_site_fract_y
_atom_site_fract_z
Si Si1 0.311000 0.343511 0.061726
Si Si2 0.222291 0.647804 0.441400
Si Si3 0.567242 0.749275 0.648682
Si Si4 0.643360 0.648628 0.262400
Si Si5 0.057767 0.345161 0.144731
O O1 0.348235 0.500000 0.045947
O O2 0.187212 0.354145 0.104806
O O3 0.440935 0.257423 0.104369
O O4 0.250000 0.250000 0.000000
O O5 0.235579 0.500000 0.470451
O O6 0.250000 0.750000 0.500000
O O7 0.342081 0.667702 0.396350
O O8 0.061305 0.668070 0.397241
O O9 0.478155 0.662245 0.692698
O O10 0.693613 0.835420 0.694494
O O11 0.628623 0.500000 0.230663
O O12 0.615823 0.772617 0.212660
O O13 0.003248 0.500000 0.151530
#
# Coordination Sequence:
#
# PCOD9218044 Si02
#       5
#     8   8   8   8   8
#     4  11  24  42  65  93 126 165 209 256 307 364
#     4  11  24  42  64  91 124 161 203 253 307 365
#     4  10  24  41  63  91 124 160 203 254 307 363
#     4  11  23  41  65  91 121 161 207 252 304 366
#     4  11  25  42  62  93 129 163 204 255 308 364
#
# _framework density 21.104140000000001
#
# number of rings (size 3 to 8) (size 9 to 14) (size 15 to 20)
#    0.000    1.200    0.000    4.800    0.000   20.000 
#    0.000    0.000    0.000    0.000    0.000    0.000 
#    0.000    0.000    0.000    0.000    0.000    0.000 
#
# Total GULP energy -111787.776251 kJ/mol
# GULP energy per Si atom -5589.388813 kJ/mol
# Density = 2.105611 g / cm^3
# Si number density = 21.104140 Si / 1000 Ang^3
#
#
#
# Elastic Constant Matrix: (Units=GPa)
#
#
# Indices 1 2 3 4 5 6 
#
# 1 124.5156 41.5161 33.5510 0.0000 -12.0638 0.0000
# 2 41.5161 203.7163 61.8135 0.0000 -25.4237 0.0000
# 3 33.5510 61.8135 111.2655 0.0000 -16.3828 0.0000
# 4 0.0000 0.0000 0.0000 32.8426 0.0000 1.2769
# 5 -12.0638 -25.4237 -16.3828 0.0000 -86.7512 0.0000
# 6 0.0000 0.0000 0.0000 1.2769 0.0000 8.0649
#
#
#
# Elastic Compliance Matrix: (Units=1/GPa)
#
#
# Indices 1 2 3 4 5 6 
#
# 1 0.008963 -0.001257 -0.002076 0.000000 -0.000486 0.000000
# 2 -0.001257 0.005978 -0.003088 0.000000 -0.000994 0.000000
# 3 -0.002076 -0.003088 0.011194 0.000000 -0.000920 0.000000
# 4 0.000000 0.000000 0.000000 0.030637 0.000000 -0.004851
# 5 -0.000486 -0.000994 -0.000920 0.000000 -0.010995 0.000000
# 6 0.000000 0.000000 0.000000 -0.004851 0.000000 0.124762
#
#
# Mechanical properties :
#
#
# Convention : Reuss Voigt Hill
#
# Bulk Modulus (GPa) = 75.23482 79.25095 77.24288
# Shear Modulus (GPa) = 26.62241 11.00572 18.81406
#
# Velocity S-wave (km/s) = 3.55558 2.28611 2.98902
# Velocity P-wave (km/s) = 7.25141 6.67849 6.97084
#
# Compressibility (1/GPa) = 0.01329172
#
# Stress axis : x y z
#
# Youngs Moduli (GPa) = 111.57545 167.27783 89.33671
#
# Poissons Ratio (x) = 0.21033 0.18543
# Poissons Ratio (y) = 0.14029 0.27590
# Poissons Ratio (z) = 0.23158 0.51661
#
# Static dielectric constant tensor:
#      x y z
#    x 1.744590 0.000000 0.006010 
#    y 0.000000 1.764390 0.000000 
#    z 0.006010 0.000000 1.732010 
# 
# From -- ./inp_files/331754.got.cif
#   From: 2010.05.17/outbox.cif.g08.bks.cpg/sg12_166_cif.got.tgz:331754.got - 2010.06.03 13:09:07.
