data_PCOD9218172
_publ_section_title
;
Structure prediction by ZEFSAII (Michael W. Deem and Ramdas Pophale) SiO2 
 PCOD9218172
Probable space group: C 2/M
;
_chemical_formula_sum "Si O2"
_cell_formula_units_Z 40
_cell_length_a 25.625190
_cell_length_b 8.817226
_cell_length_c 19.561439
_cell_angle_alpha 90.000000
_cell_angle_beta 150.990379
_cell_angle_gamma 90.000000
_cell_volume 2143.397063
_symmetry_space_group_name_H-M "C 2/M"
_symmetry_group_IT_number 12
_symmetry_cell_setting 'monoclinic'
loop_
_space_group_symop_operation_xyz
x,y,z
-x,y,-z
-x,-y,-z
x,-y,z
1/2+x,1/2+y,z
1/2-x,1/2+y,-z
1/2-x,1/2-y,-z
1/2+x,1/2-y,z
loop_
_atom_site_type_symbol
_atom_site_label
_atom_site_fract_x
_atom_site_fract_y
_atom_site_fract_z
Si Si1 0.079529 0.818981 0.655153
Si Si2 0.005895 0.681362 0.164129
Si Si3 0.215520 0.318393 0.313393
Si Si4 0.058197 0.681736 0.380988
Si Si5 0.300276 0.680564 0.855549
O O1 0.193441 0.742948 0.769853
O O2 0.000000 0.788890 0.500000
O O3 0.024035 0.752773 0.658967
O O4 0.092284 0.000000 0.675567
O O5 0.986485 0.500000 0.136138
O O6 0.113682 0.715533 0.244770
O O7 0.024956 0.717862 0.265335
O O8 0.905276 0.768315 0.017242
O O9 0.228363 0.500000 0.323783
O O10 0.324003 0.247034 0.467794
O O11 0.196213 0.253118 0.215864
O O12 0.060054 0.500000 0.390879
O O13 0.294927 0.500000 0.843792
#
# Coordination Sequence:
#
# PCOD9218172 Si02
#       5
#     8   8   8   8   8
#     4  11  23  41  66  91 120 162 206 250 306 372
#     4  10  24  43  62  90 129 167 203 248 307 368
#     4  11  22  40  65  91 125 168 207 248 302 366
#     4  11  23  40  65  95 125 160 205 257 305 358
#     4  12  25  40  64  94 124 161 207 259 306 357
#
# _framework density 18.661963
#
# number of rings (size 3 to 8) (size 9 to 14) (size 15 to 20)
#    0.000    1.000    2.000    4.800    0.000    7.200 
#    0.000    0.000    0.000    0.000    0.000    0.000 
#    0.000    0.000    0.000    0.000    0.000    0.000 
#
# Total GULP energy -111920.645801 kJ/mol
# GULP energy per Si atom -5596.032290 kJ/mol
# Density = 1.861949 g / cm^3
# Si number density = 18.661963 Si / 1000 Ang^3
#
#
#
# Elastic Constant Matrix: (Units=GPa)
#
#
# Indices 1 2 3 4 5 6 
#
# 1 288.0076 145.1571 163.5446 0.0000 -10.8506 0.0000
# 2 145.1571 92.6012 62.5240 0.0000 -36.2481 0.0000
# 3 163.5446 62.5240 75.1811 0.0000 -71.2274 0.0000
# 4 0.0000 0.0000 0.0000 36.1154 0.0000 -3.4698
# 5 -10.8506 -36.2481 -71.2274 0.0000 2.8254 0.0000
# 6 0.0000 0.0000 0.0000 -3.4698 0.0000 16.0605
#
#
#
# Elastic Compliance Matrix: (Units=1/GPa)
#
#
# Indices 1 2 3 4 5 6 
#
# 1 0.005598 -0.006929 0.003071 0.000000 0.010012 0.000000
# 2 -0.006929 0.029079 -0.013945 0.000000 -0.005104 0.000000
# 3 0.003071 -0.013945 0.006123 0.000000 -0.012768 0.000000
# 4 0.000000 0.000000 0.000000 0.028276 0.000000 0.006109
# 5 0.010012 -0.005104 -0.012768 0.000000 0.005032 0.000000
# 6 0.000000 0.000000 0.000000 0.006109 0.000000 0.063584
#
#
# Mechanical properties :
#
#
# Convention : Reuss Voigt Hill
#
# Bulk Modulus (GPa) = 192.61341 133.13792 162.87566
# Shear Modulus (GPa) = 28.56640 16.63788 22.60214
#
# Velocity S-wave (km/s) = 3.91670 2.98911 3.48391
# Velocity P-wave (km/s) = 11.13058 9.13289 10.18085
#
# Compressibility (1/GPa) = 0.00519175
#
# Stress axis : x y z
#
# Youngs Moduli (GPa) = 178.63355 34.38888 163.32767
#
# Poissons Ratio (x) = 0.23830 -0.50155
# Poissons Ratio (y) = 1.23783 2.27767
# Poissons Ratio (z) = -0.54855 0.47957
#
# Static dielectric constant tensor:
#      x y z
#    x 1.614690 0.000000 -0.001360 
#    y 0.000000 1.623140 0.000000 
#    z -0.001360 0.000000 1.604650 
# 
# From -- ./inp_files/162368.got.cif
#   From: 2010.05.17/outbox.cif.g08.bks.cpg/sg12_82_cif.got.tgz:162368.got - 2010.06.03 13:09:07.
