data_PCOD9218423
_publ_section_title
;
Structure prediction by ZEFSAII (Michael W. Deem and Ramdas Pophale) SiO2 
 PCOD9218423
Probable space group: C 2/M
;
_chemical_formula_sum "Si O2"
_cell_formula_units_Z 48
_cell_length_a 9.521607
_cell_length_b 21.820322
_cell_length_c 24.147047
_cell_angle_alpha 90.000000
_cell_angle_beta 154.315978
_cell_angle_gamma 90.000000
_cell_volume 2174.363471
_symmetry_space_group_name_H-M "C 2/M"
_symmetry_group_IT_number 12
_symmetry_cell_setting 'monoclinic'
loop_
_space_group_symop_operation_xyz
x,y,z
-x,y,-z
-x,-y,-z
x,-y,z
1/2+x,1/2+y,z
1/2-x,1/2+y,-z
1/2-x,1/2-y,-z
1/2+x,1/2-y,z
loop_
_atom_site_type_symbol
_atom_site_label
_atom_site_fract_x
_atom_site_fract_y
_atom_site_fract_z
Si Si1 0.837933 0.768360 0.331406
Si Si2 0.422971 0.572338 0.910743
Si Si3 0.252848 0.262671 0.815052
Si Si4 0.382364 0.153113 0.020878
Si Si5 0.588723 0.149246 0.470757
Si Si6 0.116495 0.573866 0.371734
O O1 0.925593 0.732550 0.306463
O O2 0.458060 0.778663 0.206549
O O3 0.036496 0.830661 0.403077
O O4 0.924023 0.716473 0.406864
O O5 0.375599 0.500000 0.899970
O O6 0.752259 0.588415 0.994764
O O7 0.116512 0.592535 0.763017
O O8 0.500000 0.597696 0.000000
O O9 0.569131 0.303877 0.920570
O O10 0.341950 0.190567 0.849481
O O11 0.500000 0.151843 0.000000
O O12 0.500000 0.124406 0.500000
O O13 0.502491 0.105634 0.388599
O O14 0.500000 0.588138 0.500000
O O15 0.090674 0.500000 0.367765
#
# Coordination Sequence:
#
# PCOD9218423 Si02
#       6
#     8   8   8   8   8   8
#     4  11  23  39  59  91 135 174 214 263 325 398
#     4  10  24  46  70  97 131 173 224 278 335 397
#     4  11  23  39  58  90 133 175 214 265 326 393
#     4  11  24  38  62  94 128 173 221 271 328 389
#     4  11  24  39  63  98 131 175 219 270 329 394
#     4  10  24  45  70  99 131 173 223 277 337 397
#
# _framework density 22.075426
#
# number of rings (size 3 to 8) (size 9 to 14) (size 15 to 20)
#    0.000    1.333    3.333    1.000    7.000    0.667 
#    0.000    0.000    0.000    0.000    0.000    0.000 
#    0.000    0.000    0.000    0.000    0.000    0.000 
#
# Total GULP energy -133806.556581 kJ/mol
# GULP energy per Si atom -5575.273191 kJ/mol
# Density = 2.202518 g / cm^3
# Si number density = 22.075426 Si / 1000 Ang^3
#
#
#
# Elastic Constant Matrix: (Units=GPa)
#
#
# Indices 1 2 3 4 5 6 
#
# 1 155.8045 32.3404 56.5408 0.0000 -5.0577 0.0051
# 2 32.3404 37.5080 29.2941 -0.0032 -11.6716 -0.0009
# 3 56.5408 29.2941 96.6983 -0.0029 -8.5402 0.0027
# 4 0.0000 -0.0032 -0.0029 35.4309 -0.0028 -6.1395
# 5 -5.0577 -11.6716 -8.5402 -0.0028 40.4226 0.0019
# 6 0.0051 -0.0009 0.0027 -6.1395 0.0019 26.0882
#
#
#
# Elastic Compliance Matrix: (Units=1/GPa)
#
#
# Indices 1 2 3 4 5 6 
#
# 1 0.008768 -0.005018 -0.003707 -0.000001 -0.001135 -0.000002
# 2 -0.005018 0.040533 -0.008526 0.000004 0.009274 0.000004
# 3 -0.003707 -0.008526 0.015115 0.000000 0.000268 -0.000001
# 4 -0.000001 0.000004 0.000000 0.029424 0.000003 0.006924
# 5 -0.001135 0.009274 0.000268 0.000003 0.027331 -0.000001
# 6 -0.000002 0.000004 -0.000001 0.006924 -0.000001 0.039961
#
#
# Mechanical properties :
#
#
# Convention : Reuss Voigt Hill
#
# Bulk Modulus (GPa) = 33.42880 58.48459 45.95670
# Shear Modulus (GPa) = 24.31840 31.84405 28.08123
#
# Velocity S-wave (km/s) = 3.32264 3.80216 3.57046
# Velocity P-wave (km/s) = 5.46771 6.76948 6.15311
#
# Compressibility (1/GPa) = 0.02991433
#
# Stress axis : x y z
#
# Youngs Moduli (GPa) = 114.04660 24.67153 66.15765
#
# Poissons Ratio (x) = 0.12381 0.24524
# Poissons Ratio (y) = 0.57233 0.56404
# Poissons Ratio (z) = 0.42276 0.21034
#
# Static dielectric constant tensor:
#      x y z
#    x 1.835070 0.000000 -0.007300 
#    y 0.000000 1.845260 -0.000010 
#    z -0.007300 -0.000010 1.941950 
# 
# From -- ./inp_files/334114.got.cif
#   From: 2010.05.17/outbox.cif.g08.bks.cpg/sg12_168_cif.got.tgz:334114.got - 2010.06.03 13:09:07.
