data_PCOD9218801
_publ_section_title
;
Structure prediction by ZEFSAII (Michael W. Deem and Ramdas Pophale) SiO2 
 PCOD9218801
Probable space group: C 2/M
;
_chemical_formula_sum "Si O2"
_cell_formula_units_Z 60
_cell_length_a 21.723083
_cell_length_b 19.610026
_cell_length_c 9.128661
_cell_angle_alpha 90.000000
_cell_angle_beta 47.478567
_cell_angle_gamma 90.000000
_cell_volume 2866.082401
_symmetry_space_group_name_H-M "C 2/M"
_symmetry_group_IT_number 12
_symmetry_cell_setting 'monoclinic'
loop_
_space_group_symop_operation_xyz
x,y,z
-x,y,-z
-x,-y,-z
x,-y,z
1/2+x,1/2+y,z
1/2-x,1/2+y,-z
1/2-x,1/2-y,-z
1/2+x,1/2-y,z
loop_
_atom_site_type_symbol
_atom_site_label
_atom_site_fract_x
_atom_site_fract_y
_atom_site_fract_z
Si Si1 0.244911 0.500000 0.115450
Si Si2 0.579083 0.814478 0.069976
Si Si3 0.834515 0.803594 0.931089
Si Si4 0.105892 0.288921 0.689211
Si Si5 0.631562 0.629504 0.596913
Si Si6 0.259166 0.885632 0.134339
Si Si7 0.755332 0.127509 0.317058
Si Si8 0.466902 0.574916 0.719984
O O1 0.235186 0.560679 0.256364
O O2 0.249445 0.441424 0.977107
O O3 0.608580 0.762498 0.147936
O O4 0.479765 0.821434 0.235461
O O5 0.596062 0.783836 0.880788
O O6 0.643749 0.876631 0.980629
O O7 0.777868 0.816631 0.881084
O O8 0.899009 0.866796 0.835913
O O9 0.779541 0.813653 0.163530
O O10 0.119379 0.211878 0.608908
O O11 0.181119 0.339515 0.530877
O O12 0.699965 0.604116 0.369087
O O13 0.667163 0.613763 0.699650
O O14 0.544481 0.593438 0.698235
O O15 0.500000 0.573016 0.500000
O O16 0.429354 0.500000 0.815342
#
# Coordination Sequence:
#
# PCOD9218801 Si02
#       8
#     4   8   8   8   8   8   8   8
#     4  10  28  48  63  98 135 173 230 286 330 402
#     4  11  22  42  68 100 139 171 225 285 344 390
#     4  11  22  41  64  97 143 176 217 274 334 397
#     4  11  23  42  68 107 136 166 227 294 337 396
#     4  12  22  41  72 101 137 180 228 265 337 414
#     4  11  24  42  69  95 131 185 225 273 335 413
#     4  11  24  43  69  97 133 179 222 278 339 403
#     4  11  25  40  62 100 143 184 220 269 324 405
#
# _framework density 20.934501000000001
#
# number of rings (size 3 to 8) (size 9 to 14) (size 15 to 20)
#    0.000    0.933    5.333    1.600    5.600    1.600 
#    0.000    7.333    0.000    1.600    0.000    0.000 
#    0.000    0.000    0.000    0.000    0.000    0.000 
#
# Total GULP energy -167158.995459 kJ/mol
# GULP energy per Si atom -5571.966515 kJ/mol
# Density = 2.088685 g / cm^3
# Si number density = 20.934501 Si / 1000 Ang^3
#
#
#
# Elastic Constant Matrix: (Units=GPa)
#
#
# Indices 1 2 3 4 5 6 
#
# 1 81.0048 24.2354 4.3646 0.0000 -6.7897 0.0000
# 2 24.2354 56.3005 3.5556 0.0000 -1.1265 0.0000
# 3 4.3646 3.5556 41.3064 0.0000 0.8951 0.0000
# 4 0.0000 0.0000 0.0000 20.1127 0.0000 -0.8714
# 5 -6.7897 -1.1265 0.8951 0.0000 34.8171 0.0000
# 6 0.0000 0.0000 0.0000 -0.8714 0.0000 19.8779
#
#
#
# Elastic Compliance Matrix: (Units=1/GPa)
#
#
# Indices 1 2 3 4 5 6 
#
# 1 0.014449 -0.006100 -0.001059 0.000000 0.002648 0.000000
# 2 -0.006100 0.020447 -0.001105 0.000000 -0.000500 0.000000
# 3 -0.001059 -0.001105 0.024435 0.000000 -0.000870 0.000000
# 4 0.000000 0.000000 0.000000 0.049814 0.000000 0.002184
# 5 0.002648 -0.000500 -0.000870 0.000000 0.029244 0.000000
# 6 0.000000 0.000000 0.000000 0.002184 0.000000 0.050403
#
#
# Mechanical properties :
#
#
# Convention : Reuss Voigt Hill
#
# Bulk Modulus (GPa) = 23.36221 26.99144 25.17683
# Shear Modulus (GPa) = 22.76991 24.72530 23.74760
#
# Velocity S-wave (km/s) = 3.30157 3.44041 3.37170
# Velocity P-wave (km/s) = 5.07126 5.35753 5.21636
#
# Compressibility (1/GPa) = 0.04280417
#
# Stress axis : x y z
#
# Youngs Moduli (GPa) = 69.20936 48.90600 40.92464
#
# Poissons Ratio (x) = 0.29832 0.04334
# Poissons Ratio (y) = 0.42217 0.04521
# Poissons Ratio (z) = 0.07329 0.05403
#
# Static dielectric constant tensor:
#      x y z
#    x 1.771370 0.000000 -0.026090 
#    y 0.000000 1.769640 0.000000 
#    z -0.026090 0.000000 1.749850 
# 
# From -- ./inp_files/89834.got.cif
#   From: 2010.05.17/outbox.cif.g08.bks.cpg/sg12_45_cif.got.tgz:89834.got - 2010.06.03 13:09:07.
