data_PCOD9218831
_publ_section_title
;
Structure prediction by ZEFSAII (Michael W. Deem and Ramdas Pophale) SiO2 
 PCOD9218831
Probable space group: C 2/M
;
_chemical_formula_sum "Si O2"
_cell_formula_units_Z 48
_cell_length_a 19.448018
_cell_length_b 16.165065
_cell_length_c 11.418351
_cell_angle_alpha 90.000000
_cell_angle_beta 42.260007
_cell_angle_gamma 90.000000
_cell_volume 2414.048268
_symmetry_space_group_name_H-M "C 2/M"
_symmetry_group_IT_number 12
_symmetry_cell_setting 'monoclinic'
loop_
_space_group_symop_operation_xyz
x,y,z
-x,y,-z
-x,-y,-z
x,-y,z
1/2+x,1/2+y,z
1/2-x,1/2+y,-z
1/2-x,1/2-y,-z
1/2+x,1/2-y,z
loop_
_atom_site_type_symbol
_atom_site_label
_atom_site_fract_x
_atom_site_fract_y
_atom_site_fract_z
Si Si1 0.857900 0.701449 0.344681
Si Si2 0.785582 0.243592 0.087747
Si Si3 0.445292 0.615076 0.449148
Si Si4 0.417946 0.194474 0.517206
Si Si5 0.796350 0.593669 0.209312
Si Si6 0.009964 0.854187 0.118231
O O1 0.750000 0.750000 0.500000
O O2 0.893703 0.659573 0.420452
O O3 0.846646 0.632100 0.261322
O O4 0.934989 0.774032 0.209258
O O5 0.688249 0.212778 0.284398
O O6 0.816117 0.336377 0.087546
O O7 0.750000 0.250000 0.000000
O O8 0.877513 0.181398 0.997996
O O9 0.500000 0.585885 0.500000
O O10 0.461838 0.714273 0.431310
O O11 0.326038 0.595587 0.613625
O O12 0.480357 0.593959 0.272689
O O13 0.500000 0.153339 0.500000
O O14 0.827289 0.500000 0.143651
O O15 0.000000 0.892280 0.000000
#
# Coordination Sequence:
#
# PCOD9218831 Si02
#       6
#     8   8   8   8   8   8
#     4  11  17  35  54  79 112 148 195 233 276 339
#     4  11  20  33  54  86 111 146 193 238 282 336
#     4   9  18  33  52  80 111 147 192 238 283 340
#     4   9  17  31  54  79 108 140 194 244 268 327
#     4  11  22  36  56  84 119 155 189 234 291 350
#     4  11  18  29  55  85 111 138 190 250 284 317
#
# _framework density 19.883613
#
# number of rings (size 3 to 8) (size 9 to 14) (size 15 to 20)
#    0.000    1.667    6.667    4.000    0.000    0.333 
#    0.000    1.667    0.000    2.000    0.000    0.000 
#    0.000    2.333    0.000    0.000    0.000    0.000 
#
# Total GULP energy -133819.570273 kJ/mol
# GULP energy per Si atom -5575.815428 kJ/mol
# Density = 1.983836 g / cm^3
# Si number density = 19.883613 Si / 1000 Ang^3
#
#
#
# Elastic Constant Matrix: (Units=GPa)
#
#
# Indices 1 2 3 4 5 6 
#
# 1 150.5440 20.0242 22.1178 0.0000 31.6921 0.0000
# 2 20.0242 53.4680 -1.8874 0.0000 8.3050 0.0000
# 3 22.1178 -1.8874 47.1433 0.0000 16.3682 0.0000
# 4 0.0000 0.0000 0.0000 -14.4735 0.0000 -15.6604
# 5 31.6921 8.3050 16.3682 0.0000 46.4566 0.0000
# 6 0.0000 0.0000 0.0000 -15.6604 0.0000 -17.7449
#
#
#
# Elastic Compliance Matrix: (Units=1/GPa)
#
#
# Indices 1 2 3 4 5 6 
#
# 1 0.008246 -0.002507 -0.002474 0.000000 -0.004305 0.000000
# 2 -0.002507 0.020208 0.003014 0.000000 -0.002965 0.000000
# 3 -0.002474 0.003014 0.025174 0.000000 -0.007721 0.000000
# 4 0.000000 0.000000 0.000000 -1.531977 0.000000 1.352016
# 5 -0.004305 -0.002965 -0.007721 0.000000 0.027713 0.000000
# 6 0.000000 0.000000 0.000000 1.352016 0.000000 -1.249550
#
#
# Mechanical properties :
#
#
# Convention : Reuss Voigt Hill
#
# Bulk Modulus (GPa) = 20.12254 36.85161 28.48708
# Shear Modulus (GPa) = -1.86589 16.90769 7.52090
#
# Velocity S-wave (km/s) = -0.96976 2.91921 1.94696
# Velocity P-wave (km/s) = 2.98131 5.47141 4.40593
#
# Compressibility (1/GPa) = 0.04969551
#
# Stress axis : x y z
#
# Youngs Moduli (GPa) = 121.27296 49.48423 39.72343
#
# Poissons Ratio (x) = 0.12404 0.09828
# Poissons Ratio (y) = 0.30400 -0.11975
# Poissons Ratio (z) = 0.30005 -0.14917
#
# Static dielectric constant tensor:
#      x y z
#    x 1.767770 0.000000 0.024370 
#    y 0.000000 1.686710 0.000000 
#    z 0.024370 0.000000 1.913830 
# 
# From -- ./inp_files/168334.got.cif
#   From: 2010.05.17/outbox.cif.g08.bks.cpg/sg12_85_cif.got.tgz:168334.got - 2010.06.03 13:09:07.
