data_PCOD9218594
_publ_section_title
;
Structure prediction by ZEFSAII (Michael W. Deem and Ramdas Pophale) SiO2 
 PCOD9218594
Probable space group: C 2/M
;
_chemical_formula_sum "Si O2"
_cell_formula_units_Z 20
_cell_length_a 6.244459
_cell_length_b 25.452174
_cell_length_c 4.730725
_cell_angle_alpha 90.000000
_cell_angle_beta 96.462782
_cell_angle_gamma 90.000000
_cell_volume 747.099998
_symmetry_space_group_name_H-M "C 2/M"
_symmetry_group_IT_number 12
_symmetry_cell_setting 'monoclinic'
loop_
_space_group_symop_operation_xyz
x,y,z
-x,y,-z
-x,-y,-z
x,-y,z
1/2+x,1/2+y,z
1/2-x,1/2+y,-z
1/2-x,1/2-y,-z
1/2+x,1/2-y,z
loop_
_atom_site_type_symbol
_atom_site_label
_atom_site_fract_x
_atom_site_fract_y
_atom_site_fract_z
Si Si1 0.342561 0.940392 0.716342
Si Si2 0.500000 0.363118 0.500000
Si Si3 0.151891 0.703355 0.789830
O O1 0.500000 0.918430 0.500000
O O2 0.143374 0.901943 0.711470
O O3 0.272820 0.000000 0.627286
O O4 0.500000 0.944942 0.000000
O O5 0.655705 0.328898 0.324892
O O6 0.000000 0.719309 0.500000
O O7 0.250000 0.750000 0.000000
O O8 0.000000 0.674684 0.000000
#
# Coordination Sequence:
#
# PCOD9218594 Si02
#       3
#     8   4   8
#     4  10  24  50  81 121 166 209 268 338 409 495
#     4  12  29  52  88 120 166 218 281 330 424 484
#     4  12  32  56  82 118 164 222 286 348 415 492
#
# _framework density 26.770175999999999
#
# number of rings (size 3 to 8) (size 9 to 14) (size 15 to 20)
#    0.000    0.800    0.000    3.000    8.400   11.200 
#    7.200    6.000    0.000    3.600    0.000    0.000 
#    0.000    0.000    0.000    0.000    0.000    0.000 
#
# Total GULP energy -56138.950190 kJ/mol
# GULP energy per Si atom -5613.895019 kJ/mol
# Density = 2.670925 g / cm^3
# Si number density = 26.770176 Si / 1000 Ang^3
#
#
#
# Elastic Constant Matrix: (Units=GPa)
#
#
# Indices 1 2 3 4 5 6 
#
# 1 217.8490 127.9575 90.6748 0.0000 -6.1201 0.0000
# 2 127.9575 172.3843 47.4276 0.0000 -4.7306 0.0000
# 3 90.6748 47.4276 178.6710 0.0000 -6.2832 0.0000
# 4 0.0000 0.0000 0.0000 33.9729 0.0000 13.7670
# 5 -6.1201 -4.7306 -6.2832 0.0000 74.3181 0.0000
# 6 0.0000 0.0000 0.0000 13.7670 0.0000 47.6337
#
#
#
# Elastic Compliance Matrix: (Units=1/GPa)
#
#
# Indices 1 2 3 4 5 6 
#
# 1 0.009590 -0.006232 -0.003208 0.000000 0.000122 0.000000
# 2 -0.006232 0.010313 0.000432 0.000000 0.000180 0.000000
# 3 -0.003208 0.000432 0.007123 0.000000 0.000366 0.000000
# 4 0.000000 0.000000 0.000000 0.033340 0.000000 -0.009636
# 5 0.000122 0.000180 0.000366 0.000000 0.013508 0.000000
# 6 0.000000 0.000000 0.000000 -0.009636 0.000000 0.023778
#
#
# Mechanical properties :
#
#
# Convention : Reuss Voigt Hill
#
# Bulk Modulus (GPa) = 111.00512 122.33601 116.67056
# Shear Modulus (GPa) = 42.13247 51.37458 46.75352
#
# Velocity S-wave (km/s) = 3.97149 4.38550 4.18362
# Velocity P-wave (km/s) = 7.91115 8.45230 8.18620
#
# Compressibility (1/GPa) = 0.00900859
#
# Stress axis : x y z
#
# Youngs Moduli (GPa) = 104.27863 96.96237 140.38465
#
# Poissons Ratio (x) = 0.60429 0.45037
# Poissons Ratio (y) = 0.64989 -0.06058
# Poissons Ratio (z) = 0.33454 -0.04184
#
# Static dielectric constant tensor:
#      x y z
#    x 2.098380 0.000000 0.001010 
#    y 0.000000 2.163990 0.000000 
#    z 0.001010 0.000000 2.023880 
# 
# From -- ./inp_files/927.got.cif
#   From: 2010.05.17/outbox.cif.g08.bks.cpg/sg12_1_cif.got.tgz:927.got - 2010.06.03 13:09:07.
