data_PCOD9218797
_publ_section_title
;
Structure prediction by ZEFSAII (Michael W. Deem and Ramdas Pophale) SiO2 
 PCOD9218797
Probable space group: C 2/M
;
_chemical_formula_sum "Si O2"
_cell_formula_units_Z 30
_cell_length_a 12.193436
_cell_length_b 23.511317
_cell_length_c 14.326675
_cell_angle_alpha 90.000000
_cell_angle_beta 160.434061
_cell_angle_gamma 90.000000
_cell_volume 1375.474575
_symmetry_space_group_name_H-M "C 2/M"
_symmetry_group_IT_number 12
_symmetry_cell_setting 'monoclinic'
loop_
_space_group_symop_operation_xyz
x,y,z
-x,y,-z
-x,-y,-z
x,-y,z
1/2+x,1/2+y,z
1/2-x,1/2+y,-z
1/2-x,1/2-y,-z
1/2+x,1/2-y,z
loop_
_atom_site_type_symbol
_atom_site_label
_atom_site_fract_x
_atom_site_fract_y
_atom_site_fract_z
Si Si1 0.110586 0.837611 0.328283
Si Si2 0.500000 0.500000 0.000000
Si Si3 0.390139 0.000000 0.804556
Si Si4 0.879358 0.758585 0.308637
Si Si5 0.620309 0.912729 0.833500
O O1 0.388242 0.796413 0.510284
O O2 0.295481 0.891827 0.520081
O O3 0.944973 0.800370 0.275670
O O4 0.838912 0.858899 0.038728
O O5 0.331494 0.451146 0.932736
O O6 0.520102 0.053157 0.846826
O O7 0.000000 0.000000 0.500000
O O8 0.500000 0.000000 0.000000
O O9 0.000000 0.788818 0.500000
O O10 0.500000 0.743429 0.000000
#
# Coordination Sequence:
#
# PCOD9218797 Si02
#       5
#     8   2   4   8   8
#     4  11  25  42  66 100 130 176 225 265 342 397
#     4  10  28  46  68 102 132 172 240 274 328 410
#     4  11  24  43  66  97 131 168 222 281 336 400
#     4  11  24  42  66  98 137 173 222 276 325 409
#     4  11  25  44  68  97 133 176 223 280 334 402
#
# _framework density 21.810652999999999
#
# number of rings (size 3 to 8) (size 9 to 14) (size 15 to 20)
#    0.000    1.067    0.000    4.800    5.600   14.933 
#    0.000    0.000    0.000    0.000    0.000    0.000 
#    0.000    0.000    0.000    0.000    0.000    0.000 
#
# Total GULP energy -83679.644347 kJ/mol
# GULP energy per Si atom -5578.642956 kJ/mol
# Density = 2.176101 g / cm^3
# Si number density = 21.810653 Si / 1000 Ang^3
#
#
#
# Elastic Constant Matrix: (Units=GPa)
#
#
# Indices 1 2 3 4 5 6 
#
# 1 134.9125 28.4556 37.3741 -0.0017 33.6798 0.0495
# 2 28.4556 53.8553 -3.9426 0.0027 21.7272 0.0121
# 3 37.3741 -3.9426 108.9773 0.0185 13.5204 0.0527
# 4 -0.0017 0.0027 0.0185 -0.9938 0.0105 -24.1689
# 5 33.6798 21.7272 13.5204 0.0105 35.8657 0.0162
# 6 0.0495 0.0121 0.0527 -24.1689 0.0162 44.4856
#
#
#
# Elastic Compliance Matrix: (Units=1/GPa)
#
#
# Indices 1 2 3 4 5 6 
#
# 1 0.010596 -0.002950 -0.002862 -0.000002 -0.007084 -0.000006
# 2 -0.002950 0.026282 0.003771 0.000005 -0.014573 -0.000001
# 3 -0.002862 0.003771 0.010747 0.000028 -0.003648 0.000006
# 4 -0.000002 0.000005 0.000028 -0.070798 0.000027 -0.038464
# 5 -0.007084 -0.014573 -0.003648 0.000027 0.044737 0.000014
# 6 -0.000006 -0.000001 0.000006 -0.038464 0.000014 0.001582
#
#
# Mechanical properties :
#
#
# Convention : Reuss Voigt Hill
#
# Bulk Modulus (GPa) = 22.96620 46.83550 34.90085
# Shear Modulus (GPa) = 119.78527 31.59539 75.69033
#
# Velocity S-wave (km/s) = 7.41888 3.81021 5.89735
# Velocity P-wave (km/s) = 9.16182 6.39353 7.89988
#
# Compressibility (1/GPa) = 0.04354224
#
# Stress axis : x y z
#
# Youngs Moduli (GPa) = 94.37860 38.04862 93.05240
#
# Poissons Ratio (x) = 0.11224 0.26628
# Poissons Ratio (y) = 0.27841 -0.35086
# Poissons Ratio (z) = 0.27008 -0.14346
#
# Static dielectric constant tensor:
#      x y z
#    x 1.826170 0.000000 -0.046140 
#    y 0.000000 1.792220 -0.000010 
#    z -0.046140 -0.000010 1.794150 
# 
# From -- ./inp_files/6555.got.cif
#   From: 2010.05.17/outbox.cif.g08.bks.cpg/sg12_4_cif.got.tgz:6555.got - 2010.06.03 13:09:07.
