data_PCOD9218134
_publ_section_title
;
Structure prediction by ZEFSAII (Michael W. Deem and Ramdas Pophale) SiO2 
 PCOD9218134
Probable space group: C 2/M
;
_chemical_formula_sum "Si O2"
_cell_formula_units_Z 32
_cell_length_a 13.590653
_cell_length_b 20.081220
_cell_length_c 7.055620
_cell_angle_alpha 90.000000
_cell_angle_beta 41.583099
_cell_angle_gamma 90.000000
_cell_volume 1278.030101
_symmetry_space_group_name_H-M "C 2/M"
_symmetry_group_IT_number 12
_symmetry_cell_setting 'monoclinic'
loop_
_space_group_symop_operation_xyz
x,y,z
-x,y,-z
-x,-y,-z
x,-y,z
1/2+x,1/2+y,z
1/2-x,1/2+y,-z
1/2-x,1/2-y,-z
1/2+x,1/2-y,z
loop_
_atom_site_type_symbol
_atom_site_label
_atom_site_fract_x
_atom_site_fract_y
_atom_site_fract_z
Si Si1 0.776518 0.147774 0.855825
Si Si2 0.047237 0.792425 0.713159
Si Si3 0.048582 0.355344 0.712165
Si Si4 0.154374 0.000000 0.170793
Si Si5 0.641785 0.000000 0.438396
O O1 0.827058 0.163493 0.568848
O O2 0.776985 0.068562 0.865071
O O3 0.897974 0.184691 0.812285
O O4 0.610121 0.160597 0.160523
O O5 0.114661 0.718102 0.590038
O O6 0.000000 0.801219 0.000000
O O7 0.122361 0.426191 0.557716
O O8 0.000000 0.361492 0.000000
O O9 0.000000 0.000000 0.500000
O O10 0.193777 0.000000 0.891293
O O11 0.500000 0.000000 0.500000
#
# Coordination Sequence:
#
# PCOD9218134 Si02
#       5
#     8   8   8   4   4
#     4  11  23  44  70  96 147 176 236 289 341 406
#     4  10  24  42  68 104 141 188 230 283 348 409
#     4  11  25  45  68 105 140 179 234 286 341 422
#     4  12  24  46  68 102 132 178 237 287 339 426
#     4  12  25  42  75  95 136 188 231 279 365 401
#
# _framework density 25.038535
#
# number of rings (size 3 to 8) (size 9 to 14) (size 15 to 20)
#    0.000    1.000    5.000    1.125    3.500    8.000 
#    0.000    2.500    0.000    0.000    0.000    0.000 
#    0.000    0.000    0.000    0.000    0.000    0.000 
#
# Total GULP energy -89221.242259 kJ/mol
# GULP energy per Si atom -5576.327641 kJ/mol
# Density = 2.498155 g / cm^3
# Si number density = 25.038535 Si / 1000 Ang^3
#
#
#
# Elastic Constant Matrix: (Units=GPa)
#
#
# Indices 1 2 3 4 5 6 
#
# 1 65.9402 30.4024 20.8331 0.0000 -0.1500 0.0000
# 2 30.4024 218.6346 50.5805 0.0000 23.5633 0.0000
# 3 20.8331 50.5805 153.3129 0.0000 6.0563 0.0000
# 4 0.0000 0.0000 0.0000 37.2784 0.0000 19.5845
# 5 -0.1500 23.5633 6.0563 0.0000 44.0712 0.0000
# 6 0.0000 0.0000 0.0000 19.5845 0.0000 23.6407
#
#
#
# Elastic Compliance Matrix: (Units=1/GPa)
#
#
# Indices 1 2 3 4 5 6 
#
# 1 0.016646 -0.002089 -0.001628 0.000000 0.001397 0.000000
# 2 -0.002089 0.005488 -0.001418 0.000000 -0.002747 0.000000
# 3 -0.001628 -0.001418 0.007221 0.000000 -0.000240 0.000000
# 4 0.000000 0.000000 0.000000 0.047497 0.000000 -0.039348
# 5 0.001397 -0.002747 -0.000240 0.000000 0.024197 0.000000
# 6 0.000000 0.000000 0.000000 -0.039348 0.000000 0.074897
#
#
# Mechanical properties :
#
#
# Convention : Reuss Voigt Hill
#
# Bulk Modulus (GPa) = 52.39631 71.27996 61.83813
# Shear Modulus (GPa) = 25.96356 43.40282 34.68319
#
# Velocity S-wave (km/s) = 3.22366 4.16798 3.72586
# Velocity P-wave (km/s) = 5.90149 7.18976 6.57724
#
# Compressibility (1/GPa) = 0.01908531
#
# Stress axis : x y z
#
# Youngs Moduli (GPa) = 60.07527 182.20108 138.48007
#
# Poissons Ratio (x) = 0.38055 0.22545
# Poissons Ratio (y) = 0.12547 0.19642
# Poissons Ratio (z) = 0.09781 0.25844
#
# Static dielectric constant tensor:
#      x y z
#    x 2.525180 0.000000 -0.507550 
#    y 0.000000 1.774830 0.000000 
#    z -0.507550 0.000000 2.745470 
# 
# From -- ./inp_files/87608.got.cif
#   From: 2010.05.17/outbox.cif.g08.bks.cpg/sg12_44_cif.got.tgz:87608.got - 2010.06.03 13:09:07.
