data_PCOD9218105
_publ_section_title
;
Structure prediction by ZEFSAII (Michael W. Deem and Ramdas Pophale) SiO2 
 PCOD9218105
Probable space group: C 2/M
;
_chemical_formula_sum "Si O2"
_cell_formula_units_Z 40
_cell_length_a 8.768010
_cell_length_b 10.559798
_cell_length_c 20.319030
_cell_angle_alpha 90.000000
_cell_angle_beta 105.580204
_cell_angle_gamma 90.000000
_cell_volume 1812.178949
_symmetry_space_group_name_H-M "C 2/M"
_symmetry_group_IT_number 12
_symmetry_cell_setting 'monoclinic'
loop_
_space_group_symop_operation_xyz
x,y,z
-x,y,-z
-x,-y,-z
x,-y,z
1/2+x,1/2+y,z
1/2-x,1/2+y,-z
1/2-x,1/2-y,-z
1/2+x,1/2-y,z
loop_
_atom_site_type_symbol
_atom_site_label
_atom_site_fract_x
_atom_site_fract_y
_atom_site_fract_z
Si Si1 0.119729 0.741783 0.650334
Si Si2 0.079394 0.641438 0.254521
Si Si3 0.849612 0.294297 0.949006
Si Si4 0.182943 0.141953 0.444704
Si Si5 0.478762 0.358930 0.142034
O O1 0.240284 0.829753 0.704655
O O2 0.220436 0.656858 0.612081
O O3 0.021142 0.658950 0.690446
O O4 0.997404 0.825211 0.594060
O O5 0.059530 0.500000 0.225484
O O6 0.021954 0.749940 0.198475
O O7 0.711481 0.358849 0.890455
O O8 0.928113 0.183648 0.913587
O O9 0.750000 0.250000 0.000000
O O10 0.000000 0.362715 0.000000
O O11 0.250000 0.250000 0.500000
O O12 0.200456 0.000000 0.473191
O O13 0.529291 0.500000 0.167747
#
# Coordination Sequence:
#
# PCOD9218105 Si02
#       5
#     8   8   8   8   8
#     4  10  24  42  65  92 125 166 212 260 311 367
#     4  11  24  43  66  92 125 167 213 258 310 374
#     4   9  21  41  63  91 125 165 207 254 309 369
#     4  11  24  42  65  94 128 165 208 259 314 373
#     4  11  24  41  64  96 130 163 206 262 318 372
#
# _framework density 22.072875
#
# number of rings (size 3 to 8) (size 9 to 14) (size 15 to 20)
#    0.000    1.600    0.000    3.000    0.000   20.000 
#    0.000    6.000    0.000    0.000    0.000    0.000 
#    0.000    0.000    0.000    0.000    0.000    0.000 
#
# Total GULP energy -111745.187564 kJ/mol
# GULP energy per Si atom -5587.259378 kJ/mol
# Density = 2.202264 g / cm^3
# Si number density = 22.072875 Si / 1000 Ang^3
#
#
#
# Elastic Constant Matrix: (Units=GPa)
#
#
# Indices 1 2 3 4 5 6 
#
# 1 121.1339 35.5102 23.9865 0.0000 19.9173 0.0000
# 2 35.5102 199.6154 58.5449 0.0000 24.1947 0.0000
# 3 23.9865 58.5449 87.7306 0.0000 28.4680 0.0000
# 4 0.0000 0.0000 0.0000 79.8894 0.0000 3.8904
# 5 19.9173 24.1947 28.4680 0.0000 37.4388 0.0000
# 6 0.0000 0.0000 0.0000 3.8904 0.0000 6.2381
#
#
#
# Elastic Compliance Matrix: (Units=1/GPa)
#
#
# Indices 1 2 3 4 5 6 
#
# 1 0.009303 -0.001007 -0.000633 0.000000 -0.003817 0.000000
# 2 -0.001007 0.006375 -0.003738 0.000000 -0.000742 0.000000
# 3 -0.000633 -0.003738 0.017488 0.000000 -0.010545 0.000000
# 4 0.000000 0.000000 0.000000 0.012909 0.000000 -0.008051
# 5 -0.003817 -0.000742 -0.010545 0.000000 0.037239 0.000000
# 6 0.000000 0.000000 0.000000 -0.008051 0.000000 0.165327
#
#
# Mechanical properties :
#
#
# Convention : Reuss Voigt Hill
#
# Bulk Modulus (GPa) = 44.62219 71.61811 58.12015
# Shear Modulus (GPa) = 18.73587 44.07581 31.40584
#
# Velocity S-wave (km/s) = 2.91661 4.47344 3.77613
# Velocity P-wave (km/s) = 5.62156 7.69408 6.73798
#
# Compressibility (1/GPa) = 0.02241038
#
# Stress axis : x y z
#
# Youngs Moduli (GPa) = 107.48672 156.86250 57.18166
#
# Poissons Ratio (x) = 0.15790 0.03621
# Poissons Ratio (y) = 0.10820 0.21376
# Poissons Ratio (z) = 0.06806 0.58640
#
# Static dielectric constant tensor:
#      x y z
#    x 1.821090 0.000000 0.007700 
#    y 0.000000 1.875160 0.000000 
#    z 0.007700 0.000000 1.832940 
# 
# From -- ./inp_files/331813.got.cif
#   From: 2010.05.17/outbox.cif.g08.bks.cpg/sg12_166_cif.got.tgz:331813.got - 2010.06.03 13:09:07.
