data_PCOD9218839
_publ_section_title
;
Structure prediction by ZEFSAII (Michael W. Deem and Ramdas Pophale) SiO2 
 PCOD9218839
Probable space group: C 2/M
;
_chemical_formula_sum "Si O2"
_cell_formula_units_Z 48
_cell_length_a 17.003026
_cell_length_b 13.532064
_cell_length_c 7.786619
_cell_angle_alpha 90.000000
_cell_angle_beta 92.157426
_cell_angle_gamma 90.000000
_cell_volume 1790.322356
_symmetry_space_group_name_H-M "C 2/M"
_symmetry_group_IT_number 12
_symmetry_cell_setting 'monoclinic'
loop_
_space_group_symop_operation_xyz
x,y,z
-x,y,-z
-x,-y,-z
x,-y,z
1/2+x,1/2+y,z
1/2-x,1/2+y,-z
1/2-x,1/2-y,-z
1/2+x,1/2-y,z
loop_
_atom_site_type_symbol
_atom_site_label
_atom_site_fract_x
_atom_site_fract_y
_atom_site_fract_z
Si Si1 0.900847 0.616121 0.130799
Si Si2 0.629321 0.616748 0.350806
Si Si3 0.553566 0.885012 0.330510
Si Si4 0.702500 0.880564 0.536563
Si Si5 0.967926 0.883813 0.194114
Si Si6 0.162782 0.788513 0.004212
O O1 0.901324 0.500000 0.098593
O O2 0.837728 0.633370 0.279253
O O3 0.879402 0.683312 0.968509
O O4 0.986092 0.650948 0.197546
O O5 0.622333 0.500000 0.385888
O O6 0.637569 0.841632 0.396112
O O7 0.706197 0.652296 0.463599
O O8 0.537839 0.652684 0.327830
O O9 0.500000 0.888388 0.500000
O O10 0.568112 0.000000 0.284827
O O11 0.704873 0.000000 0.515267
O O12 0.843461 0.866156 0.843703
O O13 0.882955 0.832446 0.165944
O O14 0.956140 0.000000 0.229844
O O15 0.000000 0.876010 0.000000
O O16 0.250000 0.750000 0.000000
#
# Coordination Sequence:
#
# PCOD9218839 Si02
#       6
#     8   8   8   8   8   8
#     4   9  16  24  34  55  86 108 124 154 195 237
#     4   9  16  28  44  61  81 103 129 164 201 236
#     4   7  11  20  34  52  76 104 126 151 191 234
#     4   8  12  21  39  59  77  98 127 159 194 236
#     4   8  16  29  42  55  76 105 133 163 198 233
#     4  11  18  23  37  59  83 106 128 159 201 238
#
# _framework density 26.810817
#
# number of rings (size 3 to 8) (size 9 to 14) (size 15 to 20)
#    0.000    3.333    1.667    3.500    0.000    0.667 
#    0.000    0.000    0.000    5.500    0.000    0.000 
#    0.000   26.667    0.000    0.000    0.000    0.000 
#
# Total GULP energy -133962.666668 kJ/mol
# GULP energy per Si atom -5581.777778 kJ/mol
# Density = 2.674979 g / cm^3
# Si number density = 26.810817 Si / 1000 Ang^3
#
#
#
# Elastic Constant Matrix: (Units=GPa)
#
#
# Indices 1 2 3 4 5 6 
#
# 1 215.4567 45.1179 77.7601 0.0000 66.1294 0.0000
# 2 45.1179 82.4614 9.0489 0.0000 17.3586 0.0000
# 3 77.7601 9.0489 110.7388 0.0000 22.7765 0.0000
# 4 0.0000 0.0000 0.0000 5.7733 0.0000 21.3899
# 5 66.1294 17.3586 22.7765 0.0000 64.5655 0.0000
# 6 0.0000 0.0000 0.0000 21.3899 0.0000 25.2353
#
#
#
# Elastic Compliance Matrix: (Units=1/GPa)
#
#
# Indices 1 2 3 4 5 6 
#
# 1 0.009065 -0.003008 -0.004718 0.000000 -0.006811 0.000000
# 2 -0.003008 0.013866 0.001199 0.000000 -0.001070 0.000000
# 3 -0.004718 0.001199 0.012203 0.000000 0.000205 0.000000
# 4 0.000000 0.000000 0.000000 -0.080924 0.000000 0.068593
# 5 -0.006811 -0.001070 0.000205 0.000000 0.022679 0.000000
# 6 0.000000 0.000000 0.000000 0.068593 0.000000 -0.018514
#
#
# Mechanical properties :
#
#
# Convention : Reuss Voigt Hill
#
# Bulk Modulus (GPa) = 45.29030 74.72342 60.00686
# Shear Modulus (GPa) = -235.73844 37.56349 -99.08747
#
# Velocity S-wave (km/s) = -9.38709 3.74713 -6.08591
# Velocity P-wave (km/s) = 10.02800 6.83026 5.19174
#
# Compressibility (1/GPa) = 0.02207978
#
# Stress axis : x y z
#
# Youngs Moduli (GPa) = 110.31938 72.11678 81.94523
#
# Poissons Ratio (x) = 0.21693 0.38665
# Poissons Ratio (y) = 0.33185 -0.09828
# Poissons Ratio (z) = 0.52054 -0.08649
#
# Static dielectric constant tensor:
#      x y z
#    x 2.198760 0.000000 -0.130860 
#    y 0.000000 2.105540 0.000000 
#    z -0.130860 0.000000 2.258920 
# 
# From -- ./inp_files/153736.got.cif
#   From: 2010.05.17/outbox.cif.g08.bks.cpg/sg12_77_cif.got.tgz:153736.got - 2010.06.03 13:09:07.
