data_PCOD9218081
_publ_section_title
;
Structure prediction by ZEFSAII (Michael W. Deem and Ramdas Pophale) SiO2 
 PCOD9218081
Probable space group: C 2/M
;
_chemical_formula_sum "Si O2"
_cell_formula_units_Z 60
_cell_length_a 23.044058
_cell_length_b 9.338766
_cell_length_c 16.262500
_cell_angle_alpha 90.000000
_cell_angle_beta 61.097957
_cell_angle_gamma 90.000000
_cell_volume 3063.837782
_symmetry_space_group_name_H-M "C 2/M"
_symmetry_group_IT_number 12
_symmetry_cell_setting 'monoclinic'
loop_
_space_group_symop_operation_xyz
x,y,z
-x,y,-z
-x,-y,-z
x,-y,z
1/2+x,1/2+y,z
1/2-x,1/2+y,-z
1/2-x,1/2-y,-z
1/2+x,1/2-y,z
loop_
_atom_site_type_symbol
_atom_site_label
_atom_site_fract_x
_atom_site_fract_y
_atom_site_fract_z
Si Si1 0.765047 0.000000 0.966569
Si Si2 0.610437 0.830064 0.934314
Si Si3 0.193045 0.335964 0.337975
Si Si4 0.072603 0.836943 0.487695
Si Si5 0.494548 0.830497 0.139940
Si Si6 0.754038 0.723731 0.872699
Si Si7 0.078842 0.832295 0.679097
Si Si8 0.784252 0.672319 0.398328
O O1 0.778311 0.874986 0.889179
O O2 0.747370 0.880016 0.049204
O O3 0.564882 0.806013 0.885451
O O4 0.677779 0.742910 0.893637
O O5 0.626741 0.000000 0.926221
O O6 0.562753 0.800300 0.044929
O O7 0.203528 0.500000 0.358622
O O8 0.122228 0.277639 0.415528
O O9 0.203354 0.328011 0.233604
O O10 0.245115 0.230042 0.346161
O O11 0.068611 0.821111 0.588666
O O12 0.000000 0.823445 0.500000
O O13 0.097168 0.000000 0.454601
O O14 0.481345 0.730420 0.226352
O O15 0.493751 0.000000 0.161111
O O16 0.141527 0.732582 0.656975
O O17 0.091023 0.000000 0.690407
O O18 0.781926 0.500000 0.406756
O O19 0.750000 0.750000 0.500000
#
# Coordination Sequence:
#
# PCOD9218081 Si02
#       8
#     4   8   8   8   8   8   8   8
#     4  10  24  42  62  86 128 162 212 258 320 368
#     4   9  18  37  63  88 124 159 208 255 315 376
#     4  12  25  42  68  99 129 167 215 264 325 385
#     4  10  24  46  65  88 124 170 216 262 313 379
#     4   9  19  37  61  91 119 165 208 252 309 385
#     4  11  22  43  63  94 126 166 207 270 315 378
#     4  11  22  40  61  92 130 164 213 262 314 377
#     4  12  24  39  65  97 130 167 205 264 322 378
#
# _framework density 19.583282000000001
#
# number of rings (size 3 to 8) (size 9 to 14) (size 15 to 20)
#    0.000    1.467    2.667    3.600    1.867    1.867 
#    7.200    0.667    0.000    0.000    0.000    0.000 
#    0.000    0.000    0.000    0.000    0.000    0.000 
#
# Total GULP energy -167065.567661 kJ/mol
# GULP energy per Si atom -5568.852255 kJ/mol
# Density = 1.953871 g / cm^3
# Si number density = 19.583282 Si / 1000 Ang^3
#
#
#
# Elastic Constant Matrix: (Units=GPa)
#
#
# Indices 1 2 3 4 5 6 
#
# 1 21.1093 35.7713 15.6321 0.0000 -4.0841 0.0000
# 2 35.7713 140.8649 44.9122 0.0000 0.9960 -0.0001
# 3 15.6321 44.9122 100.0159 0.0000 -4.6999 0.0000
# 4 0.0000 0.0000 0.0000 35.5897 0.0000 6.4156
# 5 -4.0841 0.9960 -4.6999 0.0000 15.2066 0.0000
# 6 0.0000 -0.0001 0.0000 6.4156 0.0000 -11.1610
#
#
#
# Elastic Compliance Matrix: (Units=1/GPa)
#
#
# Indices 1 2 3 4 5 6 
#
# 1 0.093501 -0.022933 -0.003110 0.000000 0.025653 0.000000
# 2 -0.022933 0.013955 -0.003059 0.000000 -0.008019 0.000000
# 3 -0.003110 -0.003059 0.012003 0.000000 0.003075 0.000000
# 4 0.000000 0.000000 0.000000 0.025460 0.000000 0.014635
# 5 0.025653 -0.008019 0.003075 0.000000 0.074126 0.000000
# 6 0.000000 0.000000 0.000000 0.014635 0.000000 -0.081185
#
#
# Mechanical properties :
#
#
# Convention : Reuss Voigt Hill
#
# Bulk Modulus (GPa) = 16.32559 50.51346 33.41953
# Shear Modulus (GPa) = 23.09676 18.97204 21.03440
#
# Velocity S-wave (km/s) = 3.43798 3.11591 3.28090
# Velocity P-wave (km/s) = 4.91062 6.22859 5.60846
#
# Compressibility (1/GPa) = 0.06125353
#
# Stress axis : x y z
#
# Youngs Moduli (GPa) = 10.69509 71.66078 83.31590
#
# Poissons Ratio (x) = 1.64343 0.25912
# Poissons Ratio (y) = 0.24527 0.25484
# Poissons Ratio (z) = 0.03326 0.21919
#
# Static dielectric constant tensor:
#      x y z
#    x 1.704600 0.000000 -0.001460 
#    y 0.000000 1.677280 0.000000 
#    z -0.001460 0.000000 1.687940 
# 
# From -- ./inp_files/238508.got.cif
#   From: 2010.05.17/outbox.cif.g08.bks.cpg/sg12_120_cif.got.tgz:238508.got - 2010.06.03 13:09:07.
