data_PCOD9218686
_publ_section_title
;
Structure prediction by ZEFSAII (Michael W. Deem and Ramdas Pophale) SiO2 
 PCOD9218686
Probable space group: C 2/M
;
_chemical_formula_sum "Si O2"
_cell_formula_units_Z 26
_cell_length_a 15.147798
_cell_length_b 18.114977
_cell_length_c 4.957550
_cell_angle_alpha 90.000000
_cell_angle_beta 134.610352
_cell_angle_gamma 90.000000
_cell_volume 968.440365
_symmetry_space_group_name_H-M "C 2/M"
_symmetry_group_IT_number 12
_symmetry_cell_setting 'monoclinic'
loop_
_space_group_symop_operation_xyz
x,y,z
-x,y,-z
-x,-y,-z
x,-y,z
1/2+x,1/2+y,z
1/2-x,1/2+y,-z
1/2-x,1/2-y,-z
1/2+x,1/2-y,z
loop_
_atom_site_type_symbol
_atom_site_label
_atom_site_fract_x
_atom_site_fract_y
_atom_site_fract_z
Si Si1 0.835853 0.082385 0.801969
Si Si2 0.884325 0.243047 0.934689
Si Si3 0.000000 0.500000 0.500000
Si Si4 0.180048 0.384683 0.958158
O O1 0.906107 0.156745 0.044990
O O2 0.717632 0.085364 0.746903
O O3 0.889909 0.000000 0.943884
O O4 0.793333 0.098366 0.405171
O O5 0.750000 0.250000 0.500000
O O6 0.861931 0.300121 0.128542
O O7 0.000000 0.267062 0.000000
O O8 0.070404 0.435518 0.823445
#
# Coordination Sequence:
#
# PCOD9218686 Si02
#       4
#     8   8   2   8
#     4  11  22  46  67 101 141 187 237 289 355 426
#     4  10  25  46  72 103 146 191 239 295 359 429
#     4  12  24  38  76 102 148 182 240 306 362 414
#     4  11  25  41  68 105 143 184 236 299 358 420
#
# _framework density 26.847291999999999
#
# number of rings (size 3 to 8) (size 9 to 14) (size 15 to 20)
#    0.000    1.231    3.077    0.923    8.615    1.846 
#    0.000    0.000    0.000    9.231    0.000    0.000 
#    0.000    0.000    0.000    0.000    0.000    0.000 
#
# Total GULP energy -72447.448971 kJ/mol
# GULP energy per Si atom -5572.880690 kJ/mol
# Density = 2.678619 g / cm^3
# Si number density = 26.847292 Si / 1000 Ang^3
#
#
#
# Elastic Constant Matrix: (Units=GPa)
#
#
# Indices 1 2 3 4 5 6 
#
# 1 134.6155 27.5401 25.1305 0.0000 10.6352 0.0000
# 2 27.5401 265.9931 8.1550 0.0000 5.9545 0.0000
# 3 25.1305 8.1550 84.5197 0.0000 0.0959 0.0000
# 4 0.0000 0.0000 0.0000 15.6955 0.0000 -19.6913
# 5 10.6352 5.9545 0.0959 0.0000 28.5128 0.0000
# 6 0.0000 0.0000 0.0000 -19.6913 0.0000 6.0909
#
#
#
# Elastic Compliance Matrix: (Units=1/GPa)
#
#
# Indices 1 2 3 4 5 6 
#
# 1 0.008250 -0.000716 -0.002381 0.000000 -0.002920 0.000000
# 2 -0.000716 0.003850 -0.000158 0.000000 -0.000537 0.000000
# 3 -0.002381 -0.000158 0.012554 0.000000 0.000879 0.000000
# 4 0.000000 0.000000 0.000000 -0.020849 0.000000 -0.067402
# 5 -0.002920 -0.000537 0.000879 0.000000 0.036270 0.000000
# 6 0.000000 0.000000 0.000000 -0.067402 0.000000 -0.053725
#
#
# Mechanical properties :
#
#
# Convention : Reuss Voigt Hill
#
# Bulk Modulus (GPa) = 55.11119 67.41994 61.26556
# Shear Modulus (GPa) = -4581.70106 38.34668 -2271.67719
#
# Velocity S-wave (km/s) = -41.35557 3.78342 -29.12017
# Velocity P-wave (km/s) = 47.53741 6.65226 33.28328
#
# Compressibility (1/GPa) = 0.01814514
#
# Stress axis : x y z
#
# Youngs Moduli (GPa) = 121.21039 259.70856 79.65801
#
# Poissons Ratio (x) = 0.18591 0.18964
# Poissons Ratio (y) = 0.08677 0.01259
# Poissons Ratio (z) = 0.28856 0.04105
#
# Static dielectric constant tensor:
#      x y z
#    x 2.320440 0.000000 0.112960 
#    y 0.000000 2.093520 0.000000 
#    z 0.112960 0.000000 2.216290 
# 
# From -- ./inp_files/16000.got.cif
#   From: 2010.05.17/outbox.cif.g08.bks.cpg/sg12_8_cif.got.tgz:16000.got - 2010.06.03 13:09:07.
