data_PCOD9218781
_publ_section_title
;
Structure prediction by ZEFSAII (Michael W. Deem and Ramdas Pophale) SiO2 
 PCOD9218781
Probable space group: C 2/M
;
_chemical_formula_sum "Si O2"
_cell_formula_units_Z 40
_cell_length_a 18.903109
_cell_length_b 22.797069
_cell_length_c 12.399365
_cell_angle_alpha 90.000000
_cell_angle_beta 160.382127
_cell_angle_gamma 90.000000
_cell_volume 1793.997344
_symmetry_space_group_name_H-M "C 2/M"
_symmetry_group_IT_number 12
_symmetry_cell_setting 'monoclinic'
loop_
_space_group_symop_operation_xyz
x,y,z
-x,y,-z
-x,-y,-z
x,-y,z
1/2+x,1/2+y,z
1/2-x,1/2+y,-z
1/2-x,1/2-y,-z
1/2+x,1/2-y,z
loop_
_atom_site_type_symbol
_atom_site_label
_atom_site_fract_x
_atom_site_fract_y
_atom_site_fract_z
Si Si1 0.864033 0.500000 0.118893
Si Si2 0.000000 0.253386 0.000000
Si Si3 0.843602 0.000000 0.871670
Si Si4 0.337320 0.127376 0.166779
Si Si5 0.618488 0.174584 0.375298
Si Si6 0.055180 0.897444 0.301914
Si Si7 0.781642 0.500000 0.749341
O O1 0.791945 0.559638 0.070319
O O2 0.111533 0.500000 0.494726
O O3 0.808423 0.500000 0.914712
O O4 0.790148 0.214662 0.683718
O O5 0.002305 0.291878 0.894514
O O6 0.000000 0.000000 0.000000
O O7 0.900645 0.939972 0.013068
O O8 0.500000 0.132642 0.500000
O O9 0.453315 0.151902 0.226855
O O10 0.104312 0.148874 0.870545
O O11 0.767846 0.128426 0.524390
O O12 0.167316 0.940702 0.547149
O O13 0.000000 0.500000 0.000000
#
# Coordination Sequence:
#
# PCOD9218781 Si02
#       7
#     4   4   4   8   8   8   4
#     4  12  23  38  62 100 151 180 223 273 317 406
#     4  10  26  50  76  98 134 176 232 316 358 416
#     4  11  20  37  64 105 140 190 228 267 319 414
#     4  12  24  42  71 105 143 185 229 282 338 419
#     4  11  25  50  73 101 135 177 235 294 363 410
#     4  11  25  42  70 104 142 185 231 272 348 417
#     4  11  24  42  62 106 152 190 224 275 335 410
#
# _framework density 22.296576999999999
#
# number of rings (size 3 to 8) (size 9 to 14) (size 15 to 20)
#    0.000    0.800    2.000    6.300    5.600    1.600 
#    0.000   11.000    0.000    0.000    0.000    0.000 
#    0.000    0.000    0.000    0.000    0.000    0.000 
#
# Total GULP energy -111809.568212 kJ/mol
# GULP energy per Si atom -5590.478411 kJ/mol
# Density = 2.224583 g / cm^3
# Si number density = 22.296577 Si / 1000 Ang^3
#
#
#
# Elastic Constant Matrix: (Units=GPa)
#
#
# Indices 1 2 3 4 5 6 
#
# 1 209.8904 54.7191 80.0236 0.0001 15.7759 0.0000
# 2 54.7191 63.3496 28.7861 0.0000 -6.1573 0.0000
# 3 80.0236 28.7861 124.6247 -0.0002 -2.2689 -0.0001
# 4 0.0001 0.0000 -0.0002 -42.7571 0.0000 -19.1043
# 5 15.7759 -6.1573 -2.2689 0.0000 56.4268 0.0000
# 6 0.0000 0.0000 -0.0001 -19.1043 0.0000 16.9134
#
#
#
# Elastic Compliance Matrix: (Units=1/GPa)
#
#
# Indices 1 2 3 4 5 6 
#
# 1 0.007839 -0.005300 -0.003862 0.000000 -0.002925 0.000000
# 2 -0.005300 0.021397 -0.001471 0.000000 0.003757 0.000000
# 3 -0.003862 -0.001471 0.010869 0.000000 0.001356 0.000000
# 4 0.000000 0.000000 0.000000 -0.015543 0.000000 -0.017557
# 5 -0.002925 0.003757 0.001356 0.000000 0.019004 0.000000
# 6 0.000000 0.000000 0.000000 -0.017557 0.000000 0.039294
#
#
# Mechanical properties :
#
#
# Convention : Reuss Voigt Hill
#
# Bulk Modulus (GPa) = 53.08420 80.54692 66.81556
# Shear Modulus (GPa) = 45.28831 21.73901 33.51366
#
# Velocity S-wave (km/s) = 4.51175 3.12588 3.88117
# Velocity P-wave (km/s) = 7.14150 7.01654 7.07930
#
# Compressibility (1/GPa) = 0.01883800
#
# Stress axis : x y z
#
# Youngs Moduli (GPa) = 127.57510 46.73599 92.00856
#
# Poissons Ratio (x) = 0.24770 0.35537
# Poissons Ratio (y) = 0.67614 0.13532
# Poissons Ratio (z) = 0.49274 0.06873
#
# Static dielectric constant tensor:
#      x y z
#    x 1.892480 0.000000 0.072000 
#    y 0.000000 2.088750 0.000000 
#    z 0.072000 0.000000 1.824500 
# 
# From -- ./inp_files/161143.got.cif
#   From: 2010.05.17/outbox.cif.g08.bks.cpg/sg12_81_cif.got.tgz:161143.got - 2010.06.03 13:09:07.
