data_PCOD9218537
_publ_section_title
;
Structure prediction by ZEFSAII (Michael W. Deem and Ramdas Pophale) SiO2 
 PCOD9218537
Probable space group: C 2/M
;
_chemical_formula_sum "Si O2"
_cell_formula_units_Z 28
_cell_length_a 11.748064
_cell_length_b 21.310719
_cell_length_c 5.331592
_cell_angle_alpha 90.000000
_cell_angle_beta 120.032033
_cell_angle_gamma 90.000000
_cell_volume 1155.611010
_symmetry_space_group_name_H-M "C 2/M"
_symmetry_group_IT_number 12
_symmetry_cell_setting 'monoclinic'
loop_
_space_group_symop_operation_xyz
x,y,z
-x,y,-z
-x,-y,-z
x,-y,z
1/2+x,1/2+y,z
1/2-x,1/2+y,-z
1/2-x,1/2-y,-z
1/2+x,1/2-y,z
loop_
_atom_site_type_symbol
_atom_site_label
_atom_site_fract_x
_atom_site_fract_y
_atom_site_fract_z
Si Si1 0.356552 0.500000 0.708993
Si Si2 0.000000 0.698090 0.000000
Si Si3 0.717079 0.107628 0.231501
Si Si4 0.577423 0.678966 0.842092
Si Si5 0.617286 0.000000 0.818722
O O1 0.316173 0.562078 0.498078
O O2 0.253413 0.500000 0.819687
O O3 0.500000 0.500000 0.000000
O O4 0.119269 0.657890 0.254582
O O5 0.924532 0.746856 0.100340
O O6 0.790771 0.143519 0.085626
O O7 0.619202 0.060187 0.991434
O O8 0.500000 0.671010 0.500000
O O9 0.500000 0.652796 0.000000
O O10 0.500000 0.000000 0.500000
#
# Coordination Sequence:
#
# PCOD9218537 Si02
#       5
#     4   4   8   8   4
#     4  11  28  45  79 113 153 207 261 324 400 457
#     4  10  24  47  74 113 154 210 252 328 382 480
#     4  11  25  47  75 110 159 198 262 323 388 470
#     4  10  26  45  76 115 154 205 260 314 395 462
#     4  11  26  45  74 111 146 205 260 324 398 456
#
# _framework density 24.229604999999999
#
# number of rings (size 3 to 8) (size 9 to 14) (size 15 to 20)
#    0.857    0.571    0.000    2.571    8.000    8.000 
#    0.000    2.143    0.000    0.000    0.000    0.000 
#    0.000    0.000    0.000    0.000    0.000    0.000 
#
# Total GULP energy -78089.630665 kJ/mol
# GULP energy per Si atom -5577.830762 kJ/mol
# Density = 2.417446 g / cm^3
# Si number density = 24.229605 Si / 1000 Ang^3
#
#
#
# Elastic Constant Matrix: (Units=GPa)
#
#
# Indices 1 2 3 4 5 6 
#
# 1 175.4940 89.6170 52.5432 0.0000 6.2370 0.0000
# 2 89.6170 165.2224 62.4069 0.0000 14.0515 0.0000
# 3 52.5432 62.4069 149.9539 0.0000 20.6885 0.0000
# 4 0.0000 0.0000 0.0000 29.8565 0.0000 0.5528
# 5 6.2370 14.0515 20.6885 0.0000 44.1171 0.0000
# 6 0.0000 0.0000 0.0000 0.5528 0.0000 49.0592
#
#
#
# Elastic Compliance Matrix: (Units=1/GPa)
#
#
# Indices 1 2 3 4 5 6 
#
# 1 0.008078 -0.003958 -0.001282 0.000000 0.000720 0.000000
# 2 -0.003958 0.009158 -0.002244 0.000000 -0.001305 0.000000
# 3 -0.001282 -0.002244 0.008477 0.000000 -0.003079 0.000000
# 4 0.000000 0.000000 0.000000 0.033501 0.000000 -0.000377
# 5 0.000720 -0.001305 -0.003079 0.000000 0.024425 0.000000
# 6 0.000000 0.000000 0.000000 -0.000377 0.000000 0.020388
#
#
# Mechanical properties :
#
#
# Convention : Reuss Voigt Hill
#
# Bulk Modulus (GPa) = 93.08680 99.97830 96.53255
# Shear Modulus (GPa) = 40.79060 43.68010 42.23535
#
# Velocity S-wave (km/s) = 4.10750 4.25050 4.17961
# Velocity P-wave (km/s) = 7.81009 8.08959 7.95106
#
# Compressibility (1/GPa) = 0.01074266
#
# Stress axis : x y z
#
# Youngs Moduli (GPa) = 123.79424 109.19227 117.96690
#
# Poissons Ratio (x) = 0.43222 0.15129
# Poissons Ratio (y) = 0.49002 0.26476
# Poissons Ratio (z) = 0.15876 0.24507
#
# Static dielectric constant tensor:
#      x y z
#    x 2.041770 0.000000 0.057310 
#    y 0.000000 2.024190 0.000000 
#    z 0.057310 0.000000 1.900510 
# 
# From -- ./inp_files/10954.got.cif
#   From: 2010.05.17/outbox.cif.g08.bks.cpg/sg12_6_cif.got.tgz:10954.got - 2010.06.03 13:09:07.
