data_PCOD9218324
_publ_section_title
;
Structure prediction by ZEFSAII (Michael W. Deem and Ramdas Pophale) SiO2 
 PCOD9218324
Probable space group: C 2/M
;
_chemical_formula_sum "Si O2"
_cell_formula_units_Z 64
_cell_length_a 16.323801
_cell_length_b 26.875682
_cell_length_c 9.514155
_cell_angle_alpha 90.000000
_cell_angle_beta 42.910480
_cell_angle_gamma 90.000000
_cell_volume 2841.878731
_symmetry_space_group_name_H-M "C 2/M"
_symmetry_group_IT_number 12
_symmetry_cell_setting 'monoclinic'
loop_
_space_group_symop_operation_xyz
x,y,z
-x,y,-z
-x,-y,-z
x,-y,z
1/2+x,1/2+y,z
1/2-x,1/2+y,-z
1/2-x,1/2-y,-z
1/2+x,1/2-y,z
loop_
_atom_site_type_symbol
_atom_site_label
_atom_site_fract_x
_atom_site_fract_y
_atom_site_fract_z
Si Si1 0.024275 0.551629 0.804028
Si Si2 0.620451 0.818476 0.931529
Si Si3 0.822355 0.602292 0.903787
Si Si4 0.709227 0.859900 0.550410
Si Si5 0.366670 0.823473 0.628879
Si Si6 0.902040 0.058110 0.247058
Si Si7 0.588759 0.703447 0.023197
Si Si8 0.044414 0.885862 0.286581
O O1 0.082391 0.500000 0.686324
O O2 0.111512 0.597047 0.679423
O O3 0.903923 0.559492 0.866047
O O4 0.000000 0.549321 0.000000
O O5 0.722019 0.832317 0.685043
O O6 0.592921 0.763232 0.019891
O O7 0.500000 0.833148 0.000000
O O8 0.646909 0.851429 0.032643
O O9 0.863308 0.620526 0.698621
O O10 0.681123 0.595072 0.097130
O O11 0.653391 0.820910 0.512159
O O12 0.816203 0.892753 0.347241
O O13 0.500000 0.803000 0.500000
O O14 0.234267 0.805347 0.843350
O O15 0.964625 0.071208 0.315862
O O16 0.859075 0.000000 0.299220
O O17 0.000000 0.061999 0.000000
O O18 0.500000 0.692674 0.000000
O O19 0.540293 0.666569 0.205460
O O20 0.000000 0.877869 0.500000
#
# Coordination Sequence:
#
# PCOD9218324 Si02
#       8
#     8   8   8   8   8   8   8   8
#     4  11  22  38  66  97 124 168 221 276 332 406
#     4  11  21  42  69  94 133 176 225 283 335 405
#     4  11  21  42  60  91 133 175 207 278 347 402
#     4  12  21  42  69  97 129 173 228 277 335 403
#     4  11  22  38  64  94 139 174 213 283 352 399
#     4  11  25  46  70  97 136 188 234 281 341 413
#     4  10  24  44  68  99 132 184 239 277 338 418
#     4  11  24  42  68  98 138 179 224 289 341 405
#
# _framework density 22.520313999999999
#
# number of rings (size 3 to 8) (size 9 to 14) (size 15 to 20)
#    0.000    1.000    3.750    3.750    0.000    3.250 
#    0.000   10.625    0.000    0.000    0.000    0.000 
#    0.000    0.000    0.000    0.000    0.000    0.000 
#
# Total GULP energy -178218.636566 kJ/mol
# GULP energy per Si atom -5569.332393 kJ/mol
# Density = 2.246906 g / cm^3
# Si number density = 22.520314 Si / 1000 Ang^3
#
#
#
# Elastic Constant Matrix: (Units=GPa)
#
#
# Indices 1 2 3 4 5 6 
#
# 1 75.3324 5.4877 19.0072 0.0000 -17.5059 0.0000
# 2 5.4877 77.7212 20.4560 0.0000 5.6534 0.0000
# 3 19.0072 20.4560 90.3845 0.0000 4.3966 0.0000
# 4 0.0000 0.0000 0.0000 12.2683 0.0000 -3.8727
# 5 -17.5059 5.6534 4.3966 0.0000 36.3641 0.0000
# 6 0.0000 0.0000 0.0000 -3.8727 0.0000 -311.2358
#
#
#
# Elastic Compliance Matrix: (Units=1/GPa)
#
#
# Indices 1 2 3 4 5 6 
#
# 1 0.016191 -0.000795 -0.003631 0.000000 0.008357 0.000000
# 2 -0.000795 0.013834 -0.002857 0.000000 -0.002188 0.000000
# 3 -0.003631 -0.002857 0.012612 0.000000 -0.002829 0.000000
# 4 0.000000 0.000000 0.000000 0.081192 0.000000 -0.001010
# 5 0.008357 -0.002188 -0.002829 0.000000 0.032205 0.000000
# 6 0.000000 0.000000 0.000000 -0.001010 0.000000 -0.003200
#
#
# Mechanical properties :
#
#
# Convention : Reuss Voigt Hill
#
# Bulk Modulus (GPa) = 35.62703 37.03776 36.33239
# Shear Modulus (GPa) = 28.28753 -39.28818 -5.50033
#
# Velocity S-wave (km/s) = 3.54798 -4.18133 -1.56451
# Velocity P-wave (km/s) = 5.71301 2.61329 3.59230
#
# Compressibility (1/GPa) = 0.02806858
#
# Stress axis : x y z
#
# Youngs Moduli (GPa) = 61.76400 72.28661 79.29132
#
# Poissons Ratio (x) = 0.05749 0.28793
# Poissons Ratio (y) = 0.04912 0.22655
# Poissons Ratio (z) = 0.22428 0.20654
#
# Static dielectric constant tensor:
#      x y z
#    x 1.846350 0.000000 -0.042850 
#    y 0.000000 1.808060 0.000000 
#    z -0.042850 0.000000 1.930060 
# 
# From -- ./inp_files/68602.got.cif
#   From: 2010.05.17/outbox.cif.g08.bks.cpg/sg12_35_cif.got.tgz:68602.got - 2010.06.03 13:09:07.
