data_PCOD9218416
_publ_section_title
;
Structure prediction by ZEFSAII (Michael W. Deem and Ramdas Pophale) SiO2 
 PCOD9218416
Probable space group: C 2/M
;
_chemical_formula_sum "Si O2"
_cell_formula_units_Z 24
_cell_length_a 16.815393
_cell_length_b 9.268564
_cell_length_c 16.397544
_cell_angle_alpha 90.000000
_cell_angle_beta 23.683578
_cell_angle_gamma 90.000000
_cell_volume 1026.559756
_symmetry_space_group_name_H-M "C 2/M"
_symmetry_group_IT_number 12
_symmetry_cell_setting 'monoclinic'
loop_
_space_group_symop_operation_xyz
x,y,z
-x,y,-z
-x,-y,-z
x,-y,z
1/2+x,1/2+y,z
1/2-x,1/2+y,-z
1/2-x,1/2-y,-z
1/2+x,1/2-y,z
loop_
_atom_site_type_symbol
_atom_site_label
_atom_site_fract_x
_atom_site_fract_y
_atom_site_fract_z
Si Si1 0.310959 0.247872 0.069879
Si Si2 0.005644 0.500000 0.182407
Si Si3 0.762429 0.000000 0.729172
Si Si4 0.909342 0.000000 0.174573
Si Si5 0.994079 0.500000 0.371046
O O1 0.129304 0.357718 0.247917
O O2 0.297233 0.142267 0.162120
O O3 0.343601 0.133395 0.967712
O O4 0.499539 0.351972 0.878777
O O5 0.850788 0.500000 0.251843
O O6 0.900494 0.500000 0.368058
O O7 0.000000 0.000000 0.500000
O O8 0.676449 0.000000 0.402298
O O9 0.000000 0.000000 0.000000
#
# Coordination Sequence:
#
# PCOD9218416 Si02
#       5
#     8   4   4   4   4
#     4  10  24  45  70 103 138 182 237 283 345 424
#     4  11  23  48  70 105 147 175 235 299 338 410
#     4  11  25  45  76  98 132 192 239 279 344 417
#     4  11  24  42  68 100 147 184 234 281 342 423
#     4  11  26  44  74 106 142 186 223 292 364 400
#
# _framework density 23.379057
#
# number of rings (size 3 to 8) (size 9 to 14) (size 15 to 20)
#    0.000    1.333    0.000    5.000    9.333    2.667 
#   12.000    0.000    0.000    0.000    0.000    0.000 
#    0.000    0.000    0.000    0.000    0.000    0.000 
#
# Total GULP energy -67021.632391 kJ/mol
# GULP energy per Si atom -5585.136033 kJ/mol
# Density = 2.332585 g / cm^3
# Si number density = 23.379057 Si / 1000 Ang^3
#
#
#
# Elastic Constant Matrix: (Units=GPa)
#
#
# Indices 1 2 3 4 5 6 
#
# 1 93.7994 35.3765 26.1141 -0.0003 0.4393 0.0002
# 2 35.3765 192.9036 44.9576 -0.0004 -10.7849 0.0005
# 3 26.1141 44.9576 175.1731 -0.0004 -14.3075 0.0004
# 4 -0.0003 -0.0004 -0.0004 9.7596 0.0006 0.6315
# 5 0.4393 -10.7849 -14.3075 0.0006 27.8889 -0.0004
# 6 0.0002 0.0005 0.0004 0.6315 -0.0004 16.5380
#
#
#
# Elastic Compliance Matrix: (Units=1/GPa)
#
#
# Indices 1 2 3 4 5 6 
#
# 1 0.011785 -0.001928 -0.001397 0.000000 -0.001648 0.000000
# 2 -0.001928 0.005887 -0.001080 0.000000 0.001753 0.000000
# 3 -0.001397 -0.001080 0.006431 0.000000 0.002904 0.000000
# 4 0.000000 0.000000 0.000000 0.102717 -0.000002 -0.003922
# 5 -0.001648 0.001753 0.002904 -0.000002 0.038050 0.000001
# 6 0.000000 0.000000 0.000000 -0.003922 0.000001 0.060617
#
#
# Mechanical properties :
#
#
# Convention : Reuss Voigt Hill
#
# Bulk Modulus (GPa) = 65.38702 74.97474 70.18088
# Shear Modulus (GPa) = 20.88608 34.53249 27.70929
#
# Velocity S-wave (km/s) = 2.99217 3.84744 3.44643
# Velocity P-wave (km/s) = 6.32189 7.20249 6.77651
#
# Compressibility (1/GPa) = 0.01529356
#
# Stress axis : x y z
#
# Youngs Moduli (GPa) = 84.85601 169.85810 155.49018
#
# Poissons Ratio (x) = 0.32745 0.21716
# Poissons Ratio (y) = 0.16359 0.16799
# Poissons Ratio (z) = 0.11851 0.18351
#
# Static dielectric constant tensor:
#      x y z
#    x 2.032300 0.000000 -0.041510 
#    y 0.000000 1.759580 0.000000 
#    z -0.041510 0.000000 1.827790 
# 
# From -- ./inp_files/318928.got.cif
#   From: 2010.05.17/outbox.cif.g08.bks.cpg/sg12_160_cif.got.tgz:318928.got - 2010.06.03 13:09:07.
