data_PCOD9218917
_publ_section_title
;
Structure prediction by ZEFSAII (Michael W. Deem and Ramdas Pophale) SiO2 
 PCOD9218917
Probable space group: C 2/M
;
_chemical_formula_sum "Si O2"
_cell_formula_units_Z 40
_cell_length_a 15.938156
_cell_length_b 11.328483
_cell_length_c 25.875932
_cell_angle_alpha 90.000000
_cell_angle_beta 158.214992
_cell_angle_gamma 90.000000
_cell_volume 1733.907386
_symmetry_space_group_name_H-M "C 2/M"
_symmetry_group_IT_number 12
_symmetry_cell_setting 'monoclinic'
loop_
_space_group_symop_operation_xyz
x,y,z
-x,y,-z
-x,-y,-z
x,-y,z
1/2+x,1/2+y,z
1/2-x,1/2+y,-z
1/2-x,1/2-y,-z
1/2+x,1/2-y,z
loop_
_atom_site_type_symbol
_atom_site_label
_atom_site_fract_x
_atom_site_fract_y
_atom_site_fract_z
Si Si1 0.904376 0.231570 0.803431
Si Si2 0.042082 0.000000 0.098809
Si Si3 0.214242 0.640185 0.054931
Si Si4 0.897839 0.500000 0.206621
Si Si5 0.497115 0.243658 0.294793
Si Si6 0.536463 0.856801 0.433890
O O1 0.913646 0.116751 0.844871
O O2 0.645726 0.218492 0.637243
O O3 0.084975 0.203954 0.862511
O O4 0.994322 0.332859 0.893628
O O5 0.210207 0.000000 0.145912
O O6 0.772549 0.000000 0.937803
O O7 0.242576 0.500000 0.075713
O O8 0.262876 0.701135 0.138719
O O9 0.036197 0.618759 0.288847
O O10 0.502112 0.203053 0.357397
O O11 0.703347 0.332047 0.403625
O O12 0.504656 0.000000 0.416538
#
# Coordination Sequence:
#
# PCOD9218917 Si02
#       6
#     8   4   8   4   8   8
#     4  11  21  40  65  86 116 156 200 245 290 352
#     4  11  18  36  70  87 109 154 210 253 275 348
#     4  11  24  39  59  90 122 153 194 245 303 349
#     4  11  20  36  66  91 113 154 208 247 291 340
#     4  11  22  37  60  91 119 151 194 247 297 347
#     4  11  22  40  64  87 114 157 206 244 291 349
#
# _framework density 23.069282999999999
#
# number of rings (size 3 to 8) (size 9 to 14) (size 15 to 20)
#    0.000    1.000    7.000    0.600    0.000    1.600 
#    1.800    3.000    0.000    1.200    0.000    0.000 
#    0.000    0.000    0.000    0.000    0.000    0.000 
#
# Total GULP energy -111512.497999 kJ/mol
# GULP energy per Si atom -5575.624900 kJ/mol
# Density = 2.301678 g / cm^3
# Si number density = 23.069283 Si / 1000 Ang^3
#
#
#
# Elastic Constant Matrix: (Units=GPa)
#
#
# Indices 1 2 3 4 5 6 
#
# 1 33.1501 21.8504 21.4503 0.0048 0.3943 -0.0007
# 2 21.8504 106.3100 11.2422 0.0121 -15.5846 -0.0025
# 3 21.4503 11.2422 98.1197 0.0450 -4.2626 -0.0098
# 4 0.0048 0.0121 0.0450 48.3046 -0.0084 2.9338
# 5 0.3943 -15.5846 -4.2626 -0.0084 28.5600 -0.0004
# 6 -0.0007 -0.0025 -0.0098 2.9338 -0.0004 12.2165
#
#
#
# Elastic Compliance Matrix: (Units=1/GPa)
#
#
# Indices 1 2 3 4 5 6 
#
# 1 0.041264 -0.008551 -0.008323 0.000005 -0.006478 -0.000008
# 2 -0.008551 0.012082 0.000782 -0.000002 0.006828 0.000003
# 3 -0.008323 0.000782 0.012023 -0.000011 0.002336 0.000012
# 4 0.000005 -0.000002 -0.000011 0.021008 0.000003 -0.005045
# 5 -0.006478 0.006828 0.002336 0.000003 0.039178 0.000003
# 6 -0.000008 0.000003 0.000012 -0.005045 0.000003 0.083068
#
#
# Mechanical properties :
#
#
# Convention : Reuss Voigt Hill
#
# Bulk Modulus (GPa) = 30.13333 38.51840 34.32587
# Shear Modulus (GPa) = 19.85158 30.01870 24.93514
#
# Velocity S-wave (km/s) = 2.93664 3.61119 3.29124
# Velocity P-wave (km/s) = 4.95873 5.84129 5.41801
#
# Compressibility (1/GPa) = 0.03318584
#
# Stress axis : x y z
#
# Youngs Moduli (GPa) = 24.23408 82.76646 83.17395
#
# Poissons Ratio (x) = 0.70772 0.69222
# Poissons Ratio (y) = 0.20722 -0.06501
# Poissons Ratio (z) = 0.20169 -0.06469
#
# Static dielectric constant tensor:
#      x y z
#    x 2.033860 0.000000 0.036230 
#    y 0.000000 1.783980 0.000000 
#    z 0.036230 0.000000 2.055540 
# 
# From -- ./inp_files/378992.got.cif
#   From: 2010.05.17/outbox.cif.g08.bks.cpg/sg12_190_cif.got.tgz:378992.got - 2010.06.03 13:09:07.
