data_PCOD9218343
_publ_section_title
;
Structure prediction by ZEFSAII (Michael W. Deem and Ramdas Pophale) SiO2 
 PCOD9218343
Probable space group: C 2/M
;
_chemical_formula_sum "Si O2"
_cell_formula_units_Z 48
_cell_length_a 11.685171
_cell_length_b 18.425240
_cell_length_c 10.828483
_cell_angle_alpha 90.000000
_cell_angle_beta 111.729027
_cell_angle_gamma 90.000000
_cell_volume 2165.737957
_symmetry_space_group_name_H-M "C 2/M"
_symmetry_group_IT_number 12
_symmetry_cell_setting 'monoclinic'
loop_
_space_group_symop_operation_xyz
x,y,z
-x,y,-z
-x,-y,-z
x,-y,z
1/2+x,1/2+y,z
1/2-x,1/2+y,-z
1/2-x,1/2-y,-z
1/2+x,1/2-y,z
loop_
_atom_site_type_symbol
_atom_site_label
_atom_site_fract_x
_atom_site_fract_y
_atom_site_fract_z
Si Si1 0.911625 0.879587 0.636838
Si Si2 0.524975 0.500000 0.811503
Si Si3 0.846439 0.632851 0.795676
Si Si4 0.000000 0.248601 0.500000
Si Si5 0.774314 0.000000 0.405696
Si Si6 0.212048 0.000000 0.112161
Si Si7 0.640578 0.863036 0.906365
Si Si8 0.235536 0.712227 0.725331
O O1 0.954509 0.807361 0.585544
O O2 0.838773 0.935498 0.519725
O O3 0.831935 0.847632 0.717540
O O4 0.026837 0.927762 0.730121
O O5 0.388380 0.500000 0.818675
O O6 0.626466 0.500000 0.956083
O O7 0.791504 0.563732 0.705301
O O8 0.786657 0.707369 0.723723
O O9 0.993618 0.637393 0.834397
O O10 0.828765 0.631050 0.937009
O O11 0.111772 0.295704 0.595877
O O12 0.300719 0.068486 0.139870
O O13 0.700075 0.796897 0.854453
#
# Coordination Sequence:
#
# PCOD9218343 Si02
#       8
#     8   4   8   4   4   4   8   8
#     4  11  25  46  69 104 137 180 229 282 348 419
#     4  10  24  44  71 104 139 174 230 290 336 412
#     4  11  25  47  69 105 138 180 236 287 340 417
#     4  12  26  41  74  99 138 186 222 286 348 413
#     4  11  24  45  71  96 139 176 229 286 336 407
#     4  11  22  45  71 103 137 183 229 285 343 402
#     4  11  25  45  73 100 138 185 232 283 348 407
#     4  12  25  47  69 103 142 179 231 286 350 409
#
# _framework density 22.163345
#
# number of rings (size 3 to 8) (size 9 to 14) (size 15 to 20)
#    0.000    0.833    3.333    3.000    4.667    4.000 
#    6.000    0.833    0.000    0.000    0.000    0.000 
#    0.000    0.000    0.000    0.000    0.000    0.000 
#
# Total GULP energy -133776.036063 kJ/mol
# GULP energy per Si atom -5574.001503 kJ/mol
# Density = 2.211290 g / cm^3
# Si number density = 22.163345 Si / 1000 Ang^3
#
#
#
# Elastic Constant Matrix: (Units=GPa)
#
#
# Indices 1 2 3 4 5 6 
#
# 1 79.9452 11.2347 6.5799 0.0000 -12.5307 0.0000
# 2 11.2347 104.1014 -2.4464 0.0000 6.5348 0.0000
# 3 6.5799 -2.4464 58.0901 0.0000 6.6578 0.0000
# 4 0.0000 0.0000 0.0000 32.7343 0.0000 -11.7119
# 5 -12.5307 6.5348 6.6578 0.0000 31.0438 0.0000
# 6 0.0000 0.0000 0.0000 -11.7119 0.0000 1.5594
#
#
#
# Elastic Compliance Matrix: (Units=1/GPa)
#
#
# Indices 1 2 3 4 5 6 
#
# 1 0.014022 -0.001984 -0.002428 0.000000 0.006598 0.000000
# 2 -0.001984 0.010040 0.001006 0.000000 -0.003130 0.000000
# 3 -0.002428 0.001006 0.018114 0.000000 -0.005077 0.000000
# 4 0.000000 0.000000 0.000000 -0.018107 0.000000 -0.135991
# 5 0.006598 -0.003130 -0.005077 0.000000 0.036624 0.000000
# 6 0.000000 0.000000 0.000000 -0.135991 0.000000 -0.380090
#
#
# Mechanical properties :
#
#
# Convention : Reuss Voigt Hill
#
# Bulk Modulus (GPa) = 28.27771 30.31923 29.29847
# Shear Modulus (GPa) = -16.62250 28.18539 5.78145
#
# Velocity S-wave (km/s) = -2.74158 3.56998 1.61686
# Velocity P-wave (km/s) = 1.66276 5.54099 4.09068
#
# Compressibility (1/GPa) = 0.03536355
#
# Stress axis : x y z
#
# Youngs Moduli (GPa) = 71.31904 99.59820 55.20620
#
# Poissons Ratio (x) = 0.19765 0.13404
# Poissons Ratio (y) = 0.14153 -0.05556
# Poissons Ratio (z) = 0.17317 -0.10024
#
# Static dielectric constant tensor:
#      x y z
#    x 1.848260 0.000000 -0.058470 
#    y 0.000000 1.796090 0.000000 
#    z -0.058470 0.000000 1.807790 
# 
# From -- ./inp_files/131828.got.cif
#   From: 2010.05.17/outbox.cif.g08.bks.cpg/sg12_66_cif.got.tgz:131828.got - 2010.06.03 13:09:07.
