data_PCOD9218649
_publ_section_title
;
Structure prediction by ZEFSAII (Michael W. Deem and Ramdas Pophale) SiO2 
 PCOD9218649
Probable space group: C 2/M
;
_chemical_formula_sum "Si O2"
_cell_formula_units_Z 32
_cell_length_a 11.367804
_cell_length_b 17.581673
_cell_length_c 14.037466
_cell_angle_alpha 90.000000
_cell_angle_beta 150.918074
_cell_angle_gamma 90.000000
_cell_volume 1363.688345
_symmetry_space_group_name_H-M "C 2/M"
_symmetry_group_IT_number 12
_symmetry_cell_setting 'monoclinic'
loop_
_space_group_symop_operation_xyz
x,y,z
-x,y,-z
-x,-y,-z
x,-y,z
1/2+x,1/2+y,z
1/2-x,1/2+y,-z
1/2-x,1/2-y,-z
1/2+x,1/2-y,z
loop_
_atom_site_type_symbol
_atom_site_label
_atom_site_fract_x
_atom_site_fract_y
_atom_site_fract_z
Si Si1 0.879784 0.000000 0.035665
Si Si2 0.353351 0.628676 0.540478
Si Si3 0.944521 0.500000 0.572060
Si Si4 0.787917 0.000000 0.195634
Si Si5 0.500000 0.633825 0.000000
Si Si6 0.581296 0.777102 0.795740
O O1 0.653500 0.000000 0.801542
O O2 0.015892 0.076870 0.101086
O O3 0.820557 0.000000 0.103792
O O4 0.210642 0.574148 0.511954
O O5 0.571928 0.573578 0.662168
O O6 0.467875 0.702005 0.670399
O O7 0.132724 0.665217 0.322903
O O8 0.000000 0.500000 0.500000
O O9 0.500000 0.000000 0.000000
O O10 0.259981 0.682567 0.846528
O O11 0.750000 0.750000 0.000000
#
# Coordination Sequence:
#
# PCOD9218649 Si02
#       6
#     4   8   4   4   4   8
#     4  11  24  44  76 113 142 193 255 315 384 442
#     4  10  25  44  67 107 144 191 257 306 374 465
#     4  11  24  43  75 111 149 187 256 320 380 455
#     4  11  26  49  79 106 157 207 258 321 383 467
#     4  11  24  42  76 107 142 192 248 317 374 462
#     4  11  24  44  69 102 151 193 242 309 389 459
#
# _framework density 23.465772000000001
#
# number of rings (size 3 to 8) (size 9 to 14) (size 15 to 20)
#    0.000    1.250    2.500    1.500   12.250    0.000 
#    0.000   11.250    0.000    0.000    0.000    0.000 
#    0.000    0.000    0.000    0.000    0.000    0.000 
#
# Total GULP energy -89393.735915 kJ/mol
# GULP energy per Si atom -5587.108495 kJ/mol
# Density = 2.341236 g / cm^3
# Si number density = 23.465772 Si / 1000 Ang^3
#
#
#
# Elastic Constant Matrix: (Units=GPa)
#
#
# Indices 1 2 3 4 5 6 
#
# 1 88.8554 46.1182 53.7741 0.0002 4.8691 0.0002
# 2 46.1182 178.6256 72.9186 0.0001 25.6887 0.0001
# 3 53.7741 72.9186 206.1446 0.0001 18.8939 -0.0001
# 4 0.0002 0.0001 0.0001 54.4890 0.0002 16.7430
# 5 4.8691 25.6887 18.8939 0.0002 38.8456 0.0001
# 6 0.0002 0.0001 -0.0001 16.7430 0.0001 5.0842
#
#
#
# Elastic Compliance Matrix: (Units=1/GPa)
#
#
# Indices 1 2 3 4 5 6 
#
# 1 0.014350 -0.002720 -0.002911 -0.000010 0.001416 0.000031
# 2 -0.002720 0.007504 -0.001592 -0.000001 -0.003847 0.000002
# 3 -0.002911 -0.001592 0.006325 0.000006 -0.001659 -0.000018
# 4 -0.000010 -0.000001 0.000006 -1.542311 -0.000010 5.079084
# 5 0.001416 -0.003847 -0.001659 -0.000010 0.028916 0.000032
# 6 0.000031 0.000002 -0.000018 5.079084 0.000032-16.529571
#
#
# Mechanical properties :
#
#
# Convention : Reuss Voigt Hill
#
# Bulk Modulus (GPa) = 72.81787 91.02747 81.92267
# Shear Modulus (GPa) = -0.27784 39.73808 19.73012
#
# Velocity S-wave (km/s) = -0.34447 4.11962 2.90281
# Velocity P-wave (km/s) = 5.56243 7.84246 6.79871
#
# Compressibility (1/GPa) = 0.01373289
#
# Stress axis : x y z
#
# Youngs Moduli (GPa) = 69.68551 133.26561 158.09069
#
# Poissons Ratio (x) = 0.36253 0.46018
# Poissons Ratio (y) = 0.18957 0.25169
# Poissons Ratio (z) = 0.20284 0.21217
#
# Static dielectric constant tensor:
#      x y z
#    x 1.944590 0.000000 0.062050 
#    y 0.000000 1.923050 0.000000 
#    z 0.062050 0.000000 1.992180 
# 
# From -- ./inp_files/206844.got.cif
#   From: 2010.05.17/outbox.cif.g08.bks.cpg/sg12_104_cif.got.tgz:206844.got - 2010.06.03 13:09:07.
