data_PCOD9218884
_publ_section_title
;
Structure prediction by ZEFSAII (Michael W. Deem and Ramdas Pophale) SiO2 
 PCOD9218884
Probable space group: C 2/M
;
_chemical_formula_sum "Si O2"
_cell_formula_units_Z 48
_cell_length_a 23.260560
_cell_length_b 19.459771
_cell_length_c 9.191317
_cell_angle_alpha 90.000000
_cell_angle_beta 151.912234
_cell_angle_gamma 90.000000
_cell_volume 1958.816628
_symmetry_space_group_name_H-M "C 2/M"
_symmetry_group_IT_number 12
_symmetry_cell_setting 'monoclinic'
loop_
_space_group_symop_operation_xyz
x,y,z
-x,y,-z
-x,-y,-z
x,-y,z
1/2+x,1/2+y,z
1/2-x,1/2+y,-z
1/2-x,1/2-y,-z
1/2+x,1/2-y,z
loop_
_atom_site_type_symbol
_atom_site_label
_atom_site_fract_x
_atom_site_fract_y
_atom_site_fract_z
Si Si1 0.811439 0.177576 0.087409
Si Si2 0.313854 0.921862 0.422736
Si Si3 0.818684 0.840424 0.614250
Si Si4 0.038501 0.599991 0.753388
Si Si5 0.672830 0.423650 0.622626
Si Si6 0.392612 0.245119 0.007711
O O1 0.730010 0.122124 0.815902
O O2 0.898035 0.204648 0.155400
O O3 0.750000 0.250000 0.000000
O O4 0.856155 0.133496 0.322395
O O5 0.271889 0.877594 0.469531
O O6 0.456624 0.929251 0.700862
O O7 0.263746 0.000000 0.318438
O O8 0.874849 0.898524 0.638574
O O9 0.738394 0.790324 0.328782
O O10 0.909936 0.792843 0.908218
O O11 0.000000 0.586304 0.500000
O O12 0.179517 0.577666 0.070218
O O13 0.028989 0.680798 0.769393
O O14 0.634105 0.500000 0.577827
#
# Coordination Sequence:
#
# PCOD9218884 Si02
#       6
#     8   8   8   8   8   8
#     4  11  18  34  52  73 103 150 189 225 255 310
#     4  11  22  33  52  80 116 151 175 213 272 335
#     4   9  19  35  52  70 107 148 189 225 258 309
#     4  11  20  33  51  77 117 150 177 213 263 334
#     4  11  21  32  53  80 110 144 179 225 274 322
#     4   9  19  34  52  72  98 155 186 228 256 300
#
# _framework density 24.50459
#
# number of rings (size 3 to 8) (size 9 to 14) (size 15 to 20)
#    0.000    1.667    5.000    1.500    0.000    3.333 
#    0.000    4.167    0.000    0.000    0.000    0.000 
#    0.000  105.333    0.333    0.000    0.000    0.000 
#
# Total GULP energy -133944.968424 kJ/mol
# GULP energy per Si atom -5581.040351 kJ/mol
# Density = 2.444882 g / cm^3
# Si number density = 24.504590 Si / 1000 Ang^3
#
#
#
# Elastic Constant Matrix: (Units=GPa)
#
#
# Indices 1 2 3 4 5 6 
#
# 1 123.5408 65.5843 33.2381 0.0000 -30.2367 0.0000
# 2 65.5843 189.5718 19.2944 0.0000 -11.1776 0.0000
# 3 33.2381 19.2944 62.1803 0.0000 -18.5403 0.0000
# 4 0.0000 0.0000 0.0000 -5.6959 0.0000 10.5696
# 5 -30.2367 -11.1776 -18.5403 0.0000 34.2985 0.0000
# 6 0.0000 0.0000 0.0000 10.5696 0.0000 14.3796
#
#
#
# Elastic Compliance Matrix: (Units=1/GPa)
#
#
# Indices 1 2 3 4 5 6 
#
# 1 0.013000 -0.003663 -0.003280 0.000000 0.008494 0.000000
# 2 -0.003663 0.006510 -0.000468 0.000000 -0.001360 0.000000
# 3 -0.003280 -0.000468 0.020354 0.000000 0.007958 0.000000
# 4 0.000000 0.000000 0.000000 -0.074266 0.000000 0.054589
# 5 0.008494 -0.001360 0.007958 0.000000 0.040503 0.000000
# 6 0.000000 0.000000 0.000000 0.054589 0.000000 0.029418
#
#
# Mechanical properties :
#
#
# Convention : Reuss Voigt Hill
#
# Bulk Modulus (GPa) = 39.93197 67.94739 53.93968
# Shear Modulus (GPa) = 85.19914 25.74152 55.47033
#
# Velocity S-wave (km/s) = 5.90289 3.24462 4.76297
# Velocity P-wave (km/s) = 7.92401 6.46726 7.23240
#
# Compressibility (1/GPa) = 0.02504259
#
# Stress axis : x y z
#
# Youngs Moduli (GPa) = 76.92024 153.61782 49.13139
#
# Poissons Ratio (x) = 0.56270 0.16115
# Poissons Ratio (y) = 0.28176 0.02297
# Poissons Ratio (z) = 0.25230 0.07183
#
# Static dielectric constant tensor:
#      x y z
#    x 1.959520 0.000000 0.035480 
#    y 0.000000 2.012610 0.000000 
#    z 0.035480 0.000000 2.085300 
# 
# From -- ./inp_files/62802.got.cif
#   From: 2010.05.17/outbox.cif.g08.bks.cpg/sg12_32_cif.got.tgz:62802.got - 2010.06.03 13:09:07.
