data_PCOD9218710
_publ_section_title
;
Structure prediction by ZEFSAII (Michael W. Deem and Ramdas Pophale) SiO2 
 PCOD9218710
Probable space group: C 2/M
;
_chemical_formula_sum "Si O2"
_cell_formula_units_Z 24
_cell_length_a 5.060446
_cell_length_b 35.586814
_cell_length_c 5.395756
_cell_angle_alpha 90.000000
_cell_angle_beta 84.987013
_cell_angle_gamma 90.000000
_cell_volume 967.978716
_symmetry_space_group_name_H-M "C 2/M"
_symmetry_group_IT_number 12
_symmetry_cell_setting 'monoclinic'
loop_
_space_group_symop_operation_xyz
x,y,z
-x,y,-z
-x,-y,-z
x,-y,z
1/2+x,1/2+y,z
1/2-x,1/2+y,-z
1/2-x,1/2-y,-z
1/2+x,1/2-y,z
loop_
_atom_site_type_symbol
_atom_site_label
_atom_site_fract_x
_atom_site_fract_y
_atom_site_fract_z
Si Si1 0.672880 0.458218 0.739533
Si Si2 0.281655 0.657318 0.840341
Si Si3 0.500000 0.277095 0.500000
Si Si4 0.500000 0.103980 0.500000
O O1 0.500000 0.455691 0.500000
O O2 0.797962 0.500000 0.732648
O O3 0.877577 0.424336 0.709390
O O4 0.500000 0.455478 0.000000
O O5 0.423606 0.694882 0.729220
O O6 0.208117 0.630897 0.616789
O O7 0.500000 0.638982 0.000000
O O8 0.000000 0.664772 0.000000
O O9 0.250000 0.250000 0.500000
#
# Coordination Sequence:
#
# PCOD9218710 Si02
#       4
#     8   8   4   4
#     4  10  25  47  74 111 157 213 277 339 406 478
#     4  12  29  49  77 118 158 205 265 330 404 485
#     4  12  27  52  80 113 157 204 261 327 398 484
#     4  12  28  44  78 111 160 206 268 335 406 474
#
# _framework density 24.793931000000001
#
# number of rings (size 3 to 8) (size 9 to 14) (size 15 to 20)
#    0.000    0.667    0.000    5.500   11.667    4.000 
#    0.000    5.000    0.000    3.000    0.000    0.000 
#    0.000    0.000    0.000    0.000    0.000    0.000 
#
# Total GULP energy -67318.691784 kJ/mol
# GULP energy per Si atom -5609.890982 kJ/mol
# Density = 2.473750 g / cm^3
# Si number density = 24.793931 Si / 1000 Ang^3
#
#
#
# Elastic Constant Matrix: (Units=GPa)
#
#
# Indices 1 2 3 4 5 6 
#
# 1 176.2823 76.1651 67.4529 0.0000 -9.4306 0.0000
# 2 76.1651 172.1218 52.4300 0.0000 -2.2039 0.0000
# 3 67.4529 52.4300 150.3848 0.0000 -5.3886 0.0000
# 4 0.0000 0.0000 0.0000 80.6891 0.0000 1.7998
# 5 -9.4306 -2.2039 -5.3886 0.0000 67.9726 0.0000
# 6 0.0000 0.0000 0.0000 1.7998 0.0000 80.0437
#
#
#
# Elastic Compliance Matrix: (Units=1/GPa)
#
#
# Indices 1 2 3 4 5 6 
#
# 1 0.007855 -0.002686 -0.002558 0.000000 0.000800 0.000000
# 2 -0.002686 0.007419 -0.001390 0.000000 -0.000242 0.000000
# 3 -0.002558 -0.001390 0.008291 0.000000 0.000257 0.000000
# 4 0.000000 0.000000 0.000000 0.012399 0.000000 -0.000279
# 5 0.000800 -0.000242 0.000257 0.000000 0.014835 0.000000
# 6 0.000000 0.000000 0.000000 -0.000279 0.000000 0.012499
#
#
# Mechanical properties :
#
#
# Convention : Reuss Voigt Hill
#
# Bulk Modulus (GPa) = 97.13014 98.98722 98.05868
# Shear Modulus (GPa) = 62.49967 65.92381 64.21174
#
# Velocity S-wave (km/s) = 5.02617 5.16202 5.09455
# Velocity P-wave (km/s) = 8.54068 8.69133 8.61633
#
# Compressibility (1/GPa) = 0.01029547
#
# Stress axis : x y z
#
# Youngs Moduli (GPa) = 127.30695 134.78898 120.61456
#
# Poissons Ratio (x) = 0.36211 0.30853
# Poissons Ratio (y) = 0.34201 0.16769
# Poissons Ratio (z) = 0.32565 0.18739
#
# Static dielectric constant tensor:
#      x y z
#    x 1.904260 0.000000 0.075020 
#    y 0.000000 1.940460 0.000000 
#    z 0.075020 0.000000 1.823470 
# 
# From -- ./inp_files/1158.got.cif
#   From: 2010.05.17/outbox.cif.g08.bks.cpg/sg12_1_cif.got.tgz:1158.got - 2010.06.03 13:09:07.
