data_PCOD9218916
_publ_section_title
;
Structure prediction by ZEFSAII (Michael W. Deem and Ramdas Pophale) SiO2 
 PCOD9218916
Probable space group: C 2/M
;
_chemical_formula_sum "Si O2"
_cell_formula_units_Z 40
_cell_length_a 23.882710
_cell_length_b 11.007503
_cell_length_c 10.164704
_cell_angle_alpha 90.000000
_cell_angle_beta 125.789857
_cell_angle_gamma 90.000000
_cell_volume 2167.592409
_symmetry_space_group_name_H-M "C 2/M"
_symmetry_group_IT_number 12
_symmetry_cell_setting 'monoclinic'
loop_
_space_group_symop_operation_xyz
x,y,z
-x,y,-z
-x,-y,-z
x,-y,z
1/2+x,1/2+y,z
1/2-x,1/2+y,-z
1/2-x,1/2-y,-z
1/2+x,1/2-y,z
loop_
_atom_site_type_symbol
_atom_site_label
_atom_site_fract_x
_atom_site_fract_y
_atom_site_fract_z
Si Si1 0.388444 0.500000 0.332755
Si Si2 0.489072 0.500000 0.708511
Si Si3 0.672197 0.855323 0.025719
Si Si4 0.687231 0.251477 0.761456
Si Si5 0.555556 0.859323 0.470139
Si Si6 0.980115 0.259235 0.122727
O O1 0.419047 0.500000 0.524040
O O2 0.451490 0.500000 0.319438
O O3 0.343174 0.382392 0.242386
O O4 0.500223 0.621519 0.808477
O O5 0.735450 0.780876 0.177989
O O6 0.672369 0.000000 0.054366
O O7 0.684829 0.834058 0.886685
O O8 0.599564 0.794427 0.962676
O O9 0.630367 0.200191 0.584004
O O10 0.500000 0.805330 0.500000
O O11 0.523029 0.841321 0.283418
O O12 0.563253 0.000000 0.514360
O O13 0.000000 0.280469 0.000000
#
# Coordination Sequence:
#
# PCOD9218916 Si02
#       6
#     4   4   8   8   8   8
#     4  11  18  36  68  92 113 154 201 259 299 357
#     4  11  21  38  64  92 122 151 204 254 299 357
#     4  11  23  38  59  91 128 159 198 254 307 357
#     4  11  21  37  61  94 121 154 202 253 307 356
#     4  11  21  39  64  91 123 159 204 254 297 352
#     4  12  25  41  62  90 125 163 203 248 304 368
#
# _framework density 18.453655999999999
#
# number of rings (size 3 to 8) (size 9 to 14) (size 15 to 20)
#    0.000    0.800    7.000    1.500    0.000    1.600 
#    1.800    1.000    0.000    0.000    0.000    0.000 
#    0.000    0.000    0.000    0.000    0.000    0.000 
#
# Total GULP energy -111642.784702 kJ/mol
# GULP energy per Si atom -5582.139235 kJ/mol
# Density = 1.841165 g / cm^3
# Si number density = 18.453656 Si / 1000 Ang^3
#
#
#
# Elastic Constant Matrix: (Units=GPa)
#
#
# Indices 1 2 3 4 5 6 
#
# 1 68.2791 14.6858 53.7971 0.0000 21.5730 0.0000
# 2 14.6858 68.6397 6.5621 0.0000 9.9632 0.0000
# 3 53.7971 6.5621 100.2640 0.0000 14.1143 0.0000
# 4 0.0000 0.0000 0.0000 28.9932 0.0000 14.4385
# 5 21.5730 9.9632 14.1143 0.0000 39.0732 0.0000
# 6 0.0000 0.0000 0.0000 14.4385 0.0000 17.8819
#
#
#
# Elastic Compliance Matrix: (Units=1/GPa)
#
#
# Indices 1 2 3 4 5 6 
#
# 1 0.030104 -0.003536 -0.014442 0.000000 -0.010502 0.000000
# 2 -0.003536 0.015565 0.001225 0.000000 -0.002459 0.000000
# 3 -0.014442 0.001225 0.017452 0.000000 0.001358 0.000000
# 4 0.000000 0.000000 0.000000 0.057687 0.000000 -0.046578
# 5 -0.010502 -0.002459 0.001358 0.000000 0.031528 0.000000
# 6 0.000000 0.000000 0.000000 -0.046578 0.000000 0.093532
#
#
# Mechanical properties :
#
#
# Convention : Reuss Voigt Hill
#
# Bulk Modulus (GPa) = 33.76865 43.03030 38.39948
# Shear Modulus (GPa) = 17.28640 27.99883 22.64261
#
# Velocity S-wave (km/s) = 3.06395 3.89942 3.50665
# Velocity P-wave (km/s) = 5.55481 6.60625 6.10322
#
# Compressibility (1/GPa) = 0.02961326
#
# Stress axis : x y z
#
# Youngs Moduli (GPa) = 33.21866 64.24595 57.30156
#
# Poissons Ratio (x) = 0.22715 0.82757
# Poissons Ratio (y) = 0.11745 -0.07017
# Poissons Ratio (z) = 0.47976 -0.07867
#
# Static dielectric constant tensor:
#      x y z
#    x 1.614240 0.000000 0.035800 
#    y 0.000000 1.648860 0.000000 
#    z 0.035800 0.000000 1.652250 
# 
# From -- ./inp_files/83682.got.cif
#   From: 2010.05.17/outbox.cif.g08.bks.cpg/sg12_42_cif.got.tgz:83682.got - 2010.06.03 13:09:07.
