data_PCOD9218440
_publ_section_title
;
Structure prediction by ZEFSAII (Michael W. Deem and Ramdas Pophale) SiO2 
 PCOD9218440
Probable space group: C 2/M
;
_chemical_formula_sum "Si O2"
_cell_formula_units_Z 56
_cell_length_a 18.321132
_cell_length_b 20.031830
_cell_length_c 14.599158
_cell_angle_alpha 90.000000
_cell_angle_beta 31.830156
_cell_angle_gamma 90.000000
_cell_volume 2825.812661
_symmetry_space_group_name_H-M "C 2/M"
_symmetry_group_IT_number 12
_symmetry_cell_setting 'monoclinic'
loop_
_space_group_symop_operation_xyz
x,y,z
-x,y,-z
-x,-y,-z
x,-y,z
1/2+x,1/2+y,z
1/2-x,1/2+y,-z
1/2-x,1/2-y,-z
1/2+x,1/2-y,z
loop_
_atom_site_type_symbol
_atom_site_label
_atom_site_fract_x
_atom_site_fract_y
_atom_site_fract_z
Si Si1 0.594317 0.500000 0.308956
Si Si2 0.955821 0.375887 0.254708
Si Si3 0.774854 0.207929 0.565118
Si Si4 0.106861 0.580080 0.470726
Si Si5 0.078074 0.500000 0.014566
Si Si6 0.663089 0.315854 0.828881
Si Si7 0.309861 0.772842 0.031102
Si Si8 0.047019 0.143753 0.344959
O O1 0.500000 0.500000 0.500000
O O2 0.559056 0.568518 0.294528
O O3 0.755104 0.500000 0.167932
O O4 0.029328 0.436158 0.124469
O O5 0.808836 0.360373 0.363758
O O6 0.942912 0.391823 0.376892
O O7 0.045577 0.309760 0.138503
O O8 0.750000 0.250000 0.500000
O O9 0.710896 0.253458 0.713931
O O10 0.934068 0.189306 0.414347
O O11 0.126747 0.500000 0.457487
O O12 0.244674 0.621212 0.298233
O O13 0.000000 0.591757 0.500000
O O14 0.000000 0.500000 0.000000
O O15 0.688358 0.289845 0.904065
O O16 0.500000 0.328856 0.000000
O O17 0.198938 0.825708 0.185676
O O18 0.250000 0.750000 0.000000
O O19 0.000000 0.140554 0.500000
#
# Coordination Sequence:
#
# PCOD9218440 Si02
#       8
#     4   8   8   8   4   8   8   8
#     4  10  24  46  64  97 137 183 227 265 342 422
#     4  12  25  45  70 103 139 181 232 285 352 418
#     4  12  25  43  68 101 137 175 230 283 347 419
#     4  11  26  50  74  98 134 187 242 288 341 412
#     4  12  28  42  71 105 144 185 227 286 349 429
#     4  12  26  44  69 101 139 179 222 294 349 410
#     4  12  25  40  68 102 133 174 228 285 346 407
#     4  11  24  41  67  96 134 179 221 274 337 409
#
# _framework density 19.817309000000002
#
# number of rings (size 3 to 8) (size 9 to 14) (size 15 to 20)
#    0.000    0.429    6.429    1.714    8.000    0.286 
#    0.000    0.000    0.000    0.000    0.000    0.000 
#    0.000    0.000    0.000    0.000    0.000    0.000 
#
# Total GULP energy -156442.398656 kJ/mol
# GULP energy per Si atom -5587.228523 kJ/mol
# Density = 1.977220 g / cm^3
# Si number density = 19.817309 Si / 1000 Ang^3
#
#
#
# Elastic Constant Matrix: (Units=GPa)
#
#
# Indices 1 2 3 4 5 6 
#
# 1 92.3156 10.4425 40.5625 0.0013 5.8468 -0.0013
# 2 10.4425 64.7062 40.4160 0.0010 -4.8145 -0.0011
# 3 40.5625 40.4160 121.7177 0.0011 -7.3329 -0.0009
# 4 0.0013 0.0010 0.0011 36.9012 -0.0006 -3.8048
# 5 5.8468 -4.8145 -7.3329 -0.0006 37.2031 0.0005
# 6 -0.0013 -0.0011 -0.0009 -3.8048 0.0005 32.2575
#
#
#
# Elastic Compliance Matrix: (Units=1/GPa)
#
#
# Indices 1 2 3 4 5 6 
#
# 1 0.013020 0.000634 -0.004724 0.000000 -0.002895 0.000000
# 2 0.000634 0.019588 -0.006648 0.000000 0.001125 0.000000
# 3 -0.004724 -0.006648 0.012134 0.000000 0.002274 0.000000
# 4 0.000000 0.000000 0.000000 0.027433 0.000000 0.003236
# 5 -0.002895 0.001125 0.002274 0.000000 0.027928 0.000000
# 6 0.000000 0.000000 0.000000 0.003236 0.000000 0.031382
#
#
# Mechanical properties :
#
#
# Convention : Reuss Voigt Hill
#
# Bulk Modulus (GPa) = 42.97927 51.28682 47.13304
# Shear Modulus (GPa) = 31.11080 33.76025 32.43553
#
# Velocity S-wave (km/s) = 3.96647 4.13192 4.05004
# Velocity P-wave (km/s) = 6.53544 6.97851 6.76061
#
# Compressibility (1/GPa) = 0.02326703
#
# Stress axis : x y z
#
# Youngs Moduli (GPa) = 76.80721 51.05157 82.41162
#
# Poissons Ratio (x) = -0.03236 0.38929
# Poissons Ratio (y) = -0.04869 0.54784
# Poissons Ratio (z) = 0.36281 0.33937
#
# Static dielectric constant tensor:
#      x y z
#    x 1.663300 0.000000 -0.016780 
#    y 0.000000 1.743810 0.000000 
#    z -0.016780 0.000000 1.631480 
# 
# From -- ./inp_files/227615.got.cif
#   From: 2010.05.17/outbox.cif.g08.bks.cpg/sg12_114_cif.got.tgz:227615.got - 2010.06.03 13:09:07.
