data_PCOD9218882
_publ_section_title
;
Structure prediction by ZEFSAII (Michael W. Deem and Ramdas Pophale) SiO2 
 PCOD9218882
Probable space group: C 2/M
;
_chemical_formula_sum "Si O2"
_cell_formula_units_Z 40
_cell_length_a 10.552360
_cell_length_b 20.736912
_cell_length_c 9.333234
_cell_angle_alpha 90.000000
_cell_angle_beta 79.784242
_cell_angle_gamma 90.000000
_cell_volume 2009.952308
_symmetry_space_group_name_H-M "C 2/M"
_symmetry_group_IT_number 12
_symmetry_cell_setting 'monoclinic'
loop_
_space_group_symop_operation_xyz
x,y,z
-x,y,-z
-x,-y,-z
x,-y,z
1/2+x,1/2+y,z
1/2-x,1/2+y,-z
1/2-x,1/2-y,-z
1/2+x,1/2-y,z
loop_
_atom_site_type_symbol
_atom_site_label
_atom_site_fract_x
_atom_site_fract_y
_atom_site_fract_z
Si Si1 0.666062 0.926335 0.874483
Si Si2 0.925745 0.380830 0.794534
Si Si3 0.540487 0.397065 0.157527
Si Si4 0.606950 0.250169 0.099596
Si Si5 0.911429 0.000000 0.379703
Si Si6 0.367632 0.000000 0.609572
O O1 0.580060 0.889052 0.776191
O O2 0.818352 0.923469 0.832793
O O3 0.622230 0.000000 0.874986
O O4 0.631094 0.898519 0.037437
O O5 0.893033 0.306081 0.781892
O O6 0.869626 0.434773 0.702674
O O7 0.560440 0.319825 0.165179
O O8 0.443442 0.436785 0.277030
O O9 0.500000 0.409150 0.000000
O O10 0.500000 0.232805 0.000000
O O11 0.750000 0.250000 0.000000
O O12 0.762687 0.000000 0.453923
O O13 0.000000 0.000000 0.500000
O O14 0.500000 0.000000 0.500000
#
# Coordination Sequence:
#
# PCOD9218882 Si02
#       6
#     8   8   8   8   4   4
#     4  11  18  33  62  95 122 161 194 265 319 376
#     4  11  20  37  62  94 131 156 208 256 321 376
#     4  11  23  38  68  96 133 163 209 266 327 376
#     4  11  21  36  61 102 134 159 194 260 330 383
#     4  12  29  47  65  91 130 174 218 265 324 380
#     4  12  28  44  65  86 121 176 228 261 299 380
#
# _framework density 19.900969
#
# number of rings (size 3 to 8) (size 9 to 14) (size 15 to 20)
#    0.000    0.800    7.000    2.100    5.600    0.000 
#    0.000    1.000    0.000    2.400    0.000    0.000 
#    0.000    0.000    0.000    0.000    0.000    0.000 
#
# Total GULP energy -111648.364188 kJ/mol
# GULP energy per Si atom -5582.418209 kJ/mol
# Density = 1.985567 g / cm^3
# Si number density = 19.900969 Si / 1000 Ang^3
#
#
#
# Elastic Constant Matrix: (Units=GPa)
#
#
# Indices 1 2 3 4 5 6 
#
# 1 151.5865 17.8993 19.9359 0.0000 -2.8434 0.0000
# 2 17.8993 162.1779 32.8564 0.0000 -1.4385 0.0000
# 3 19.9359 32.8564 38.9841 0.0000 7.2081 0.0000
# 4 0.0000 0.0000 0.0000 2.6624 0.0000 -0.4824
# 5 -2.8434 -1.4385 7.2081 0.0000 27.7443 0.0000
# 6 0.0000 0.0000 0.0000 -0.4824 0.0000 24.9288
#
#
#
# Elastic Compliance Matrix: (Units=1/GPa)
#
#
# Indices 1 2 3 4 5 6 
#
# 1 0.007154 0.000041 -0.004023 0.000000 0.001780 0.000000
# 2 0.000041 0.007556 -0.006789 0.000000 0.002160 0.000000
# 3 -0.004023 -0.006789 0.035266 0.000000 -0.009926 0.000000
# 4 0.000000 0.000000 0.000000 0.376921 0.000000 0.007294
# 5 0.001780 0.002160 -0.009926 0.000000 0.038917 0.000000
# 6 0.000000 0.000000 0.000000 0.007294 0.000000 0.040255
#
#
# Mechanical properties :
#
#
# Convention : Reuss Voigt Hill
#
# Bulk Modulus (GPa) = 35.16693 54.90351 45.03522
# Shear Modulus (GPa) = 9.30946 29.87090 19.59018
#
# Velocity S-wave (km/s) = 2.16519 3.87845 3.14089
# Velocity P-wave (km/s) = 4.89490 6.90686 5.98602
#
# Compressibility (1/GPa) = 0.02843581
#
# Stress axis : x y z
#
# Youngs Moduli (GPa) = 139.77303 132.34453 28.35631
#
# Poissons Ratio (x) = -0.00544 0.11406
# Poissons Ratio (y) = -0.00575 0.19250
# Poissons Ratio (z) = 0.56224 0.89845
#
# Static dielectric constant tensor:
#      x y z
#    x 1.781630 0.000000 -0.026680 
#    y 0.000000 1.797340 0.000000 
#    z -0.026680 0.000000 1.694300 
# 
# From -- ./inp_files/48646.got.cif
#   From: 2010.05.17/outbox.cif.g08.bks.cpg/sg12_25_cif.got.tgz:48646.got - 2010.06.03 13:09:07.
