data_PCOD9218863
_publ_section_title
;
Structure prediction by ZEFSAII (Michael W. Deem and Ramdas Pophale) SiO2 
 PCOD9218863
Probable space group: C 2/M
;
_chemical_formula_sum "Si O2"
_cell_formula_units_Z 56
_cell_length_a 25.538421
_cell_length_b 14.508301
_cell_length_c 9.553158
_cell_angle_alpha 90.000000
_cell_angle_beta 42.715483
_cell_angle_gamma 90.000000
_cell_volume 2401.135479
_symmetry_space_group_name_H-M "C 2/M"
_symmetry_group_IT_number 12
_symmetry_cell_setting 'monoclinic'
loop_
_space_group_symop_operation_xyz
x,y,z
-x,y,-z
-x,-y,-z
x,-y,z
1/2+x,1/2+y,z
1/2-x,1/2+y,-z
1/2-x,1/2-y,-z
1/2+x,1/2-y,z
loop_
_atom_site_type_symbol
_atom_site_label
_atom_site_fract_x
_atom_site_fract_y
_atom_site_fract_z
Si Si1 0.034995 0.858642 0.076217
Si Si2 0.572087 0.607981 0.455054
Si Si3 0.676826 0.748366 0.344127
Si Si4 0.263277 0.394761 0.565429
Si Si5 0.089645 0.648400 0.934295
Si Si6 0.294098 0.398198 0.174516
Si Si7 0.937501 0.400445 0.336672
O O1 0.965599 0.873327 0.319660
O O2 0.063541 0.754600 0.988557
O O3 0.113204 0.897774 0.991714
O O4 0.000000 0.895744 0.000000
O O5 0.500000 0.633925 0.500000
O O6 0.589460 0.500000 0.401672
O O7 0.646991 0.672303 0.292632
O O8 0.687568 0.687005 0.463688
O O9 0.752316 0.812659 0.180613
O O10 0.606989 0.819982 0.499177
O O11 0.286849 0.500000 0.556013
O O12 0.177866 0.373954 0.790935
O O13 0.265145 0.389537 0.393593
O O14 0.078570 0.611561 0.797965
O O15 0.029810 0.604396 0.160245
O O16 0.272037 0.500000 0.164764
O O17 0.909605 0.500000 0.437176
#
# Coordination Sequence:
#
# PCOD9218863 Si02
#       7
#     8   8   8   8   8   8   8
#     4  12  22  40  67  97 131 166 211 268 314 371
#     4  11  26  48  70  92 123 167 214 261 321 389
#     4  12  21  37  59  87 119 162 215 265 307 374
#     4  11  21  33  52  86 132 171 205 256 318 374
#     4  11  18  32  51  83 127 164 206 250 302 364
#     4  11  23  35  55  91 132 170 205 255 323 378
#     4  11  20  31  52  85 127 173 208 245 307 374
#
# _framework density 23.322299000000001
#
# number of rings (size 3 to 8) (size 9 to 14) (size 15 to 20)
#    0.000    0.714    5.714    5.143    0.000    2.286 
#    0.000    0.714    0.000    1.714    0.000    0.000 
#    0.000    0.000    0.000    0.000    0.000    0.000 
#
# Total GULP energy -156463.217369 kJ/mol
# GULP energy per Si atom -5587.972049 kJ/mol
# Density = 2.326922 g / cm^3
# Si number density = 23.322299 Si / 1000 Ang^3
#
#
#
# Elastic Constant Matrix: (Units=GPa)
#
#
# Indices 1 2 3 4 5 6 
#
# 1 68.6969 26.6564 14.2805 0.0000 -18.3665 0.0000
# 2 26.6564 159.1164 5.9447 0.0000 -18.3891 0.0000
# 3 14.2805 5.9447 87.0506 0.0000 -22.9569 0.0000
# 4 0.0000 0.0000 0.0000 -0.9346 0.0000 -7.6238
# 5 -18.3665 -18.3891 -22.9569 0.0000 36.7526 0.0000
# 6 0.0000 0.0000 0.0000 -7.6238 0.0000 11.4773
#
#
#
# Elastic Compliance Matrix: (Units=1/GPa)
#
#
# Indices 1 2 3 4 5 6 
#
# 1 0.017446 -0.002063 -0.000831 0.000000 0.007167 0.000000
# 2 -0.002063 0.006933 0.000608 0.000000 0.002818 0.000000
# 3 -0.000831 0.000608 0.013832 0.000000 0.008529 0.000000
# 4 0.000000 0.000000 0.000000 -0.166702 0.000000 -0.110732
# 5 0.007167 0.002818 0.008529 0.000000 0.037528 0.000000
# 6 0.000000 0.000000 0.000000 -0.110732 0.000000 0.013575
#
#
# Mechanical properties :
#
#
# Convention : Reuss Voigt Hill
#
# Bulk Modulus (GPa) = 29.72794 45.40303 37.56548
# Shear Modulus (GPa) = -81.16484 27.32453 -26.92016
#
# Velocity S-wave (km/s) = -5.90567 3.42659 -3.40114
# Velocity P-wave (km/s) = 5.80761 5.93003 0.84761
#
# Compressibility (1/GPa) = 0.03363839
#
# Stress axis : x y z
#
# Youngs Moduli (GPa) = 57.31893 144.23118 72.29860
#
# Poissons Ratio (x) = 0.29761 0.06009
# Poissons Ratio (y) = 0.11827 -0.04397
# Poissons Ratio (z) = 0.04764 -0.08771
#
# Static dielectric constant tensor:
#      x y z
#    x 1.899450 0.000000 -0.045350 
#    y 0.000000 1.927720 0.000000 
#    z -0.045350 0.000000 1.893120 
# 
# From -- ./inp_files/183487.got.cif
#   From: 2010.05.17/outbox.cif.g08.bks.cpg/sg12_92_cif.got.tgz:183487.got - 2010.06.03 13:09:07.
