data_PCOD9218983
_publ_section_title
;
Structure prediction by ZEFSAII (Michael W. Deem and Ramdas Pophale) SiO2 
 PCOD9218983
Probable space group: C 2/M
;
_chemical_formula_sum "Si O2"
_cell_formula_units_Z 44
_cell_length_a 17.681092
_cell_length_b 25.185820
_cell_length_c 7.871535
_cell_angle_alpha 90.000000
_cell_angle_beta 44.478665
_cell_angle_gamma 90.000000
_cell_volume 2455.962804
_symmetry_space_group_name_H-M "C 2/M"
_symmetry_group_IT_number 12
_symmetry_cell_setting 'monoclinic'
loop_
_space_group_symop_operation_xyz
x,y,z
-x,y,-z
-x,-y,-z
x,-y,z
1/2+x,1/2+y,z
1/2-x,1/2+y,-z
1/2-x,1/2-y,-z
1/2+x,1/2-y,z
loop_
_atom_site_type_symbol
_atom_site_label
_atom_site_fract_x
_atom_site_fract_y
_atom_site_fract_z
Si Si1 0.770129 0.146995 0.297717
Si Si2 0.449418 0.795451 0.266201
Si Si3 0.076087 0.063083 0.045277
Si Si4 0.000000 0.873955 0.500000
Si Si5 0.160951 0.186436 0.475198
Si Si6 0.335358 0.247389 0.012439
O O1 0.644844 0.165906 0.512284
O O2 0.806986 0.091330 0.162260
O O3 0.816447 0.145108 0.413940
O O4 0.836261 0.193663 0.091842
O O5 0.397520 0.736754 0.346334
O O6 0.500000 0.809501 0.000000
O O7 0.554256 0.781675 0.212773
O O8 0.083897 0.000000 0.051084
O O9 0.000000 0.073336 0.000000
O O10 0.029693 0.090067 0.290436
O O11 0.094946 0.836334 0.422158
O O12 0.276674 0.208982 0.239086
O O13 0.250000 0.250000 0.000000
#
# Coordination Sequence:
#
# PCOD9218983 Si02
#       6
#     8   8   8   4   8   8
#     4  11  21  36  57  82 120 161 196 245 300 345
#     4  11  19  33  55  82 127 167 195 229 284 364
#     4  11  24  42  63  86 115 153 206 264 314 356
#     4  12  23  38  64  88 122 154 195 248 314 368
#     4  11  20  32  52  87 119 158 195 233 291 362
#     4  11  21  33  52  86 124 161 198 232 285 361
#
# _framework density 17.915579999999999
#
# number of rings (size 3 to 8) (size 9 to 14) (size 15 to 20)
#    0.000    0.909    5.455    4.636    0.000    2.182 
#    0.000    0.000    0.000    0.545    0.000    6.364 
#    0.000    0.000    0.000    0.000    0.000    0.000 
#
# Total GULP energy -122580.833746 kJ/mol
# GULP energy per Si atom -5571.856079 kJ/mol
# Density = 1.787480 g / cm^3
# Si number density = 17.915580 Si / 1000 Ang^3
#
#
#
# Elastic Constant Matrix: (Units=GPa)
#
#
# Indices 1 2 3 4 5 6 
#
# 1 107.4558 27.2153 27.7000 0.0000 -6.2728 0.0000
# 2 27.2153 87.8385 44.9258 0.0000 -6.0913 0.0000
# 3 27.7000 44.9258 90.9768 0.0000 -12.1421 0.0000
# 4 0.0000 0.0000 0.0000 21.6310 0.0000 1.4193
# 5 -6.2728 -6.0913 -12.1421 0.0000 38.2055 0.0000
# 6 0.0000 0.0000 0.0000 1.4193 0.0000 21.4675
#
#
#
# Elastic Compliance Matrix: (Units=1/GPa)
#
#
# Indices 1 2 3 4 5 6 
#
# 1 0.010411 -0.002146 -0.002013 0.000000 0.000727 0.000000
# 2 -0.002146 0.015674 -0.007101 0.000000 -0.000110 0.000000
# 3 -0.002013 -0.007101 0.015577 0.000000 0.003488 0.000000
# 4 0.000000 0.000000 0.000000 0.046431 0.000000 -0.003070
# 5 0.000727 -0.000110 0.003488 0.000000 0.027385 0.000000
# 6 0.000000 0.000000 0.000000 -0.003070 0.000000 0.046785
#
#
# Mechanical properties :
#
#
# Convention : Reuss Voigt Hill
#
# Bulk Modulus (GPa) = 52.24281 53.99481 53.11881
# Shear Modulus (GPa) = 26.15562 28.68947 27.42255
#
# Velocity S-wave (km/s) = 3.82506 4.00605 3.91660
# Velocity P-wave (km/s) = 6.98083 7.18344 7.08286
#
# Compressibility (1/GPa) = 0.01914139
#
# Stress axis : x y z
#
# Youngs Moduli (GPa) = 96.05233 63.80113 64.19690
#
# Poissons Ratio (x) = 0.13689 0.12925
# Poissons Ratio (y) = 0.20608 0.45589
# Poissons Ratio (z) = 0.19338 0.45308
#
# Static dielectric constant tensor:
#      x y z
#    x 1.762750 0.000000 0.042720 
#    y 0.000000 1.584420 0.000000 
#    z 0.042720 0.000000 1.695720 
# 
# From -- ./inp_files/79637.got.cif
#   From: 2010.05.17/outbox.cif.g08.bks.cpg/sg12_40_cif.got.tgz:79637.got - 2010.06.03 13:09:07.
