data_PCOD9218384
_publ_section_title
;
Structure prediction by ZEFSAII (Michael W. Deem and Ramdas Pophale) SiO2 
 PCOD9218384
Probable space group: C 2/M
;
_chemical_formula_sum "Si O2"
_cell_formula_units_Z 64
_cell_length_a 9.398115
_cell_length_b 16.191536
_cell_length_c 24.397780
_cell_angle_alpha 90.000000
_cell_angle_beta 122.251196
_cell_angle_gamma 90.000000
_cell_volume 3139.814663
_symmetry_space_group_name_H-M "C 2/M"
_symmetry_group_IT_number 12
_symmetry_cell_setting 'monoclinic'
loop_
_space_group_symop_operation_xyz
x,y,z
-x,y,-z
-x,-y,-z
x,-y,z
1/2+x,1/2+y,z
1/2-x,1/2+y,-z
1/2-x,1/2-y,-z
1/2+x,1/2-y,z
loop_
_atom_site_type_symbol
_atom_site_label
_atom_site_fract_x
_atom_site_fract_y
_atom_site_fract_z
Si Si1 0.685738 0.763028 0.047694
Si Si2 0.084645 0.906387 0.855365
Si Si3 0.498169 0.091651 0.361305
Si Si4 0.221400 0.904509 0.123687
Si Si5 0.932338 0.089455 0.278732
Si Si6 0.924509 0.630994 0.747490
Si Si7 0.303868 0.311035 0.461393
Si Si8 0.799148 0.787451 0.666691
O O1 0.796839 0.830815 0.102199
O O2 0.681068 0.672952 0.075893
O O3 0.500000 0.796898 0.000000
O O4 0.750000 0.750000 0.000000
O O5 0.055540 0.902538 0.784414
O O6 0.911057 0.899560 0.853465
O O7 0.152033 0.000000 0.880795
O O8 0.548451 0.095371 0.307715
O O9 0.662610 0.117749 0.429591
O O10 0.345504 0.154792 0.338869
O O11 0.442097 0.000000 0.364073
O O12 0.409331 0.888145 0.184150
O O13 0.210450 0.000000 0.099767
O O14 0.740451 0.096306 0.257397
O O15 0.048403 0.159875 0.327152
O O16 0.998063 0.000000 0.308562
O O17 0.881848 0.727268 0.728635
O O18 0.500000 0.336736 0.500000
O O19 0.250000 0.250000 0.500000
O O20 0.278729 0.264253 0.398531
#
# Coordination Sequence:
#
# PCOD9218384 Si02
#       8
#     8   8   8   8   8   8   8   8
#     4  12  26  44  66  96 128 166 218 266 310 381
#     4  10  24  45  67  92 129 171 210 261 323 382
#     4  11  23  41  65  95 126 164 210 261 317 376
#     4  11  24  44  68  92 128 172 211 260 320 386
#     4  11  23  39  62  96 127 154 201 262 317 369
#     4  11  23  40  64  96 126 161 206 256 318 379
#     4  11  23  43  64  88 124 168 215 257 308 374
#     4  11  23  40  66  88 125 170 206 255 313 382
#
# _framework density 20.383368999999998
#
# number of rings (size 3 to 8) (size 9 to 14) (size 15 to 20)
#    0.000    1.000    2.500    4.500    3.500    4.250 
#    0.000    1.875    0.000    0.000    0.000    0.000 
#    0.000    0.000    0.000    0.000    0.000    0.000 
#
# Total GULP energy -178780.846748 kJ/mol
# GULP energy per Si atom -5586.901461 kJ/mol
# Density = 2.033698 g / cm^3
# Si number density = 20.383369 Si / 1000 Ang^3
#
#
#
# Elastic Constant Matrix: (Units=GPa)
#
#
# Indices 1 2 3 4 5 6 
#
# 1 87.8648 16.9000 1.2131 0.0000 11.8475 0.0000
# 2 16.9000 131.5421 14.7922 0.0000 14.1258 0.0000
# 3 1.2131 14.7922 42.2532 0.0000 21.3011 0.0000
# 4 0.0000 0.0000 0.0000 15.0370 0.0000 -1.3613
# 5 11.8475 14.1258 21.3011 0.0000 40.1942 0.0000
# 6 0.0000 0.0000 0.0000 -1.3613 0.0000 50.6928
#
#
#
# Elastic Compliance Matrix: (Units=1/GPa)
#
#
# Indices 1 2 3 4 5 6 
#
# 1 0.012197 -0.001361 0.002316 0.000000 -0.004344 0.000000
# 2 -0.001361 0.008161 -0.002148 0.000000 -0.001329 0.000000
# 3 0.002316 -0.002148 0.033181 0.000000 -0.017512 0.000000
# 4 0.000000 0.000000 0.000000 0.066665 0.000000 0.001790
# 5 -0.004344 -0.001329 -0.017512 0.000000 0.035907 0.000000
# 6 0.000000 0.000000 0.000000 0.001790 0.000000 0.019775
#
#
# Mechanical properties :
#
#
# Convention : Reuss Voigt Hill
#
# Bulk Modulus (GPa) = 19.54918 36.38563 27.96741
# Shear Modulus (GPa) = 25.59871 36.43512 31.01692
#
# Velocity S-wave (km/s) = 3.54766 4.23246 3.90510
# Velocity P-wave (km/s) = 5.13739 6.46331 5.83811
#
# Compressibility (1/GPa) = 0.05115304
#
# Stress axis : x y z
#
# Youngs Moduli (GPa) = 81.98948 122.53060 30.13790
#
# Poissons Ratio (x) = 0.16676 -0.06981
# Poissons Ratio (y) = 0.11158 0.06475
# Poissons Ratio (z) = -0.18992 0.26323
#
# Static dielectric constant tensor:
#      x y z
#    x 1.688730 0.000000 0.007750 
#    y 0.000000 1.772110 0.000000 
#    z 0.007750 0.000000 1.702570 
# 
# From -- ./inp_files/372585.got.cif
#   From: 2010.05.17/outbox.cif.g08.bks.cpg/sg12_187_cif.got.tgz:372585.got - 2010.06.03 13:09:07.
