data_PCOD9218956
_publ_section_title
;
Structure prediction by ZEFSAII (Michael W. Deem and Ramdas Pophale) SiO2 
 PCOD9218956
Probable space group: C 2/M
;
_chemical_formula_sum "Si O2"
_cell_formula_units_Z 56
_cell_length_a 21.873524
_cell_length_b 20.284362
_cell_length_c 8.531651
_cell_angle_alpha 90.000000
_cell_angle_beta 60.169480
_cell_angle_gamma 90.000000
_cell_volume 3283.847477
_symmetry_space_group_name_H-M "C 2/M"
_symmetry_group_IT_number 12
_symmetry_cell_setting 'monoclinic'
loop_
_space_group_symop_operation_xyz
x,y,z
-x,y,-z
-x,-y,-z
x,-y,z
1/2+x,1/2+y,z
1/2-x,1/2+y,-z
1/2-x,1/2-y,-z
1/2+x,1/2-y,z
loop_
_atom_site_type_symbol
_atom_site_label
_atom_site_fract_x
_atom_site_fract_y
_atom_site_fract_z
Si Si1 0.665946 0.924442 0.655979
Si Si2 0.264201 0.681365 0.383735
Si Si3 0.537046 0.888283 0.606821
Si Si4 0.686349 0.218331 0.173232
Si Si5 0.932106 0.763815 0.498443
Si Si6 0.924533 0.794040 0.144269
Si Si7 0.907361 0.656133 0.976761
O O1 0.731507 0.878150 0.525151
O O2 0.604888 0.920869 0.599752
O O3 0.686067 0.000000 0.653903
O O4 0.630832 0.892659 0.855113
O O5 0.250000 0.750000 0.500000
O O6 0.218921 0.683372 0.282806
O O7 0.346089 0.675653 0.228639
O O8 0.500000 0.919282 0.500000
O O9 0.561075 0.815626 0.519892
O O10 0.478382 0.875104 0.815409
O O11 0.635923 0.274875 0.309363
O O12 0.641337 0.175032 0.109321
O O13 0.750000 0.250000 0.000000
O O14 0.928494 0.784723 0.325415
O O15 0.000000 0.790368 0.500000
O O16 0.921699 0.724466 0.052725
O O17 0.000000 0.825613 0.000000
#
# Coordination Sequence:
#
# PCOD9218956 Si02
#       7
#     8   8   8   8   8   8   8
#     4  12  25  40  55  79 113 155 196 238 284 334
#     4  12  21  38  60  83 112 147 191 232 286 335
#     4  11  19  34  54  77 113 156 193 228 271 331
#     4  12  20  31  54  85 113 150 185 238 283 325
#     4  11  19  31  50  82 116 151 182 228 279 327
#     4  12  20  33  55  84 116 143 184 231 287 333
#     4  12  20  33  54  80 117 151 188 227 274 341
#
# _framework density 17.053166999999998
#
# number of rings (size 3 to 8) (size 9 to 14) (size 15 to 20)
#    0.000    0.286   11.429    0.429    0.000    1.429 
#    0.000    2.143    0.000    0.429    0.000    0.000 
#    0.000    1.714    0.000    0.000    0.000    0.000 
#
# Total GULP energy -156172.134036 kJ/mol
# GULP energy per Si atom -5577.576216 kJ/mol
# Density = 1.701435 g / cm^3
# Si number density = 17.053167 Si / 1000 Ang^3
#
#
#
# Elastic Constant Matrix: (Units=GPa)
#
#
# Indices 1 2 3 4 5 6 
#
# 1 116.5178 13.4572 44.0358 0.0000 -4.5126 0.0000
# 2 13.4572 52.3236 26.5967 0.0000 -10.2297 0.0000
# 3 44.0358 26.5967 129.5539 0.0000 -23.2285 0.0000
# 4 0.0000 0.0000 0.0000 6.0472 0.0000 -3.2855
# 5 -4.5126 -10.2297 -23.2285 0.0000 51.8152 0.0000
# 6 0.0000 0.0000 0.0000 -3.2855 0.0000 10.0902
#
#
#
# Elastic Compliance Matrix: (Units=1/GPa)
#
#
# Indices 1 2 3 4 5 6 
#
# 1 0.009920 -0.001031 -0.003308 0.000000 -0.000822 0.000000
# 2 -0.001031 0.021735 -0.003652 0.000000 0.002564 0.000000
# 3 -0.003308 -0.003652 0.010234 0.000000 0.003579 0.000000
# 4 0.000000 0.000000 0.000000 0.200908 0.000000 0.065419
# 5 -0.000822 0.002564 0.003579 0.000000 0.021338 0.000000
# 6 0.000000 0.000000 0.000000 0.065419 0.000000 0.120407
#
#
# Mechanical properties :
#
#
# Convention : Reuss Voigt Hill
#
# Bulk Modulus (GPa) = 38.59777 51.84160 45.21969
# Shear Modulus (GPa) = 12.22021 27.87758 20.04889
#
# Velocity S-wave (km/s) = 2.67983 4.04758 3.43252
# Velocity P-wave (km/s) = 5.67964 7.23256 6.50262
#
# Compressibility (1/GPa) = 0.02590823
#
# Stress axis : x y z
#
# Youngs Moduli (GPa) = 100.81050 46.00973 97.70914
#
# Poissons Ratio (x) = 0.04742 0.32318
# Poissons Ratio (y) = 0.10391 0.35682
# Poissons Ratio (z) = 0.33343 0.16802
#
# Static dielectric constant tensor:
#      x y z
#    x 1.645220 0.000000 -0.007510 
#    y 0.000000 1.548110 0.000000 
#    z -0.007510 0.000000 1.628840 
# 
# From -- ./inp_files/89086.got.cif
#   From: 2010.05.17/outbox.cif.g08.bks.cpg/sg12_45_cif.got.tgz:89086.got - 2010.06.03 13:09:07.
