data_PCOD9218619
_publ_section_title
;
Structure prediction by ZEFSAII (Michael W. Deem and Ramdas Pophale) SiO2 
 PCOD9218619
Probable space group: C 2/M
;
_chemical_formula_sum "Si O2"
_cell_formula_units_Z 58
_cell_length_a 9.755355
_cell_length_b 26.659873
_cell_length_c 12.085563
_cell_angle_alpha 90.000000
_cell_angle_beta 94.236350
_cell_angle_gamma 90.000000
_cell_volume 3134.583498
_symmetry_space_group_name_H-M "C 2/M"
_symmetry_group_IT_number 12
_symmetry_cell_setting 'monoclinic'
loop_
_space_group_symop_operation_xyz
x,y,z
-x,y,-z
-x,-y,-z
x,-y,z
1/2+x,1/2+y,z
1/2-x,1/2+y,-z
1/2-x,1/2-y,-z
1/2+x,1/2-y,z
loop_
_atom_site_type_symbol
_atom_site_label
_atom_site_fract_x
_atom_site_fract_y
_atom_site_fract_z
Si Si1 0.012584 0.786641 0.369585
Si Si2 0.839643 0.059711 0.758490
Si Si3 0.256126 0.240351 0.237646
Si Si4 0.000000 0.500000 0.500000
Si Si5 0.277376 0.444849 0.507139
Si Si6 0.892847 0.106493 0.297427
Si Si7 0.329459 0.859089 0.116963
Si Si8 0.348893 0.846885 0.856010
O O1 0.905340 0.753025 0.294524
O O2 0.973824 0.842597 0.329752
O O3 0.000000 0.781264 0.500000
O O4 0.162207 0.772604 0.336626
O O5 0.792246 0.075668 0.631720
O O6 0.754331 0.093905 0.838336
O O7 0.002321 0.071573 0.764837
O O8 0.813380 0.000000 0.771120
O O9 0.263594 0.192212 0.159411
O O10 0.191689 0.289171 0.173810
O O11 0.117279 0.457031 0.478957
O O12 0.344974 0.500000 0.516348
O O13 0.346680 0.415676 0.412231
O O14 0.756367 0.119858 0.221212
O O15 0.491249 0.858450 0.159768
O O16 0.325726 0.857508 0.984094
#
# Coordination Sequence:
#
# PCOD9218619 Si02
#       8
#     8   8   8   2   8   8   8   8
#     4  11  22  37  59  94 131 162 195 250 310 377
#     4  11  23  40  64  94 125 162 203 257 318 370
#     4  11  21  42  62  90 123 163 207 251 308 376
#     4   8  20  36  58  96 118 168 218 248 296 362
#     4   9  20  37  62  90 125 164 204 250 301 372
#     4  11  22  38  61  92 127 162 206 251 314 372
#     4  11  23  44  64  87 123 161 216 260 309 370
#     4  10  25  42  63  90 117 165 215 258 311 366
#
# _framework density 18.503256
#
# number of rings (size 3 to 8) (size 9 to 14) (size 15 to 20)
#    0.414    1.103    2.759    2.483    1.931    1.655 
#    0.000    4.138    0.000    0.000    0.000    0.000 
#    0.000    0.000    0.000    0.000    0.000    0.000 
#
# Total GULP energy -161516.938633 kJ/mol
# GULP energy per Si atom -5569.549608 kJ/mol
# Density = 1.846114 g / cm^3
# Si number density = 18.503256 Si / 1000 Ang^3
#
#
#
# Elastic Constant Matrix: (Units=GPa)
#
#
# Indices 1 2 3 4 5 6 
#
# 1 82.9796 30.1317 23.9474 0.0000 -21.6023 0.0000
# 2 30.1317 59.7818 35.1902 0.0000 -7.4991 0.0000
# 3 23.9474 35.1902 83.0998 0.0000 -11.5982 0.0000
# 4 0.0000 0.0000 0.0000 24.7190 0.0000 6.3654
# 5 -21.6023 -7.4991 -11.5982 0.0000 27.7329 0.0000
# 6 0.0000 0.0000 0.0000 6.3654 0.0000 -30.6276
#
#
#
# Elastic Compliance Matrix: (Units=1/GPa)
#
#
# Indices 1 2 3 4 5 6 
#
# 1 0.017888 -0.007288 -0.000424 0.000000 0.011786 0.000000
# 2 -0.007288 0.025379 -0.009007 0.000000 -0.002581 0.000000
# 3 -0.000424 -0.009007 0.016550 0.000000 0.004156 0.000000
# 4 0.000000 0.000000 0.000000 0.038400 0.000000 0.007981
# 5 0.011786 -0.002581 0.004156 0.000000 0.046279 0.000000
# 6 0.000000 0.000000 0.000000 0.007981 0.000000 -0.030992
#
#
# Mechanical properties :
#
#
# Convention : Reuss Voigt Hill
#
# Bulk Modulus (GPa) = 37.90879 44.93331 41.42105
# Shear Modulus (GPa) = 32.10564 13.47099 22.78831
#
# Velocity S-wave (km/s) = 4.17001 2.70114 3.51320
# Velocity P-wave (km/s) = 6.61192 5.83651 6.23628
#
# Compressibility (1/GPa) = 0.02637911
#
# Stress axis : x y z
#
# Youngs Moduli (GPa) = 55.90277 39.40225 60.42244
#
# Poissons Ratio (x) = 0.28718 0.02560
# Poissons Ratio (y) = 0.40744 0.54424
# Poissons Ratio (z) = 0.02368 0.35491
#
# Static dielectric constant tensor:
#      x y z
#    x 1.640840 0.000000 0.013650 
#    y 0.000000 1.653560 0.000000 
#    z 0.013650 0.000000 1.614690 
# 
# From -- ./inp_files/125280.got.cif
#   From: 2010.05.17/outbox.cif.g08.bks.cpg/sg12_63_cif.got.tgz:125280.got - 2010.06.03 13:09:07.
