data_PCOD9218312
_publ_section_title
;
Structure prediction by ZEFSAII (Michael W. Deem and Ramdas Pophale) SiO2 
 PCOD9218312
Probable space group: C 2/M
;
_chemical_formula_sum "Si O2"
_cell_formula_units_Z 34
_cell_length_a 15.379600
_cell_length_b 19.935469
_cell_length_c 6.212809
_cell_angle_alpha 90.000000
_cell_angle_beta 123.013779
_cell_angle_gamma 90.000000
_cell_volume 1597.287372
_symmetry_space_group_name_H-M "C 2/M"
_symmetry_group_IT_number 12
_symmetry_cell_setting 'monoclinic'
loop_
_space_group_symop_operation_xyz
x,y,z
-x,y,-z
-x,-y,-z
x,-y,z
1/2+x,1/2+y,z
1/2-x,1/2+y,-z
1/2-x,1/2-y,-z
1/2+x,1/2-y,z
loop_
_atom_site_type_symbol
_atom_site_label
_atom_site_fract_x
_atom_site_fract_y
_atom_site_fract_z
Si Si1 0.621763 0.188533 0.141373
Si Si2 0.715770 0.321915 0.266126
Si Si3 0.764979 0.577136 0.957188
Si Si4 0.500000 0.500000 0.000000
Si Si5 0.071389 0.114244 0.412274
O O1 0.679982 0.252205 0.112193
O O2 0.680290 0.183878 0.450863
O O3 0.647005 0.121827 0.038989
O O4 0.500000 0.198025 0.000000
O O5 0.623615 0.336773 0.311186
O O6 0.730240 0.383146 0.123467
O O7 0.792602 0.500000 0.038036
O O8 0.668441 0.580082 0.663395
O O9 0.490798 0.558354 0.801230
O O10 0.000000 0.146372 0.500000
#
# Coordination Sequence:
#
# PCOD9218312 Si02
#       5
#     8   8   8   2   8
#     4  10  24  46  67  97 130 179 228 275 332 400
#     4  10  24  44  67  98 135 175 219 280 338 395
#     4  11  24  43  66  98 134 176 224 277 329 400
#     4  12  22  36  56  98 142 176 208 258 346 404
#     4  11  24  37  62 101 138 175 217 267 339 409
#
# _framework density 21.286087999999999
#
# number of rings (size 3 to 8) (size 9 to 14) (size 15 to 20)
#    0.000    1.412    1.176    2.471    9.882    2.353 
#    0.000    1.176    0.000    0.000    0.000    0.000 
#    0.000    0.000    0.000    0.000    0.000    0.000 
#
# Total GULP energy -94763.130612 kJ/mol
# GULP energy per Si atom -5574.301801 kJ/mol
# Density = 2.123764 g / cm^3
# Si number density = 21.286088 Si / 1000 Ang^3
#
#
#
# Elastic Constant Matrix: (Units=GPa)
#
#
# Indices 1 2 3 4 5 6 
#
# 1 108.5547 51.8320 56.8552 0.0000 4.6078 0.0000
# 2 51.8320 173.3373 47.6277 0.0000 -6.6041 0.0000
# 3 56.8552 47.6277 66.5829 0.0000 -3.7622 0.0000
# 4 0.0000 0.0000 0.0000 3.4761 0.0000 -29.3767
# 5 4.6078 -6.6041 -3.7622 0.0000 29.2901 0.0000
# 6 0.0000 0.0000 0.0000 -29.3767 0.0000 -11.7116
#
#
#
# Elastic Compliance Matrix: (Units=1/GPa)
#
#
# Indices 1 2 3 4 5 6 
#
# 1 0.017597 -0.001549 -0.014197 0.000000 -0.004941 0.000000
# 2 -0.001549 0.007344 -0.003851 0.000000 0.001405 0.000000
# 3 -0.014197 -0.003851 0.030193 0.000000 0.005243 0.000000
# 4 0.000000 0.000000 0.000000 0.012960 0.000000 -0.032507
# 5 -0.004941 0.001405 0.005243 0.000000 0.035909 0.000000
# 6 0.000000 0.000000 0.000000 -0.032507 0.000000 -0.003847
#
#
# Mechanical properties :
#
#
# Convention : Reuss Voigt Hill
#
# Bulk Modulus (GPa) = 62.73894 73.45608 68.09751
# Shear Modulus (GPa) = 34.56293 17.02160 25.79226
#
# Velocity S-wave (km/s) = 4.03393 2.83089 3.48472
# Velocity P-wave (km/s) = 7.15786 6.72823 6.94637
#
# Compressibility (1/GPa) = 0.01593907
#
# Stress axis : x y z
#
# Youngs Moduli (GPa) = 56.82740 136.16515 33.12053
#
# Poissons Ratio (x) = 0.21096 0.47022
# Poissons Ratio (y) = 0.08804 0.12755
# Poissons Ratio (z) = 0.80679 0.52437
#
# Static dielectric constant tensor:
#      x y z
#    x 1.775900 0.000000 -0.011380 
#    y 0.000000 1.801710 0.000000 
#    z -0.011380 0.000000 1.775790 
# 
# From -- ./inp_files/10852.got.cif
#   From: 2010.05.17/outbox.cif.g08.bks.cpg/sg12_6_cif.got.tgz:10852.got - 2010.06.03 13:09:07.
