data_PCOD9218847
_publ_section_title
;
Structure prediction by ZEFSAII (Michael W. Deem and Ramdas Pophale) SiO2 
 PCOD9218847
Probable space group: C 2/M
;
_chemical_formula_sum "Si O2"
_cell_formula_units_Z 64
_cell_length_a 18.605329
_cell_length_b 26.700145
_cell_length_c 25.179304
_cell_angle_alpha 90.000000
_cell_angle_beta 160.165767
_cell_angle_gamma 90.000000
_cell_volume 4244.031271
_symmetry_space_group_name_H-M "C 2/M"
_symmetry_group_IT_number 12
_symmetry_cell_setting 'monoclinic'
loop_
_space_group_symop_operation_xyz
x,y,z
-x,y,-z
-x,-y,-z
x,-y,z
1/2+x,1/2+y,z
1/2-x,1/2+y,-z
1/2-x,1/2-y,-z
1/2+x,1/2-y,z
loop_
_atom_site_type_symbol
_atom_site_label
_atom_site_fract_x
_atom_site_fract_y
_atom_site_fract_z
Si Si1 0.707132 0.655181 0.358763
Si Si2 0.218541 0.055691 0.117957
Si Si3 0.052036 0.879689 0.914832
Si Si4 0.349494 0.861412 0.287711
Si Si5 0.543486 0.280246 0.337409
Si Si6 0.217112 0.749575 0.183087
Si Si7 0.633473 0.786960 0.877679
Si Si8 0.753726 0.762491 0.330978
O O1 0.554609 0.620483 0.217459
O O2 0.610648 0.672787 0.348020
O O3 0.738397 0.707353 0.347631
O O4 0.938004 0.633031 0.530420
O O5 0.345387 0.099589 0.236344
O O6 0.312993 0.000000 0.185460
O O7 0.163522 0.072873 0.019876
O O8 0.000000 0.053536 0.000000
O O9 0.856990 0.868853 0.819217
O O10 0.220548 0.834510 0.031231
O O11 0.328224 0.803979 0.254653
O O12 0.750000 0.250000 0.500000
O O13 0.387937 0.289354 0.278523
O O14 0.411583 0.244172 0.206486
O O15 0.176351 0.741441 0.216815
O O16 0.000000 0.748679 0.000000
O O17 0.403797 0.797008 0.744505
O O18 0.750000 0.750000 0.000000
O O19 0.000000 0.776825 0.500000
#
# Coordination Sequence:
#
# PCOD9218847 Si02
#       8
#     8   8   8   8   8   8   8   8
#     4  11  20  30  44  65  92 125 161 192 223 271
#     4   9  20  35  50  69  90 114 153 203 244 278
#     4  11  19  31  50  66  89 123 157 197 227 275
#     4  11  18  30  48  66  88 120 159 188 233 273
#     4  11  20  29  39  61  94 122 159 195 223 256
#     4  12  20  27  44  66  87 129 165 190 220 269
#     4  11  19  30  44  66  93 123 161 196 225 262
#     4  11  19  32  42  60  98 131 159 193 222 266
#
# _framework density 15.080002
#
# number of rings (size 3 to 8) (size 9 to 14) (size 15 to 20)
#    0.000    1.125    6.250    4.500    0.000    0.000 
#    0.000    0.625    0.000    3.000    0.000    0.000 
#    0.000    0.500    0.000    1.125    0.000    0.125 
#
# Total GULP energy -178454.622726 kJ/mol
# GULP energy per Si atom -5576.706960 kJ/mol
# Density = 1.504568 g / cm^3
# Si number density = 15.080002 Si / 1000 Ang^3
#
#
#
# Elastic Constant Matrix: (Units=GPa)
#
#
# Indices 1 2 3 4 5 6 
#
# 1 57.0162 18.9567 7.3766 -0.0096 -3.1485 0.0002
# 2 18.9567 38.2145 9.6906 -0.0568 -1.4707 -0.0048
# 3 7.3766 9.6906 73.5000 -0.0161 -8.3016 -0.0060
# 4 -0.0096 -0.0568 -0.0161 6.5794 0.0115 -2.6791
# 5 -3.1485 -1.4707 -8.3016 0.0115 27.3512 0.0056
# 6 0.0002 -0.0048 -0.0060 -2.6791 0.0056 11.7923
#
#
#
# Elastic Compliance Matrix: (Units=1/GPa)
#
#
# Indices 1 2 3 4 5 6 
#
# 1 0.021120 -0.010266 -0.000574 -0.000071 0.001705 -0.000022
# 2 -0.010266 0.032068 -0.003248 0.000286 -0.000443 0.000077
# 3 -0.000574 -0.003248 0.014563 0.000001 0.004180 0.000004
# 4 -0.000071 0.000286 0.000001 0.167486 -0.000071 0.038051
# 5 0.001705 -0.000443 0.004180 -0.000071 0.038002 -0.000032
# 6 -0.000022 0.000077 0.000004 0.038051 -0.000032 0.093446
#
#
# Mechanical properties :
#
#
# Convention : Reuss Voigt Hill
#
# Bulk Modulus (GPa) = 25.26737 26.75320 26.01028
# Shear Modulus (GPa) = 12.25333 17.99170 15.12252
#
# Velocity S-wave (km/s) = 2.85363 3.45785 3.17017
# Velocity P-wave (km/s) = 5.25828 5.80704 5.53946
#
# Compressibility (1/GPa) = 0.03957673
#
# Stress axis : x y z
#
# Youngs Moduli (GPa) = 47.34739 31.18410 68.66597
#
# Poissons Ratio (x) = 0.32014 0.03939
# Poissons Ratio (y) = 0.48607 0.22300
# Poissons Ratio (z) = 0.02716 0.10127
#
# Static dielectric constant tensor:
#      x y z
#    x 1.545840 0.000000 -0.005250 
#    y 0.000000 1.474340 -0.000010 
#    z -0.005250 -0.000010 1.540670 
# 
# From -- ./inp_files/345161.got.cif
#   From: 2010.05.17/outbox.cif.g08.bks.cpg/sg12_173_cif.got.tgz:345161.got - 2010.06.03 13:09:07.
