data_PCOD9218755
_publ_section_title
;
Structure prediction by ZEFSAII (Michael W. Deem and Ramdas Pophale) SiO2 
 PCOD9218755
Probable space group: C 2/M
;
_chemical_formula_sum "Si O2"
_cell_formula_units_Z 38
_cell_length_a 14.109757
_cell_length_b 14.170475
_cell_length_c 9.170537
_cell_angle_alpha 90.000000
_cell_angle_beta 69.517687
_cell_angle_gamma 90.000000
_cell_volume 1717.656974
_symmetry_space_group_name_H-M "C 2/M"
_symmetry_group_IT_number 12
_symmetry_cell_setting 'monoclinic'
loop_
_space_group_symop_operation_xyz
x,y,z
-x,y,-z
-x,-y,-z
x,-y,z
1/2+x,1/2+y,z
1/2-x,1/2+y,-z
1/2-x,1/2-y,-z
1/2+x,1/2-y,z
loop_
_atom_site_type_symbol
_atom_site_label
_atom_site_fract_x
_atom_site_fract_y
_atom_site_fract_z
Si Si1 0.767597 0.791633 0.331099
Si Si2 0.720211 0.500000 0.765106
Si Si3 0.000000 0.000000 0.000000
Si Si4 0.536998 0.000000 0.314725
Si Si5 0.938490 0.000000 0.689619
Si Si6 0.960701 0.322312 0.175640
Si Si7 0.922386 0.795752 0.678132
O O1 0.750000 0.750000 0.500000
O O2 0.792243 0.902074 0.317133
O O3 0.849892 0.721113 0.220242
O O4 0.664564 0.778797 0.299860
O O5 0.625760 0.500000 0.928681
O O6 0.838710 0.500000 0.759657
O O7 0.997261 0.000000 0.814574
O O8 0.500000 0.000000 0.500000
O O9 0.485009 0.907649 0.270929
O O10 0.880529 0.901171 0.712053
O O11 0.000000 0.000000 0.500000
O O12 0.020369 0.231676 0.206174
O O13 0.000000 0.353594 0.000000
O O14 0.000000 0.790159 0.500000
#
# Coordination Sequence:
#
# PCOD9218755 Si02
#       7
#     8   4   2   4   4   8   8
#     4  12  26  46  78 112 151 209 264 321 398 471
#     4  12  28  47  82 112 159 211 263 323 408 479
#     4  12  28  48  78 118 158 214 262 322 408 484
#     4  12  25  54  81 110 157 208 261 333 394 470
#     4  10  26  45  72 107 162 204 267 328 386 480
#     4  12  27  45  74 113 153 199 261 322 387 474
#     4  11  23  46  71 108 150 201 264 321 382 467
#
# _framework density 22.123159999999999
#
# number of rings (size 3 to 8) (size 9 to 14) (size 15 to 20)
#    0.000    0.421    4.211    3.474    8.842    3.368 
#    0.000    0.000    0.000    0.000    0.000    0.000 
#    0.000    0.000    0.000    0.000    0.000    0.000 
#
# Total GULP energy -105816.971524 kJ/mol
# GULP energy per Si atom -5569.314291 kJ/mol
# Density = 2.207281 g / cm^3
# Si number density = 22.123160 Si / 1000 Ang^3
#
#
#
# Elastic Constant Matrix: (Units=GPa)
#
#
# Indices 1 2 3 4 5 6 
#
# 1 93.0342 20.0611 25.7439 0.0000 -21.1997 0.0000
# 2 20.0611 176.3603 35.6036 0.0000 -15.0861 0.0000
# 3 25.7439 35.6036 112.6461 0.0000 7.0889 0.0000
# 4 0.0000 0.0000 0.0000 130.0753 0.0000 29.9598
# 5 -21.1997 -15.0861 7.0889 0.0000 31.9176 0.0000
# 6 0.0000 0.0000 0.0000 29.9598 0.0000 42.3574
#
#
#
# Elastic Compliance Matrix: (Units=1/GPa)
#
#
# Indices 1 2 3 4 5 6 
#
# 1 0.014164 0.000058 -0.003904 0.000000 0.010302 0.000000
# 2 0.000058 0.006428 -0.002270 0.000000 0.003581 0.000000
# 3 -0.003904 -0.002270 0.010870 0.000000 -0.006080 0.000000
# 4 0.000000 0.000000 0.000000 0.009184 0.000000 -0.006496
# 5 0.010302 0.003581 -0.006080 0.000000 0.041217 0.000000
# 6 0.000000 0.000000 0.000000 -0.006496 0.000000 0.028203
#
#
# Mechanical properties :
#
#
# Convention : Reuss Voigt Hill
#
# Bulk Modulus (GPa) = 52.00189 60.53978 56.27084
# Shear Modulus (GPa) = 38.84764 60.91220 49.87992
#
# Velocity S-wave (km/s) = 4.19498 5.25290 4.75346
# Velocity P-wave (km/s) = 6.85715 8.01342 7.45773
#
# Compressibility (1/GPa) = 0.01923007
#
# Stress axis : x y z
#
# Youngs Moduli (GPa) = 70.60157 155.56224 91.99844
#
# Poissons Ratio (x) = -0.00905 0.35914
# Poissons Ratio (y) = -0.00411 0.20888
# Poissons Ratio (z) = 0.27561 0.35319
#
# Static dielectric constant tensor:
#      x y z
#    x 1.574050 0.000000 0.169140 
#    y 0.000000 0.631040 0.000000 
#    z 0.169140 0.000000 1.794720 
# 
# From -- ./inp_files/59035.got.cif
#   From: 2010.05.17/outbox.cif.g08.bks.cpg/sg12_30_cif.got.tgz:59035.got - 2010.06.03 13:09:07.
