data_PCOD9218817
_publ_section_title
;
Structure prediction by ZEFSAII (Michael W. Deem and Ramdas Pophale) SiO2 
 PCOD9218817
Probable space group: C 2/M
;
_chemical_formula_sum "Si O2"
_cell_formula_units_Z 40
_cell_length_a 15.779663
_cell_length_b 21.580359
_cell_length_c 10.582523
_cell_angle_alpha 90.000000
_cell_angle_beta 142.302059
_cell_angle_gamma 90.000000
_cell_volume 2203.642205
_symmetry_space_group_name_H-M "C 2/M"
_symmetry_group_IT_number 12
_symmetry_cell_setting 'monoclinic'
loop_
_space_group_symop_operation_xyz
x,y,z
-x,y,-z
-x,-y,-z
x,-y,z
1/2+x,1/2+y,z
1/2-x,1/2+y,-z
1/2-x,1/2-y,-z
1/2+x,1/2-y,z
loop_
_atom_site_type_symbol
_atom_site_label
_atom_site_fract_x
_atom_site_fract_y
_atom_site_fract_z
Si Si1 0.254255 0.660661 0.499800
Si Si2 0.153918 0.240177 0.191548
Si Si3 0.036337 0.197813 0.690341
Si Si4 0.659314 0.181520 0.943752
Si Si5 0.471893 0.928899 0.816591
O O1 0.158644 0.707580 0.305912
O O2 0.254196 0.685351 0.643395
O O3 0.406083 0.672606 0.617865
O O4 0.183598 0.594832 0.396718
O O5 0.184614 0.277694 0.101503
O O6 0.000000 0.215140 0.000000
O O7 0.071341 0.270802 0.754222
O O8 0.000000 0.187088 0.500000
O O9 0.181916 0.167500 0.907332
O O10 0.575224 0.119611 0.872355
O O11 0.492555 0.000000 0.803534
O O12 0.500000 0.924002 0.000000
#
# Coordination Sequence:
#
# PCOD9218817 Si02
#       5
#     8   8   8   8   8
#     4  11  19  31  53  79 109 135 179 217 264 317
#     4  11  17  30  54  80 107 136 165 229 270 306
#     4  11  21  30  52  83 114 135 161 229 277 318
#     4  11  20  34  50  84 111 137 175 209 283 317
#     4  11  21  36  56  75 105 145 185 218 249 315
#
# _framework density 18.151768000000001
#
# number of rings (size 3 to 8) (size 9 to 14) (size 15 to 20)
#    0.000    1.000    8.000    1.200    0.000    0.000 
#    0.000    1.000    0.000    4.800    0.000    0.000 
#    0.000    0.000    0.000    0.000    0.000    0.000 
#
# Total GULP energy -111446.104060 kJ/mol
# GULP energy per Si atom -5572.305203 kJ/mol
# Density = 1.811045 g / cm^3
# Si number density = 18.151768 Si / 1000 Ang^3
#
#
#
# Elastic Constant Matrix: (Units=GPa)
#
#
# Indices 1 2 3 4 5 6 
#
# 1 54.6003 37.3487 30.9685 0.0000 23.1929 0.0000
# 2 37.3487 111.5499 31.6451 0.0000 22.3901 0.0000
# 3 30.9685 31.6451 88.9487 0.0000 22.2357 0.0000
# 4 0.0000 0.0000 0.0000 18.8215 0.0000 0.4532
# 5 23.1929 22.3901 22.2357 0.0000 35.9208 0.0000
# 6 0.0000 0.0000 0.0000 0.4532 0.0000 21.7957
#
#
#
# Elastic Compliance Matrix: (Units=1/GPa)
#
#
# Indices 1 2 3 4 5 6 
#
# 1 0.031148 -0.006325 -0.005386 0.000000 -0.012835 0.000000
# 2 -0.006325 0.011992 -0.001439 0.000000 -0.002500 0.000000
# 3 -0.005386 -0.001439 0.014831 0.000000 -0.004806 0.000000
# 4 0.000000 0.000000 0.000000 0.053157 0.000000 -0.001105
# 5 -0.012835 -0.002500 -0.004806 0.000000 0.040660 0.000000
# 6 0.000000 0.000000 0.000000 -0.001105 0.000000 0.045904
#
#
# Mechanical properties :
#
#
# Convention : Reuss Voigt Hill
#
# Bulk Modulus (GPa) = 31.57406 50.55815 41.06611
# Shear Modulus (GPa) = 21.31743 25.65004 23.48373
#
# Velocity S-wave (km/s) = 3.43067 3.76318 3.60077
# Velocity P-wave (km/s) = 5.75542 6.84073 6.32141
#
# Compressibility (1/GPa) = 0.03167156
#
# Stress axis : x y z
#
# Youngs Moduli (GPa) = 32.10468 83.38583 67.42572
#
# Poissons Ratio (x) = 0.52739 0.36315
# Poissons Ratio (y) = 0.20305 0.09706
# Poissons Ratio (z) = 0.17291 0.12003
#
# Static dielectric constant tensor:
#      x y z
#    x 1.727660 0.000000 0.024920 
#    y 0.000000 1.596060 0.000000 
#    z 0.024920 0.000000 1.681710 
# 
# From -- ./inp_files/132325.got.cif
#   From: 2010.05.17/outbox.cif.g08.bks.cpg/sg12_67_cif.got.tgz:132325.got - 2010.06.03 13:09:07.
