data_PCOD9218482
_publ_section_title
;
Structure prediction by ZEFSAII (Michael W. Deem and Ramdas Pophale) SiO2 
 PCOD9218482
Probable space group: C 2/M
;
_chemical_formula_sum "Si O2"
_cell_formula_units_Z 36
_cell_length_a 14.447926
_cell_length_b 25.366014
_cell_length_c 15.444806
_cell_angle_alpha 90.000000
_cell_angle_beta 161.125409
_cell_angle_gamma 90.000000
_cell_volume 1831.097878
_symmetry_space_group_name_H-M "C 2/M"
_symmetry_group_IT_number 12
_symmetry_cell_setting 'monoclinic'
loop_
_space_group_symop_operation_xyz
x,y,z
-x,y,-z
-x,-y,-z
x,-y,z
1/2+x,1/2+y,z
1/2-x,1/2+y,-z
1/2-x,1/2-y,-z
1/2+x,1/2-y,z
loop_
_atom_site_type_symbol
_atom_site_label
_atom_site_fract_x
_atom_site_fract_y
_atom_site_fract_z
Si Si1 0.576678 0.000000 0.315314
Si Si2 0.065495 0.919003 0.814560
Si Si3 0.772881 0.758671 0.417670
Si Si4 0.810378 0.672201 0.912061
Si Si5 0.191170 0.853920 0.254514
O O1 0.810260 0.045722 0.551061
O O2 0.341039 0.045685 0.079178
O O3 0.151502 0.874013 0.822030
O O4 0.959521 0.890941 0.808706
O O5 0.750000 0.750000 0.500000
O O6 0.742754 0.702910 0.343679
O O7 0.076482 0.786491 0.669889
O O8 0.520359 0.796699 0.162350
O O9 0.000000 0.652020 0.000000
O O10 0.500000 0.876007 0.500000
O O11 0.000000 0.848174 0.000000
#
# Coordination Sequence:
#
# PCOD9218482 Si02
#       5
#     4   8   8   8   8
#     4  10  24  46  71  92 124 170 214 300 327 382
#     4  11  24  46  68  94 130 167 226 270 343 375
#     4  12  24  41  65  99 142 177 214 256 317 387
#     4  12  25  43  67  99 136 177 213 265 321 395
#     4  12  25  41  66  99 137 177 215 261 320 395
#
# _framework density 19.660336999999998
#
# number of rings (size 3 to 8) (size 9 to 14) (size 15 to 20)
#    0.000    0.444    2.222    7.333    3.111    0.000 
#    0.000   14.444    0.000    0.000    0.000    0.000 
#    0.000    0.000    0.000    0.000    0.000    0.000 
#
# Total GULP energy -100253.103649 kJ/mol
# GULP energy per Si atom -5569.616869 kJ/mol
# Density = 1.961559 g / cm^3
# Si number density = 19.660337 Si / 1000 Ang^3
#
#
#
# Elastic Constant Matrix: (Units=GPa)
#
#
# Indices 1 2 3 4 5 6 
#
# 1 79.6832 8.5085 16.8854 -0.0198 -7.6466 -0.0240
# 2 8.5085 67.8712 35.1819 -0.0278 -5.2162 -0.0151
# 3 16.8854 35.1819 186.0199 -0.0088 -7.6618 -0.0198
# 4 -0.0198 -0.0278 -0.0088 8.8717 0.0104 -1.1721
# 5 -7.6466 -5.2162 -7.6618 0.0104 20.4685 -0.0052
# 6 -0.0240 -0.0151 -0.0198 -1.1721 -0.0052 -8.0140
#
#
#
# Elastic Compliance Matrix: (Units=1/GPa)
#
#
# Indices 1 2 3 4 5 6 
#
# 1 0.013247 -0.000879 -0.000855 0.000015 0.004405 -0.000041
# 2 -0.000879 0.016584 -0.002941 0.000040 0.002797 -0.000029
# 3 -0.000855 -0.002941 0.006059 -0.000007 0.001199 -0.000007
# 4 0.000015 0.000040 -0.000007 0.110582 -0.000047 -0.016173
# 5 0.004405 0.002797 0.001199 -0.000047 0.051663 -0.000048
# 6 -0.000041 -0.000029 -0.000007 -0.016173 -0.000048 -0.122416
#
#
# Mechanical properties :
#
#
# Convention : Reuss Voigt Hill
#
# Bulk Modulus (GPa) = 37.67982 50.52510 44.10246
# Shear Modulus (GPa) = 53.23943 22.46514 37.85229
#
# Velocity S-wave (km/s) = 5.20945 3.38400 4.39260
# Velocity P-wave (km/s) = 7.44255 6.40495 6.94316
#
# Compressibility (1/GPa) = 0.02653941
#
# Stress axis : x y z
#
# Youngs Moduli (GPa) = 75.48649 60.30020 165.04170
#
# Poissons Ratio (x) = 0.05301 0.14108
# Poissons Ratio (y) = 0.06636 0.48547
# Poissons Ratio (z) = 0.06453 0.17737
#
# Static dielectric constant tensor:
#      x y z
#    x 1.712120 0.000000 0.011530 
#    y 0.000000 1.651660 -0.000010 
#    z 0.011530 -0.000010 1.670860 
# 
# From -- ./inp_files/218603.got.cif
#   From: 2010.05.17/outbox.cif.g08.bks.cpg/sg12_110_cif.got.tgz:218603.got - 2010.06.03 13:09:07.
