data_PCOD9218433
_publ_section_title
;
Structure prediction by ZEFSAII (Michael W. Deem and Ramdas Pophale) SiO2 
 PCOD9218433
Probable space group: C 2/M
;
_chemical_formula_sum "Si O2"
_cell_formula_units_Z 36
_cell_length_a 8.836604
_cell_length_b 21.518060
_cell_length_c 7.868385
_cell_angle_alpha 90.000000
_cell_angle_beta 107.288047
_cell_angle_gamma 90.000000
_cell_volume 1428.554776
_symmetry_space_group_name_H-M "C 2/M"
_symmetry_group_IT_number 12
_symmetry_cell_setting 'monoclinic'
loop_
_space_group_symop_operation_xyz
x,y,z
-x,y,-z
-x,-y,-z
x,-y,z
1/2+x,1/2+y,z
1/2-x,1/2+y,-z
1/2-x,1/2-y,-z
1/2+x,1/2-y,z
loop_
_atom_site_type_symbol
_atom_site_label
_atom_site_fract_x
_atom_site_fract_y
_atom_site_fract_z
Si Si1 0.185132 0.655631 0.575707
Si Si2 0.596199 0.569250 0.204861
Si Si3 0.359599 0.257640 0.869488
Si Si4 0.000000 0.636762 0.000000
Si Si5 0.220874 0.074955 0.721525
O O1 0.246219 0.610088 0.747974
O O2 0.274473 0.716736 0.675316
O O3 0.240052 0.615242 0.432185
O O4 0.000000 0.664588 0.500000
O O5 0.643208 0.500000 0.273774
O O6 0.457467 0.592539 0.283725
O O7 0.500000 0.564269 0.000000
O O8 0.500000 0.298868 0.000000
O O9 0.250000 0.250000 0.000000
O O10 0.447229 0.192842 0.850626
O O11 0.150085 0.592865 0.089570
O O12 0.226320 0.000000 0.699189
#
# Coordination Sequence:
#
# PCOD9218433 Si02
#       5
#     8   8   8   4   8
#     4  12  26  44  71 108 152 189 247 309 369 435
#     4  10  24  45  74 107 147 199 246 301 372 447
#     4  10  25  47  73 103 143 195 250 303 365 442
#     4  10  25  44  76 102 147 194 246 300 372 442
#     4  11  25  46  75 112 150 190 247 309 373 441
#
# _framework density 25.200292000000001
#
# number of rings (size 3 to 8) (size 9 to 14) (size 15 to 20)
#    0.667    0.667    0.000    3.667    9.333    4.444 
#    0.000    0.000    0.000    0.000    0.000    0.000 
#    0.000    0.000    0.000    0.000    0.000    0.000 
#
# Total GULP energy -100230.822459 kJ/mol
# GULP energy per Si atom -5568.379025 kJ/mol
# Density = 2.514293 g / cm^3
# Si number density = 25.200292 Si / 1000 Ang^3
#
#
#
# Elastic Constant Matrix: (Units=GPa)
#
#
# Indices 1 2 3 4 5 6 
#
# 1 91.8188 39.0916 87.5001 0.0000 36.6022 0.0000
# 2 39.0916 110.7580 65.6275 0.0000 23.7170 0.0000
# 3 87.5001 65.6275 178.4137 0.0000 20.8384 0.0000
# 4 0.0000 0.0000 0.0000 16.8254 0.0000 71.6143
# 5 36.6022 23.7170 20.8384 0.0000 68.3369 0.0000
# 6 0.0000 0.0000 0.0000 71.6143 0.0000 -57.8962
#
#
#
# Elastic Compliance Matrix: (Units=1/GPa)
#
#
# Indices 1 2 3 4 5 6 
#
# 1 0.026081 -0.000151 -0.011520 0.000000 -0.010404 0.000000
# 2 -0.000151 0.012092 -0.004037 0.000000 -0.002885 0.000000
# 3 -0.011520 -0.004037 0.012293 0.000000 0.003823 0.000000
# 4 0.000000 0.000000 0.000000 0.009487 0.000000 0.011735
# 5 -0.010404 -0.002885 0.003823 0.000000 0.020041 0.000000
# 6 0.000000 0.000000 0.000000 0.011735 0.000000 -0.002757
#
#
# Mechanical properties :
#
#
# Convention : Reuss Voigt Hill
#
# Bulk Modulus (GPa) = 52.49449 85.04765 68.77107
# Shear Modulus (GPa) = 43.47682 18.03797 30.75740
#
# Velocity S-wave (km/s) = 4.15812 2.67832 3.49738
# Velocity P-wave (km/s) = 6.62793 6.58684 6.60741
#
# Compressibility (1/GPa) = 0.01904962
#
# Stress axis : x y z
#
# Youngs Moduli (GPa) = 38.34165 82.70192 81.34554
#
# Poissons Ratio (x) = 0.01251 0.93713
# Poissons Ratio (y) = 0.00580 0.32836
# Poissons Ratio (z) = 0.44171 0.33384
#
# Static dielectric constant tensor:
#      x y z
#    x 2.004480 0.000000 0.002340 
#    y 0.000000 2.077440 0.000000 
#    z 0.002340 0.000000 2.228660 
# 
# From -- ./inp_files/39533.got.cif
#   From: 2010.05.17/outbox.cif.g08.bks.cpg/sg12_20_cif.got.tgz:39533.got - 2010.06.03 13:09:07.
