data_PCOD9218527
_publ_section_title
;
Structure prediction by ZEFSAII (Michael W. Deem and Ramdas Pophale) SiO2 
 PCOD9218527
Probable space group: C 2/M
;
_chemical_formula_sum "Si O2"
_cell_formula_units_Z 42
_cell_length_a 12.245339
_cell_length_b 26.795780
_cell_length_c 5.482299
_cell_angle_alpha 90.000000
_cell_angle_beta 101.337921
_cell_angle_gamma 90.000000
_cell_volume 1763.765245
_symmetry_space_group_name_H-M "C 2/M"
_symmetry_group_IT_number 12
_symmetry_cell_setting 'monoclinic'
loop_
_space_group_symop_operation_xyz
x,y,z
-x,y,-z
-x,-y,-z
x,-y,z
1/2+x,1/2+y,z
1/2-x,1/2+y,-z
1/2-x,1/2-y,-z
1/2+x,1/2-y,z
loop_
_atom_site_type_symbol
_atom_site_label
_atom_site_fract_x
_atom_site_fract_y
_atom_site_fract_z
Si Si1 0.890199 0.443146 0.788347
Si Si2 0.211698 0.633943 0.586440
Si Si3 0.332500 0.415832 0.016485
Si Si4 0.880686 0.183719 0.312793
Si Si5 0.429624 0.792617 0.214453
Si Si6 0.500000 0.500000 0.000000
O O1 0.888044 0.500000 0.685703
O O2 0.881111 0.398564 0.590502
O O3 0.780204 0.434046 0.902144
O O4 0.000000 0.438711 0.000000
O O5 0.277179 0.673645 0.449284
O O6 0.159439 0.663681 0.789072
O O7 0.300514 0.593428 0.720619
O O8 0.374764 0.362867 0.130645
O O9 0.424099 0.456762 0.093041
O O10 0.875462 0.237679 0.185775
O O11 0.000000 0.182052 0.500000
O O12 0.500000 0.794122 0.500000
O O13 0.500000 0.799529 0.000000
#
# Coordination Sequence:
#
# PCOD9218527 Si02
#       6
#     8   8   8   8   8   2
#     4  10  24  47  72 108 151 198 255 319 390 466
#     4  11  26  44  76 110 147 203 255 324 387 466
#     4  11  25  42  73 104 152 195 258 315 384 460
#     4  10  24  48  71 108 150 205 254 320 388 467
#     4  11  28  46  77 114 157 204 260 324 399 466
#     4  12  24  44  68 110 146 200 246 324 376 474
#
# _framework density 23.812691999999998
#
# number of rings (size 3 to 8) (size 9 to 14) (size 15 to 20)
#    0.000    1.333    0.952    1.714   16.000    0.762 
#    0.000    4.286    0.000    0.571    0.000    0.000 
#    0.000    0.000    0.000    0.000    0.000    0.000 
#
# Total GULP energy -117351.397731 kJ/mol
# GULP energy per Si atom -5588.161797 kJ/mol
# Density = 2.375849 g / cm^3
# Si number density = 23.812692 Si / 1000 Ang^3
#
#
#
# Elastic Constant Matrix: (Units=GPa)
#
#
# Indices 1 2 3 4 5 6 
#
# 1 109.1137 63.7875 35.9526 0.0000 -14.5832 0.0000
# 2 63.7875 177.2336 43.4366 0.0000 -6.0918 0.0000
# 3 35.9526 43.4366 73.6080 0.0000 -10.3698 0.0000
# 4 0.0000 0.0000 0.0000 -19.2786 0.0000 4.6036
# 5 -14.5832 -6.0918 -10.3698 0.0000 41.7673 0.0000
# 6 0.0000 0.0000 0.0000 4.6036 0.0000 39.1199
#
#
#
# Elastic Compliance Matrix: (Units=1/GPa)
#
#
# Indices 1 2 3 4 5 6 
#
# 1 0.012929 -0.003631 -0.003742 0.000000 0.003056 0.000000
# 2 -0.003631 0.007616 -0.002842 0.000000 -0.000863 0.000000
# 3 -0.003742 -0.002842 0.017458 0.000000 0.002614 0.000000
# 4 0.000000 0.000000 0.000000 -0.050453 0.000000 0.005937
# 5 0.003056 -0.000863 0.002614 0.000000 0.025532 0.000000
# 6 0.000000 0.000000 0.000000 0.005937 0.000000 0.024864
#
#
# Mechanical properties :
#
#
# Convention : Reuss Voigt Hill
#
# Bulk Modulus (GPa) = 56.90469 71.81208 64.35838
# Shear Modulus (GPa) = 77.84093 26.77364 52.30728
#
# Velocity S-wave (km/s) = 5.72362 3.35676 4.69189
# Velocity P-wave (km/s) = 8.22365 6.72654 7.51248
#
# Compressibility (1/GPa) = 0.01757324
#
# Stress axis : x y z
#
# Youngs Moduli (GPa) = 77.34728 131.30147 57.27890
#
# Poissons Ratio (x) = 0.47677 0.21432
# Poissons Ratio (y) = 0.28086 0.16280
# Poissons Ratio (z) = 0.28940 0.37319
#
# Static dielectric constant tensor:
#      x y z
#    x 1.928990 0.000000 0.059100 
#    y 0.000000 1.829820 0.000000 
#    z 0.059100 0.000000 1.999300 
# 
# From -- ./inp_files/8466.got.cif
#   From: 2010.05.17/outbox.cif.g08.bks.cpg/sg12_5_cif.got.tgz:8466.got - 2010.06.03 13:09:07.
