data_PCOD9218409
_publ_section_title
;
Structure prediction by ZEFSAII (Michael W. Deem and Ramdas Pophale) SiO2 
 PCOD9218409
Probable space group: C 2/M
;
_chemical_formula_sum "Si O2"
_cell_formula_units_Z 56
_cell_length_a 25.611838
_cell_length_b 16.934139
_cell_length_c 9.712230
_cell_angle_alpha 90.000000
_cell_angle_beta 43.856370
_cell_angle_gamma 90.000000
_cell_volume 2918.528154
_symmetry_space_group_name_H-M "C 2/M"
_symmetry_group_IT_number 12
_symmetry_cell_setting 'monoclinic'
loop_
_space_group_symop_operation_xyz
x,y,z
-x,y,-z
-x,-y,-z
x,-y,z
1/2+x,1/2+y,z
1/2-x,1/2+y,-z
1/2-x,1/2-y,-z
1/2+x,1/2-y,z
loop_
_atom_site_type_symbol
_atom_site_label
_atom_site_fract_x
_atom_site_fract_y
_atom_site_fract_z
Si Si1 0.087281 0.587277 0.877634
Si Si2 0.491371 0.298255 0.850133
Si Si3 0.127388 0.686678 0.042286
Si Si4 0.565557 0.594476 0.489840
Si Si5 0.289209 0.290039 0.790541
Si Si6 0.911812 0.415386 0.642605
Si Si7 0.618956 0.171533 0.559333
O O1 0.117462 0.500000 0.807114
O O2 0.131258 0.644775 0.691372
O O3 0.089575 0.617589 0.026832
O O4 0.000000 0.588406 0.000000
O O5 0.410271 0.267529 0.944594
O O6 0.525950 0.373634 0.705525
O O7 0.545709 0.226903 0.700717
O O8 0.500000 0.304806 0.000000
O O9 0.111678 0.663385 0.230109
O O10 0.216120 0.674713 0.854726
O O11 0.500000 0.607936 0.500000
O O12 0.582054 0.500000 0.462651
O O13 0.641407 0.647930 0.318264
O O14 0.317842 0.222867 0.633080
O O15 0.250000 0.250000 0.000000
O O16 0.877458 0.500000 0.752169
O O17 0.895714 0.401850 0.512850
O O18 0.000000 0.419903 0.500000
#
# Coordination Sequence:
#
# PCOD9218409 Si02
#       7
#     8   8   8   8   8   8   8
#     4  11  21  37  59  88 126 162 194 233 296 364
#     4  11  21  39  65  91 119 158 205 251 298 360
#     4  12  21  37  60  89 123 160 200 250 302 358
#     4  10  24  45  69  90 117 159 208 257 306 361
#     4  11  24  39  63  92 120 156 202 253 309 352
#     4  11  21  32  55  89 120 156 200 244 296 360
#     4  11  20  38  56  85 117 163 203 243 287 361
#
# _framework density 19.187753000000001
#
# number of rings (size 3 to 8) (size 9 to 14) (size 15 to 20)
#    0.000    1.000    5.714    1.714    2.000    4.286 
#    0.000    0.000    0.000    0.857    0.000    0.000 
#    0.000    0.000    0.000    0.000    0.000    0.000 
#
# Total GULP energy -155934.236085 kJ/mol
# GULP energy per Si atom -5569.079860 kJ/mol
# Density = 1.914408 g / cm^3
# Si number density = 19.187753 Si / 1000 Ang^3
#
#
#
# Elastic Constant Matrix: (Units=GPa)
#
#
# Indices 1 2 3 4 5 6 
#
# 1 60.6746 15.3171 24.7151 0.0000 -9.1737 0.0000
# 2 15.3171 85.7013 35.5472 0.0000 -7.7694 0.0000
# 3 24.7151 35.5472 95.9923 0.0000 0.1642 0.0000
# 4 0.0000 0.0000 0.0000 26.1743 0.0000 3.7112
# 5 -9.1737 -7.7694 0.1642 0.0000 35.6031 0.0000
# 6 0.0000 0.0000 0.0000 3.7112 0.0000 18.3861
#
#
#
# Elastic Compliance Matrix: (Units=1/GPa)
#
#
# Indices 1 2 3 4 5 6 
#
# 1 0.019348 -0.001131 -0.004571 0.000000 0.004760 0.000000
# 2 -0.001131 0.014187 -0.004967 0.000000 0.002828 0.000000
# 3 -0.004571 -0.004967 0.013438 0.000000 -0.002324 0.000000
# 4 0.000000 0.000000 0.000000 0.039331 0.000000 -0.007939
# 5 0.004760 0.002828 -0.002324 0.000000 0.029942 0.000000
# 6 0.000000 0.000000 0.000000 -0.007939 0.000000 0.055991
#
#
# Mechanical properties :
#
#
# Convention : Reuss Voigt Hill
#
# Bulk Modulus (GPa) = 39.00875 43.72523 41.36699
# Shear Modulus (GPa) = 24.73768 27.15198 25.94483
#
# Velocity S-wave (km/s) = 3.59450 3.76582 3.68116
# Velocity P-wave (km/s) = 6.13200 6.46112 6.29871
#
# Compressibility (1/GPa) = 0.02563527
#
# Stress axis : x y z
#
# Youngs Moduli (GPa) = 51.68387 70.48589 74.41632
#
# Poissons Ratio (x) = 0.07969 0.34016
# Poissons Ratio (y) = 0.05843 0.36966
# Poissons Ratio (z) = 0.23625 0.35014
#
# Static dielectric constant tensor:
#      x y z
#    x 1.715660 0.000000 -0.003600 
#    y 0.000000 1.728030 0.000000 
#    z -0.003600 0.000000 1.678360 
# 
# From -- ./inp_files/98067.got.cif
#   From: 2010.05.17/outbox.cif.g08.bks.cpg/sg12_50_cif.got.tgz:98067.got - 2010.06.03 13:09:07.
