data_PCOD9218292
_publ_section_title
;
Structure prediction by ZEFSAII (Michael W. Deem and Ramdas Pophale) SiO2 
 PCOD9218292
Probable space group: C 2/M
;
_chemical_formula_sum "Si O2"
_cell_formula_units_Z 44
_cell_length_a 33.058061
_cell_length_b 10.896833
_cell_length_c 9.596547
_cell_angle_alpha 90.000000
_cell_angle_beta 42.592438
_cell_angle_gamma 90.000000
_cell_volume 2339.588190
_symmetry_space_group_name_H-M "C 2/M"
_symmetry_group_IT_number 12
_symmetry_cell_setting 'monoclinic'
loop_
_space_group_symop_operation_xyz
x,y,z
-x,y,-z
-x,-y,-z
x,-y,z
1/2+x,1/2+y,z
1/2-x,1/2+y,-z
1/2-x,1/2-y,-z
1/2+x,1/2-y,z
loop_
_atom_site_type_symbol
_atom_site_label
_atom_site_fract_x
_atom_site_fract_y
_atom_site_fract_z
Si Si1 0.207119 0.866570 0.619724
Si Si2 0.277587 0.640104 0.111035
Si Si3 0.346792 0.250875 0.490306
Si Si4 0.500000 0.801642 0.500000
Si Si5 0.907091 0.500000 0.254260
Si Si6 0.488376 0.000000 0.776380
Si Si7 0.606957 0.352765 0.352269
O O1 0.250000 0.750000 0.500000
O O2 0.187752 0.864045 0.828752
O O3 0.159174 0.845540 0.621633
O O4 0.236730 0.000000 0.522774
O O5 0.257419 0.500000 0.131556
O O6 0.219548 0.724361 0.278467
O O7 0.327367 0.677185 0.875398
O O8 0.390322 0.302047 0.497684
O O9 0.368702 0.122116 0.373278
O O10 0.443376 0.717149 0.607023
O O11 0.488564 0.885980 0.666780
O O12 0.954597 0.500000 0.263015
O O13 0.935999 0.500000 0.026062
O O14 0.599446 0.500000 0.367058
#
# Coordination Sequence:
#
# PCOD9218292 Si02
#       7
#     8   8   8   4   4   4   8
#     4   9  19  34  55  83 122 162 201 247 304 368
#     4   9  19  36  57  87 124 158 200 246 306 363
#     4  11  20  37  62  89 127 157 201 254 312 368
#     4  11  23  44  64  86 121 157 210 258 302 363
#     4  11  22  40  68  94 118 159 200 260 321 362
#     4  10  24  44  66  90 116 156 208 261 309 365
#     4  11  23  38  60  86 121 167 205 250 300 367
#
# _framework density 18.806728
#
# number of rings (size 3 to 8) (size 9 to 14) (size 15 to 20)
#    0.000    1.818    2.727    1.364    3.818    0.000 
#    0.000    0.000    6.000    1.091    0.000    0.000 
#    0.000    0.000    0.000    0.000    0.000    0.000 
#
# Total GULP energy -122561.632039 kJ/mol
# GULP energy per Si atom -5570.983274 kJ/mol
# Density = 1.876392 g / cm^3
# Si number density = 18.806728 Si / 1000 Ang^3
#
#
#
# Elastic Constant Matrix: (Units=GPa)
#
#
# Indices 1 2 3 4 5 6 
#
# 1 107.6447 42.9963 35.8638 0.0000 16.3863 0.0000
# 2 42.9963 109.8208 46.9318 0.0000 6.8102 0.0000
# 3 35.8638 46.9318 79.4454 0.0000 11.7604 0.0000
# 4 0.0000 0.0000 0.0000 8.9863 0.0000 4.1615
# 5 16.3863 6.8102 11.7604 0.0000 28.5011 0.0000
# 6 0.0000 0.0000 0.0000 4.1615 0.0000 33.3147
#
#
#
# Elastic Compliance Matrix: (Units=1/GPa)
#
#
# Indices 1 2 3 4 5 6 
#
# 1 0.012339 -0.003287 -0.002870 0.000000 -0.005125 0.000000
# 2 -0.003287 0.013056 -0.006441 0.000000 0.001427 0.000000
# 3 -0.002870 -0.006441 0.018335 0.000000 -0.004377 0.000000
# 4 0.000000 0.000000 0.000000 0.118113 0.000000 -0.014754
# 5 -0.005125 0.001427 -0.004377 0.000000 0.039498 0.000000
# 6 0.000000 0.000000 0.000000 -0.014754 0.000000 0.031860
#
#
# Mechanical properties :
#
#
# Convention : Reuss Voigt Hill
#
# Bulk Modulus (GPa) = 53.94801 60.94387 57.44594
# Shear Modulus (GPa) = 18.89831 25.56835 22.23333
#
# Velocity S-wave (km/s) = 3.17341 3.69118 3.44204
# Velocity P-wave (km/s) = 6.49424 7.11633 6.81239
#
# Compressibility (1/GPa) = 0.01853636
#
# Stress axis : x y z
#
# Youngs Moduli (GPa) = 81.04495 76.59107 54.53906
#
# Poissons Ratio (x) = 0.25172 0.15653
# Poissons Ratio (y) = 0.26636 0.35126
# Poissons Ratio (z) = 0.23260 0.49329
#
# Static dielectric constant tensor:
#      x y z
#    x 1.694900 0.000000 0.026350 
#    y 0.000000 1.650560 0.000000 
#    z 0.026350 0.000000 1.646110 
# 
# From -- ./inp_files/109768.got.cif
#   From: 2010.05.17/outbox.cif.g08.bks.cpg/sg12_55_cif.got.tgz:109768.got - 2010.06.03 13:09:07.
