data_PCOD9218427
_publ_section_title
;
Structure prediction by ZEFSAII (Michael W. Deem and Ramdas Pophale) SiO2 
 PCOD9218427
Probable space group: C 2/M
;
_chemical_formula_sum "Si O2"
_cell_formula_units_Z 24
_cell_length_a 13.831501
_cell_length_b 15.213309
_cell_length_c 10.039466
_cell_angle_alpha 90.000000
_cell_angle_beta 30.064355
_cell_angle_gamma 90.000000
_cell_volume 1058.321017
_symmetry_space_group_name_H-M "C 2/M"
_symmetry_group_IT_number 12
_symmetry_cell_setting 'monoclinic'
loop_
_space_group_symop_operation_xyz
x,y,z
-x,y,-z
-x,-y,-z
x,-y,z
1/2+x,1/2+y,z
1/2-x,1/2+y,-z
1/2-x,1/2-y,-z
1/2+x,1/2-y,z
loop_
_atom_site_type_symbol
_atom_site_label
_atom_site_fract_x
_atom_site_fract_y
_atom_site_fract_z
Si Si1 0.665974 0.324049 0.909868
Si Si2 0.478110 0.000000 0.867446
Si Si3 0.843033 0.858069 0.785658
Si Si4 0.767038 0.000000 0.293044
O O1 0.788449 0.237335 0.792599
O O2 0.784204 0.408331 0.716658
O O3 0.500000 0.304862 0.000000
O O4 0.579018 0.349474 0.157516
O O5 0.675412 0.000000 0.548511
O O6 0.500000 0.000000 0.000000
O O7 0.349762 0.084129 0.980772
O O8 0.000000 0.898069 0.500000
O O9 0.000000 0.000000 0.000000
#
# Coordination Sequence:
#
# PCOD9218427 Si02
#       4
#     8   4   8   4
#     4  10  24  45  72 103 141 192 238 284 353 423
#     4  12  28  46  75 107 144 185 239 298 359 415
#     4  11  26  43  71 109 146 181 238 297 352 419
#     4  10  25  46  75 100 138 193 238 284 355 429
#
# _framework density 22.677429
#
# number of rings (size 3 to 8) (size 9 to 14) (size 15 to 20)
#    0.000    1.333    0.000    2.500   18.667    2.667 
#    0.000    0.000    0.000    0.000    0.000    0.000 
#    0.000    0.000    0.000    0.000    0.000    0.000 
#
# Total GULP energy -67119.132139 kJ/mol
# GULP energy per Si atom -5593.261012 kJ/mol
# Density = 2.262581 g / cm^3
# Si number density = 22.677429 Si / 1000 Ang^3
#
#
#
# Elastic Constant Matrix: (Units=GPa)
#
#
# Indices 1 2 3 4 5 6 
#
# 1 165.6507 20.5497 69.0609 -0.0006 35.9994 0.0021
# 2 20.5497 144.0121 33.0954 -0.0005 10.4664 0.0019
# 3 69.0609 33.0954 181.7980 -0.0007 18.5491 0.0020
# 4 -0.0006 -0.0005 -0.0007 13.8931 0.0004 -2.8448
# 5 35.9994 10.4664 18.5491 0.0004 39.7869 -0.0014
# 6 0.0021 0.0019 0.0020 -2.8448 -0.0014 14.4525
#
#
#
# Elastic Compliance Matrix: (Units=1/GPa)
#
#
# Indices 1 2 3 4 5 6 
#
# 1 0.008529 -0.000160 -0.002549 0.000000 -0.006487 -0.000001
# 2 -0.000160 0.007320 -0.001145 0.000000 -0.001247 -0.000001
# 3 -0.002549 -0.001145 0.006731 0.000000 -0.000531 0.000000
# 4 0.000000 0.000000 0.000000 0.075001 -0.000001 0.014763
# 5 -0.006487 -0.001247 -0.000531 -0.000001 0.031579 0.000004
# 6 -0.000001 -0.000001 0.000000 0.014763 0.000004 0.072098
#
#
# Mechanical properties :
#
#
# Convention : Reuss Voigt Hill
#
# Bulk Modulus (GPa) = 67.23202 81.87478 74.55340
# Shear Modulus (GPa) = 23.37281 38.21015 30.79148
#
# Velocity S-wave (km/s) = 3.21388 4.10926 3.68884
# Velocity P-wave (km/s) = 6.59420 7.66140 7.14775
#
# Compressibility (1/GPa) = 0.01487387
#
# Stress axis : x y z
#
# Youngs Moduli (GPa) = 117.24656 136.60497 148.55601
#
# Poissons Ratio (x) = 0.02183 0.37868
# Poissons Ratio (y) = 0.01874 0.17004
# Poissons Ratio (z) = 0.29887 0.15636
#
# Static dielectric constant tensor:
#      x y z
#    x 1.820690 0.000000 -0.008990 
#    y 0.000000 1.869810 0.000000 
#    z -0.008990 0.000000 1.864060 
# 
# From -- ./inp_files/60628.got.cif
#   From: 2010.05.17/outbox.cif.g08.bks.cpg/sg12_31_cif.got.tgz:60628.got - 2010.06.03 13:09:07.
