data_PCOD9218960
_publ_section_title
;
Structure prediction by ZEFSAII (Michael W. Deem and Ramdas Pophale) SiO2 
 PCOD9218960
Probable space group: C 2/M
;
_chemical_formula_sum "Si O2"
_cell_formula_units_Z 40
_cell_length_a 17.627298
_cell_length_b 16.392627
_cell_length_c 17.820005
_cell_angle_alpha 90.000000
_cell_angle_beta 23.032823
_cell_angle_gamma 90.000000
_cell_volume 2014.678689
_symmetry_space_group_name_H-M "C 2/M"
_symmetry_group_IT_number 12
_symmetry_cell_setting 'monoclinic'
loop_
_space_group_symop_operation_xyz
x,y,z
-x,y,-z
-x,-y,-z
x,-y,z
1/2+x,1/2+y,z
1/2-x,1/2+y,-z
1/2-x,1/2-y,-z
1/2+x,1/2-y,z
loop_
_atom_site_type_symbol
_atom_site_label
_atom_site_fract_x
_atom_site_fract_y
_atom_site_fract_z
Si Si1 0.367581 0.831781 0.825814
Si Si2 0.775885 0.597121 0.424407
Si Si3 0.818743 0.000000 0.248607
Si Si4 0.890567 0.500000 0.713534
Si Si5 0.928802 0.846486 0.235320
Si Si6 0.087257 0.225959 0.503816
O O1 0.524191 0.851842 0.747974
O O2 0.444953 0.764256 0.696737
O O3 0.371418 0.918086 0.778149
O O4 0.146799 0.816635 0.050030
O O5 0.805956 0.500000 0.391765
O O6 0.660280 0.619095 0.606140
O O7 0.651918 0.635703 0.469875
O O8 0.607289 0.000000 0.481744
O O9 0.764689 0.000000 0.211427
O O10 0.927849 0.079412 0.177739
O O11 0.779382 0.781406 0.337576
O O12 0.000000 0.231301 0.500000
#
# Coordination Sequence:
#
# PCOD9218960 Si02
#       6
#     8   8   4   4   8   8
#     4  11  21  38  62  88 120 154 192 239 294 355
#     4  11  23  42  62  86 118 154 203 248 288 346
#     4  11  19  31  55  88 127 158 182 228 294 361
#     4  11  19  31  55  88 127 158 182 228 294 361
#     4  11  21  38  62  88 120 154 192 239 294 355
#     4  11  25  41  59  87 121 156 199 248 291 342
#
# _framework density 19.854282000000001
#
# number of rings (size 3 to 8) (size 9 to 14) (size 15 to 20)
#    0.000    1.000    6.000    4.200    0.000    7.600 
#    0.000    0.000    0.000    0.000    0.000    5.600 
#    0.000    0.000    0.000    0.000    0.000    0.000 
#
# Total GULP energy -111819.939572 kJ/mol
# GULP energy per Si atom -5590.996979 kJ/mol
# Density = 1.980909 g / cm^3
# Si number density = 19.854282 Si / 1000 Ang^3
#
#
#
# Elastic Constant Matrix: (Units=GPa)
#
#
# Indices 1 2 3 4 5 6 
#
# 1 101.6998 62.2336 23.6842 -0.0113 -20.6326 -0.0014
# 2 62.2336 101.8073 30.8272 0.0275 -8.3854 -0.0172
# 3 23.6842 30.8272 106.6811 0.0014 -32.6273 -0.0078
# 4 -0.0113 0.0275 0.0014 16.7758 0.0002 -3.0244
# 5 -20.6326 -8.3854 -32.6273 0.0002 26.7588 0.0052
# 6 -0.0014 -0.0172 -0.0078 -3.0244 0.0052 23.8497
#
#
#
# Elastic Compliance Matrix: (Units=1/GPa)
#
#
# Indices 1 2 3 4 5 6 
#
# 1 0.019339 -0.011712 0.004033 0.000031 0.016158 -0.000006
# 2 -0.011712 0.017865 -0.005760 -0.000035 -0.010455 0.000008
# 3 0.004033 -0.005760 0.016811 0.000010 0.021802 -0.000002
# 4 0.000031 -0.000035 0.000010 0.061005 0.000023 0.007736
# 5 0.016158 -0.010455 0.021802 0.000023 0.073137 -0.000012
# 6 -0.000006 0.000008 -0.000002 0.007736 -0.000012 0.042910
#
#
# Mechanical properties :
#
#
# Convention : Reuss Voigt Hill
#
# Bulk Modulus (GPa) = 36.85058 60.40869 48.62964
# Shear Modulus (GPa) = 18.72741 26.37309 22.55025
#
# Velocity S-wave (km/s) = 3.07456 3.64858 3.37380
# Velocity P-wave (km/s) = 5.58612 6.94562 6.30263
#
# Compressibility (1/GPa) = 0.02713661
#
# Stress axis : x y z
#
# Youngs Moduli (GPa) = 51.70998 55.97659 59.48596
#
# Poissons Ratio (x) = 0.65558 -0.23989
# Poissons Ratio (y) = 0.60561 0.34262
# Poissons Ratio (z) = -0.20853 0.32241
#
# Static dielectric constant tensor:
#      x y z
#    x 1.688120 -0.000010 -0.018480 
#    y -0.000010 1.702040 0.000010 
#    z -0.018480 0.000010 1.743250 
# 
# From -- ./inp_files/216666.got.cif
#   From: 2010.05.17/outbox.cif.g08.bks.cpg/sg12_109_cif.got.tgz:216666.got - 2010.06.03 13:09:07.
