data_PCOD9218338
_publ_section_title
;
Structure prediction by ZEFSAII (Michael W. Deem and Ramdas Pophale) SiO2 
 PCOD9218338
Probable space group: C 2/M
;
_chemical_formula_sum "Si O2"
_cell_formula_units_Z 52
_cell_length_a 14.128870
_cell_length_b 9.123501
_cell_length_c 25.897564
_cell_angle_alpha 90.000000
_cell_angle_beta 138.841788
_cell_angle_gamma 90.000000
_cell_volume 2197.083175
_symmetry_space_group_name_H-M "C 2/M"
_symmetry_group_IT_number 12
_symmetry_cell_setting 'monoclinic'
loop_
_space_group_symop_operation_xyz
x,y,z
-x,y,-z
-x,-y,-z
x,-y,z
1/2+x,1/2+y,z
1/2-x,1/2+y,-z
1/2-x,1/2-y,-z
1/2+x,1/2-y,z
loop_
_atom_site_type_symbol
_atom_site_label
_atom_site_fract_x
_atom_site_fract_y
_atom_site_fract_z
Si Si1 0.235028 0.172298 0.832463
Si Si2 0.205516 0.000000 0.967780
Si Si3 0.434308 0.825307 0.322003
Si Si4 0.227620 0.823654 0.435139
Si Si5 0.547084 0.217142 0.939511
Si Si6 0.820497 0.827619 0.373822
Si Si7 0.494348 0.161768 0.197539
O O1 0.197248 0.274924 0.767679
O O2 0.401929 0.201508 0.912453
O O3 0.115464 0.219469 0.825153
O O4 0.217826 0.000000 0.813297
O O5 0.106509 0.876214 0.954818
O O6 0.315553 0.876756 0.988968
O O7 0.566769 0.729547 0.355333
O O8 0.408123 0.769192 0.369136
O O9 0.460291 0.000000 0.330798
O O10 0.250000 0.750000 0.500000
O O11 0.324476 0.746264 0.431552
O O12 0.241616 0.000000 0.441992
O O13 0.505455 0.163156 0.864112
O O14 0.655353 0.821350 0.285243
O O15 0.862395 0.000000 0.391604
O O16 0.441610 0.000000 0.192603
#
# Coordination Sequence:
#
# PCOD9218338 Si02
#       7
#     8   4   8   8   8   8   8
#     4  12  24  40  66 100 132 172 227 283 337 392
#     4  10  24  44  70  92 132 180 218 268 340 416
#     4  12  25  42  68 103 139 179 231 281 334 399
#     4  12  26  47  71 101 144 184 223 276 342 402
#     4  11  23  46  68  92 134 178 221 273 339 399
#     4  11  23  42  69 102 139 177 228 283 336 399
#     4  11  23  40  66  99 132 172 223 280 337 392
#
# _framework density 23.667745
#
# number of rings (size 3 to 8) (size 9 to 14) (size 15 to 20)
#    0.000    0.615    4.615    3.692    3.231    1.231 
#    0.000    7.692    0.000    0.000    0.000    0.000 
#    0.000    0.000    0.000    0.000    0.000    0.000 
#
# Total GULP energy -145029.241013 kJ/mol
# GULP energy per Si atom -5578.047731 kJ/mol
# Density = 2.361388 g / cm^3
# Si number density = 23.667745 Si / 1000 Ang^3
#
#
#
# Elastic Constant Matrix: (Units=GPa)
#
#
# Indices 1 2 3 4 5 6 
#
# 1 90.2143 10.5712 -2.3396 0.0000 -4.0776 0.0000
# 2 10.5712 179.6005 21.9548 0.0000 13.8555 0.0000
# 3 -2.3396 21.9548 56.6641 0.0000 -11.0696 0.0000
# 4 0.0000 0.0000 0.0000 57.2651 0.0000 4.2913
# 5 -4.0776 13.8555 -11.0696 0.0000 35.5617 0.0000
# 6 0.0000 0.0000 0.0000 4.2913 0.0000 -6.5857
#
#
#
# Elastic Compliance Matrix: (Units=1/GPa)
#
#
# Indices 1 2 3 4 5 6 
#
# 1 0.011325 -0.000979 0.001251 0.000000 0.002070 0.000000
# 2 -0.000979 0.006287 -0.003169 0.000000 -0.003548 0.000000
# 3 0.001251 -0.003169 0.020440 0.000000 0.007741 0.000000
# 4 0.000000 0.000000 0.000000 0.016650 0.000000 0.010849
# 5 0.002070 -0.003548 0.007741 0.000000 0.032149 0.000000
# 6 0.000000 0.000000 0.000000 0.010849 0.000000 -0.144775
#
#
# Mechanical properties :
#
#
# Convention : Reuss Voigt Hill
#
# Bulk Modulus (GPa) = 31.00079 42.98353 36.99216
# Shear Modulus (GPa) = -120.84085 37.00107 -41.91989
#
# Velocity S-wave (km/s) = -7.15318 3.95822 -4.21311
# Velocity P-wave (km/s) = 7.42275 6.25225 2.82901
#
# Compressibility (1/GPa) = 0.03225724
#
# Stress axis : x y z
#
# Youngs Moduli (GPa) = 88.29664 159.06532 48.92435
#
# Poissons Ratio (x) = 0.15576 -0.06122
# Poissons Ratio (y) = 0.08646 0.15506
# Poissons Ratio (z) = -0.11049 0.50415
#
# Static dielectric constant tensor:
#      x y z
#    x 1.915210 0.000000 -0.024070 
#    y 0.000000 1.810080 0.000000 
#    z -0.024070 0.000000 2.050670 
# 
# From -- ./inp_files/375699.got.cif
#   From: 2010.05.17/outbox.cif.g08.bks.cpg/sg12_188_cif.got.tgz:375699.got - 2010.06.03 13:09:07.
