data_PCOD9218708
_publ_section_title
;
Structure prediction by ZEFSAII (Michael W. Deem and Ramdas Pophale) SiO2 
 PCOD9218708
Probable space group: C 2/M
;
_chemical_formula_sum "Si O2"
_cell_formula_units_Z 36
_cell_length_a 8.655249
_cell_length_b 17.062986
_cell_length_c 11.449764
_cell_angle_alpha 90.000000
_cell_angle_beta 64.597679
_cell_angle_gamma 90.000000
_cell_volume 1527.466732
_symmetry_space_group_name_H-M "C 2/M"
_symmetry_group_IT_number 12
_symmetry_cell_setting 'monoclinic'
loop_
_space_group_symop_operation_xyz
x,y,z
-x,y,-z
-x,-y,-z
x,-y,z
1/2+x,1/2+y,z
1/2-x,1/2+y,-z
1/2-x,1/2-y,-z
1/2+x,1/2-y,z
loop_
_atom_site_type_symbol
_atom_site_label
_atom_site_fract_x
_atom_site_fract_y
_atom_site_fract_z
Si Si1 0.602161 0.914112 0.790809
Si Si2 0.305755 0.339352 0.511524
Si Si3 0.719624 0.718870 0.138678
Si Si4 0.648001 0.357793 0.756505
Si Si5 0.254136 0.000000 0.860194
O O1 0.681932 0.880199 0.645369
O O2 0.650031 0.849472 0.868937
O O3 0.402541 0.933258 0.844067
O O4 0.682482 0.000000 0.791955
O O5 0.500000 0.341098 0.500000
O O6 0.250000 0.250000 0.500000
O O7 0.290266 0.383055 0.391916
O O8 0.534035 0.681799 0.205237
O O9 0.738553 0.788807 0.224940
O O10 0.750000 0.750000 0.000000
O O11 0.632690 0.430663 0.846990
#
# Coordination Sequence:
#
# PCOD9218708 Si02
#       5
#     8   8   8   8   4
#     4  10  25  47  73 112 158 198 249 315 390 451
#     4  12  24  40  73 108 154 196 248 309 378 458
#     4  12  26  50  78 105 148 204 262 316 375 452
#     4  12  25  46  72 112 148 199 256 310 386 457
#     4  10  28  45  74 112 160 192 252 312 386 459
#
# _framework density 23.568434
#
# number of rings (size 3 to 8) (size 9 to 14) (size 15 to 20)
#    0.667    0.000    4.444    2.000    6.222    1.333 
#    2.000    2.222    0.000    0.000    0.000    0.000 
#    0.000    0.000    0.000    0.000    0.000    0.000 
#
# Total GULP energy -100293.372738 kJ/mol
# GULP energy per Si atom -5571.854041 kJ/mol
# Density = 2.351479 g / cm^3
# Si number density = 23.568434 Si / 1000 Ang^3
#
#
#
# Elastic Constant Matrix: (Units=GPa)
#
#
# Indices 1 2 3 4 5 6 
#
# 1 100.5429 45.1608 14.5322 0.0000 19.6918 0.0000
# 2 45.1608 158.2947 17.3086 0.0000 23.6583 0.0000
# 3 14.5322 17.3086 131.0347 0.0000 30.0624 0.0000
# 4 0.0000 0.0000 0.0000 8.2634 0.0000 9.2962
# 5 19.6918 23.6583 30.0624 0.0000 22.1863 0.0000
# 6 0.0000 0.0000 0.0000 9.2962 0.0000 -45.2423
#
#
#
# Elastic Compliance Matrix: (Units=1/GPa)
#
#
# Indices 1 2 3 4 5 6 
#
# 1 0.012876 -0.002186 0.001376 0.000000 -0.010961 0.000000
# 2 -0.002186 0.008025 0.001017 0.000000 -0.007995 0.000000
# 3 0.001376 0.001017 0.011425 0.000000 -0.017786 0.000000
# 4 0.000000 0.000000 0.000000 0.098294 0.000000 0.020197
# 5 -0.010961 -0.007995 -0.017786 0.000000 0.087427 0.000000
# 6 0.000000 0.000000 0.000000 0.020197 0.000000 -0.017953
#
#
# Mechanical properties :
#
#
# Convention : Reuss Voigt Hill
#
# Bulk Modulus (GPa) = 30.54508 60.43061 45.48784
# Shear Modulus (GPa) = 23.74250 17.89953 20.82102
#
# Velocity S-wave (km/s) = 3.17738 2.75884 2.97548
# Velocity P-wave (km/s) = 5.14289 5.98702 5.58094
#
# Compressibility (1/GPa) = 0.03273850
#
# Stress axis : x y z
#
# Youngs Moduli (GPa) = 77.66580 124.61773 87.52530
#
# Poissons Ratio (x) = 0.27236 -0.12039
# Poissons Ratio (y) = 0.16974 -0.08897
# Poissons Ratio (z) = -0.10683 -0.12668
#
# Static dielectric constant tensor:
#      x y z
#    x 1.863530 0.000000 -0.024110 
#    y 0.000000 1.868830 0.000000 
#    z -0.024110 0.000000 2.038600 
# 
# From -- ./inp_files/118770.got.cif
#   From: 2010.05.17/outbox.cif.g08.bks.cpg/sg12_60_cif.got.tgz:118770.got - 2010.06.03 13:09:07.
