data_PCOD9218673
_publ_section_title
;
Structure prediction by ZEFSAII (Michael W. Deem and Ramdas Pophale) SiO2 
 PCOD9218673
Probable space group: C 2/M
;
_chemical_formula_sum "Si O2"
_cell_formula_units_Z 42
_cell_length_a 11.886840
_cell_length_b 15.139659
_cell_length_c 11.421209
_cell_angle_alpha 90.000000
_cell_angle_beta 93.925828
_cell_angle_gamma 90.000000
_cell_volume 2050.568716
_symmetry_space_group_name_H-M "C 2/M"
_symmetry_group_IT_number 12
_symmetry_cell_setting 'monoclinic'
loop_
_space_group_symop_operation_xyz
x,y,z
-x,y,-z
-x,-y,-z
x,-y,z
1/2+x,1/2+y,z
1/2-x,1/2+y,-z
1/2-x,1/2-y,-z
1/2+x,1/2-y,z
loop_
_atom_site_type_symbol
_atom_site_label
_atom_site_fract_x
_atom_site_fract_y
_atom_site_fract_z
Si Si1 0.573444 0.229303 0.280680
Si Si2 0.413587 0.099933 0.383600
Si Si3 0.000000 0.000000 0.500000
Si Si4 0.331473 0.646250 0.534158
Si Si5 0.503456 0.600569 0.860900
Si Si6 0.270514 0.396813 0.267055
O O1 0.460012 0.175098 0.300081
O O2 0.625679 0.262913 0.408032
O O3 0.559327 0.317445 0.203911
O O4 0.661986 0.161115 0.231505
O O5 0.500000 0.100098 0.500000
O O6 0.287022 0.118967 0.417139
O O7 0.418334 0.000000 0.334697
O O8 0.071042 0.924026 0.435185
O O9 0.318836 0.639678 0.393366
O O10 0.463001 0.500000 0.831953
O O11 0.631174 0.605866 0.820955
O O12 0.500000 0.610941 0.000000
O O13 0.242041 0.500000 0.287349
#
# Coordination Sequence:
#
# PCOD9218673 Si02
#       6
#     8   8   2   8   8   8
#     4  12  25  37  68  97 126 169 220 265 319 389
#     4  11  23  41  59  91 142 177 205 252 318 391
#     4  12  24  36  54  84 132 180 208 254 290 386
#     4  12  24  38  59  99 136 171 210 253 320 389
#     4  10  25  46  64  87 124 170 221 280 327 373
#     4  11  22  40  63  91 131 166 207 261 325 389
#
# _framework density 20.482122
#
# number of rings (size 3 to 8) (size 9 to 14) (size 15 to 20)
#    0.000    0.762    3.810    3.429    8.000    0.762 
#    0.000    0.000    0.000    2.286    0.000    0.000 
#    0.000    0.000    0.000    0.000    0.000    0.000 
#
# Total GULP energy -117154.469187 kJ/mol
# GULP energy per Si atom -5578.784247 kJ/mol
# Density = 2.043550 g / cm^3
# Si number density = 20.482122 Si / 1000 Ang^3
#
#
#
# Elastic Constant Matrix: (Units=GPa)
#
#
# Indices 1 2 3 4 5 6 
#
# 1 91.6417 54.5232 34.3592 0.0000 -16.3822 0.0000
# 2 54.5232 162.9577 61.8694 0.0000 -7.2776 0.0000
# 3 34.3592 61.8694 105.1533 0.0000 -17.1869 0.0000
# 4 0.0000 0.0000 0.0000 42.1590 0.0000 26.1607
# 5 -16.3822 -7.2776 -17.1869 0.0000 16.0310 0.0000
# 6 0.0000 0.0000 0.0000 26.1607 0.0000 103.3056
#
#
#
# Elastic Compliance Matrix: (Units=1/GPa)
#
#
# Indices 1 2 3 4 5 6 
#
# 1 0.016393 -0.004766 -0.000204 0.000000 0.014370 0.000000
# 2 -0.004766 0.009325 -0.004891 0.000000 -0.005880 0.000000
# 3 -0.000204 -0.004891 0.014619 0.000000 0.013244 0.000000
# 4 0.000000 0.000000 0.000000 0.028142 0.000000 -0.007127
# 5 0.014370 -0.005880 0.013244 0.000000 0.088594 0.000000
# 6 0.000000 0.000000 0.000000 -0.007127 0.000000 0.011485
#
#
# Mechanical properties :
#
#
# Convention : Reuss Voigt Hill
#
# Bulk Modulus (GPa) = 48.50404 73.47292 60.98848
# Shear Modulus (GPa) = 25.62137 46.23252 35.92695
#
# Velocity S-wave (km/s) = 3.54066 4.75617 4.19270
# Velocity P-wave (km/s) = 6.35985 8.13087 7.29927
#
# Compressibility (1/GPa) = 0.02061684
#
# Stress axis : x y z
#
# Youngs Moduli (GPa) = 61.00304 107.23547 68.40548
#
# Poissons Ratio (x) = 0.51105 0.01393
# Poissons Ratio (y) = 0.29072 0.33454
# Poissons Ratio (z) = 0.01242 0.52445
#
# Static dielectric constant tensor:
#      x y z
#    x 1.767790 0.000000 0.038770 
#    y 0.000000 1.756050 0.000000 
#    z 0.038770 0.000000 1.727720 
# 
# From -- ./inp_files/129673.got.cif
#   From: 2010.05.17/outbox.cif.g08.bks.cpg/sg12_65_cif.got.tgz:129673.got - 2010.06.03 13:09:07.
