data_PCOD9218908
_publ_section_title
;
Structure prediction by ZEFSAII (Michael W. Deem and Ramdas Pophale) SiO2 
 PCOD9218908
Probable space group: C 2/M
;
_chemical_formula_sum "Si O2"
_cell_formula_units_Z 40
_cell_length_a 24.635005
_cell_length_b 10.392466
_cell_length_c 21.028066
_cell_angle_alpha 90.000000
_cell_angle_beta 25.559232
_cell_angle_gamma 90.000000
_cell_volume 2322.709976
_symmetry_space_group_name_H-M "C 2/M"
_symmetry_group_IT_number 12
_symmetry_cell_setting 'monoclinic'
loop_
_space_group_symop_operation_xyz
x,y,z
-x,y,-z
-x,-y,-z
x,-y,z
1/2+x,1/2+y,z
1/2-x,1/2+y,-z
1/2-x,1/2-y,-z
1/2+x,1/2-y,z
loop_
_atom_site_type_symbol
_atom_site_label
_atom_site_fract_x
_atom_site_fract_y
_atom_site_fract_z
Si Si1 0.258610 0.000000 0.369597
Si Si2 0.527947 0.000000 0.747415
Si Si3 0.949359 0.000000 0.304192
Si Si4 0.319862 0.730479 0.246237
Si Si5 0.128921 0.762018 0.083771
Si Si6 0.765613 0.500000 0.577481
Si Si7 0.392228 0.345404 0.033123
O O1 0.372888 0.000000 0.299586
O O2 0.132638 0.000000 0.545126
O O3 0.272615 0.128384 0.313498
O O4 0.444535 0.127479 0.839153
O O5 0.609716 0.000000 0.596567
O O6 0.035797 0.125842 0.206689
O O7 0.851093 0.000000 0.349022
O O8 0.247077 0.625057 0.364995
O O9 0.315872 0.699110 0.175711
O O10 0.467145 0.713035 0.109496
O O11 0.250000 0.750000 0.000000
O O12 0.163127 0.801056 0.975392
O O13 0.404768 0.500000 0.021677
#
# Coordination Sequence:
#
# PCOD9218908 Si02
#       7
#     4   4   4   8   8   4   8
#     4  11  22  34  58  89 123 140 178 253 296 340
#     4  11  23  35  55  92 114 149 194 231 291 332
#     4  11  21  39  57  84 118 155 186 227 303 334
#     4  11  19  34  58  88 116 145 182 240 292 336
#     4  12  23  39  59  82 119 153 195 231 270 344
#     4  11  18  36  62  83 119 146 186 241 282 354
#     4  11  20  36  59  83 116 151 192 226 289 341
#
# _framework density 17.221263
#
# number of rings (size 3 to 8) (size 9 to 14) (size 15 to 20)
#    0.000    0.800    7.000    2.400    0.000    5.600 
#    0.000    0.000    0.000    7.200    0.000    0.000 
#    0.000    0.000    0.000    0.000    0.000    0.000 
#
# Total GULP energy -111765.831994 kJ/mol
# GULP energy per Si atom -5588.291600 kJ/mol
# Density = 1.718207 g / cm^3
# Si number density = 17.221263 Si / 1000 Ang^3
#
#
#
# Elastic Constant Matrix: (Units=GPa)
#
#
# Indices 1 2 3 4 5 6 
#
# 1 116.7724 49.0615 58.9197 0.0000 20.4612 0.0000
# 2 49.0615 180.0570 67.0340 0.0001 21.9033 -0.0001
# 3 58.9197 67.0340 83.6838 0.0001 28.4956 0.0000
# 4 0.0000 0.0001 0.0001 12.1962 -0.0001 8.6410
# 5 20.4612 21.9033 28.4956 -0.0001 33.1819 0.0000
# 6 0.0000 -0.0001 0.0000 8.6410 0.0000 9.5253
#
#
#
# Elastic Compliance Matrix: (Units=1/GPa)
#
#
# Indices 1 2 3 4 5 6 
#
# 1 0.013288 -0.000198 -0.009118 0.000000 -0.000233 0.000000
# 2 -0.000198 0.007919 -0.006311 0.000000 0.000315 0.000000
# 3 -0.009118 -0.006311 0.028396 -0.000001 -0.014597 0.000001
# 4 0.000000 0.000000 -0.000001 0.229487 0.000001 -0.208181
# 5 -0.000233 0.000315 -0.014597 0.000001 0.042608 -0.000001
# 6 0.000000 0.000000 0.000001 -0.208181 -0.000001 0.293837
#
#
# Mechanical properties :
#
#
# Convention : Reuss Voigt Hill
#
# Bulk Modulus (GPa) = 54.50067 81.17153 67.83610
# Shear Modulus (GPa) = 7.65807 24.68054 16.16930
#
# Velocity S-wave (km/s) = 2.11105 3.78980 3.06750
# Velocity P-wave (km/s) = 6.13662 8.14781 7.21266
#
# Compressibility (1/GPa) = 0.01834840
#
# Stress axis : x y z
#
# Youngs Moduli (GPa) = 75.25368 126.27688 35.21663
#
# Poissons Ratio (x) = 0.02497 0.32111
# Poissons Ratio (y) = 0.01488 0.22227
# Poissons Ratio (z) = 0.68618 0.79698
#
# Static dielectric constant tensor:
#      x y z
#    x 1.574070 0.000000 0.018360 
#    y 0.000000 1.564900 0.000000 
#    z 0.018360 0.000000 1.565480 
# 
# From -- ./inp_files/172626.got.cif
#   From: 2010.05.17/outbox.cif.g08.bks.cpg/sg12_87_cif.got.tgz:172626.got - 2010.06.03 13:09:07.
