data_PCOD9218957
_publ_section_title
;
Structure prediction by ZEFSAII (Michael W. Deem and Ramdas Pophale) SiO2 
 PCOD9218957
Probable space group: C 2/M
;
_chemical_formula_sum "Si O2"
_cell_formula_units_Z 24
_cell_length_a 23.894367
_cell_length_b 12.638613
_cell_length_c 7.158628
_cell_angle_alpha 90.000000
_cell_angle_beta 145.261942
_cell_angle_gamma 90.000000
_cell_volume 1231.874933
_symmetry_space_group_name_H-M "C 2/M"
_symmetry_group_IT_number 12
_symmetry_cell_setting 'monoclinic'
loop_
_space_group_symop_operation_xyz
x,y,z
-x,y,-z
-x,-y,-z
x,-y,z
1/2+x,1/2+y,z
1/2-x,1/2+y,-z
1/2-x,1/2-y,-z
1/2+x,1/2-y,z
loop_
_atom_site_type_symbol
_atom_site_label
_atom_site_fract_x
_atom_site_fract_y
_atom_site_fract_z
Si Si1 0.186976 0.118445 0.859356
Si Si2 0.872361 0.500000 0.474080
Si Si3 0.590687 0.000000 0.981648
Si Si4 0.711180 0.794970 0.197442
O O1 0.301699 0.097145 0.229094
O O2 0.155372 0.203779 0.925515
O O3 0.142257 0.000000 0.743744
O O4 0.197637 0.164607 0.681258
O O5 0.890561 0.500000 0.743802
O O6 0.973572 0.500000 0.642047
O O7 0.642400 0.104260 0.044360
O O8 0.750000 0.750000 0.500000
#
# Coordination Sequence:
#
# PCOD9218957 Si02
#       4
#     8   4   4   8
#     4   9  19  34  52  78 106 133 178 215 260 315
#     4   9  19  35  53  82 108 135 179 221 263 304
#     4  11  19  33  57  82 111 135 175 221 264 309
#     4  11  19  31  51  78 108 139 168 217 264 308
#
# _framework density 19.482498
#
# number of rings (size 3 to 8) (size 9 to 14) (size 15 to 20)
#    1.000    1.000    5.000    0.000    0.000    2.667 
#    0.000    0.000    0.000    0.000    4.333    9.333 
#    0.000    0.000    0.000    0.000    0.000    0.000 
#
# Total GULP energy -66832.568187 kJ/mol
# GULP energy per Si atom -5569.380682 kJ/mol
# Density = 1.943815 g / cm^3
# Si number density = 19.482498 Si / 1000 Ang^3
#
#
#
# Elastic Constant Matrix: (Units=GPa)
#
#
# Indices 1 2 3 4 5 6 
#
# 1 110.7915 61.1799 17.3414 0.0000 -26.4772 0.0000
# 2 61.1799 167.7368 11.3024 0.0000 -7.5126 0.0000
# 3 17.3414 11.3024 35.7774 0.0000 -4.5426 0.0000
# 4 0.0000 0.0000 0.0000 11.4750 0.0000 -14.9624
# 5 -26.4772 -7.5126 -4.5426 0.0000 28.8687 0.0000
# 6 0.0000 0.0000 0.0000 -14.9624 0.0000 37.6756
#
#
#
# Elastic Compliance Matrix: (Units=1/GPa)
#
#
# Indices 1 2 3 4 5 6 
#
# 1 0.015173 -0.004704 -0.004344 0.000000 0.012009 0.000000
# 2 -0.004704 0.007598 -0.000426 0.000000 -0.002404 0.000000
# 3 -0.004344 -0.000426 0.030276 0.000000 0.000669 0.000000
# 4 0.000000 0.000000 0.000000 0.180738 0.000000 0.071778
# 5 0.012009 -0.002404 0.000669 0.000000 0.045133 0.000000
# 6 0.000000 0.000000 0.000000 0.071778 0.000000 0.055048
#
#
# Mechanical properties :
#
#
# Convention : Reuss Voigt Hill
#
# Bulk Modulus (GPa) = 29.32496 54.88367 42.10431
# Shear Modulus (GPa) = 13.72572 30.56933 22.14752
#
# Velocity S-wave (km/s) = 2.65715 3.96544 3.37529
# Velocity P-wave (km/s) = 4.94960 7.01414 6.07029
#
# Compressibility (1/GPa) = 0.03410064
#
# Stress axis : x y z
#
# Youngs Moduli (GPa) = 65.90609 131.60741 33.03000
#
# Poissons Ratio (x) = 0.61904 0.14348
# Poissons Ratio (y) = 0.31000 0.01406
# Poissons Ratio (z) = 0.28628 0.05603
#
# Static dielectric constant tensor:
#      x y z
#    x 1.724610 0.000000 -0.041210 
#    y 0.000000 1.725990 0.000000 
#    z -0.041210 0.000000 1.665830 
# 
# From -- ./inp_files/93499.got.cif
#   From: 2010.05.17/outbox.cif.g08.bks.cpg/sg12_47_cif.got.tgz:93499.got - 2010.06.03 13:09:07.
