data_PCOD9218127
_publ_section_title
;
Structure prediction by ZEFSAII (Michael W. Deem and Ramdas Pophale) SiO2 
 PCOD9218127
Probable space group: C 2/M
;
_chemical_formula_sum "Si O2"
_cell_formula_units_Z 32
_cell_length_a 13.731018
_cell_length_b 18.896673
_cell_length_c 10.010905
_cell_angle_alpha 90.000000
_cell_angle_beta 147.884614
_cell_angle_gamma 90.000000
_cell_volume 1380.917306
_symmetry_space_group_name_H-M "C 2/M"
_symmetry_group_IT_number 12
_symmetry_cell_setting 'monoclinic'
loop_
_space_group_symop_operation_xyz
x,y,z
-x,y,-z
-x,-y,-z
x,-y,z
1/2+x,1/2+y,z
1/2-x,1/2+y,-z
1/2-x,1/2-y,-z
1/2+x,1/2-y,z
loop_
_atom_site_type_symbol
_atom_site_label
_atom_site_fract_x
_atom_site_fract_y
_atom_site_fract_z
Si Si1 0.827935 0.650905 0.633167
Si Si2 0.097142 0.500000 0.393183
Si Si3 0.573157 0.655884 0.882331
Si Si4 0.286258 0.795170 0.882853
Si Si5 0.713238 0.500000 0.099178
O O1 0.860302 0.568757 0.643318
O O2 0.640605 0.671483 0.341975
O O3 0.794141 0.668845 0.748864
O O4 0.019978 0.686864 0.818898
O O5 0.217179 0.500000 0.667661
O O6 0.888615 0.500000 0.204220
O O7 0.628910 0.674484 0.794403
O O8 0.703925 0.710071 0.114802
O O9 0.608502 0.573609 0.952422
#
# Coordination Sequence:
#
# PCOD9218127 Si02
#       5
#     8   4   8   8   4
#     4  11  23  43  70  98 133 176 221 271 328 392
#     4  11  25  45  68  98 133 178 221 277 335 387
#     4  11  23  44  68 101 133 177 220 268 334 394
#     4  10  24  42  67 102 139 170 217 277 327 395
#     4  11  25  46  69  95 135 176 222 278 332 393
#
# _framework density 23.173003000000001
#
# number of rings (size 3 to 8) (size 9 to 14) (size 15 to 20)
#    0.000    1.250    2.500    2.250    0.000   11.000 
#    4.500    2.500    0.000    0.000    0.000    0.000 
#    0.000    0.000    0.000    0.000    0.000    0.000 
#
# Total GULP energy -89522.526579 kJ/mol
# GULP energy per Si atom -5595.157911 kJ/mol
# Density = 2.312026 g / cm^3
# Si number density = 23.173003 Si / 1000 Ang^3
#
#
#
# Elastic Constant Matrix: (Units=GPa)
#
#
# Indices 1 2 3 4 5 6 
#
# 1 123.8057 35.5206 20.6740 0.0000 -4.5422 0.0000
# 2 35.5206 164.5973 27.2980 0.0000 -10.0787 0.0000
# 3 20.6740 27.2980 80.0711 0.0000 22.7619 0.0000
# 4 0.0000 0.0000 0.0000 1.0479 0.0000 2.7698
# 5 -4.5422 -10.0787 22.7619 0.0000 33.3880 0.0000
# 6 0.0000 0.0000 0.0000 2.7698 0.0000 36.5790
#
#
#
# Elastic Compliance Matrix: (Units=1/GPa)
#
#
# Indices 1 2 3 4 5 6 
#
# 1 0.008993 -0.001352 -0.002596 0.000000 0.002585 0.000000
# 2 -0.001352 0.007173 -0.003299 0.000000 0.004231 0.000000
# 3 -0.002596 -0.003299 0.018193 0.000000 -0.013752 0.000000
# 4 0.000000 0.000000 0.000000 1.193075 0.000000 -0.090341
# 5 0.002585 0.004231 -0.013752 0.000000 0.040955 0.000000
# 6 0.000000 0.000000 0.000000 -0.090341 0.000000 0.034179
#
#
# Mechanical properties :
#
#
# Convention : Reuss Voigt Hill
#
# Bulk Modulus (GPa) = 50.33782 59.49547 54.91665
# Shear Modulus (GPa) = 3.77733 33.20176 18.48955
#
# Velocity S-wave (km/s) = 1.27812 3.78931 2.82776
# Velocity P-wave (km/s) = 4.89366 6.69891 5.86614
#
# Compressibility (1/GPa) = 0.01986578
#
# Stress axis : x y z
#
# Youngs Moduli (GPa) = 111.19249 139.40407 54.96543
#
# Poissons Ratio (x) = 0.18847 0.14269
# Poissons Ratio (y) = 0.15033 0.18134
# Poissons Ratio (z) = 0.28866 0.45991
#
# Static dielectric constant tensor:
#      x y z
#    x 1.825860 0.000000 -0.001220 
#    y 0.000000 1.867340 0.000000 
#    z -0.001220 0.000000 1.908670 
# 
# From -- ./inp_files/146301.got.cif
#   From: 2010.05.17/outbox.cif.g08.bks.cpg/sg12_74_cif.got.tgz:146301.got - 2010.06.03 13:09:07.
