data_PCOD9218647
_publ_section_title
;
Structure prediction by ZEFSAII (Michael W. Deem and Ramdas Pophale) SiO2 
 PCOD9218647
Probable space group: C 2/M
;
_chemical_formula_sum "Si O2"
_cell_formula_units_Z 48
_cell_length_a 9.528668
_cell_length_b 27.400254
_cell_length_c 12.337798
_cell_angle_alpha 90.000000
_cell_angle_beta 139.699093
_cell_angle_gamma 90.000000
_cell_volume 2083.510507
_symmetry_space_group_name_H-M "C 2/M"
_symmetry_group_IT_number 12
_symmetry_cell_setting 'monoclinic'
loop_
_space_group_symop_operation_xyz
x,y,z
-x,y,-z
-x,-y,-z
x,-y,z
1/2+x,1/2+y,z
1/2-x,1/2+y,-z
1/2-x,1/2-y,-z
1/2+x,1/2-y,z
loop_
_atom_site_type_symbol
_atom_site_label
_atom_site_fract_x
_atom_site_fract_y
_atom_site_fract_z
Si Si1 0.568481 0.705159 0.302391
Si Si2 0.060590 0.372784 0.421352
Si Si3 0.407517 0.097109 0.791163
Si Si4 0.915278 0.127244 0.839238
Si Si5 0.850591 0.710346 0.809961
Si Si6 0.656744 0.442512 0.838883
O O1 0.732078 0.829530 0.543097
O O2 0.462568 0.673103 0.142105
O O3 0.396264 0.711156 0.294748
O O4 0.629037 0.755520 0.282339
O O5 0.818173 0.351988 0.260555
O O6 0.000000 0.398654 0.500000
O O7 0.120241 0.405680 0.354358
O O8 0.411454 0.154746 0.818533
O O9 0.218238 0.074559 0.753884
O O10 0.631727 0.073174 0.965022
O O11 0.955022 0.086502 0.770717
O O12 0.000000 0.105461 0.000000
O O13 0.000000 0.726280 0.000000
O O14 0.628615 0.500000 0.826494
#
# Coordination Sequence:
#
# PCOD9218647 Si02
#       6
#     8   8   8   8   8   8
#     4  11  26  44  66 106 148 202 242 294 364 446
#     4  10  25  44  66 100 149 196 236 287 365 443
#     4  11  21  44  70 106 147 187 234 311 372 426
#     4  11  21  45  71 104 146 189 240 311 363 426
#     4  12  24  42  74 107 146 194 256 302 358 432
#     4  11  23  44  80 116 138 182 254 319 376 430
#
# _framework density 23.038039999999999
#
# number of rings (size 3 to 8) (size 9 to 14) (size 15 to 20)
#    0.000    1.000    5.000    2.000    4.667    1.667 
#    3.000    0.000    0.000   18.500    0.000    0.000 
#    0.000    0.000    0.000    0.000    0.000    0.000 
#
# Total GULP energy -134039.540596 kJ/mol
# GULP energy per Si atom -5584.980858 kJ/mol
# Density = 2.298560 g / cm^3
# Si number density = 23.038040 Si / 1000 Ang^3
#
#
#
# Elastic Constant Matrix: (Units=GPa)
#
#
# Indices 1 2 3 4 5 6 
#
# 1 147.2089 50.8069 49.4762 0.0000 -2.0351 0.0000
# 2 50.8069 142.4695 14.2821 0.0000 -1.8027 0.0000
# 3 49.4762 14.2821 71.2347 0.0000 -14.6759 0.0000
# 4 0.0000 0.0000 0.0000 21.8275 0.0000 -1.3807
# 5 -2.0351 -1.8027 -14.6759 0.0000 49.8905 0.0000
# 6 0.0000 0.0000 0.0000 -1.3807 0.0000 23.3312
#
#
#
# Elastic Compliance Matrix: (Units=1/GPa)
#
#
# Indices 1 2 3 4 5 6 
#
# 1 0.010044 -0.002928 -0.006734 0.000000 -0.001677 0.000000
# 2 -0.002928 0.008018 0.000491 0.000000 0.000315 0.000000
# 3 -0.006734 0.000491 0.019762 0.000000 0.005556 0.000000
# 4 0.000000 0.000000 0.000000 0.045986 0.000000 0.002721
# 5 -0.001677 0.000315 0.005556 0.000000 0.021621 0.000000
# 6 0.000000 0.000000 0.000000 0.002721 0.000000 0.043022
#
#
# Mechanical properties :
#
#
# Convention : Reuss Voigt Hill
#
# Bulk Modulus (GPa) = 51.33305 65.56038 58.44672
# Shear Modulus (GPa) = 28.85342 35.43300 32.14321
#
# Velocity S-wave (km/s) = 3.54280 3.92602 3.73932
# Velocity P-wave (km/s) = 6.25024 7.00505 6.63838
#
# Compressibility (1/GPa) = 0.01948063
#
# Stress axis : x y z
#
# Youngs Moduli (GPa) = 99.56358 124.72003 50.60254
#
# Poissons Ratio (x) = 0.36517 0.34078
# Poissons Ratio (y) = 0.29151 -0.02484
# Poissons Ratio (z) = 0.67051 -0.06122
#
# Static dielectric constant tensor:
#      x y z
#    x 1.882470 0.000000 0.046430 
#    y 0.000000 1.795030 0.000000 
#    z 0.046430 0.000000 2.130240 
# 
# From -- ./inp_files/123866.got.cif
#   From: 2010.05.17/outbox.cif.g08.bks.cpg/sg12_62_cif.got.tgz:123866.got - 2010.06.03 13:09:07.
