data_PCOD9218519
_publ_section_title
;
Structure prediction by ZEFSAII (Michael W. Deem and Ramdas Pophale) SiO2 
 PCOD9218519
Probable space group: C 2/M
;
_chemical_formula_sum "Si O2"
_cell_formula_units_Z 40
_cell_length_a 11.635428
_cell_length_b 22.566204
_cell_length_c 8.635523
_cell_angle_alpha 90.000000
_cell_angle_beta 125.484897
_cell_angle_gamma 90.000000
_cell_volume 1846.278386
_symmetry_space_group_name_H-M "C 2/M"
_symmetry_group_IT_number 12
_symmetry_cell_setting 'monoclinic'
loop_
_space_group_symop_operation_xyz
x,y,z
-x,y,-z
-x,-y,-z
x,-y,z
1/2+x,1/2+y,z
1/2-x,1/2+y,-z
1/2-x,1/2-y,-z
1/2+x,1/2-y,z
loop_
_atom_site_type_symbol
_atom_site_label
_atom_site_fract_x
_atom_site_fract_y
_atom_site_fract_z
Si Si1 0.602746 0.000000 0.259920
Si Si2 0.515594 0.594926 0.227859
Si Si3 0.500000 0.338611 0.500000
Si Si4 0.000000 0.199767 0.000000
Si Si5 0.500000 0.891001 0.000000
Si Si6 0.765588 0.000000 0.713891
Si Si7 0.224000 0.000000 0.927001
Si Si8 0.774115 0.712949 0.860465
O O1 0.524875 0.937065 0.162446
O O2 0.667208 0.000000 0.483255
O O3 0.703487 0.000000 0.184487
O O4 0.574814 0.617872 0.435764
O O5 0.462553 0.653811 0.103467
O O6 0.630627 0.556871 0.225083
O O7 0.380775 0.555381 0.153435
O O8 0.375198 0.299871 0.332440
O O9 0.125685 0.241509 0.154790
O O10 0.631687 0.847476 0.062493
O O11 0.706574 0.000000 0.843991
O O12 0.750000 0.750000 0.000000
#
# Coordination Sequence:
#
# PCOD9218519 Si02
#       8
#     4   8   4   4   4   4   4   8
#     4  11  24  43  70  99 144 185 226 296 358 429
#     4  11  20  37  60  97 135 173 226 286 342 415
#     4  12  24  41  72  96 124 187 238 274 364 428
#     4  11  22  40  64  90 140 177 212 306 340 381
#     4  10  24  47  70  97 148 188 220 302 368 402
#     4  11  21  37  64 107 134 179 242 280 350 429
#     4  11  21  37  66 101 140 181 229 290 353 413
#     4  11  24  44  67  99 136 180 239 286 347 421
#
# _framework density 21.665205
#
# number of rings (size 3 to 8) (size 9 to 14) (size 15 to 20)
#    0.000    1.000    4.000    4.200    0.000    2.400 
#    3.600    2.000    0.000    0.000    0.000    0.000 
#    0.000    0.000    0.000    0.000    0.000    0.000 
#
# Total GULP energy -111498.460435 kJ/mol
# GULP energy per Si atom -5574.923022 kJ/mol
# Density = 2.161589 g / cm^3
# Si number density = 21.665205 Si / 1000 Ang^3
#
#
#
# Elastic Constant Matrix: (Units=GPa)
#
#
# Indices 1 2 3 4 5 6 
#
# 1 78.4410 55.5783 38.8058 0.0000 12.2201 0.0000
# 2 55.5783 169.5366 60.8258 0.0000 14.6284 0.0000
# 3 38.8058 60.8258 145.8463 0.0000 10.2751 0.0000
# 4 0.0000 0.0000 0.0000 45.9029 0.0000 3.6254
# 5 12.2201 14.6284 10.2751 0.0000 33.2056 0.0000
# 6 0.0000 0.0000 0.0000 3.6254 0.0000 1.5541
#
#
#
# Elastic Compliance Matrix: (Units=1/GPa)
#
#
# Indices 1 2 3 4 5 6 
#
# 1 0.017872 -0.004614 -0.002567 0.000000 -0.003750 0.000000
# 2 -0.004614 0.008290 -0.002139 0.000000 -0.001292 0.000000
# 3 -0.002567 -0.002139 0.008483 0.000000 -0.000738 0.000000
# 4 0.000000 0.000000 0.000000 0.026706 0.000000 -0.062301
# 5 -0.003750 -0.001292 -0.000738 0.000000 0.032293 0.000000
# 6 0.000000 0.000000 0.000000 -0.062301 0.000000 0.788815
#
#
# Mechanical properties :
#
#
# Convention : Reuss Voigt Hill
#
# Bulk Modulus (GPa) = 62.47643 78.24929 70.36286
# Shear Modulus (GPa) = 5.51612 32.04013 18.77812
#
# Velocity S-wave (km/s) = 1.59737 3.84979 2.94724
# Velocity P-wave (km/s) = 5.68348 7.48044 6.64300
#
# Compressibility (1/GPa) = 0.01600604
#
# Stress axis : x y z
#
# Youngs Moduli (GPa) = 55.95389 120.62861 117.87824
#
# Poissons Ratio (x) = 0.55664 0.30254
# Poissons Ratio (y) = 0.25820 0.25209
# Poissons Ratio (z) = 0.14361 0.25797
#
# Static dielectric constant tensor:
#      x y z
#    x 1.911560 0.000000 -0.039640 
#    y 0.000000 1.770030 0.000000 
#    z -0.039640 0.000000 1.858280 
# 
# From -- ./inp_files/63868.got.cif
#   From: 2010.05.17/outbox.cif.g08.bks.cpg/sg12_32_cif.got.tgz:63868.got - 2010.06.03 13:09:07.
