data_PCOD9218381
_publ_section_title
;
Structure prediction by ZEFSAII (Michael W. Deem and Ramdas Pophale) SiO2 
 PCOD9218381
Probable space group: C 2/M
;
_chemical_formula_sum "Si O2"
_cell_formula_units_Z 40
_cell_length_a 8.702602
_cell_length_b 14.677753
_cell_length_c 25.262357
_cell_angle_alpha 90.000000
_cell_angle_beta 34.085231
_cell_angle_gamma 90.000000
_cell_volume 1808.424889
_symmetry_space_group_name_H-M "C 2/M"
_symmetry_group_IT_number 12
_symmetry_cell_setting 'monoclinic'
loop_
_space_group_symop_operation_xyz
x,y,z
-x,y,-z
-x,-y,-z
x,-y,z
1/2+x,1/2+y,z
1/2-x,1/2+y,-z
1/2-x,1/2-y,-z
1/2+x,1/2-y,z
loop_
_atom_site_type_symbol
_atom_site_label
_atom_site_fract_x
_atom_site_fract_y
_atom_site_fract_z
Si Si1 0.244494 0.325938 0.211405
Si Si2 0.383617 0.714484 0.592975
Si Si3 0.114208 0.500000 0.053398
Si Si4 0.289795 0.822678 0.902757
Si Si5 0.442314 0.500000 0.848470
Si Si6 0.626578 0.899890 0.522154
O O1 0.454209 0.243002 0.160402
O O2 0.229464 0.348232 0.153195
O O3 0.369939 0.411060 0.206584
O O4 0.936082 0.301334 0.314537
O O5 0.500000 0.712038 0.500000
O O6 0.462065 0.814127 0.593207
O O7 0.561272 0.636336 0.570915
O O8 0.182269 0.411003 0.068337
O O9 0.795190 0.500000 0.127578
O O10 0.287413 0.500000 0.949687
O O11 0.000000 0.774990 0.000000
O O12 0.500000 0.908384 0.500000
O O13 0.614013 0.000000 0.551409
#
# Coordination Sequence:
#
# PCOD9218381 Si02
#       6
#     8   8   4   8   4   8
#     4  12  27  43  72 104 141 189 235 286 350 425
#     4  10  24  45  66  99 142 180 229 288 342 411
#     4  11  24  49  72 102 140 182 227 307 348 420
#     4  12  25  46  70 103 140 187 232 289 353 412
#     4  11  25  46  74 103 139 177 241 286 362 421
#     4   9  20  42  70  94 129 177 226 287 346 401
#
# _framework density 22.118694999999999
#
# number of rings (size 3 to 8) (size 9 to 14) (size 15 to 20)
#    0.000    1.200    2.000    2.700   12.600    0.400 
#    1.800    0.000    0.000    0.000    0.000    0.000 
#    0.000    0.000    0.000    0.000    0.000    0.000 
#
# Total GULP energy -111907.126932 kJ/mol
# GULP energy per Si atom -5595.356347 kJ/mol
# Density = 2.206835 g / cm^3
# Si number density = 22.118695 Si / 1000 Ang^3
#
#
#
# Elastic Constant Matrix: (Units=GPa)
#
#
# Indices 1 2 3 4 5 6 
#
# 1 108.2980 31.6500 44.6496 0.0024 -26.0847 -0.0056
# 2 31.6500 137.5239 53.5692 -0.0143 -35.5416 0.0096
# 3 44.6496 53.5692 178.0243 0.0356 -49.1950 -0.0487
# 4 0.0024 -0.0143 0.0356 4.5444 -0.0040 -0.1479
# 5 -26.0847 -35.5416 -49.1950 -0.0040 48.5899 0.0046
# 6 -0.0056 0.0096 -0.0487 -0.1479 0.0046 29.8672
#
#
#
# Elastic Compliance Matrix: (Units=1/GPa)
#
#
# Indices 1 2 3 4 5 6 
#
# 1 0.011017 -0.001017 -0.001428 0.000005 0.003725 0.000000
# 2 -0.001017 0.009258 -0.001125 0.000043 0.005087 -0.000006
# 3 -0.001428 -0.001125 0.008157 -0.000061 0.006669 0.000012
# 4 0.000005 0.000043 -0.000061 0.220086 -0.000009 0.001090
# 5 0.003725 0.005087 0.006669 -0.000009 0.033053 0.000005
# 6 0.000000 -0.000006 0.000012 0.001090 0.000005 0.033487
#
#
# Mechanical properties :
#
#
# Convention : Reuss Voigt Hill
#
# Bulk Modulus (GPa) = 46.96418 75.95376 61.45897
# Shear Modulus (GPa) = 15.18396 36.19879 25.69138
#
# Velocity S-wave (km/s) = 2.62291 4.04984 3.41181
# Velocity P-wave (km/s) = 5.51831 7.50213 6.58535
#
# Compressibility (1/GPa) = 0.02129282
#
# Stress axis : x y z
#
# Youngs Moduli (GPa) = 90.77097 108.00926 122.59769
#
# Poissons Ratio (x) = 0.10980 0.17505
# Poissons Ratio (y) = 0.09227 0.13795
# Poissons Ratio (z) = 0.12960 0.12153
#
# Static dielectric constant tensor:
#      x y z
#    x 1.834070 0.000000 0.027160 
#    y 0.000000 1.816220 -0.000010 
#    z 0.027160 -0.000010 1.811340 
# 
# From -- ./inp_files/372456.got.cif
#   From: 2010.05.17/outbox.cif.g08.bks.cpg/sg12_187_cif.got.tgz:372456.got - 2010.06.03 13:09:07.
