data_PCOD9218629
_publ_section_title
;
Structure prediction by ZEFSAII (Michael W. Deem and Ramdas Pophale) SiO2 
 PCOD9218629
Probable space group: C 2/M
;
_chemical_formula_sum "Si O2"
_cell_formula_units_Z 36
_cell_length_a 13.242063
_cell_length_b 14.153453
_cell_length_c 9.671295
_cell_angle_alpha 90.000000
_cell_angle_beta 63.758403
_cell_angle_gamma 90.000000
_cell_volume 1625.791755
_symmetry_space_group_name_H-M "C 2/M"
_symmetry_group_IT_number 12
_symmetry_cell_setting 'monoclinic'
loop_
_space_group_symop_operation_xyz
x,y,z
-x,y,-z
-x,-y,-z
x,-y,z
1/2+x,1/2+y,z
1/2-x,1/2+y,-z
1/2-x,1/2-y,-z
1/2+x,1/2-y,z
loop_
_atom_site_type_symbol
_atom_site_label
_atom_site_fract_x
_atom_site_fract_y
_atom_site_fract_z
Si Si1 0.861485 0.793622 0.360748
Si Si2 0.837770 0.000000 0.952460
Si Si3 0.290864 0.304983 0.114556
Si Si4 0.948305 0.000000 0.375799
Si Si5 0.546319 0.847111 0.334355
Si Si6 0.074730 0.500000 0.087475
O O1 0.750000 0.750000 0.500000
O O2 0.865950 0.765751 0.194145
O O3 0.970823 0.744668 0.359809
O O4 0.876436 0.905589 0.382094
O O5 0.843541 0.903997 0.036114
O O6 0.939170 0.000000 0.785117
O O7 0.708599 0.000000 0.973946
O O8 0.176639 0.323866 0.268309
O O9 0.250000 0.250000 0.000000
O O10 0.000000 0.000000 0.500000
O O11 0.500000 0.895078 0.500000
O O12 0.543969 0.911275 0.200935
O O13 0.000000 0.500000 0.000000
#
# Coordination Sequence:
#
# PCOD9218629 Si02
#       6
#     8   4   8   4   8   4
#     4  12  27  45  75 109 147 199 252 300 383 442
#     4  10  25  47  70 103 148 188 244 299 382 423
#     4  11  25  44  72 102 146 188 244 315 364 441
#     4  12  29  49  79 110 154 196 254 317 371 453
#     4  11  23  44  68 100 145 190 246 300 371 446
#     4  10  25  42  71 108 140 190 244 303 375 443
#
# _framework density 22.143059000000001
#
# number of rings (size 3 to 8) (size 9 to 14) (size 15 to 20)
#    0.000    0.889    2.222    3.000    9.333    4.444 
#    0.000    0.000    0.000    0.000    0.000    0.000 
#    0.000    0.000    0.000    0.000    0.000    0.000 
#
# Total GULP energy -100538.079185 kJ/mol
# GULP energy per Si atom -5585.448844 kJ/mol
# Density = 2.209266 g / cm^3
# Si number density = 22.143059 Si / 1000 Ang^3
#
#
#
# Elastic Constant Matrix: (Units=GPa)
#
#
# Indices 1 2 3 4 5 6 
#
# 1 62.6848 28.4508 68.1835 0.0000 8.6439 0.0000
# 2 28.4508 128.8342 36.5260 0.0000 -5.7224 0.0000
# 3 68.1835 36.5260 143.0027 0.0000 -4.7988 0.0000
# 4 0.0000 0.0000 0.0000 15.9862 0.0000 -3.3722
# 5 8.6439 -5.7224 -4.7988 0.0000 60.6568 0.0000
# 6 0.0000 0.0000 0.0000 -3.3722 0.0000 37.1037
#
#
#
# Elastic Compliance Matrix: (Units=1/GPa)
#
#
# Indices 1 2 3 4 5 6 
#
# 1 0.037007 -0.003679 -0.016939 0.000000 -0.006961 0.000000
# 2 -0.003679 0.008757 -0.000438 0.000000 0.001316 0.000000
# 3 -0.016939 -0.000438 0.015302 0.000000 0.003583 0.000000
# 4 0.000000 0.000000 0.000000 0.063777 0.000000 0.005796
# 5 -0.006961 0.001316 0.003583 0.000000 0.017886 0.000000
# 6 0.000000 0.000000 0.000000 0.005796 0.000000 0.027478
#
#
# Mechanical properties :
#
#
# Convention : Reuss Voigt Hill
#
# Bulk Modulus (GPa) = 52.76193 66.76024 59.76108
# Shear Modulus (GPa) = 22.86894 36.17345 29.52119
#
# Velocity S-wave (km/s) = 3.21718 4.04620 3.65527
# Velocity P-wave (km/s) = 6.13839 7.21415 6.69790
#
# Compressibility (1/GPa) = 0.01895306
#
# Stress axis : x y z
#
# Youngs Moduli (GPa) = 27.02166 114.19270 65.35307
#
# Poissons Ratio (x) = 0.42014 1.10701
# Poissons Ratio (y) = 0.09942 0.02865
# Poissons Ratio (z) = 0.45772 0.05006
#
# Static dielectric constant tensor:
#      x y z
#    x 1.868970 0.000000 0.068770 
#    y 0.000000 1.813380 0.000000 
#    z 0.068770 0.000000 1.762900 
# 
# From -- ./inp_files/46860.got.cif
#   From: 2010.05.17/outbox.cif.g08.bks.cpg/sg12_24_cif.got.tgz:46860.got - 2010.06.03 13:09:07.
