data_PCOD9218066
_publ_section_title
;
Structure prediction by ZEFSAII (Michael W. Deem and Ramdas Pophale) SiO2 
 PCOD9218066
Probable space group: C 2/M
;
_chemical_formula_sum "Si O2"
_cell_formula_units_Z 48
_cell_length_a 18.697626
_cell_length_b 14.469886
_cell_length_c 16.339277
_cell_angle_alpha 90.000000
_cell_angle_beta 149.896795
_cell_angle_gamma 90.000000
_cell_volume 2217.208602
_symmetry_space_group_name_H-M "C 2/M"
_symmetry_group_IT_number 12
_symmetry_cell_setting 'monoclinic'
loop_
_space_group_symop_operation_xyz
x,y,z
-x,y,-z
-x,-y,-z
x,-y,z
1/2+x,1/2+y,z
1/2-x,1/2+y,-z
1/2-x,1/2-y,-z
1/2+x,1/2-y,z
loop_
_atom_site_type_symbol
_atom_site_label
_atom_site_fract_x
_atom_site_fract_y
_atom_site_fract_z
Si Si1 0.647522 0.000000 0.197244
Si Si2 0.797384 0.000000 0.037924
Si Si3 0.658386 0.304702 0.842510
Si Si4 0.827575 0.182119 0.328905
Si Si5 0.456157 0.000000 0.718665
Si Si6 0.985343 0.000000 0.887763
Si Si7 0.903597 0.795153 0.821951
Si Si8 0.902265 0.295284 0.653891
O O1 0.746435 0.089043 0.277066
O O2 0.593049 0.000000 0.235998
O O3 0.500000 0.000000 0.000000
O O4 0.850231 0.090359 0.136985
O O5 0.866371 0.000000 0.015933
O O6 0.626434 0.000000 0.873341
O O7 0.715206 0.300501 0.807567
O O8 0.505566 0.257564 0.695246
O O9 0.750000 0.250000 0.000000
O O10 0.754963 0.263768 0.309252
O O11 0.000000 0.174355 0.500000
O O12 0.400481 0.902713 0.631150
O O13 0.912854 0.099328 0.798496
O O14 0.000000 0.000000 0.000000
O O15 0.953698 0.727064 0.798278
O O16 0.000000 0.787280 0.000000
O O17 0.750000 0.250000 0.500000
#
# Coordination Sequence:
#
# PCOD9218066 Si02
#       8
#     4   4   8   8   4   4   8   8
#     4  12  25  44  74 105 143 185 240 291 360 437
#     4  12  24  44  70 111 137 181 249 302 344 425
#     4  12  25  43  71 103 140 190 241 298 358 425
#     4  12  26  45  69 104 147 186 234 300 371 428
#     4  12  26  43  74 105 143 184 242 294 362 436
#     4  10  24  41  72 103 136 184 243 299 344 408
#     4  11  23  45  71 100 138 187 243 288 351 428
#     4  12  26  45  68 103 146 185 229 294 362 425
#
# _framework density 21.648842999999999
#
# number of rings (size 3 to 8) (size 9 to 14) (size 15 to 20)
#    0.000    0.333    5.000    4.250    2.333    1.333 
#    0.000    0.417    0.000    0.000    0.000    0.000 
#    0.000    0.000    0.000    0.000    0.000    0.000 
#
# Total GULP energy -134226.530341 kJ/mol
# GULP energy per Si atom -5592.772098 kJ/mol
# Density = 2.159957 g / cm^3
# Si number density = 21.648843 Si / 1000 Ang^3
#
#
#
# Elastic Constant Matrix: (Units=GPa)
#
#
# Indices 1 2 3 4 5 6 
#
# 1 148.0345 33.9628 25.1771 -0.0001 28.1049 0.0000
# 2 33.9628 186.0664 45.0981 -0.0002 29.6654 -0.0001
# 3 25.1771 45.0981 115.9472 -0.0004 32.3004 -0.0002
# 4 -0.0001 -0.0002 -0.0004 -28.8477 -0.0002 54.2892
# 5 28.1049 29.6654 32.3004 -0.0002 47.3645 -0.0001
# 6 0.0000 -0.0001 -0.0002 54.2892 -0.0001 2.4101
#
#
#
# Elastic Compliance Matrix: (Units=1/GPa)
#
#
# Indices 1 2 3 4 5 6 
#
# 1 0.007715 -0.000708 -0.000306 0.000000 -0.003926 0.000000
# 2 -0.000708 0.006280 -0.001617 0.000000 -0.002410 0.000000
# 3 -0.000306 -0.001617 0.011095 0.000000 -0.006372 0.000000
# 4 0.000000 0.000000 0.000000 -0.000799 0.000000 0.017995
# 5 -0.003926 -0.002410 -0.006372 0.000000 0.029297 0.000000
# 6 0.000000 0.000000 0.000000 0.017995 0.000000 0.009562
#
#
# Mechanical properties :
#
#
# Convention : Reuss Voigt Hill
#
# Bulk Modulus (GPa) = 50.43750 73.16931 61.80341
# Shear Modulus (GPa) = 66.64635 27.23941 46.94288
#
# Velocity S-wave (km/s) = 5.55446 3.55101 4.66164
# Velocity P-wave (km/s) = 8.03023 7.11931 7.58845
#
# Compressibility (1/GPa) = 0.01982652
#
# Stress axis : x y z
#
# Youngs Moduli (GPa) = 129.61745 159.23669 90.12870
#
# Poissons Ratio (x) = 0.11276 0.02760
# Poissons Ratio (y) = 0.09179 0.14578
# Poissons Ratio (z) = 0.03970 0.25756
#
# Static dielectric constant tensor:
#      x y z
#    x 1.790320 0.000000 -0.035260 
#    y 0.000000 1.777210 0.000000 
#    z -0.035260 0.000000 1.823530 
# 
# From -- ./inp_files/278295.got.cif
#   From: 2010.05.17/outbox.cif.g08.bks.cpg/sg12_140_cif.got.tgz:278295.got - 2010.06.03 13:09:07.
