data_PCOD9218728
_publ_section_title
;
Structure prediction by ZEFSAII (Michael W. Deem and Ramdas Pophale) SiO2 
 PCOD9218728
Probable space group: C 2/M
;
_chemical_formula_sum "Si O2"
_cell_formula_units_Z 32
_cell_length_a 7.135901
_cell_length_b 14.378872
_cell_length_c 11.929936
_cell_angle_alpha 90.000000
_cell_angle_beta 111.608708
_cell_angle_gamma 90.000000
_cell_volume 1138.057400
_symmetry_space_group_name_H-M "C 2/M"
_symmetry_group_IT_number 12
_symmetry_cell_setting 'monoclinic'
loop_
_space_group_symop_operation_xyz
x,y,z
-x,y,-z
-x,-y,-z
x,-y,z
1/2+x,1/2+y,z
1/2-x,1/2+y,-z
1/2-x,1/2-y,-z
1/2+x,1/2-y,z
loop_
_atom_site_type_symbol
_atom_site_label
_atom_site_fract_x
_atom_site_fract_y
_atom_site_fract_z
Si Si1 0.811177 0.158445 0.084265
Si Si2 0.777522 0.398474 0.158652
Si Si3 0.255415 0.893454 0.457594
Si Si4 0.175856 0.298746 0.306248
O O1 0.742699 0.168635 0.196101
O O2 0.048512 0.135043 0.130535
O O3 0.750000 0.250000 0.000000
O O4 0.705879 0.091622 0.971897
O O5 0.809353 0.500000 0.216120
O O6 0.942090 0.329627 0.244991
O O7 0.500000 0.894331 0.500000
O O8 0.184771 0.804420 0.366418
O O9 0.218360 0.863827 0.578349
O O10 0.183574 0.000000 0.420848
#
# Coordination Sequence:
#
# PCOD9218728 Si02
#       4
#     8   8   8   8
#     4  11  27  46  82 123 171 217 273 338 424 507
#     4  11  27  49  81 127 172 217 276 346 421 507
#     4  10  25  51  84 122 163 219 288 354 419 495
#     4  11  26  50  87 121 167 225 279 345 425 506
#
# _framework density 28.118092000000001
#
# number of rings (size 3 to 8) (size 9 to 14) (size 15 to 20)
#    0.000    1.250    0.000    3.000   10.500    5.000 
#    4.500    5.000    0.000   33.750    0.000    0.000 
#    0.000    0.000    0.000    0.000    0.000    0.000 
#
# Total GULP energy -89475.239006 kJ/mol
# GULP energy per Si atom -5592.202438 kJ/mol
# Density = 2.805409 g / cm^3
# Si number density = 28.118092 Si / 1000 Ang^3
#
#
#
# Elastic Constant Matrix: (Units=GPa)
#
#
# Indices 1 2 3 4 5 6 
#
# 1 111.8954 45.9797 53.2574 0.0000 19.1659 0.0000
# 2 45.9797 265.9361 79.3004 0.0000 16.6005 0.0000
# 3 53.2574 79.3004 330.9029 0.0000 -29.0864 0.0000
# 4 0.0000 0.0000 0.0000 16.3191 0.0000 3.6164
# 5 19.1659 16.6005 -29.0864 0.0000 66.5483 0.0000
# 6 0.0000 0.0000 0.0000 3.6164 0.0000 -6.2300
#
#
#
# Elastic Compliance Matrix: (Units=1/GPa)
#
#
# Indices 1 2 3 4 5 6 
#
# 1 0.010878 -0.001116 -0.001804 0.000000 -0.003643 0.000000
# 2 -0.001116 0.004312 -0.000957 0.000000 -0.001172 0.000000
# 3 -0.001804 -0.000957 0.003752 0.000000 0.002398 0.000000
# 4 0.000000 0.000000 0.000000 0.054294 0.000000 0.031516
# 5 -0.003643 -0.001172 0.002398 0.000000 0.017416 0.000000
# 6 0.000000 0.000000 0.000000 0.031516 0.000000 -0.142220
#
#
# Mechanical properties :
#
#
# Convention : Reuss Voigt Hill
#
# Bulk Modulus (GPa) = 89.36591 118.42326 103.89458
# Shear Modulus (GPa) = -124.73291 50.67392 -37.02949
#
# Velocity S-wave (km/s) = -6.66758 4.24982 -3.63289
# Velocity P-wave (km/s) = 5.23681 8.14181 4.40822
#
# Compressibility (1/GPa) = 0.01118995
#
# Stress axis : x y z
#
# Youngs Moduli (GPa) = 91.93135 231.92839 266.49520
#
# Poissons Ratio (x) = 0.25872 0.48065
# Poissons Ratio (y) = 0.10255 0.25499
# Poissons Ratio (z) = 0.16581 0.22191
#
# Static dielectric constant tensor:
#      x y z
#    x 2.327760 0.000000 -0.075110 
#    y 0.000000 2.423350 0.000000 
#    z -0.075110 0.000000 2.252230 
# 
# From -- ./inp_files/117734.got.cif
#   From: 2010.05.17/outbox.cif.g08.bks.cpg/sg12_59_cif.got.tgz:117734.got - 2010.06.03 13:09:07.
