data_PCOD9218057
_publ_section_title
;
Structure prediction by ZEFSAII (Michael W. Deem and Ramdas Pophale) SiO2 
 PCOD9218057
Probable space group: C 2/M
;
_chemical_formula_sum "Si O2"
_cell_formula_units_Z 48
_cell_length_a 9.193991
_cell_length_b 21.650120
_cell_length_c 11.225223
_cell_angle_alpha 90.000000
_cell_angle_beta 111.620405
_cell_angle_gamma 90.000000
_cell_volume 2077.192038
_symmetry_space_group_name_H-M "C 2/M"
_symmetry_group_IT_number 12
_symmetry_cell_setting 'monoclinic'
loop_
_space_group_symop_operation_xyz
x,y,z
-x,y,-z
-x,-y,-z
x,-y,z
1/2+x,1/2+y,z
1/2-x,1/2+y,-z
1/2-x,1/2-y,-z
1/2+x,1/2-y,z
loop_
_atom_site_type_symbol
_atom_site_label
_atom_site_fract_x
_atom_site_fract_y
_atom_site_fract_z
Si Si1 0.716902 0.620086 0.691629
Si Si2 0.163182 0.685880 0.487433
Si Si3 0.927663 0.139189 0.726016
Si Si4 0.500000 0.661577 0.000000
Si Si5 0.249937 0.500000 0.420832
Si Si6 0.423455 0.000000 0.175384
Si Si7 0.660784 0.883688 0.011584
Si Si8 0.647403 0.500000 0.280387
O O1 0.838536 0.654270 0.642850
O O2 0.563454 0.659167 0.675930
O O3 0.667362 0.560175 0.604361
O O4 0.778725 0.600320 0.838523
O O5 0.250000 0.750000 0.500000
O O6 0.266100 0.645458 0.609220
O O7 0.000000 0.693563 0.500000
O O8 0.942765 0.179778 0.849851
O O9 0.943845 0.065469 0.760631
O O10 0.678652 0.638192 0.007804
O O11 0.263788 0.500000 0.566153
O O12 0.078013 0.500000 0.305937
O O13 0.275595 0.000000 0.216942
O O14 0.403936 0.059694 0.085694
O O15 0.500000 0.845031 0.000000
#
# Coordination Sequence:
#
# PCOD9218057 Si02
#       8
#     8   8   8   4   4   4   8   4
#     4  11  24  41  69 102 140 184 234 286 351 413
#     4  12  28  49  78 102 135 180 234 299 361 422
#     4  11  24  44  69 103 145 185 234 291 345 427
#     4  10  24  41  66  98 140 186 230 283 350 418
#     4  12  23  36  61 102 148 187 234 287 351 414
#     4  12  23  38  57  96 153 193 243 273 348 419
#     4  11  22  39  63  93 140 190 232 282 337 423
#     4  12  24  35  67 101 148 190 238 283 345 425
#
# _framework density 23.108118999999999
#
# number of rings (size 3 to 8) (size 9 to 14) (size 15 to 20)
#    0.000    0.667    5.000    3.000    4.667    3.333 
#    0.000    0.000    1.833    3.000    0.000    0.000 
#    0.000    0.000    0.000    0.000    0.000    0.000 
#
# Total GULP energy -133664.942276 kJ/mol
# GULP energy per Si atom -5569.372595 kJ/mol
# Density = 2.305552 g / cm^3
# Si number density = 23.108119 Si / 1000 Ang^3
#
#
#
# Elastic Constant Matrix: (Units=GPa)
#
#
# Indices 1 2 3 4 5 6 
#
# 1 216.1959 10.4877 49.9782 0.0000 -21.9596 0.0000
# 2 10.4877 21.0316 12.3060 0.0000 -18.0106 0.0000
# 3 49.9782 12.3060 124.6621 0.0000 -21.6522 0.0000
# 4 0.0000 0.0000 0.0000 3.7134 0.0000 1.6808
# 5 -21.9596 -18.0106 -21.6522 0.0000 54.3928 0.0000
# 6 0.0000 0.0000 0.0000 1.6808 0.0000 20.5021
#
#
#
# Elastic Compliance Matrix: (Units=1/GPa)
#
#
# Indices 1 2 3 4 5 6 
#
# 1 0.005194 -0.000487 -0.001824 0.000000 0.001209 0.000000
# 2 -0.000487 0.067428 -0.002812 0.000000 0.021011 0.000000
# 3 -0.001824 -0.002812 0.009390 0.000000 0.002071 0.000000
# 4 0.000000 0.000000 0.000000 0.279670 0.000000 -0.022928
# 5 0.001209 0.021011 0.002071 0.000000 0.026655 0.000000
# 6 0.000000 0.000000 0.000000 -0.022928 0.000000 0.050655
#
#
# Mechanical properties :
#
#
# Convention : Reuss Voigt Hill
#
# Bulk Modulus (GPa) = 13.93396 56.38148 35.15772
# Shear Modulus (GPa) = 10.56727 34.99618 22.78173
#
# Velocity S-wave (km/s) = 2.14077 3.89582 3.14327
# Velocity P-wave (km/s) = 3.48619 6.68495 5.33114
#
# Compressibility (1/GPa) = 0.07176711
#
# Stress axis : x y z
#
# Youngs Moduli (GPa) = 192.54618 14.83054 106.49482
#
# Poissons Ratio (x) = 0.00722 0.19425
# Poissons Ratio (y) = 0.09373 0.29943
# Poissons Ratio (z) = 0.35121 0.04170
#
# Static dielectric constant tensor:
#      x y z
#    x 1.958910 0.000000 0.030600 
#    y 0.000000 1.935470 0.000000 
#    z 0.030600 0.000000 1.865270 
# 
# From -- ./inp_files/122646.got.cif
#   From: 2010.05.17/outbox.cif.g08.bks.cpg/sg12_62_cif.got.tgz:122646.got - 2010.06.03 13:09:07.
