data_PCOD9218936
_publ_section_title
;
Structure prediction by ZEFSAII (Michael W. Deem and Ramdas Pophale) SiO2 
 PCOD9218936
Probable space group: C 2/M
;
_chemical_formula_sum "Si O2"
_cell_formula_units_Z 56
_cell_length_a 13.803313
_cell_length_b 28.982429
_cell_length_c 11.410493
_cell_angle_alpha 90.000000
_cell_angle_beta 32.494330
_cell_angle_gamma 90.000000
_cell_volume 2452.288607
_symmetry_space_group_name_H-M "C 2/M"
_symmetry_group_IT_number 12
_symmetry_cell_setting 'monoclinic'
loop_
_space_group_symop_operation_xyz
x,y,z
-x,y,-z
-x,-y,-z
x,-y,z
1/2+x,1/2+y,z
1/2-x,1/2+y,-z
1/2-x,1/2-y,-z
1/2+x,1/2-y,z
loop_
_atom_site_type_symbol
_atom_site_label
_atom_site_fract_x
_atom_site_fract_y
_atom_site_fract_z
Si Si1 0.712639 0.351638 0.810371
Si Si2 0.137187 0.691575 0.578986
Si Si3 0.849329 0.127800 0.863736
Si Si4 0.166655 0.948377 0.533983
Si Si5 0.485493 0.720390 0.379085
Si Si6 0.011872 0.391707 0.860571
Si Si7 0.783782 0.048300 0.245323
O O1 0.796036 0.319733 0.622660
O O2 0.790832 0.403289 0.718713
O O3 0.500000 0.351201 0.000000
O O4 0.708466 0.348369 0.954542
O O5 0.296378 0.706316 0.507612
O O6 0.987144 0.731807 0.720744
O O7 0.073028 0.644393 0.700569
O O8 0.018501 0.092583 0.693114
O O9 0.898892 0.173609 0.741694
O O10 0.689456 0.097209 0.973723
O O11 0.337930 0.931262 0.285084
O O12 0.237157 0.952360 0.594671
O O13 0.101698 0.000000 0.566305
O O14 0.500000 0.733863 0.500000
O O15 0.000000 0.368684 0.000000
O O16 0.715769 0.000000 0.262198
O O17 0.000000 0.049221 0.000000
#
# Coordination Sequence:
#
# PCOD9218936 Si02
#       7
#     8   8   8   8   8   8   8
#     4  11  18  39  67 102 139 177 233 286 349 418
#     4  11  24  46  67 102 144 183 231 300 354 408
#     4  12  25  43  75 105 136 193 238 280 363 421
#     4  11  23  45  71 103 146 183 230 294 352 415
#     4  11  24  45  70  98 140 188 234 282 348 425
#     4  12  27  47  71 101 140 183 243 297 347 418
#     4   9  15  30  63  97 132 174 216 273 341 407
#
# _framework density 22.835812000000001
#
# number of rings (size 3 to 8) (size 9 to 14) (size 15 to 20)
#    0.000    1.000    7.143    0.857    2.000    1.429 
#    5.143    0.714    0.000    1.714    0.000    0.000 
#    0.000    0.000    0.000    0.000    0.000    0.000 
#
# Total GULP energy -155936.379192 kJ/mol
# GULP energy per Si atom -5569.156400 kJ/mol
# Density = 2.278384 g / cm^3
# Si number density = 22.835812 Si / 1000 Ang^3
#
#
#
# Elastic Constant Matrix: (Units=GPa)
#
#
# Indices 1 2 3 4 5 6 
#
# 1 82.0622 6.4693 32.0725 0.0000 8.3684 0.0000
# 2 6.4693 112.0037 23.6761 0.0000 -2.8899 0.0000
# 3 32.0725 23.6761 64.9914 0.0000 -0.2207 0.0000
# 4 0.0000 0.0000 0.0000 8.2513 0.0000 26.5501
# 5 8.3684 -2.8899 -0.2207 0.0000 23.5155 0.0000
# 6 0.0000 0.0000 0.0000 26.5501 0.0000 -89.7576
#
#
#
# Elastic Compliance Matrix: (Units=1/GPa)
#
#
# Indices 1 2 3 4 5 6 
#
# 1 0.015871 0.000647 -0.008087 0.000000 -0.005644 0.000000
# 2 0.000647 0.009731 -0.003861 0.000000 0.000929 0.000000
# 3 -0.008087 -0.003861 0.020793 0.000000 0.002599 0.000000
# 4 0.000000 0.000000 0.000000 0.062094 0.000000 0.018367
# 5 -0.005644 0.000929 0.002599 0.000000 0.044672 0.000000
# 6 0.000000 0.000000 0.000000 0.018367 0.000000 -0.005708
#
#
# Mechanical properties :
#
#
# Convention : Reuss Voigt Hill
#
# Bulk Modulus (GPa) = 42.02938 42.61033 42.31986
# Shear Modulus (GPa) = 28.09201 1.52445 14.80823
#
# Velocity S-wave (km/s) = 3.51119 0.81794 2.54926
# Velocity P-wave (km/s) = 5.90618 4.42628 5.21895
#
# Compressibility (1/GPa) = 0.02379288
#
# Stress axis : x y z
#
# Youngs Moduli (GPa) = 63.00727 102.76348 48.09308
#
# Poissons Ratio (x) = -0.06651 0.38894
# Poissons Ratio (y) = -0.04078 0.18570
# Poissons Ratio (z) = 0.50955 0.39679
#
# Static dielectric constant tensor:
#      x y z
#    x 1.802400 0.000000 -0.017020 
#    y 0.000000 1.880380 0.000000 
#    z -0.017020 0.000000 1.952500 
# 
# From -- ./inp_files/150410.got.cif
#   From: 2010.05.17/outbox.cif.g08.bks.cpg/sg12_76_cif.got.tgz:150410.got - 2010.06.03 13:09:07.
