data_PCOD9218148
_publ_section_title
;
Structure prediction by ZEFSAII (Michael W. Deem and Ramdas Pophale) SiO2 
 PCOD9218148
Probable space group: C 2/M
;
_chemical_formula_sum "Si O2"
_cell_formula_units_Z 52
_cell_length_a 9.480385
_cell_length_b 14.876463
_cell_length_c 29.220403
_cell_angle_alpha 90.000000
_cell_angle_beta 41.797533
_cell_angle_gamma 90.000000
_cell_volume 2746.706517
_symmetry_space_group_name_H-M "C 2/M"
_symmetry_group_IT_number 12
_symmetry_cell_setting 'monoclinic'
loop_
_space_group_symop_operation_xyz
x,y,z
-x,y,-z
-x,-y,-z
x,-y,z
1/2+x,1/2+y,z
1/2-x,1/2+y,-z
1/2-x,1/2-y,-z
1/2+x,1/2-y,z
loop_
_atom_site_type_symbol
_atom_site_label
_atom_site_fract_x
_atom_site_fract_y
_atom_site_fract_z
Si Si1 0.846731 0.393298 0.716301
Si Si2 0.500000 0.785468 0.500000
Si Si3 0.751585 0.500000 0.066886
Si Si4 0.018594 0.653725 0.855783
Si Si5 0.774204 0.000000 0.031223
Si Si6 0.325346 0.896296 0.282679
Si Si7 0.006034 0.742627 0.605810
Si Si8 0.376871 0.672098 0.843815
O O1 0.826830 0.500000 0.712966
O O2 0.617160 0.347446 0.770514
O O3 0.967566 0.381523 0.735470
O O4 0.980444 0.342354 0.645611
O O5 0.246516 0.774968 0.550793
O O6 0.548109 0.788006 0.432393
O O7 0.686006 0.586902 0.110808
O O8 0.667629 0.500000 0.036079
O O9 0.000000 0.500000 0.000000
O O10 0.110894 0.614526 0.785824
O O11 0.214467 0.679460 0.841147
O O12 0.869280 0.584333 0.918693
O O13 0.883454 0.739611 0.873166
O O14 0.000000 0.000000 0.000000
O O15 0.150264 0.823308 0.339961
O O16 0.255260 0.000000 0.307577
#
# Coordination Sequence:
#
# PCOD9218148 Si02
#       8
#     8   4   4   8   4   8   8   8
#     4  11  24  42  70 103 132 179 227 282 338 392
#     4  10  24  42  70  92 146 178 220 264 348 414
#     4  12  26  52  68  96 144 185 218 277 350 403
#     4  12  26  45  68 105 134 177 231 284 334 402
#     4  12  30  48  72  98 144 185 222 279 348 411
#     4  11  24  42  70 101 136 174 230 284 335 392
#     4  11  22  46  66 102 132 185 217 281 335 403
#     4  12  26  43  72 100 137 176 231 284 334 404
#
# _framework density 18.931763
#
# number of rings (size 3 to 8) (size 9 to 14) (size 15 to 20)
#    0.000    0.615    6.154    0.923    6.462    1.231 
#    0.000    4.615    0.000    0.000    0.000    0.000 
#    0.000    0.000    0.000    0.000    0.000    0.000 
#
# Total GULP energy -144762.938644 kJ/mol
# GULP energy per Si atom -5567.805332 kJ/mol
# Density = 1.888867 g / cm^3
# Si number density = 18.931763 Si / 1000 Ang^3
#
#
#
# Elastic Constant Matrix: (Units=GPa)
#
#
# Indices 1 2 3 4 5 6 
#
# 1 170.3981 26.1197 16.3834 0.0000 13.9684 -0.0001
# 2 26.1197 97.4453 7.3317 0.0002 5.0209 -0.0002
# 3 16.3834 7.3317 56.1354 0.0011 7.5643 0.0001
# 4 0.0000 0.0002 0.0011 -12.6451 0.0002 0.7863
# 5 13.9684 5.0209 7.5643 0.0002 47.5475 0.0001
# 6 -0.0001 -0.0002 0.0001 0.7863 0.0001 20.7003
#
#
#
# Elastic Compliance Matrix: (Units=1/GPa)
#
#
# Indices 1 2 3 4 5 6 
#
# 1 0.006363 -0.001520 -0.001460 0.000000 -0.001477 0.000000
# 2 -0.001520 0.010765 -0.000888 0.000000 -0.000549 0.000000
# 3 -0.001460 -0.000888 0.018686 0.000002 -0.002450 0.000000
# 4 0.000000 0.000000 0.000002 -0.078896 0.000000 0.002997
# 5 -0.001477 -0.000549 -0.002450 0.000000 0.021913 0.000000
# 6 0.000000 0.000000 0.000000 0.002997 0.000000 0.048195
#
#
# Mechanical properties :
#
#
# Convention : Reuss Voigt Hill
#
# Bulk Modulus (GPa) = 35.61454 47.07205 41.34330
# Shear Modulus (GPa) = 113.32531 29.39681 71.36106
#
# Velocity S-wave (km/s) = 7.74531 3.94480 6.14619
# Velocity P-wave (km/s) = 9.94180 6.75771 8.50018
#
# Compressibility (1/GPa) = 0.02807842
#
# Stress axis : x y z
#
# Youngs Moduli (GPa) = 157.16016 92.89685 53.51521
#
# Poissons Ratio (x) = 0.14117 0.07811
# Poissons Ratio (y) = 0.23883 0.04755
# Poissons Ratio (z) = 0.22939 0.08253
#
# Static dielectric constant tensor:
#      x y z
#    x 1.609710 0.000000 -0.027750 
#    y 0.000000 1.655100 0.000000 
#    z -0.027750 0.000000 1.630990 
# 
# From -- ./inp_files/372509.got.cif
#   From: 2010.05.17/outbox.cif.g08.bks.cpg/sg12_187_cif.got.tgz:372509.got - 2010.06.03 13:09:07.
