data_PCOD9218495
_publ_section_title
;
Structure prediction by ZEFSAII (Michael W. Deem and Ramdas Pophale) SiO2 
 PCOD9218495
Probable space group: C 2/M
;
_chemical_formula_sum "Si O2"
_cell_formula_units_Z 64
_cell_length_a 14.051573
_cell_length_b 25.406129
_cell_length_c 9.459615
_cell_angle_alpha 90.000000
_cell_angle_beta 110.677222
_cell_angle_gamma 90.000000
_cell_volume 3159.511304
_symmetry_space_group_name_H-M "C 2/M"
_symmetry_group_IT_number 12
_symmetry_cell_setting 'monoclinic'
loop_
_space_group_symop_operation_xyz
x,y,z
-x,y,-z
-x,-y,-z
x,-y,z
1/2+x,1/2+y,z
1/2-x,1/2+y,-z
1/2-x,1/2-y,-z
1/2+x,1/2-y,z
loop_
_atom_site_type_symbol
_atom_site_label
_atom_site_fract_x
_atom_site_fract_y
_atom_site_fract_z
Si Si1 0.991177 0.739159 0.664303
Si Si2 0.500316 0.349035 0.168545
Si Si3 0.277442 0.199030 0.607767
Si Si4 0.290009 0.796406 0.125691
Si Si5 0.773460 0.138125 0.150934
Si Si6 0.212839 0.132033 0.329906
Si Si7 0.098110 0.562651 0.148316
Si Si8 0.103818 0.437078 0.488308
O O1 0.977402 0.795074 0.734769
O O2 0.097051 0.716593 0.771547
O O3 0.000000 0.745758 0.500000
O O4 0.899125 0.701026 0.661023
O O5 0.391852 0.368644 0.171638
O O6 0.597992 0.386117 0.243605
O O7 0.500000 0.338062 0.000000
O O8 0.250000 0.250000 0.500000
O O9 0.239619 0.187467 0.745820
O O10 0.223650 0.152972 0.494126
O O11 0.231979 0.817811 0.234915
O O12 0.250000 0.750000 0.000000
O O13 0.282296 0.846425 0.021785
O O14 0.705585 0.090320 0.169595
O O15 0.303121 0.089892 0.378611
O O16 0.105447 0.500000 0.129601
O O17 0.090781 0.572135 0.313293
O O18 0.000000 0.580453 0.000000
O O19 0.111539 0.500000 0.511627
O O20 0.000000 0.416243 0.500000
#
# Coordination Sequence:
#
# PCOD9218495 Si02
#       8
#     8   8   8   8   8   8   8   8
#     4  12  25  39  61  91 131 175 222 273 320 379
#     4  12  26  43  62  88 132 177 220 268 322 386
#     4  12  24  39  61  97 131 174 223 266 322 389
#     4  12  25  42  63  94 137 180 222 268 323 391
#     4  12  26  42  66  95 130 177 224 265 335 390
#     4  12  24  42  66  93 133 174 222 272 328 390
#     4  10  24  47  72 103 135 166 213 276 340 400
#     4  10  24  46  73 103 133 167 214 276 341 397
#
# _framework density 20.256297
#
# number of rings (size 3 to 8) (size 9 to 14) (size 15 to 20)
#    0.000    0.500    6.250    1.500    7.000    0.000 
#    0.000    0.625    0.000    2.250    0.000    0.000 
#    0.000    0.000    0.000    0.000    0.000    0.000 
#
# Total GULP energy -178472.417237 kJ/mol
# GULP energy per Si atom -5577.263039 kJ/mol
# Density = 2.021019 g / cm^3
# Si number density = 20.256297 Si / 1000 Ang^3
#
#
#
# Elastic Constant Matrix: (Units=GPa)
#
#
# Indices 1 2 3 4 5 6 
#
# 1 193.9144 46.7687 83.8996 0.0000 15.0509 0.0000
# 2 46.7687 41.0835 23.1947 0.0000 13.5060 0.0000
# 3 83.8996 23.1947 131.0244 0.0000 10.9036 0.0000
# 4 0.0000 0.0000 0.0000 26.7390 0.0000 2.9956
# 5 15.0509 13.5060 10.9036 0.0000 41.3027 0.0000
# 6 0.0000 0.0000 0.0000 2.9956 0.0000 30.5852
#
#
#
# Elastic Compliance Matrix: (Units=1/GPa)
#
#
# Indices 1 2 3 4 5 6 
#
# 1 0.008886 -0.007815 -0.004345 0.000000 0.000465 0.000000
# 2 -0.007815 0.036582 -0.000729 0.000000 -0.008922 0.000000
# 3 -0.004345 -0.000729 0.010625 0.000000 -0.000983 0.000000
# 4 0.000000 0.000000 0.000000 0.037813 0.000000 -0.003704
# 5 0.000465 -0.008922 -0.000983 0.000000 0.027219 0.000000
# 6 0.000000 0.000000 0.000000 -0.003704 0.000000 0.033058
#
#
# Mechanical properties :
#
#
# Convention : Reuss Voigt Hill
#
# Bulk Modulus (GPa) = 32.98764 74.86092 53.92428
# Shear Modulus (GPa) = 26.30656 33.86935 30.08795
#
# Velocity S-wave (km/s) = 3.60764 4.09350 3.85822
# Velocity P-wave (km/s) = 5.80292 7.70580 6.82104
#
# Compressibility (1/GPa) = 0.03031438
#
# Stress axis : x y z
#
# Youngs Moduli (GPa) = 112.54205 27.33603 94.11458
#
# Poissons Ratio (x) = 0.21363 0.40893
# Poissons Ratio (y) = 0.87950 0.06864
# Poissons Ratio (z) = 0.48899 0.01994
#
# Static dielectric constant tensor:
#      x y z
#    x 1.708840 0.000000 0.030400 
#    y 0.000000 1.782760 0.000000 
#    z 0.030400 0.000000 1.704400 
# 
# From -- ./inp_files/67025.got.cif
#   From: 2010.05.17/outbox.cif.g08.bks.cpg/sg12_34_cif.got.tgz:67025.got - 2010.06.03 13:09:07.
