data_PCOD9218618
_publ_section_title
;
Structure prediction by ZEFSAII (Michael W. Deem and Ramdas Pophale) SiO2 
 PCOD9218618
Probable space group: C 2/M
;
_chemical_formula_sum "Si O2"
_cell_formula_units_Z 50
_cell_length_a 26.142597
_cell_length_b 8.130552
_cell_length_c 12.730163
_cell_angle_alpha 90.000000
_cell_angle_beta 67.220099
_cell_angle_gamma 90.000000
_cell_volume 2494.785377
_symmetry_space_group_name_H-M "C 2/M"
_symmetry_group_IT_number 12
_symmetry_cell_setting 'monoclinic'
loop_
_space_group_symop_operation_xyz
x,y,z
-x,y,-z
-x,-y,-z
x,-y,z
1/2+x,1/2+y,z
1/2-x,1/2+y,-z
1/2-x,1/2-y,-z
1/2+x,1/2-y,z
loop_
_atom_site_type_symbol
_atom_site_label
_atom_site_fract_x
_atom_site_fract_y
_atom_site_fract_z
Si Si1 0.627820 0.185397 0.652403
Si Si2 0.190181 0.802993 0.003754
Si Si3 0.709235 0.310346 0.753762
Si Si4 0.171662 0.815168 0.404298
Si Si5 0.388540 0.189687 0.751413
Si Si6 0.000000 0.000000 0.500000
Si Si7 0.480901 0.195004 0.368853
O O1 0.661885 0.297419 0.704182
O O2 0.651169 0.201524 0.515288
O O3 0.562313 0.214892 0.691588
O O4 0.637017 0.000000 0.682575
O O5 0.143488 0.729953 0.116448
O O6 0.185587 0.000000 0.012749
O O7 0.250000 0.750000 0.000000
O O8 0.187982 0.750487 0.883993
O O9 0.726357 0.500000 0.754297
O O10 0.764151 0.216759 0.673288
O O11 0.137424 0.790701 0.324137
O O12 0.164862 0.000000 0.448019
O O13 0.454289 0.215649 0.709680
O O14 0.379033 0.000000 0.731501
O O15 0.969897 0.151090 0.455284
O O16 0.473522 0.000000 0.410761
#
# Coordination Sequence:
#
# PCOD9218618 Si02
#       7
#     8   8   8   8   8   2   8
#     4  11  24  43  63  88 131 173 211 260 317 386
#     4  11  23  40  65  94 125 162 211 269 321 378
#     4  11  24  42  63  91 126 167 214 262 318 384
#     4  12  24  37  61  94 127 166 210 259 318 385
#     4  11  23  41  64  92 131 165 210 270 321 375
#     4  12  22  36  72  90 130 176 218 260 328 368
#     4  10  25  42  61  97 134 170 218 270 320 385
#
# _framework density 20.041802000000001
#
# number of rings (size 3 to 8) (size 9 to 14) (size 15 to 20)
#    0.000    0.960    1.600    5.040    6.720    4.480 
#    0.000    0.800    0.000    4.800    0.000    0.000 
#    0.000    0.000    0.000    0.000    0.000    0.000 
#
# Total GULP energy -139440.267217 kJ/mol
# GULP energy per Si atom -5577.610689 kJ/mol
# Density = 1.999619 g / cm^3
# Si number density = 20.041802 Si / 1000 Ang^3
#
#
#
# Elastic Constant Matrix: (Units=GPa)
#
#
# Indices 1 2 3 4 5 6 
#
# 1 125.4853 21.9345 50.3180 0.0000 -1.5990 0.0000
# 2 21.9345 69.7956 -1.6799 0.0000 -8.8025 0.0000
# 3 50.3180 -1.6799 78.7947 0.0000 6.3836 0.0000
# 4 0.0000 0.0000 0.0000 23.6261 0.0000 2.1173
# 5 -1.5990 -8.8025 6.3836 0.0000 22.7132 0.0000
# 6 0.0000 0.0000 0.0000 2.1173 0.0000 22.1523
#
#
#
# Elastic Compliance Matrix: (Units=1/GPa)
#
#
# Indices 1 2 3 4 5 6 
#
# 1 0.011711 -0.003668 -0.007683 0.000000 0.001562 0.000000
# 2 -0.003668 0.016215 0.002251 0.000000 0.005393 0.000000
# 3 -0.007683 0.002251 0.018030 0.000000 -0.004736 0.000000
# 4 0.000000 0.000000 0.000000 0.042692 0.000000 -0.004080
# 5 0.001562 0.005393 -0.004736 0.000000 0.047558 0.000000
# 6 0.000000 0.000000 0.000000 -0.004080 0.000000 0.045532
#
#
# Mechanical properties :
#
#
# Convention : Reuss Voigt Hill
#
# Bulk Modulus (GPa) = 36.03016 46.13564 41.08290
# Shear Modulus (GPa) = 23.90173 27.26520 25.58347
#
# Velocity S-wave (km/s) = 3.45714 3.69238 3.57670
# Velocity P-wave (km/s) = 5.82686 6.42246 6.13189
#
# Compressibility (1/GPa) = 0.02775453
#
# Stress axis : x y z
#
# Youngs Moduli (GPa) = 85.38863 61.67222 55.46460
#
# Poissons Ratio (x) = 0.22624 0.42616
# Poissons Ratio (y) = 0.31324 -0.12487
# Poissons Ratio (z) = 0.65608 -0.13885
#
# Static dielectric constant tensor:
#      x y z
#    x 1.706600 0.000000 -0.018120 
#    y 0.000000 1.707600 0.000000 
#    z -0.018120 0.000000 1.666020 
# 
# From -- ./inp_files/180525.got.cif
#   From: 2010.05.17/outbox.cif.g08.bks.cpg/sg12_91_cif.got.tgz:180525.got - 2010.06.03 13:09:07.
