data_PCOD9218261
_publ_section_title
;
Structure prediction by ZEFSAII (Michael W. Deem and Ramdas Pophale) SiO2 
 PCOD9218261
Probable space group: C 2/M
;
_chemical_formula_sum "Si O2"
_cell_formula_units_Z 56
_cell_length_a 8.442675
_cell_length_b 14.976111
_cell_length_c 22.649441
_cell_angle_alpha 90.000000
_cell_angle_beta 96.838057
_cell_angle_gamma 90.000000
_cell_volume 2843.388993
_symmetry_space_group_name_H-M "C 2/M"
_symmetry_group_IT_number 12
_symmetry_cell_setting 'monoclinic'
loop_
_space_group_symop_operation_xyz
x,y,z
-x,y,-z
-x,-y,-z
x,-y,z
1/2+x,1/2+y,z
1/2-x,1/2+y,-z
1/2-x,1/2-y,-z
1/2+x,1/2-y,z
loop_
_atom_site_type_symbol
_atom_site_label
_atom_site_fract_x
_atom_site_fract_y
_atom_site_fract_z
Si Si1 0.965868 0.894857 0.203223
Si Si2 0.155685 0.600026 0.779728
Si Si3 0.619273 0.350936 0.664391
Si Si4 0.076364 0.000000 0.569074
Si Si5 0.418964 0.221917 0.129277
Si Si6 0.860301 0.798069 0.956735
Si Si7 0.455220 0.000000 0.564976
Si Si8 0.496242 0.151250 0.654447
O O1 0.156711 0.876861 0.208843
O O2 0.914992 0.878727 0.269038
O O3 0.889996 0.822534 0.153971
O O4 0.937870 0.000000 0.187330
O O5 0.134619 0.500000 0.800708
O O6 0.042559 0.666254 0.811219
O O7 0.101011 0.607831 0.710479
O O8 0.544693 0.416109 0.611349
O O9 0.551780 0.252478 0.650949
O O10 0.810156 0.351917 0.664166
O O11 0.265482 0.000000 0.565602
O O12 0.000000 0.000000 0.500000
O O13 0.271090 0.166014 0.094381
O O14 0.544747 0.231562 0.082514
O O15 0.750000 0.750000 0.000000
O O16 0.000000 0.847603 0.000000
O O17 0.500000 0.000000 0.500000
O O18 0.518507 0.910730 0.598885
#
# Coordination Sequence:
#
# PCOD9218261 Si02
#       8
#     8   8   8   4   8   8   4   8
#     4  11  23  37  59  93 128 161 204 256 319 371
#     4  11  23  37  59  93 129 160 203 259 318 370
#     4  11  23  40  61  91 127 164 206 259 315 366
#     4  10  24  44  64  88 124 170 214 254 306 377
#     4  11  20  38  62  92 120 161 211 248 308 371
#     4   9  20  38  64  88 121 167 206 246 301 363
#     4  10  24  44  64  88 124 170 214 252 310 374
#     4  11  23  40  61  91 127 164 205 260 315 365
#
# _framework density 19.694807999999998
#
# number of rings (size 3 to 8) (size 9 to 14) (size 15 to 20)
#    0.000    1.429    4.286    0.857    2.000    2.857 
#    0.000    2.857    0.000   17.143    0.000    0.000 
#    0.000    0.000    0.000    0.000    0.000    0.000 
#
# Total GULP energy -155968.334442 kJ/mol
# GULP energy per Si atom -5570.297659 kJ/mol
# Density = 1.964998 g / cm^3
# Si number density = 19.694808 Si / 1000 Ang^3
#
#
#
# Elastic Constant Matrix: (Units=GPa)
#
#
# Indices 1 2 3 4 5 6 
#
# 1 36.1639 16.4287 25.9828 0.0000 -4.4316 0.0000
# 2 16.4287 105.4237 37.4706 0.0000 -7.5970 0.0000
# 3 25.9828 37.4706 131.8511 0.0000 -14.8711 0.0000
# 4 0.0000 0.0000 0.0000 -142.7015 0.0000 -4.8122
# 5 -4.4316 -7.5970 -14.8711 0.0000 44.0063 0.0000
# 6 0.0000 0.0000 0.0000 -4.8122 0.0000 20.9850
#
#
#
# Elastic Compliance Matrix: (Units=1/GPa)
#
#
# Indices 1 2 3 4 5 6 
#
# 1 0.033170 -0.003133 -0.005542 0.000000 0.000927 0.000000
# 2 -0.003133 0.010877 -0.002389 0.000000 0.000755 0.000000
# 3 -0.005542 -0.002389 0.009612 0.000000 0.002278 0.000000
# 4 0.000000 0.000000 0.000000 -0.006954 0.000000 -0.001595
# 5 0.000927 0.000755 0.002278 0.000000 0.023717 0.000000
# 6 0.000000 0.000000 0.000000 -0.001595 0.000000 0.047288
#
#
# Mechanical properties :
#
#
# Convention : Reuss Voigt Hill
#
# Bulk Modulus (GPa) = 31.71246 48.13366 39.92306
# Shear Modulus (GPa) = 33.25623 -2.63829 15.30897
#
# Velocity S-wave (km/s) = 4.11369 -1.15866 2.79105
# Velocity P-wave (km/s) = 6.22094 4.76475 5.54089
#
# Compressibility (1/GPa) = 0.03153334
#
# Stress axis : x y z
#
# Youngs Moduli (GPa) = 30.14755 91.93611 104.03514
#
# Poissons Ratio (x) = 0.28799 0.57654
# Poissons Ratio (y) = 0.09444 0.24851
# Poissons Ratio (z) = 0.16707 0.21961
#
# Static dielectric constant tensor:
#      x y z
#    x 1.736340 0.000000 0.027850 
#    y 0.000000 1.695340 0.000000 
#    z 0.027850 0.000000 1.700380 
# 
# From -- ./inp_files/300181.got.cif
#   From: 2010.05.17/outbox.cif.g08.bks.cpg/sg12_151_cif.got.tgz:300181.got - 2010.06.03 13:09:07.
