data_PCOD9218208
_publ_section_title
;
Structure prediction by ZEFSAII (Michael W. Deem and Ramdas Pophale) SiO2 
 PCOD9218208
Probable space group: C 2/M
;
_chemical_formula_sum "Si O2"
_cell_formula_units_Z 38
_cell_length_a 7.639689
_cell_length_b 18.391882
_cell_length_c 12.876926
_cell_angle_alpha 90.000000
_cell_angle_beta 114.837473
_cell_angle_gamma 90.000000
_cell_volume 1641.958202
_symmetry_space_group_name_H-M "C 2/M"
_symmetry_group_IT_number 12
_symmetry_cell_setting 'monoclinic'
loop_
_space_group_symop_operation_xyz
x,y,z
-x,y,-z
-x,-y,-z
x,-y,z
1/2+x,1/2+y,z
1/2-x,1/2+y,-z
1/2-x,1/2-y,-z
1/2+x,1/2-y,z
loop_
_atom_site_type_symbol
_atom_site_label
_atom_site_fract_x
_atom_site_fract_y
_atom_site_fract_z
Si Si1 0.223363 0.619327 0.038708
Si Si2 0.000000 0.000000 0.000000
Si Si3 0.660300 0.844922 0.800502
Si Si4 0.000000 0.867935 0.500000
Si Si5 0.243701 0.500000 0.497308
Si Si6 0.735824 0.302532 0.733318
Si Si7 0.318530 0.000000 0.293392
O O1 0.283525 0.658539 0.159703
O O2 0.380836 0.562003 0.039420
O O3 0.204765 0.669629 0.932176
O O4 0.000000 0.591330 0.000000
O O5 0.758514 0.783438 0.756382
O O6 0.431617 0.833399 0.732700
O O7 0.706943 0.928047 0.781378
O O8 0.059794 0.820306 0.613349
O O9 0.170808 0.924781 0.521932
O O10 0.307066 0.500000 0.634392
O O11 0.026796 0.500000 0.400292
#
# Coordination Sequence:
#
# PCOD9218208 Si02
#       7
#     8   2   8   4   4   8   4
#     4  10  25  46  69 108 148 187 233 297 355 422
#     4  12  24  40  80 112 142 188 242 282 366 424
#     4  11  25  46  73 103 141 183 233 293 358 417
#     4  11  24  44  68 103 136 186 238 281 350 426
#     4  10  24  43  66  95 143 185 224 284 346 421
#     4  11  26  44  71 101 144 182 235 294 352 415
#     4  11  23  45  69  98 135 185 229 284 349 418
#
# _framework density 23.143096
#
# number of rings (size 3 to 8) (size 9 to 14) (size 15 to 20)
#    0.000    1.263    2.105    1.579    5.895    8.421 
#    0.000    0.000    0.000    0.000    0.000    0.000 
#    0.000    0.000    0.000    0.000    0.000    0.000 
#
# Total GULP energy -105925.521286 kJ/mol
# GULP energy per Si atom -5575.027436 kJ/mol
# Density = 2.309042 g / cm^3
# Si number density = 23.143096 Si / 1000 Ang^3
#
#
#
# Elastic Constant Matrix: (Units=GPa)
#
#
# Indices 1 2 3 4 5 6 
#
# 1 72.5147 49.9877 36.3275 0.0000 -3.2484 0.0000
# 2 49.9877 158.3441 51.9055 0.0000 -12.5447 0.0000
# 3 36.3275 51.9055 154.4628 0.0000 6.7398 0.0000
# 4 0.0000 0.0000 0.0000 27.1255 0.0000 -5.6632
# 5 -3.2484 -12.5447 6.7398 0.0000 33.8286 0.0000
# 6 0.0000 0.0000 0.0000 -5.6632 0.0000 40.7926
#
#
#
# Elastic Compliance Matrix: (Units=1/GPa)
#
#
# Indices 1 2 3 4 5 6 
#
# 1 0.018581 -0.004930 -0.002735 0.000000 0.000501 0.000000
# 2 -0.004930 0.008750 -0.001919 0.000000 0.003154 0.000000
# 3 -0.002735 -0.001919 0.007873 0.000000 -0.002543 0.000000
# 4 0.000000 0.000000 0.000000 0.037966 0.000000 0.005271
# 5 0.000501 0.003154 -0.002543 0.000000 0.031285 0.000000
# 6 0.000000 0.000000 0.000000 0.005271 0.000000 0.025246
#
#
# Mechanical properties :
#
#
# Convention : Reuss Voigt Hill
#
# Bulk Modulus (GPa) = 62.35422 73.52923 67.94172
# Shear Modulus (GPa) = 32.42226 36.82274 34.62250
#
# Velocity S-wave (km/s) = 3.74698 3.99317 3.87204
# Velocity P-wave (km/s) = 6.76175 7.28705 7.02931
#
# Compressibility (1/GPa) = 0.01603741
#
# Stress axis : x y z
#
# Youngs Moduli (GPa) = 53.81761 114.28059 127.01485
#
# Poissons Ratio (x) = 0.56335 0.34744
# Poissons Ratio (y) = 0.26530 0.24371
# Poissons Ratio (z) = 0.14721 0.21927
#
# Static dielectric constant tensor:
#      x y z
#    x 1.971060 0.000000 0.008010 
#    y 0.000000 1.894330 0.000000 
#    z 0.008010 0.000000 1.926340 
# 
# From -- ./inp_files/119272.got.cif
#   From: 2010.05.17/outbox.cif.g08.bks.cpg/sg12_60_cif.got.tgz:119272.got - 2010.06.03 13:09:07.
