data_PCOD9218169
_publ_section_title
;
Structure prediction by ZEFSAII (Michael W. Deem and Ramdas Pophale) SiO2 
 PCOD9218169
Probable space group: C 2/M
;
_chemical_formula_sum "Si O2"
_cell_formula_units_Z 56
_cell_length_a 20.818503
_cell_length_b 8.839793
_cell_length_c 30.636120
_cell_angle_alpha 90.000000
_cell_angle_beta 146.405352
_cell_angle_gamma 90.000000
_cell_volume 3119.584921
_symmetry_space_group_name_H-M "C 2/M"
_symmetry_group_IT_number 12
_symmetry_cell_setting 'monoclinic'
loop_
_space_group_symop_operation_xyz
x,y,z
-x,y,-z
-x,-y,-z
x,-y,z
1/2+x,1/2+y,z
1/2-x,1/2+y,-z
1/2-x,1/2-y,-z
1/2+x,1/2-y,z
loop_
_atom_site_type_symbol
_atom_site_label
_atom_site_fract_x
_atom_site_fract_y
_atom_site_fract_z
Si Si1 0.076487 0.320711 0.762956
Si Si2 0.935011 0.819379 0.340407
Si Si3 0.452539 0.819156 0.903499
Si Si4 0.321267 0.181134 0.499825
Si Si5 0.816453 0.319211 0.916852
Si Si6 0.350141 0.319131 0.676541
Si Si7 0.790409 0.819803 0.742112
O O1 0.074722 0.500000 0.755927
O O2 0.070319 0.241316 0.712157
O O3 0.196670 0.268434 0.852888
O O4 0.966033 0.266773 0.727954
O O5 0.821692 0.762877 0.301693
O O6 0.051330 0.752487 0.427597
O O7 0.939236 0.000000 0.341990
O O8 0.372414 0.789314 0.900762
O O9 0.399793 0.731251 0.833090
O O10 0.447853 0.000000 0.893136
O O11 0.583561 0.779698 0.991753
O O12 0.250000 0.250000 0.500000
O O13 0.249971 0.213939 0.415447
O O14 0.329369 0.000000 0.509600
O O15 0.796214 0.500000 0.907879
O O16 0.372633 0.500000 0.687308
O O17 0.310996 0.281374 0.703244
O O18 0.773889 0.000000 0.736465
#
# Coordination Sequence:
#
# PCOD9218169 Si02
#       7
#     8   8   8   8   8   8   8
#     4  12  23  36  60  92 119 151 202 250 289 349
#     4  12  24  39  61  87 121 159 196 245 298 349
#     4   9  18  34  58  87 119 158 194 238 294 351
#     4  11  22  39  63  90 118 154 199 248 297 349
#     4   9  18  34  58  87 120 155 195 239 295 351
#     4  10  24  43  62  84 121 162 192 238 306 360
#     4  11  23  40  61  89 121 157 199 243 294 354
#
# _framework density 17.951104999999998
#
# number of rings (size 3 to 8) (size 9 to 14) (size 15 to 20)
#    0.000    1.429    2.857    4.286    0.000    2.857 
#    0.000    5.000    0.000    0.000    0.000    0.000 
#    0.000    0.000    0.000    0.000    0.000    0.000 
#
# Total GULP energy -156494.370089 kJ/mol
# GULP energy per Si atom -5589.084646 kJ/mol
# Density = 1.791025 g / cm^3
# Si number density = 17.951105 Si / 1000 Ang^3
#
#
#
# Elastic Constant Matrix: (Units=GPa)
#
#
# Indices 1 2 3 4 5 6 
#
# 1 95.2105 57.4077 63.3430 0.0000 -4.2094 -0.0001
# 2 57.4077 82.7689 65.9674 0.0000 0.8173 -0.0001
# 3 63.3430 65.9674 139.6870 0.0000 2.5632 0.0000
# 4 0.0000 0.0000 0.0000 34.0377 0.0000 4.1823
# 5 -4.2094 0.8173 2.5632 0.0000 31.3267 0.0000
# 6 -0.0001 -0.0001 0.0000 4.1823 0.0000 28.0973
#
#
#
# Elastic Compliance Matrix: (Units=1/GPa)
#
#
# Indices 1 2 3 4 5 6 
#
# 1 0.019612 -0.010422 -0.004031 0.000000 0.003237 0.000000
# 2 -0.010422 0.024914 -0.007013 0.000000 -0.001477 0.000000
# 3 -0.004031 -0.007013 0.012324 0.000000 -0.001367 0.000000
# 4 0.000000 0.000000 0.000000 0.029927 0.000000 -0.004455
# 5 0.003237 -0.001477 -0.001367 0.000000 0.032507 0.000000
# 6 0.000000 0.000000 0.000000 -0.004455 0.000000 0.036254
#
#
# Mechanical properties :
#
#
# Convention : Reuss Voigt Hill
#
# Bulk Modulus (GPa) = 71.84653 76.78920 74.31787
# Shear Modulus (GPa) = 24.61757 27.42222 26.01989
#
# Velocity S-wave (km/s) = 3.70722 3.91270 3.81134
# Velocity P-wave (km/s) = 7.64428 7.95500 7.80118
#
# Compressibility (1/GPa) = 0.01391856
#
# Stress axis : x y z
#
# Youngs Moduli (GPa) = 50.98976 40.13801 81.14536
#
# Poissons Ratio (x) = 0.41831 0.32709
# Poissons Ratio (y) = 0.53141 0.56905
# Poissons Ratio (z) = 0.20553 0.28148
#
# Static dielectric constant tensor:
#      x y z
#    x 1.580730 0.000000 0.001410 
#    y 0.000000 1.599620 0.000000 
#    z 0.001410 0.000000 1.613550 
# 
# From -- ./inp_files/363249.got.cif
#   From: 2010.05.17/outbox.cif.g08.bks.cpg/sg12_182_cif.got.tgz:363249.got - 2010.06.03 13:09:07.
