data_PCOD9218843
_publ_section_title
;
Structure prediction by ZEFSAII (Michael W. Deem and Ramdas Pophale) SiO2 
 PCOD9218843
Probable space group: C 2/M
;
_chemical_formula_sum "Si O2"
_cell_formula_units_Z 64
_cell_length_a 21.627526
_cell_length_b 14.396751
_cell_length_c 14.039697
_cell_angle_alpha 90.000000
_cell_angle_beta 110.809845
_cell_angle_gamma 90.000000
_cell_volume 4086.310366
_symmetry_space_group_name_H-M "C 2/M"
_symmetry_group_IT_number 12
_symmetry_cell_setting 'monoclinic'
loop_
_space_group_symop_operation_xyz
x,y,z
-x,y,-z
-x,-y,-z
x,-y,z
1/2+x,1/2+y,z
1/2-x,1/2+y,-z
1/2-x,1/2-y,-z
1/2+x,1/2-y,z
loop_
_atom_site_type_symbol
_atom_site_label
_atom_site_fract_x
_atom_site_fract_y
_atom_site_fract_z
Si Si1 0.152977 0.391981 0.789847
Si Si2 0.150513 0.390252 0.156007
Si Si3 0.476228 0.395370 0.830130
Si Si4 0.445285 0.798504 0.754872
Si Si5 0.770990 0.237733 0.901888
Si Si6 0.104616 0.104619 0.016162
Si Si7 0.015536 0.388451 0.616599
Si Si8 0.437750 0.105267 0.076900
O O1 0.171704 0.500000 0.783163
O O2 0.214359 0.322861 0.819695
O O3 0.091193 0.367037 0.688076
O O4 0.121152 0.387184 0.878404
O O5 0.163692 0.500000 0.176752
O O6 0.120180 0.341791 0.233330
O O7 0.211301 0.332027 0.144882
O O8 0.093573 0.382732 0.043334
O O9 0.470368 0.500000 0.788120
O O10 0.447077 0.312648 0.751860
O O11 0.436572 0.393068 0.908302
O O12 0.552620 0.379344 0.902365
O O13 0.466696 0.842658 0.666620
O O14 0.504907 0.826148 0.860050
O O15 0.838382 0.178981 0.944265
O O16 0.750000 0.250000 0.000000
O O17 0.131716 0.000000 0.019819
O O18 0.008859 0.500000 0.622008
O O19 0.000000 0.361858 0.500000
O O20 0.464857 0.000000 0.099936
#
# Coordination Sequence:
#
# PCOD9218843 Si02
#       8
#     8   8   8   8   8   8   8   8
#     4   9  18  32  49  70  98 131 169 204 239 292
#     4  11  21  30  41  68 103 136 167 197 237 294
#     4   9  18  30  46  69  95 127 171 211 238 280
#     4  11  18  29  52  72  97 125 161 203 264 301
#     4  12  21  29  44  66 101 146 172 195 231 285
#     4   9  18  31  44  63  96 136 172 204 235 272
#     4   9  19  36  58  82 100 118 156 213 266 308
#     4   9  17  28  43  68  99 130 162 199 240 296
#
# _framework density 15.662050000000001
#
# number of rings (size 3 to 8) (size 9 to 14) (size 15 to 20)
#    0.000    2.125    2.500    4.125    3.500    1.500 
#    0.000    0.000    0.000    1.125    0.000    0.000 
#    0.000    0.000    0.000    0.000    0.000    0.000 
#
# Total GULP energy -178417.929619 kJ/mol
# GULP energy per Si atom -5575.560301 kJ/mol
# Density = 1.562640 g / cm^3
# Si number density = 15.662050 Si / 1000 Ang^3
#
#
#
# Elastic Constant Matrix: (Units=GPa)
#
#
# Indices 1 2 3 4 5 6 
#
# 1 71.5873 50.6624 29.0933 0.0000 -4.3340 0.0000
# 2 50.6624 105.0355 34.8580 0.0000 -4.0722 0.0000
# 3 29.0933 34.8580 65.7132 0.0000 -8.5643 0.0000
# 4 0.0000 0.0000 0.0000 14.0501 0.0000 0.1647
# 5 -4.3340 -4.0722 -8.5643 0.0000 8.9553 0.0000
# 6 0.0000 0.0000 0.0000 0.1647 0.0000 26.7923
#
#
#
# Elastic Compliance Matrix: (Units=1/GPa)
#
#
# Indices 1 2 3 4 5 6 
#
# 1 0.022575 -0.009201 -0.004838 0.000000 0.002114 0.000000
# 2 -0.009201 0.015309 -0.004250 0.000000 -0.001556 0.000000
# 3 -0.004838 -0.004250 0.021770 0.000000 0.016546 0.000000
# 4 0.000000 0.000000 0.000000 0.071179 0.000000 -0.000438
# 5 0.002114 -0.001556 0.016546 0.000000 0.127804 0.000000
# 6 0.000000 0.000000 0.000000 -0.000438 0.000000 0.037327
#
#
# Mechanical properties :
#
#
# Convention : Reuss Voigt Hill
#
# Bulk Modulus (GPa) = 43.33557 52.39593 47.86575
# Shear Modulus (GPa) = 14.69577 18.47437 16.58507
#
# Velocity S-wave (km/s) = 3.06650 3.43820 3.25766
# Velocity P-wave (km/s) = 6.34564 7.02057 6.69162
#
# Compressibility (1/GPa) = 0.02307573
#
# Stress axis : x y z
#
# Youngs Moduli (GPa) = 44.29716 65.32281 45.93397
#
# Poissons Ratio (x) = 0.60103 0.22224
# Poissons Ratio (y) = 0.40758 0.19521
# Poissons Ratio (z) = 0.21432 0.27760
#
# Static dielectric constant tensor:
#      x y z
#    x 1.542370 0.000000 -0.002480 
#    y 0.000000 1.566990 0.000000 
#    z -0.002480 0.000000 1.495770 
# 
# From -- ./inp_files/233176.got.cif
#   From: 2010.05.17/outbox.cif.g08.bks.cpg/sg12_117_cif.got.tgz:233176.got - 2010.06.03 13:09:07.
