data_PCOD9218952
_publ_section_title
;
Structure prediction by ZEFSAII (Michael W. Deem and Ramdas Pophale) SiO2 
 PCOD9218952
Probable space group: C 2/M
;
_chemical_formula_sum "Si O2"
_cell_formula_units_Z 34
_cell_length_a 11.321653
_cell_length_b 15.839708
_cell_length_c 8.026586
_cell_angle_alpha 90.000000
_cell_angle_beta 66.046287
_cell_angle_gamma 90.000000
_cell_volume 1315.449183
_symmetry_space_group_name_H-M "C 2/M"
_symmetry_group_IT_number 12
_symmetry_cell_setting 'monoclinic'
loop_
_space_group_symop_operation_xyz
x,y,z
-x,y,-z
-x,-y,-z
x,-y,z
1/2+x,1/2+y,z
1/2-x,1/2+y,-z
1/2-x,1/2-y,-z
1/2+x,1/2-y,z
loop_
_atom_site_type_symbol
_atom_site_label
_atom_site_fract_x
_atom_site_fract_y
_atom_site_fract_z
Si Si1 0.132639 0.594010 0.311646
Si Si2 0.000000 0.000000 0.000000
Si Si3 0.510127 0.774129 0.800733
Si Si4 0.542345 0.406457 0.264526
Si Si5 0.730622 0.094364 0.597465
O O1 0.141177 0.500000 0.232969
O O2 0.242342 0.603341 0.389980
O O3 0.000000 0.596392 0.500000
O O4 0.110596 0.669748 0.197201
O O5 0.914428 0.925740 0.949976
O O6 0.516111 0.686198 0.700700
O O7 0.635759 0.831425 0.702994
O O8 0.500000 0.758595 0.000000
O O9 0.470185 0.500000 0.318100
O O10 0.352424 0.404913 0.650526
O O11 0.672495 0.000000 0.654147
#
# Coordination Sequence:
#
# PCOD9218952 Si02
#       5
#     8   2   8   8   8
#     4   8  16  31  49  71 103 135 164 198 248 305
#     4   8  16  36  52  72  96 140 170 204 232 312
#     4  11  19  30  51  81 104 125 167 218 249 282
#     4   9  18  35  53  71 101 137 172 199 245 308
#     4   9  19  35  55  73  98 140 170 195 248 312
#
# _framework density 25.846685000000001
#
# number of rings (size 3 to 8) (size 9 to 14) (size 15 to 20)
#    0.706    2.118    1.176    2.118    0.000    3.765 
#    0.000    0.000    0.000    9.176    0.000    0.000 
#    0.000    0.000    0.000    0.000    0.000    0.000 
#
# Total GULP energy -94639.439160 kJ/mol
# GULP energy per Si atom -5567.025833 kJ/mol
# Density = 2.578786 g / cm^3
# Si number density = 25.846685 Si / 1000 Ang^3
#
#
#
# Elastic Constant Matrix: (Units=GPa)
#
#
# Indices 1 2 3 4 5 6 
#
# 1 146.2856 105.7741 36.5227 0.0000 38.9760 0.0000
# 2 105.7741 260.9030 57.5873 0.0000 28.7855 0.0000
# 3 36.5227 57.5873 69.5040 0.0000 31.2568 0.0000
# 4 0.0000 0.0000 0.0000 41.4720 0.0000 16.9039
# 5 38.9760 28.7855 31.2568 0.0000 34.3227 0.0000
# 6 0.0000 0.0000 0.0000 16.9039 0.0000 43.1287
#
#
#
# Elastic Compliance Matrix: (Units=1/GPa)
#
#
# Indices 1 2 3 4 5 6 
#
# 1 0.012914 -0.004388 0.003031 0.000000 -0.013745 0.000000
# 2 -0.004388 0.006191 -0.004623 0.000000 0.004001 0.000000
# 3 0.003031 -0.004623 0.027825 0.000000 -0.024904 0.000000
# 4 0.000000 0.000000 0.000000 0.028697 0.000000 -0.011248
# 5 -0.013745 0.004001 -0.024904 0.000000 0.064069 0.000000
# 6 0.000000 0.000000 0.000000 -0.011248 0.000000 0.027595
#
#
# Mechanical properties :
#
#
# Convention : Reuss Voigt Hill
#
# Bulk Modulus (GPa) = 28.59565 97.38455 62.99010
# Shear Modulus (GPa) = 26.19077 42.23858 34.21467
#
# Velocity S-wave (km/s) = 3.18671 4.04691 3.64229
# Velocity P-wave (km/s) = 4.96263 7.71986 6.48937
#
# Compressibility (1/GPa) = 0.03497036
#
# Stress axis : x y z
#
# Youngs Moduli (GPa) = 77.43275 161.52969 35.93910
#
# Poissons Ratio (x) = 0.70883 -0.10893
# Poissons Ratio (y) = 0.33979 0.16614
# Poissons Ratio (z) = -0.23470 0.74671
#
# Static dielectric constant tensor:
#      x y z
#    x 2.142410 0.000000 -0.121610 
#    y 0.000000 1.938700 0.000000 
#    z -0.121610 0.000000 3.000520 
# 
# From -- ./inp_files/72220.got.cif
#   From: 2010.05.17/outbox.cif.g08.bks.cpg/sg12_37_cif.got.tgz:72220.got - 2010.06.03 13:09:07.
