data_PCOD9218617
_publ_section_title
;
Structure prediction by ZEFSAII (Michael W. Deem and Ramdas Pophale) SiO2 
 PCOD9218617
Probable space group: C 2/M
;
_chemical_formula_sum "Si O2"
_cell_formula_units_Z 48
_cell_length_a 23.565775
_cell_length_b 11.497746
_cell_length_c 8.162002
_cell_angle_alpha 90.000000
_cell_angle_beta 72.270589
_cell_angle_gamma 90.000000
_cell_volume 2106.485773
_symmetry_space_group_name_H-M "C 2/M"
_symmetry_group_IT_number 12
_symmetry_cell_setting 'monoclinic'
loop_
_space_group_symop_operation_xyz
x,y,z
-x,y,-z
-x,-y,-z
x,-y,z
1/2+x,1/2+y,z
1/2-x,1/2+y,-z
1/2-x,1/2-y,-z
1/2+x,1/2-y,z
loop_
_atom_site_type_symbol
_atom_site_label
_atom_site_fract_x
_atom_site_fract_y
_atom_site_fract_z
Si Si1 0.581643 0.500000 0.101300
Si Si2 0.444385 0.766813 0.276548
Si Si3 0.329366 0.875671 0.419996
Si Si4 0.835843 0.801324 0.879869
Si Si5 0.757330 0.209849 0.255940
Si Si6 0.430361 0.860490 0.914448
Si Si7 0.939753 0.000000 0.249467
O O1 0.610468 0.390561 0.163488
O O2 0.511101 0.500000 0.168023
O O3 0.594144 0.500000 0.895449
O O4 0.395796 0.842334 0.415840
O O5 0.512663 0.808260 0.234285
O O6 0.430815 0.630931 0.326083
O O7 0.432839 0.798560 0.092610
O O8 0.280695 0.878507 0.605016
O O9 0.305332 0.775087 0.323783
O O10 0.331746 0.000000 0.331576
O O11 0.794073 0.798429 0.759712
O O12 0.867912 0.678317 0.888934
O O13 0.791532 0.834211 0.067128
O O14 0.436296 0.000000 0.925111
#
# Coordination Sequence:
#
# PCOD9218617 Si02
#       7
#     4   8   8   8   8   8   4
#     4  11  18  34  63  93 125 153 203 263 313 359
#     4  11  20  37  60  95 122 161 206 257 315 361
#     4  11  23  44  64  89 126 166 211 258 312 382
#     4  11  22  40  63  93 126 160 208 260 313 371
#     4  10  25  42  59  93 124 168 209 250 313 375
#     4  11  20  34  61  93 124 158 207 260 312 365
#     4  11  18  34  63  97 127 157 199 264 303 386
#
# _framework density 22.786767000000001
#
# number of rings (size 3 to 8) (size 9 to 14) (size 15 to 20)
#    0.000    1.167    5.000    3.000    2.333    0.667 
#    9.000    0.833    0.000    3.000    0.000    0.000 
#    0.000    0.000    0.000    0.000    0.000    0.000 
#
# Total GULP energy -133932.597377 kJ/mol
# GULP energy per Si atom -5580.524891 kJ/mol
# Density = 2.273490 g / cm^3
# Si number density = 22.786767 Si / 1000 Ang^3
#
#
#
# Elastic Constant Matrix: (Units=GPa)
#
#
# Indices 1 2 3 4 5 6 
#
# 1 101.6544 7.1024 8.9606 0.0000 -19.4119 0.0000
# 2 7.1024 118.1996 10.3926 0.0000 -16.6561 0.0000
# 3 8.9606 10.3926 27.6896 0.0000 -16.2505 0.0000
# 4 0.0000 0.0000 0.0000 5.9636 0.0000 -6.1658
# 5 -19.4119 -16.6561 -16.2505 0.0000 28.4035 0.0000
# 6 0.0000 0.0000 0.0000 -6.1658 0.0000 -32.1411
#
#
#
# Elastic Compliance Matrix: (Units=1/GPa)
#
#
# Indices 1 2 3 4 5 6 
#
# 1 0.011367 0.000438 0.001305 0.000000 0.008772 0.000000
# 2 0.000438 0.009243 -0.000383 0.000000 0.005501 0.000000
# 3 0.001305 -0.000383 0.054541 0.000000 0.031872 0.000000
# 4 0.000000 0.000000 0.000000 0.139930 0.000000 -0.026844
# 5 0.008772 0.005501 0.031872 0.000000 0.062663 0.000000
# 6 0.000000 0.000000 0.000000 -0.026844 0.000000 -0.025963
#
#
# Mechanical properties :
#
#
# Convention : Reuss Voigt Hill
#
# Bulk Modulus (GPa) = 12.84150 33.38385 23.11268
# Shear Modulus (GPa) = 18.18079 15.18440 16.68259
#
# Velocity S-wave (km/s) = 2.82772 2.58421 2.70870
# Velocity P-wave (km/s) = 4.03845 4.85660 4.46630
#
# Compressibility (1/GPa) = 0.07787253
#
# Stress axis : x y z
#
# Youngs Moduli (GPa) = 87.97618 108.19355 18.33487
#
# Poissons Ratio (x) = -0.04743 -0.02393
# Poissons Ratio (y) = -0.03857 0.00702
# Poissons Ratio (z) = -0.11484 0.04140
#
# Static dielectric constant tensor:
#      x y z
#    x 1.799480 0.000000 -0.006840 
#    y 0.000000 1.903490 0.000000 
#    z -0.006840 0.000000 1.907590 
# 
# From -- ./inp_files/94948.got.cif
#   From: 2010.05.17/outbox.cif.g08.bks.cpg/sg12_48_cif.got.tgz:94948.got - 2010.06.03 13:09:07.
