data_PCOD9218828
_publ_section_title
;
Structure prediction by ZEFSAII (Michael W. Deem and Ramdas Pophale) SiO2 
 PCOD9218828
Probable space group: C 2/M
;
_chemical_formula_sum "Si O2"
_cell_formula_units_Z 56
_cell_length_a 8.685033
_cell_length_b 18.259081
_cell_length_c 28.209610
_cell_angle_alpha 90.000000
_cell_angle_beta 133.542603
_cell_angle_gamma 90.000000
_cell_volume 3242.671872
_symmetry_space_group_name_H-M "C 2/M"
_symmetry_group_IT_number 12
_symmetry_cell_setting 'monoclinic'
loop_
_space_group_symop_operation_xyz
x,y,z
-x,y,-z
-x,-y,-z
x,-y,z
1/2+x,1/2+y,z
1/2-x,1/2+y,-z
1/2-x,1/2-y,-z
1/2+x,1/2-y,z
loop_
_atom_site_type_symbol
_atom_site_label
_atom_site_fract_x
_atom_site_fract_y
_atom_site_fract_z
Si Si1 0.993042 0.773289 0.049393
Si Si2 0.563231 0.804070 0.248407
Si Si3 0.256507 0.303251 0.456501
Si Si4 0.259068 0.085294 0.236752
Si Si5 0.425368 0.303761 0.139865
Si Si6 0.610906 0.915018 0.625625
Si Si7 0.548487 0.698300 0.333830
O O1 0.018669 0.808602 0.106395
O O2 0.171175 0.708935 0.084531
O O3 0.750000 0.750000 0.000000
O O4 0.000000 0.814517 0.000000
O O5 0.419211 0.870967 0.235976
O O6 0.505281 0.768632 0.185159
O O7 0.527102 0.739730 0.279112
O O8 0.813337 0.821320 0.301496
O O9 0.500000 0.324165 0.500000
O O10 0.250000 0.250000 0.500000
O O11 0.159664 0.256232 0.392556
O O12 0.105368 0.372563 0.431739
O O13 0.349253 0.090927 0.309271
O O14 0.031840 0.126773 0.187637
O O15 0.240338 0.000000 0.220329
O O16 0.800553 0.871145 0.640612
O O17 0.605708 0.000000 0.611682
#
# Coordination Sequence:
#
# PCOD9218828 Si02
#       7
#     8   8   8   8   8   8   8
#     4   9  19  31  53  90 116 145 195 243 266 313
#     4  12  19  34  63  88 110 148 197 238 292 341
#     4  12  22  37  62  84 105 153 200 236 279 357
#     4  11  23  37  57  90 124 148 184 247 308 346
#     4  11  17  33  59  86 110 152 192 236 278 342
#     4  11  24  41  58  86 121 147 185 250 306 343
#     4  12  20  37  59  86 113 145 194 245 291 349
#
# _framework density 17.269708999999999
#
# number of rings (size 3 to 8) (size 9 to 14) (size 15 to 20)
#    0.000    0.857    8.571    0.000    0.000    0.857 
#    0.000    1.429    0.000    4.286    0.000    0.000 
#    0.000    0.000    0.000    0.000    0.000    0.000 
#
# Total GULP energy -156048.166858 kJ/mol
# GULP energy per Si atom -5573.148816 kJ/mol
# Density = 1.723040 g / cm^3
# Si number density = 17.269709 Si / 1000 Ang^3
#
#
#
# Elastic Constant Matrix: (Units=GPa)
#
#
# Indices 1 2 3 4 5 6 
#
# 1 81.1433 32.7535 25.3286 0.0000 30.1669 0.0000
# 2 32.7535 118.7641 28.3110 0.0000 24.7787 0.0000
# 3 25.3286 28.3110 69.6266 0.0000 24.9311 0.0000
# 4 0.0000 0.0000 0.0000 9.6720 0.0000 4.1385
# 5 30.1669 24.7787 24.9311 0.0000 51.1889 0.0000
# 6 0.0000 0.0000 0.0000 4.1385 0.0000 25.2221
#
#
#
# Elastic Compliance Matrix: (Units=1/GPa)
#
#
# Indices 1 2 3 4 5 6 
#
# 1 0.016906 -0.002506 -0.002420 0.000000 -0.007571 0.000000
# 2 -0.002506 0.010158 -0.002407 0.000000 -0.002268 0.000000
# 3 -0.002420 -0.002407 0.018524 0.000000 -0.006431 0.000000
# 4 0.000000 0.000000 0.000000 0.111198 0.000000 -0.018246
# 5 -0.007571 -0.002268 -0.006431 0.000000 0.028228 0.000000
# 6 0.000000 0.000000 0.000000 -0.018246 0.000000 0.042642
#
#
# Mechanical properties :
#
#
# Convention : Reuss Voigt Hill
#
# Bulk Modulus (GPa) = 32.33864 49.14669 40.74266
# Shear Modulus (GPa) = 19.79205 29.42598 24.60902
#
# Velocity S-wave (km/s) = 3.38902 4.13232 3.77899
# Velocity P-wave (km/s) = 5.83783 7.16158 6.53331
#
# Compressibility (1/GPa) = 0.03092276
#
# Stress axis : x y z
#
# Youngs Moduli (GPa) = 59.15231 98.44394 53.98438
#
# Poissons Ratio (x) = 0.24668 0.13064
# Poissons Ratio (y) = 0.14822 0.12992
# Poissons Ratio (z) = 0.14314 0.23692
#
# Static dielectric constant tensor:
#      x y z
#    x 1.634340 0.000000 -0.029940 
#    y 0.000000 1.553350 0.000000 
#    z -0.029940 0.000000 1.655580 
# 
# From -- ./inp_files/300124.got.cif
#   From: 2010.05.17/outbox.cif.g08.bks.cpg/sg12_151_cif.got.tgz:300124.got - 2010.06.03 13:09:07.
