data_PCOD9218161
_publ_section_title
;
Structure prediction by ZEFSAII (Michael W. Deem and Ramdas Pophale) SiO2 
 PCOD9218161
Probable space group: C 2/M
;
_chemical_formula_sum "Si O2"
_cell_formula_units_Z 44
_cell_length_a 26.997839
_cell_length_b 15.357109
_cell_length_c 14.321050
_cell_angle_alpha 90.000000
_cell_angle_beta 159.992005
_cell_angle_gamma 90.000000
_cell_volume 2031.568542
_symmetry_space_group_name_H-M "C 2/M"
_symmetry_group_IT_number 12
_symmetry_cell_setting 'monoclinic'
loop_
_space_group_symop_operation_xyz
x,y,z
-x,y,-z
-x,-y,-z
x,-y,z
1/2+x,1/2+y,z
1/2-x,1/2+y,-z
1/2-x,1/2-y,-z
1/2+x,1/2-y,z
loop_
_atom_site_type_symbol
_atom_site_label
_atom_site_fract_x
_atom_site_fract_y
_atom_site_fract_z
Si Si1 0.354304 0.855162 0.103775
Si Si2 0.500000 0.750880 0.000000
Si Si3 0.110562 0.093448 0.533396
Si Si4 0.196601 0.851286 0.005500
Si Si5 0.813236 0.779801 0.497144
Si Si6 0.840998 0.400754 0.449438
O O1 0.333620 0.751863 0.050099
O O2 0.503987 0.886565 0.325791
O O3 0.226314 0.899131 0.819637
O O4 0.326391 0.870375 0.163813
O O5 0.644050 0.800361 0.218019
O O6 0.575238 0.701238 0.220675
O O7 0.138464 0.169615 0.508941
O O8 0.950046 0.104469 0.288124
O O9 0.124639 0.000000 0.510555
O O10 0.229257 0.883031 0.167327
O O11 0.822047 0.676005 0.491266
O O12 0.828671 0.500000 0.461894
#
# Coordination Sequence:
#
# PCOD9218161 Si02
#       6
#     8   4   8   8   8   8
#     4  11  22  39  61  91 131 175 214 254 295 349
#     4  10  24  42  74  86 118 164 188 254 338 374
#     4  12  24  40  66  93 127 168 207 256 306 363
#     4  11  22  39  61  91 131 175 214 254 295 349
#     4  11  22  46  63  94 122 154 203 256 314 389
#     4  12  24  40  66  93 127 168 207 256 306 363
#
# _framework density 21.658142000000002
#
# number of rings (size 3 to 8) (size 9 to 14) (size 15 to 20)
#    0.000    0.727    3.636    4.364    0.000    7.273 
#    0.000    5.455    0.000    0.000    0.000    0.000 
#    0.000    0.000    0.000    0.000    0.000    0.000 
#
# Total GULP energy -122963.899481 kJ/mol
# GULP energy per Si atom -5589.268158 kJ/mol
# Density = 2.160885 g / cm^3
# Si number density = 21.658142 Si / 1000 Ang^3
#
#
#
# Elastic Constant Matrix: (Units=GPa)
#
#
# Indices 1 2 3 4 5 6 
#
# 1 69.5807 19.1273 13.8378 0.0000 4.3999 0.0000
# 2 19.1273 124.4390 4.7490 0.0000 -3.6303 0.0000
# 3 13.8378 4.7490 118.4230 0.0000 8.1453 0.0000
# 4 0.0000 0.0000 0.0000 14.6700 0.0000 -1.9483
# 5 4.3999 -3.6303 8.1453 0.0000 38.8738 0.0000
# 6 0.0000 0.0000 0.0000 -1.9483 0.0000 -4.9141
#
#
#
# Elastic Compliance Matrix: (Units=1/GPa)
#
#
# Indices 1 2 3 4 5 6 
#
# 1 0.015442 -0.002360 -0.001597 0.000000 -0.001633 0.000000
# 2 -0.002360 0.008436 -0.000137 0.000000 0.001084 0.000000
# 3 -0.001597 -0.000137 0.008751 0.000000 -0.001666 0.000000
# 4 0.000000 0.000000 0.000000 0.064757 0.000000 -0.025674
# 5 -0.001633 0.001084 -0.001666 0.000000 0.026359 0.000000
# 6 0.000000 0.000000 0.000000 -0.025674 0.000000 -0.193318
#
#
# Mechanical properties :
#
#
# Convention : Reuss Voigt Hill
#
# Bulk Modulus (GPa) = 40.91802 43.09678 42.00740
# Shear Modulus (GPa) = -93.91717 28.04119 -32.93799
#
# Velocity S-wave (km/s) = -6.59224 3.60212 -3.90399
# Velocity P-wave (km/s) = 6.24578 6.10264 0.94009
#
# Compressibility (1/GPa) = 0.02443911
#
# Stress axis : x y z
#
# Youngs Moduli (GPa) = 64.76031 118.54397 114.27243
#
# Poissons Ratio (x) = 0.27979 0.18253
# Poissons Ratio (y) = 0.15285 0.01566
# Poissons Ratio (z) = 0.10345 0.01624
#
# Static dielectric constant tensor:
#      x y z
#    x 1.776440 0.000000 0.016080 
#    y 0.000000 1.883510 0.000000 
#    z 0.016080 0.000000 1.797800 
# 
# From -- ./inp_files/251348.got.cif
#   From: 2010.05.17/outbox.cif.g08.bks.cpg/sg12_126_cif.got.tgz:251348.got - 2010.06.03 13:09:07.
