data_PCOD9218153
_publ_section_title
;
Structure prediction by ZEFSAII (Michael W. Deem and Ramdas Pophale) SiO2 
 PCOD9218153
Probable space group: C 2/M
;
_chemical_formula_sum "Si O2"
_cell_formula_units_Z 36
_cell_length_a 13.240288
_cell_length_b 15.311485
_cell_length_c 9.053011
_cell_angle_alpha 90.000000
_cell_angle_beta 101.919225
_cell_angle_gamma 90.000000
_cell_volume 1795.733468
_symmetry_space_group_name_H-M "C 2/M"
_symmetry_group_IT_number 12
_symmetry_cell_setting 'monoclinic'
loop_
_space_group_symop_operation_xyz
x,y,z
-x,y,-z
-x,-y,-z
x,-y,z
1/2+x,1/2+y,z
1/2-x,1/2+y,-z
1/2-x,1/2-y,-z
1/2+x,1/2-y,z
loop_
_atom_site_type_symbol
_atom_site_label
_atom_site_fract_x
_atom_site_fract_y
_atom_site_fract_z
Si Si1 0.346009 0.759262 0.638263
Si Si2 0.982389 0.000000 0.255055
Si Si3 0.340576 0.500000 0.925673
Si Si4 0.273881 0.822496 0.129079
Si Si5 0.001705 0.604864 0.820629
Si Si6 0.500000 0.356647 0.500000
O O1 0.250000 0.750000 0.500000
O O2 0.300072 0.709212 0.763391
O O3 0.402386 0.847907 0.714258
O O4 0.428451 0.705431 0.572112
O O5 0.098124 0.000000 0.214817
O O6 0.958123 0.080416 0.357047
O O7 0.916641 0.000000 0.087437
O O8 0.269595 0.416456 0.924880
O O9 0.395224 0.840982 0.197031
O O10 0.250000 0.750000 0.000000
O O11 0.006682 0.500000 0.788169
O O12 0.000000 0.612913 0.000000
#
# Coordination Sequence:
#
# PCOD9218153 Si02
#       6
#     8   4   4   8   8   4
#     4  12  27  46  71 105 146 191 240 302 373 441
#     4  10  24  42  70  99 143 182 240 307 362 435
#     4  11  24  44  73 108 136 187 255 310 366 428
#     4  12  25  45  76 106 143 192 248 307 369 438
#     4  11  25  48  75 107 144 193 253 308 364 440
#     4  11  24  46  65 102 142 190 231 290 376 447
#
# _framework density 20.047519000000001
#
# number of rings (size 3 to 8) (size 9 to 14) (size 15 to 20)
#    0.000    0.667    5.556    1.333    6.222    0.000 
#    6.000    1.667    0.000    0.000    0.000    0.000 
#    0.000    0.000    0.000    0.000    0.000    0.000 
#
# Total GULP energy -100243.008735 kJ/mol
# GULP energy per Si atom -5569.056041 kJ/mol
# Density = 2.000189 g / cm^3
# Si number density = 20.047519 Si / 1000 Ang^3
#
#
#
# Elastic Constant Matrix: (Units=GPa)
#
#
# Indices 1 2 3 4 5 6 
#
# 1 106.1566 63.9635 44.8591 0.0000 -6.9158 0.0000
# 2 63.9635 161.0589 66.2131 0.0000 5.9374 0.0000
# 3 44.8591 66.2131 113.4099 0.0000 -8.7740 0.0000
# 4 0.0000 0.0000 0.0000 12.6259 0.0000 -5.0095
# 5 -6.9158 5.9374 -8.7740 0.0000 48.6043 0.0000
# 6 0.0000 0.0000 0.0000 -5.0095 0.0000 44.1163
#
#
#
# Elastic Compliance Matrix: (Units=1/GPa)
#
#
# Indices 1 2 3 4 5 6 
#
# 1 0.013201 -0.004248 -0.002592 0.000000 0.001929 0.000000
# 2 -0.004248 0.009711 -0.004186 0.000000 -0.002546 0.000000
# 3 -0.002592 -0.004186 0.012472 0.000000 0.002394 0.000000
# 4 0.000000 0.000000 0.000000 0.082939 0.000000 0.009418
# 5 0.001929 -0.002546 0.002394 0.000000 0.021592 0.000000
# 6 0.000000 0.000000 0.000000 0.009418 0.000000 0.023737
#
#
# Mechanical properties :
#
#
# Convention : Reuss Voigt Hill
#
# Bulk Modulus (GPa) = 75.01342 81.18855 78.10099
# Shear Modulus (GPa) = 26.29529 34.77528 30.53529
#
# Velocity S-wave (km/s) = 3.62560 4.16942 3.90698
# Velocity P-wave (km/s) = 7.41793 7.98528 7.70683
#
# Compressibility (1/GPa) = 0.01333095
#
# Stress axis : x y z
#
# Youngs Moduli (GPa) = 75.75346 102.97697 80.17833
#
# Poissons Ratio (x) = 0.43745 0.20783
# Poissons Ratio (y) = 0.32181 0.33565
# Poissons Ratio (z) = 0.19636 0.43109
#
# Static dielectric constant tensor:
#      x y z
#    x 1.000890 0.000000 -0.881550 
#    y 0.000000 1.642240 0.000000 
#    z -0.881550 0.000000 0.283600 
# 
# From -- ./inp_files/47283.got.cif
#   From: 2010.05.17/outbox.cif.g08.bks.cpg/sg12_24_cif.got.tgz:47283.got - 2010.06.03 13:09:07.
