data_PCOD9218060
_publ_section_title
;
Structure prediction by ZEFSAII (Michael W. Deem and Ramdas Pophale) SiO2 
 PCOD9218060
Probable space group: C 2/M
;
_chemical_formula_sum "Si O2"
_cell_formula_units_Z 48
_cell_length_a 19.432287
_cell_length_b 14.749894
_cell_length_c 8.538420
_cell_angle_alpha 90.000000
_cell_angle_beta 105.566007
_cell_angle_gamma 90.000000
_cell_volume 2357.554725
_symmetry_space_group_name_H-M "C 2/M"
_symmetry_group_IT_number 12
_symmetry_cell_setting 'monoclinic'
loop_
_space_group_symop_operation_xyz
x,y,z
-x,y,-z
-x,-y,-z
x,-y,z
1/2+x,1/2+y,z
1/2-x,1/2+y,-z
1/2-x,1/2-y,-z
1/2+x,1/2-y,z
loop_
_atom_site_type_symbol
_atom_site_label
_atom_site_fract_x
_atom_site_fract_y
_atom_site_fract_z
Si Si1 0.200627 0.688830 0.232405
Si Si2 0.421385 0.298274 0.033625
Si Si3 0.582877 0.500000 0.011282
Si Si4 0.193466 0.665212 0.593257
Si Si5 0.281374 0.500000 0.752891
Si Si6 0.202542 0.500000 0.042025
Si Si7 0.035099 0.500000 0.852503
Si Si8 0.950094 0.669198 0.332203
O O1 0.139820 0.747190 0.104825
O O2 0.178085 0.678622 0.400591
O O3 0.273509 0.747172 0.297897
O O4 0.211291 0.592569 0.149995
O O5 0.401465 0.402711 0.054355
O O6 0.500000 0.294937 0.000000
O O7 0.429648 0.245761 0.199013
O O8 0.633541 0.500000 0.193302
O O9 0.500000 0.500000 0.000000
O O10 0.252224 0.588051 0.649825
O O11 0.122288 0.633119 0.634832
O O12 0.252038 0.500000 0.915877
O O13 0.120298 0.500000 0.933084
O O14 0.013926 0.588192 0.742098
O O15 0.000000 0.500000 0.000000
O O16 0.000000 0.703552 0.500000
#
# Coordination Sequence:
#
# PCOD9218060 Si02
#       8
#     8   8   4   8   4   4   4   8
#     4  11  24  42  65  94 131 167 212 268 323 385
#     4  11  22  42  67  94 124 170 213 261 324 384
#     4  10  24  41  68  96 124 168 216 268 318 380
#     4  11  24  41  64  97 127 170 216 268 322 379
#     4  12  21  42  68  96 128 167 219 267 319 380
#     4  12  25  39  68  96 127 173 210 264 318 388
#     4  12  25  40  64  99 132 174 214 257 326 391
#     4  12  25  42  64  95 131 172 214 266 321 385
#
# _framework density 20.36008
#
# number of rings (size 3 to 8) (size 9 to 14) (size 15 to 20)
#    0.000    0.667    5.000    2.250    4.667    1.333 
#    0.000    0.417    0.000    0.000    0.000    0.000 
#    0.000    0.000    0.000    0.000    0.000    0.000 
#
# Total GULP energy -134101.992509 kJ/mol
# GULP energy per Si atom -5587.583021 kJ/mol
# Density = 2.031374 g / cm^3
# Si number density = 20.360080 Si / 1000 Ang^3
#
#
#
# Elastic Constant Matrix: (Units=GPa)
#
#
# Indices 1 2 3 4 5 6 
#
# 1 63.3345 -2.1473 32.2224 0.0000 4.0346 0.0000
# 2 -2.1473 154.2581 73.7155 0.0000 7.0121 0.0000
# 3 32.2224 73.7155 166.0643 0.0000 16.4292 0.0000
# 4 0.0000 0.0000 0.0000 -92.9355 0.0000 -5.2726
# 5 4.0346 7.0121 16.4292 0.0000 27.0796 0.0000
# 6 0.0000 0.0000 0.0000 -5.2726 0.0000 34.4585
#
#
#
# Elastic Compliance Matrix: (Units=1/GPa)
#
#
# Indices 1 2 3 4 5 6 
#
# 1 0.018238 0.002467 -0.004577 0.000000 -0.000579 0.000000
# 2 0.002467 0.008562 -0.004281 0.000000 0.000012 0.000000
# 3 -0.004577 -0.004281 0.009184 0.000000 -0.003782 0.000000
# 4 0.000000 0.000000 0.000000 -0.010668 0.000000 -0.001632
# 5 -0.000579 0.000012 -0.003782 0.000000 0.039306 0.000000
# 6 0.000000 0.000000 0.000000 -0.001632 0.000000 0.028771
#
#
# Mechanical properties :
#
#
# Convention : Reuss Voigt Hill
#
# Bulk Modulus (GPa) = 43.09555 65.69308 54.39432
# Shear Modulus (GPa) = 43.89502 12.37826 28.13664
#
# Velocity S-wave (km/s) = 4.64824 2.46837 3.72149
# Velocity P-wave (km/s) = 7.07254 6.36078 6.72608
#
# Compressibility (1/GPa) = 0.02320425
#
# Stress axis : x y z
#
# Youngs Moduli (GPa) = 54.82976 116.79491 108.88365
#
# Poissons Ratio (x) = -0.28817 0.49834
# Poissons Ratio (y) = -0.13528 0.46609
# Poissons Ratio (z) = 0.25094 0.49996
#
# Static dielectric constant tensor:
#      x y z
#    x 1.759560 0.000000 0.001310 
#    y 0.000000 1.735220 0.000000 
#    z 0.001310 0.000000 1.683650 
# 
# From -- ./inp_files/86022.got.cif
#   From: 2010.05.17/outbox.cif.g08.bks.cpg/sg12_44_cif.got.tgz:86022.got - 2010.06.03 13:09:07.
