data_PCOD9218973
_publ_section_title
;
Structure prediction by ZEFSAII (Michael W. Deem and Ramdas Pophale) SiO2 
 PCOD9218973
Probable space group: C 2/M
;
_chemical_formula_sum "Si O2"
_cell_formula_units_Z 60
_cell_length_a 14.231395
_cell_length_b 19.738595
_cell_length_c 11.401906
_cell_angle_alpha 90.000000
_cell_angle_beta 86.030452
_cell_angle_gamma 90.000000
_cell_volume 3195.199902
_symmetry_space_group_name_H-M "C 2/M"
_symmetry_group_IT_number 12
_symmetry_cell_setting 'monoclinic'
loop_
_space_group_symop_operation_xyz
x,y,z
-x,y,-z
-x,-y,-z
x,-y,z
1/2+x,1/2+y,z
1/2-x,1/2+y,-z
1/2-x,1/2-y,-z
1/2+x,1/2-y,z
loop_
_atom_site_type_symbol
_atom_site_label
_atom_site_fract_x
_atom_site_fract_y
_atom_site_fract_z
Si Si1 0.510091 0.577485 0.783882
Si Si2 0.625805 0.781800 0.641758
Si Si3 0.132715 0.271620 0.903669
Si Si4 0.721093 0.660654 0.522184
Si Si5 0.437580 0.296051 0.652787
Si Si6 0.830917 0.299060 0.847465
Si Si7 0.000000 0.153848 0.000000
Si Si8 0.770318 0.076274 0.263618
O O1 0.486055 0.500000 0.756840
O O2 0.483759 0.633503 0.690921
O O3 0.622875 0.580257 0.795337
O O4 0.458277 0.604415 0.905262
O O5 0.614013 0.804223 0.777804
O O6 0.699537 0.718647 0.622245
O O7 0.677361 0.832976 0.548987
O O8 0.526223 0.751309 0.611944
O O9 0.238143 0.244623 0.881533
O O10 0.123068 0.311002 0.027720
O O11 0.069027 0.204902 0.926678
O O12 0.642191 0.679334 0.432025
O O13 0.716741 0.593356 0.599131
O O14 0.391361 0.250923 0.760042
O O15 0.798540 0.368505 0.788670
O O16 0.735994 0.000000 0.249812
#
# Coordination Sequence:
#
# PCOD9218973 Si02
#       8
#     8   8   8   8   8   8   4   8
#     4  11  23  36  53  86 129 166 193 234 300 375
#     4  11  20  36  55  88 122 147 198 260 304 342
#     4  11  19  32  58  85 119 151 198 254 299 345
#     4  11  21  36  55  83 118 162 200 248 295 353
#     4  12  21  35  62  89 121 161 204 252 296 360
#     4  11  20  35  59  87 113 156 208 252 298 353
#     4  12  17  36  54  84 125 160 188 240 303 366
#     4  11  23  42  60  82 126 167 202 246 305 367
#
# _framework density 18.778168000000001
#
# number of rings (size 3 to 8) (size 9 to 14) (size 15 to 20)
#    0.000    0.800    8.000    1.400    0.000    0.533 
#    0.000    1.333    0.000    2.400    0.000    3.267 
#    0.000    0.000    0.000    0.000    0.000    0.000 
#
# Total GULP energy -167073.143953 kJ/mol
# GULP energy per Si atom -5569.104798 kJ/mol
# Density = 1.873543 g / cm^3
# Si number density = 18.778168 Si / 1000 Ang^3
#
#
#
# Elastic Constant Matrix: (Units=GPa)
#
#
# Indices 1 2 3 4 5 6 
#
# 1 67.6395 29.1216 32.8051 0.0000 -3.4266 0.0000
# 2 29.1216 85.9005 33.0126 0.0000 4.4113 0.0000
# 3 32.8051 33.0126 116.7809 0.0000 6.3375 0.0000
# 4 0.0000 0.0000 0.0000 13.5318 0.0000 1.8254
# 5 -3.4266 4.4113 6.3375 0.0000 39.2585 0.0000
# 6 0.0000 0.0000 0.0000 1.8254 0.0000 19.0879
#
#
#
# Elastic Compliance Matrix: (Units=1/GPa)
#
#
# Indices 1 2 3 4 5 6 
#
# 1 0.019089 -0.005047 -0.004093 0.000000 0.002894 0.000000
# 2 -0.005047 0.014425 -0.002571 0.000000 -0.001646 0.000000
# 3 -0.004093 -0.002571 0.010535 0.000000 -0.001769 0.000000
# 4 0.000000 0.000000 0.000000 0.074866 0.000000 -0.007159
# 5 0.002894 -0.001646 -0.001769 0.000000 0.026195 0.000000
# 6 0.000000 0.000000 0.000000 -0.007159 0.000000 0.053074
#
#
# Mechanical properties :
#
#
# Convention : Reuss Voigt Hill
#
# Bulk Modulus (GPa) = 48.47679 51.13327 49.80503
# Shear Modulus (GPa) = 21.88366 26.06774 23.97570
#
# Velocity S-wave (km/s) = 3.41747 3.72989 3.57709
# Velocity P-wave (km/s) = 6.43767 6.77043 6.60615
#
# Compressibility (1/GPa) = 0.02062843
#
# Stress axis : x y z
#
# Youngs Moduli (GPa) = 52.38689 69.32455 94.91851
#
# Poissons Ratio (x) = 0.34989 0.38846
# Poissons Ratio (y) = 0.26441 0.24400
# Poissons Ratio (z) = 0.21439 0.17820
#
# Static dielectric constant tensor:
#      x y z
#    x 1.706100 0.000000 0.013680 
#    y 0.000000 1.637660 0.000000 
#    z 0.013680 0.000000 1.772040 
# 
# From -- ./inp_files/147098.got.cif
#   From: 2010.05.17/outbox.cif.g08.bks.cpg/sg12_74_cif.got.tgz:147098.got - 2010.06.03 13:09:07.
