data_PCOD9218215
_publ_section_title
;
Structure prediction by ZEFSAII (Michael W. Deem and Ramdas Pophale) SiO2 
 PCOD9218215
Probable space group: C 2/M
;
_chemical_formula_sum "Si O2"
_cell_formula_units_Z 38
_cell_length_a 15.807332
_cell_length_b 15.670692
_cell_length_c 8.964846
_cell_angle_alpha 90.000000
_cell_angle_beta 120.711007
_cell_angle_gamma 90.000000
_cell_volume 1909.254739
_symmetry_space_group_name_H-M "C 2/M"
_symmetry_group_IT_number 12
_symmetry_cell_setting 'monoclinic'
loop_
_space_group_symop_operation_xyz
x,y,z
-x,y,-z
-x,-y,-z
x,-y,z
1/2+x,1/2+y,z
1/2-x,1/2+y,-z
1/2-x,1/2-y,-z
1/2+x,1/2-y,z
loop_
_atom_site_type_symbol
_atom_site_label
_atom_site_fract_x
_atom_site_fract_y
_atom_site_fract_z
Si Si1 0.798500 0.899696 0.157878
Si Si2 0.405959 0.140917 0.119755
Si Si3 0.014595 0.165923 0.843254
Si Si4 0.500000 0.000000 0.000000
Si Si5 0.000000 0.660343 0.500000
Si Si6 0.161969 0.790453 0.516681
O O1 0.902367 0.884661 0.171051
O O2 0.799127 0.850584 0.316354
O O3 0.783492 0.000000 0.165077
O O4 0.711705 0.860200 0.978296
O O5 0.447624 0.235346 0.124718
O O6 0.459885 0.111628 0.320103
O O7 0.432727 0.074943 0.016167
O O8 0.912284 0.161853 0.662163
O O9 0.000000 0.138665 0.000000
O O10 0.908483 0.719517 0.469480
O O11 0.250000 0.750000 0.500000
#
# Coordination Sequence:
#
# PCOD9218215 Si02
#       6
#     8   8   8   2   4   8
#     4  12  25  43  68  99 139 178 221 276 338 410
#     4  11  23  43  67  97 133 171 227 278 343 392
#     4  11  23  42  70  96 133 179 222 282 329 408
#     4  12  24  42  68 100 126 178 226 282 342 384
#     4  10  24  43  67 100 132 174 226 282 331 401
#     4  11  23  41  69 101 128 180 229 268 336 398
#
# _framework density 19.903054999999998
#
# number of rings (size 3 to 8) (size 9 to 14) (size 15 to 20)
#    0.000    0.842    6.316    1.895    5.895    2.526 
#    0.000    0.000    2.316    0.000    0.000    0.000 
#    0.000    0.000    0.000    0.000    0.000    0.000 
#
# Total GULP energy -105902.776037 kJ/mol
# GULP energy per Si atom -5573.830318 kJ/mol
# Density = 1.985775 g / cm^3
# Si number density = 19.903055 Si / 1000 Ang^3
#
#
#
# Elastic Constant Matrix: (Units=GPa)
#
#
# Indices 1 2 3 4 5 6 
#
# 1 127.0460 20.1207 37.1285 0.0000 0.0280 0.0000
# 2 20.1207 72.7169 18.1428 0.0000 3.3345 0.0000
# 3 37.1285 18.1428 103.8793 0.0000 22.4558 0.0000
# 4 0.0000 0.0000 0.0000 2.8188 0.0000 1.8989
# 5 0.0280 3.3345 22.4558 0.0000 32.5854 0.0000
# 6 0.0000 0.0000 0.0000 1.8989 0.0000 30.3832
#
#
#
# Elastic Compliance Matrix: (Units=1/GPa)
#
#
# Indices 1 2 3 4 5 6 
#
# 1 0.009186 -0.001779 -0.003537 0.000000 0.002612 0.000000
# 2 -0.001779 0.014726 -0.001893 0.000000 -0.000201 0.000000
# 3 -0.003537 -0.001893 0.013136 0.000000 -0.008856 0.000000
# 4 0.000000 0.000000 0.000000 0.370355 0.000000 -0.023146
# 5 0.002612 -0.000201 -0.008856 0.000000 0.036810 0.000000
# 6 0.000000 0.000000 0.000000 -0.023146 0.000000 0.034359
#
#
# Mechanical properties :
#
#
# Convention : Reuss Voigt Hill
#
# Bulk Modulus (GPa) = 44.18921 50.49177 47.34049
# Shear Modulus (GPa) = 9.98938 28.37417 19.18177
#
# Velocity S-wave (km/s) = 2.24275 3.77983 3.10782
# Velocity P-wave (km/s) = 5.38117 6.66884 6.05931
#
# Compressibility (1/GPa) = 0.02262996
#
# Stress axis : x y z
#
# Youngs Moduli (GPa) = 108.86076 67.90886 76.12864
#
# Poissons Ratio (x) = 0.12081 0.26928
# Poissons Ratio (y) = 0.19367 0.14408
# Poissons Ratio (z) = 0.38506 0.12852
#
# Static dielectric constant tensor:
#      x y z
#    x 1.715620 0.000000 0.013330 
#    y 0.000000 1.572660 0.000000 
#    z 0.013330 0.000000 1.735160 
# 
# From -- ./inp_files/61407.got.cif
#   From: 2010.05.17/outbox.cif.g08.bks.cpg/sg12_31_cif.got.tgz:61407.got - 2010.06.03 13:09:07.
