data_PCOD9218737
_publ_section_title
;
Structure prediction by ZEFSAII (Michael W. Deem and Ramdas Pophale) SiO2 
 PCOD9218737
Probable space group: C 2/M
;
_chemical_formula_sum "Si O2"
_cell_formula_units_Z 34
_cell_length_a 20.434833
_cell_length_b 10.018643
_cell_length_c 15.653534
_cell_angle_alpha 90.000000
_cell_angle_beta 30.236311
_cell_angle_gamma 90.000000
_cell_volume 1613.801648
_symmetry_space_group_name_H-M "C 2/M"
_symmetry_group_IT_number 12
_symmetry_cell_setting 'monoclinic'
loop_
_space_group_symop_operation_xyz
x,y,z
-x,y,-z
-x,-y,-z
x,-y,z
1/2+x,1/2+y,z
1/2-x,1/2+y,-z
1/2-x,1/2-y,-z
1/2+x,1/2-y,z
loop_
_atom_site_type_symbol
_atom_site_label
_atom_site_fract_x
_atom_site_fract_y
_atom_site_fract_z
Si Si1 0.037224 0.273159 0.840064
Si Si2 0.998189 0.000000 0.401497
Si Si3 0.000000 0.500000 0.000000
Si Si4 0.402633 0.750712 0.810005
Si Si5 0.831626 0.000000 0.282266
Si Si6 0.030557 0.500000 0.566842
Si Si7 0.250791 0.000000 0.429215
O O1 0.949743 0.378011 0.992466
O O2 0.089524 0.136713 0.823356
O O3 0.160199 0.370033 0.683230
O O4 0.972213 0.238575 0.823378
O O5 0.066568 0.872817 0.284635
O O6 0.000000 0.000000 0.500000
O O7 0.852942 0.000000 0.528353
O O8 0.464717 0.875654 0.690009
O O9 0.250000 0.750000 0.000000
O O10 0.687383 0.000000 0.403752
O O11 0.808684 0.000000 0.410414
O O12 0.000000 0.500000 0.500000
#
# Coordination Sequence:
#
# PCOD9218737 Si02
#       7
#     8   4   2   8   4   4   4
#     4  11  23  42  69  99 127 181 228 279 344 399
#     4  12  26  43  70 107 133 176 231 286 338 404
#     4  10  26  42  62  98 138 164 228 286 334 416
#     4  12  25  44  68  95 142 183 220 273 352 422
#     4  12  21  41  73  95 126 171 237 277 332 396
#     4  12  26  43  66 103 135 177 228 287 335 396
#     4  11  20  41  72  94 129 171 230 277 332 394
#
# _framework density 21.068263999999999
#
# number of rings (size 3 to 8) (size 9 to 14) (size 15 to 20)
#    0.000    0.471    4.706    4.235    0.000    6.118 
#    0.000    0.000    0.000    0.000    0.000    0.000 
#    0.000    0.000    0.000    0.000    0.000    0.000 
#
# Total GULP energy -94759.332381 kJ/mol
# GULP energy per Si atom -5574.078375 kJ/mol
# Density = 2.102031 g / cm^3
# Si number density = 21.068264 Si / 1000 Ang^3
#
#
#
# Elastic Constant Matrix: (Units=GPa)
#
#
# Indices 1 2 3 4 5 6 
#
# 1 184.7906 53.6410 76.2264 0.0000 -13.5780 0.0000
# 2 53.6410 228.9476 70.9711 0.0000 -6.7321 0.0000
# 3 76.2264 70.9711 105.5602 0.0000 -22.9325 0.0000
# 4 0.0000 0.0000 0.0000 37.1964 0.0000 7.3668
# 5 -13.5780 -6.7321 -22.9325 0.0000 34.0511 0.0000
# 6 0.0000 0.0000 0.0000 7.3668 0.0000 36.5877
#
#
#
# Elastic Compliance Matrix: (Units=1/GPa)
#
#
# Indices 1 2 3 4 5 6 
#
# 1 0.007726 -0.000065 -0.005704 0.000000 -0.000773 0.000000
# 2 -0.000065 0.005599 -0.004079 0.000000 -0.001666 0.000000
# 3 -0.005704 -0.004079 0.018350 0.000000 0.009277 0.000000
# 4 0.000000 0.000000 0.000000 0.028001 0.000000 -0.005638
# 5 -0.000773 -0.001666 0.009277 0.000000 0.034978 0.000000
# 6 0.000000 0.000000 0.000000 -0.005638 0.000000 0.028467
#
#
# Mechanical properties :
#
#
# Convention : Reuss Voigt Hill
#
# Bulk Modulus (GPa) = 83.47647 102.33062 92.90354
# Shear Modulus (GPa) = 34.05791 42.79771 38.42781
#
# Velocity S-wave (km/s) = 4.02500 4.51198 4.27543
# Velocity P-wave (km/s) = 7.82999 8.70749 8.28037
#
# Compressibility (1/GPa) = 0.01197942
#
# Stress axis : x y z
#
# Youngs Moduli (GPa) = 129.42795 178.61885 54.49618
#
# Poissons Ratio (x) = 0.01159 0.31082
# Poissons Ratio (y) = 0.00840 0.22230
# Poissons Ratio (z) = 0.73820 0.72861
#
# Static dielectric constant tensor:
#      x y z
#    x 1.725110 0.000000 0.039230 
#    y 0.000000 1.721720 0.000000 
#    z 0.039230 0.000000 1.830450 
# 
# From -- ./inp_files/282011.got.cif
#   From: 2010.05.17/outbox.cif.g08.bks.cpg/sg12_142_cif.got.tgz:282011.got - 2010.06.03 13:09:07.
