data_PCOD9218787
_publ_section_title
;
Structure prediction by ZEFSAII (Michael W. Deem and Ramdas Pophale) SiO2 
 PCOD9218787
Probable space group: C 2/M
;
_chemical_formula_sum "Si O2"
_cell_formula_units_Z 38
_cell_length_a 9.057760
_cell_length_b 13.953432
_cell_length_c 14.727267
_cell_angle_alpha 90.000000
_cell_angle_beta 70.686635
_cell_angle_gamma 90.000000
_cell_volume 1756.584034
_symmetry_space_group_name_H-M "C 2/M"
_symmetry_group_IT_number 12
_symmetry_cell_setting 'monoclinic'
loop_
_space_group_symop_operation_xyz
x,y,z
-x,y,-z
-x,-y,-z
x,-y,z
1/2+x,1/2+y,z
1/2-x,1/2+y,-z
1/2-x,1/2-y,-z
1/2+x,1/2-y,z
loop_
_atom_site_type_symbol
_atom_site_label
_atom_site_fract_x
_atom_site_fract_y
_atom_site_fract_z
Si Si1 0.244508 0.000000 0.953605
Si Si2 0.100034 0.305248 0.067950
Si Si3 0.144266 0.647793 0.337065
Si Si4 0.726918 0.500000 0.178265
Si Si5 0.500000 0.000000 0.500000
Si Si6 0.122319 0.000000 0.795175
Si Si7 0.365689 0.817496 0.259134
O O1 0.242054 0.000000 0.064540
O O2 0.340913 0.093887 0.908477
O O3 0.104033 0.000000 0.908432
O O4 0.987522 0.260971 0.167102
O O5 0.250000 0.250000 0.000000
O O6 0.000000 0.322335 0.000000
O O7 0.112379 0.585097 0.432486
O O8 0.273172 0.589646 0.254378
O O9 0.222783 0.752995 0.324484
O O10 0.978400 0.649293 0.317666
O O11 0.539993 0.500000 0.224935
O O12 0.800446 0.406135 0.211768
#
# Coordination Sequence:
#
# PCOD9218787 Si02
#       7
#     4   8   8   4   2   4   8
#     4  12  24  40  61  90 144 192 231 283 317 380
#     4  12  25  40  62  94 141 188 235 279 323 389
#     4  11  25  46  76  99 139 170 228 288 358 420
#     4  12  25  40  66  98 145 190 245 271 330 393
#     4  10  26  52  74 108 130 170 216 296 366 430
#     4  11  24  42  63  98 136 191 236 287 338 399
#     4  12  24  45  69 102 137 189 226 284 341 409
#
# _framework density 21.632895999999999
#
# number of rings (size 3 to 8) (size 9 to 14) (size 15 to 20)
#    0.000    0.421    4.211    5.053    2.947    0.842 
#    0.000    0.000    0.000    6.947    0.000    0.000 
#    0.000    0.000    0.000    0.000    0.000    0.000 
#
# Total GULP energy -105800.916583 kJ/mol
# GULP energy per Si atom -5568.469294 kJ/mol
# Density = 2.158366 g / cm^3
# Si number density = 21.632896 Si / 1000 Ang^3
#
#
#
# Elastic Constant Matrix: (Units=GPa)
#
#
# Indices 1 2 3 4 5 6 
#
# 1 149.0845 55.1454 10.0055 0.0000 -3.4862 0.0000
# 2 55.1454 109.9731 36.1485 0.0000 -21.1441 0.0000
# 3 10.0055 36.1485 61.3844 0.0000 -34.9319 0.0000
# 4 0.0000 0.0000 0.0000 21.0977 0.0000 -5.2662
# 5 -3.4862 -21.1441 -34.9319 0.0000 20.9230 0.0000
# 6 0.0000 0.0000 0.0000 -5.2662 0.0000 7.1699
#
#
#
# Elastic Compliance Matrix: (Units=1/GPa)
#
#
# Indices 1 2 3 4 5 6 
#
# 1 0.008774 -0.005011 -0.010598 0.000000 -0.021295 0.000000
# 2 -0.005011 0.014177 0.002922 0.000000 0.018370 0.000000
# 3 -0.010598 0.002922 0.340005 0.000000 0.568839 0.000000
# 4 0.000000 0.000000 0.000000 0.058039 0.000000 0.042629
# 5 -0.021295 0.018370 0.568839 0.000000 1.012510 0.000000
# 6 0.000000 0.000000 0.000000 0.042629 0.000000 0.170782
#
#
# Mechanical properties :
#
#
# Convention : Reuss Voigt Hill
#
# Bulk Modulus (GPa) = 2.96223 58.11564 30.53893
# Shear Modulus (GPa) = 2.86995 24.44765 13.65880
#
# Velocity S-wave (km/s) = 1.15306 3.36536 2.51547
# Velocity P-wave (km/s) = 1.77342 6.48257 4.75230
#
# Compressibility (1/GPa) = 0.33758395
#
# Stress axis : x y z
#
# Youngs Moduli (GPa) = 113.96963 70.53572 2.94113
#
# Poissons Ratio (x) = 0.35342 0.03117
# Poissons Ratio (y) = 0.57105 -0.00859
# Poissons Ratio (z) = 1.20782 -0.20610
#
# Static dielectric constant tensor:
#      x y z
#    x 1.819760 0.000000 -0.017940 
#    y 0.000000 1.826180 0.000000 
#    z -0.017940 0.000000 1.803920 
# 
# From -- ./inp_files/194517.got.cif
#   From: 2010.05.17/outbox.cif.g08.bks.cpg/sg12_98_cif.got.tgz:194517.got - 2010.06.03 13:09:07.
