data_PCOD9218510
_publ_section_title
;
Structure prediction by ZEFSAII (Michael W. Deem and Ramdas Pophale) SiO2 
 PCOD9218510
Probable space group: C 2/M
;
_chemical_formula_sum "Si O2"
_cell_formula_units_Z 30
_cell_length_a 5.237476
_cell_length_b 20.425373
_cell_length_c 12.870957
_cell_angle_alpha 90.000000
_cell_angle_beta 76.015827
_cell_angle_gamma 90.000000
_cell_volume 1336.093630
_symmetry_space_group_name_H-M "C 2/M"
_symmetry_group_IT_number 12
_symmetry_cell_setting 'monoclinic'
loop_
_space_group_symop_operation_xyz
x,y,z
-x,y,-z
-x,-y,-z
x,-y,z
1/2+x,1/2+y,z
1/2-x,1/2+y,-z
1/2-x,1/2-y,-z
1/2+x,1/2-y,z
loop_
_atom_site_type_symbol
_atom_site_label
_atom_site_fract_x
_atom_site_fract_y
_atom_site_fract_z
Si Si1 0.195630 0.108984 0.393798
Si Si2 0.313446 0.000000 0.894931
Si Si3 0.500000 0.000000 0.500000
Si Si4 0.000000 0.615026 0.000000
Si Si5 0.411905 0.500000 0.748103
Si Si6 0.907985 0.706836 0.204218
O O1 0.036060 0.062907 0.328671
O O2 0.329784 0.164285 0.312064
O O3 0.000000 0.136376 0.500000
O O4 0.385671 0.057527 0.432158
O O5 0.297304 0.064303 0.967580
O O6 0.608810 0.000000 0.815924
O O7 0.106028 0.000000 0.824609
O O8 0.092434 0.659883 0.896413
O O9 0.691084 0.761708 0.199410
#
# Coordination Sequence:
#
# PCOD9218510 Si02
#       6
#     8   4   2   4   4   8
#     4  11  27  45  77 108 147 193 242 303 371 438
#     4  11  26  42  80 112 145 185 239 320 366 436
#     4  10  24  46  80 112 142 188 234 320 378 424
#     4  11  26  50  76 110 146 191 250 304 372 425
#     4  11  24  45  72 114 147 183 235 306 386 423
#     4  12  30  50  74 104 149 203 247 296 352 441
#
# _framework density 22.453517000000002
#
# number of rings (size 3 to 8) (size 9 to 14) (size 15 to 20)
#    0.000    0.800    2.667    2.400   14.933    5.333 
#    0.000    0.000    0.000    0.000    0.000    0.000 
#    0.000    0.000    0.000    0.000    0.000    0.000 
#
# Total GULP energy -83754.132358 kJ/mol
# GULP energy per Si atom -5583.608824 kJ/mol
# Density = 2.240241 g / cm^3
# Si number density = 22.453517 Si / 1000 Ang^3
#
#
#
# Elastic Constant Matrix: (Units=GPa)
#
#
# Indices 1 2 3 4 5 6 
#
# 1 88.4306 -2.6488 44.9033 0.0000 18.5957 0.0000
# 2 -2.6488 77.4346 44.4393 0.0000 -1.8547 0.0000
# 3 44.9033 44.4393 164.4779 0.0000 5.9120 0.0000
# 4 0.0000 0.0000 0.0000 -54.0377 0.0000 36.2108
# 5 18.5957 -1.8547 5.9120 0.0000 58.6196 0.0000
# 6 0.0000 0.0000 0.0000 36.2108 0.0000 -65.8622
#
#
#
# Elastic Compliance Matrix: (Units=1/GPa)
#
#
# Indices 1 2 3 4 5 6 
#
# 1 0.014636 0.003092 -0.004685 0.000000 -0.004073 0.000000
# 2 0.003092 0.015985 -0.005165 0.000000 0.000046 0.000000
# 3 -0.004685 -0.005165 0.008738 0.000000 0.000441 0.000000
# 4 0.000000 0.000000 0.000000 -0.029300 0.000000 -0.016109
# 5 -0.004073 0.000046 0.000441 0.000000 0.018308 0.000000
# 6 0.000000 0.000000 0.000000 -0.016109 0.000000 -0.024040
#
#
# Mechanical properties :
#
#
# Convention : Reuss Voigt Hill
#
# Bulk Modulus (GPa) = 38.69354 55.97009 47.33181
# Shear Modulus (GPa) = 188.98837 3.98723 96.48780
#
# Velocity S-wave (km/s) = 9.18430 1.33403 6.56243
# Velocity P-wave (km/s) = 11.39029 5.23011 8.86264
#
# Compressibility (1/GPa) = 0.02584411
#
# Stress axis : x y z
#
# Youngs Moduli (GPa) = 68.32425 62.55916 114.43899
#
# Poissons Ratio (x) = -0.19341 0.53611
# Poissons Ratio (y) = -0.21123 0.59102
# Poissons Ratio (z) = 0.32007 0.32309
#
# Static dielectric constant tensor:
#      x y z
#    x 1.917750 0.000000 -0.096940 
#    y 0.000000 1.792000 0.000000 
#    z -0.096940 0.000000 1.874310 
# 
# From -- ./inp_files/114421.got.cif
#   From: 2010.05.17/outbox.cif.g08.bks.cpg/sg12_58_cif.got.tgz:114421.got - 2010.06.03 13:09:07.
