data_PCOD9218348
_publ_section_title
;
Structure prediction by ZEFSAII (Michael W. Deem and Ramdas Pophale) SiO2 
 PCOD9218348
Probable space group: C 2/M
;
_chemical_formula_sum "Si O2"
_cell_formula_units_Z 32
_cell_length_a 7.768165
_cell_length_b 16.231270
_cell_length_c 12.052549
_cell_angle_alpha 90.000000
_cell_angle_beta 60.371465
_cell_angle_gamma 90.000000
_cell_volume 1320.973062
_symmetry_space_group_name_H-M "C 2/M"
_symmetry_group_IT_number 12
_symmetry_cell_setting 'monoclinic'
loop_
_space_group_symop_operation_xyz
x,y,z
-x,y,-z
-x,-y,-z
x,-y,z
1/2+x,1/2+y,z
1/2-x,1/2+y,-z
1/2-x,1/2-y,-z
1/2+x,1/2-y,z
loop_
_atom_site_type_symbol
_atom_site_label
_atom_site_fract_x
_atom_site_fract_y
_atom_site_fract_z
Si Si1 0.423305 0.593329 0.234276
Si Si2 0.496744 0.089466 0.281200
Si Si3 0.680828 0.163900 0.872904
Si Si4 0.495367 0.736511 0.371028
O O1 0.446487 0.500000 0.270082
O O2 0.234919 0.591599 0.214519
O O3 0.637378 0.622133 0.119275
O O4 0.388820 0.659301 0.344476
O O5 0.416648 0.100196 0.182370
O O6 0.425387 0.170813 0.368546
O O7 0.432648 0.000000 0.346371
O O8 0.793131 0.229601 0.760158
O O9 0.500000 0.198949 0.000000
O O10 0.500000 0.723964 0.500000
#
# Coordination Sequence:
#
# PCOD9218348 Si02
#       4
#     8   8   8   8
#     4   9  22  42  65 100 136 170 217 275 331 387
#     4  11  23  42  68 100 134 174 221 273 329 390
#     4  10  24  44  71  97 133 174 222 269 333 392
#     4  10  24  47  69  97 137 175 219 277 330 388
#
# _framework density 24.224568000000001
#
# number of rings (size 3 to 8) (size 9 to 14) (size 15 to 20)
#    1.500    0.500    0.000    2.250    0.000    9.000 
#    0.000    5.000    0.000    0.000    0.000    0.000 
#    0.000    0.000    0.000    0.000    0.000    0.000 
#
# Total GULP energy -89215.064718 kJ/mol
# GULP energy per Si atom -5575.941545 kJ/mol
# Density = 2.416943 g / cm^3
# Si number density = 24.224568 Si / 1000 Ang^3
#
#
#
# Elastic Constant Matrix: (Units=GPa)
#
#
# Indices 1 2 3 4 5 6 
#
# 1 93.0128 22.0176 17.5400 0.0000 -19.4607 0.0000
# 2 22.0176 177.7526 26.6759 0.0000 -7.1170 0.0000
# 3 17.5400 26.6759 95.5459 0.0000 -33.3849 0.0000
# 4 0.0000 0.0000 0.0000 7.5968 0.0000 2.4247
# 5 -19.4607 -7.1170 -33.3849 0.0000 30.3275 0.0000
# 6 0.0000 0.0000 0.0000 2.4247 0.0000 21.5933
#
#
#
# Elastic Compliance Matrix: (Units=1/GPa)
#
#
# Indices 1 2 3 4 5 6 
#
# 1 0.012786 -0.001406 0.001295 0.000000 0.009300 0.000000
# 2 -0.001406 0.006035 -0.002027 0.000000 -0.001717 0.000000
# 3 0.001295 -0.002027 0.017743 0.000000 0.019887 0.000000
# 4 0.000000 0.000000 0.000000 0.136527 0.000000 -0.015330
# 5 0.009300 -0.001717 0.019887 0.000000 0.060430 0.000000
# 6 0.000000 0.000000 0.000000 -0.015330 0.000000 0.048032
#
#
# Mechanical properties :
#
#
# Convention : Reuss Voigt Hill
#
# Bulk Modulus (GPa) = 30.97080 55.41981 43.19531
# Shear Modulus (GPa) = 16.85820 31.90870 24.38345
#
# Velocity S-wave (km/s) = 2.64088 3.63327 3.17607
# Velocity P-wave (km/s) = 4.70230 6.36616 5.59641
#
# Compressibility (1/GPa) = 0.03228848
#
# Stress axis : x y z
#
# Youngs Moduli (GPa) = 78.21345 165.69039 56.35961
#
# Poissons Ratio (x) = 0.23290 -0.07297
# Poissons Ratio (y) = 0.10994 0.11424
# Poissons Ratio (z) = -0.10127 0.33584
#
# Static dielectric constant tensor:
#      x y z
#    x 2.056640 0.000000 -0.058160 
#    y 0.000000 1.934530 0.000000 
#    z -0.058160 0.000000 1.909070 
# 
# From -- ./inp_files/194785.got.cif
#   From: 2010.05.17/outbox.cif.g08.bks.cpg/sg12_98_cif.got.tgz:194785.got - 2010.06.03 13:09:07.
