data_PCOD9218340
_publ_section_title
;
Structure prediction by ZEFSAII (Michael W. Deem and Ramdas Pophale) SiO2 
 PCOD9218340
Probable space group: C 2/M
;
_chemical_formula_sum "Si O2"
_cell_formula_units_Z 56
_cell_length_a 9.479595
_cell_length_b 23.540894
_cell_length_c 12.400626
_cell_angle_alpha 90.000000
_cell_angle_beta 67.972554
_cell_angle_gamma 90.000000
_cell_volume 2565.299607
_symmetry_space_group_name_H-M "C 2/M"
_symmetry_group_IT_number 12
_symmetry_cell_setting 'monoclinic'
loop_
_space_group_symop_operation_xyz
x,y,z
-x,y,-z
-x,-y,-z
x,-y,z
1/2+x,1/2+y,z
1/2-x,1/2+y,-z
1/2-x,1/2-y,-z
1/2+x,1/2-y,z
loop_
_atom_site_type_symbol
_atom_site_label
_atom_site_fract_x
_atom_site_fract_y
_atom_site_fract_z
Si Si1 0.636950 0.065111 0.028908
Si Si2 0.331770 0.856582 0.562402
Si Si3 0.121277 0.235182 0.122700
Si Si4 0.162978 0.858810 0.403203
Si Si5 0.254275 0.568067 0.225513
Si Si6 0.789740 0.243397 0.272814
Si Si7 0.097198 0.896738 0.188668
O O1 0.690433 0.089498 0.128480
O O2 0.589391 0.000000 0.065441
O O3 0.500000 0.093298 0.000000
O O4 0.782200 0.065888 0.909917
O O5 0.500000 0.831394 0.500000
O O6 0.263501 0.882326 0.472476
O O7 0.340592 0.904273 0.651252
O O8 0.217638 0.807496 0.639220
O O9 0.158768 0.267330 0.223178
O O10 0.128671 0.167971 0.143381
O O11 0.943336 0.247071 0.158395
O O12 0.250000 0.250000 0.000000
O O13 0.251580 0.802545 0.339897
O O14 0.128443 0.897146 0.308093
O O15 0.000000 0.843150 0.500000
O O16 0.250125 0.500000 0.226894
O O17 0.428031 0.586675 0.200214
#
# Coordination Sequence:
#
# PCOD9218340 Si02
#       7
#     8   8   8   8   8   8   8
#     4  10  24  44  70  98 127 169 221 277 336 401
#     4  12  24  40  67  96 131 181 226 280 335 388
#     4  11  24  38  60  98 135 172 218 271 335 397
#     4  11  22  42  64  96 134 175 230 273 322 401
#     4  11  24  45  70  98 131 174 228 277 337 403
#     4  11  22  41  62  92 133 180 224 267 327 405
#     4  11  23  42  66  95 135 176 218 275 333 403
#
# _framework density 21.829809000000001
#
# number of rings (size 3 to 8) (size 9 to 14) (size 15 to 20)
#    0.000    1.000    2.857    3.857    4.000    4.857 
#    0.000    2.143    0.000    0.000    0.000    0.000 
#    0.000    0.000    0.000    0.000    0.000    0.000 
#
# Total GULP energy -156426.286365 kJ/mol
# GULP energy per Si atom -5586.653084 kJ/mol
# Density = 2.178012 g / cm^3
# Si number density = 21.829809 Si / 1000 Ang^3
#
#
#
# Elastic Constant Matrix: (Units=GPa)
#
#
# Indices 1 2 3 4 5 6 
#
# 1 119.3615 15.4333 53.1466 0.0000 21.2530 0.0000
# 2 15.4333 39.8012 35.7115 0.0000 10.4301 0.0000
# 3 53.1466 35.7115 127.2043 0.0000 19.7384 0.0000
# 4 0.0000 0.0000 0.0000 24.1726 0.0000 -2.6793
# 5 21.2530 10.4301 19.7384 0.0000 57.2452 0.0000
# 6 0.0000 0.0000 0.0000 -2.6793 0.0000 22.9217
#
#
#
# Elastic Compliance Matrix: (Units=1/GPa)
#
#
# Indices 1 2 3 4 5 6 
#
# 1 0.010636 0.000240 -0.004112 0.000000 -0.002575 0.000000
# 2 0.000240 0.034095 -0.009186 0.000000 -0.003134 0.000000
# 3 -0.004112 -0.009186 0.012321 0.000000 -0.001048 0.000000
# 4 0.000000 0.000000 0.000000 0.041912 0.000000 0.004899
# 5 -0.002575 -0.003134 -0.001048 0.000000 0.019357 0.000000
# 6 0.000000 0.000000 0.000000 0.004899 0.000000 0.044199
#
#
# Mechanical properties :
#
#
# Convention : Reuss Voigt Hill
#
# Bulk Modulus (GPa) = 32.32442 54.99444 43.65943
# Shear Modulus (GPa) = 25.13221 33.00627 29.06924
#
# Velocity S-wave (km/s) = 3.39673 3.89264 3.65311
# Velocity P-wave (km/s) = 5.49757 6.74170 6.15117
#
# Compressibility (1/GPa) = 0.03093637
#
# Stress axis : x y z
#
# Youngs Moduli (GPa) = 94.01956 29.32980 81.16472
#
# Poissons Ratio (x) = -0.00703 0.33371
# Poissons Ratio (y) = -0.02252 0.74555
# Poissons Ratio (z) = 0.38656 0.26941
#
# Static dielectric constant tensor:
#      x y z
#    x 1.845540 0.000000 0.028700 
#    y 0.000000 1.788420 0.000000 
#    z 0.028700 0.000000 1.819250 
# 
# From -- ./inp_files/124248.got.cif
#   From: 2010.05.17/outbox.cif.g08.bks.cpg/sg12_63_cif.got.tgz:124248.got - 2010.06.03 13:09:07.
