data_PCOD9218227
_publ_section_title
;
Structure prediction by ZEFSAII (Michael W. Deem and Ramdas Pophale) SiO2 
 PCOD9218227
Probable space group: C 2/M
;
_chemical_formula_sum "Si O2"
_cell_formula_units_Z 48
_cell_length_a 9.178544
_cell_length_b 27.480082
_cell_length_c 9.067343
_cell_angle_alpha 90.000000
_cell_angle_beta 101.161192
_cell_angle_gamma 90.000000
_cell_volume 2243.774245
_symmetry_space_group_name_H-M "C 2/M"
_symmetry_group_IT_number 12
_symmetry_cell_setting 'monoclinic'
loop_
_space_group_symop_operation_xyz
x,y,z
-x,y,-z
-x,-y,-z
x,-y,z
1/2+x,1/2+y,z
1/2-x,1/2+y,-z
1/2-x,1/2-y,-z
1/2+x,1/2-y,z
loop_
_atom_site_type_symbol
_atom_site_label
_atom_site_fract_x
_atom_site_fract_y
_atom_site_fract_z
Si Si1 0.899600 0.646577 0.207259
Si Si2 0.707908 0.299104 0.407353
Si Si3 0.863446 0.113664 0.387965
Si Si4 0.612131 0.772002 0.155788
Si Si5 0.442800 0.055500 0.656948
Si Si6 0.141985 0.166915 0.919278
O O1 0.828984 0.671116 0.338295
O O2 0.047496 0.678773 0.213288
O O3 0.946545 0.591227 0.235410
O O4 0.781230 0.651413 0.052004
O O5 0.750000 0.250000 0.500000
O O6 0.655679 0.337381 0.517637
O O7 0.605704 0.274603 0.260927
O O8 0.718394 0.080370 0.366877
O O9 0.889386 0.131173 0.224973
O O10 0.000000 0.088261 0.500000
O O11 0.779896 0.784380 0.137604
O O12 0.500000 0.764348 0.000000
O O13 0.500000 0.055693 0.500000
O O14 0.440115 0.000000 0.709504
O O15 0.000000 0.166305 0.000000
#
# Coordination Sequence:
#
# PCOD9218227 Si02
#       6
#     8   8   8   8   8   8
#     4  11  24  45  72 101 141 180 237 293 340 416
#     4  12  24  39  67  99 141 185 237 282 336 405
#     4  12  26  44  71 105 140 180 233 292 349 412
#     4  10  24  43  68  98 142 193 240 277 341 408
#     4  11  24  48  79 108 134 175 231 296 364 416
#     4  11  24  45  68  99 147 189 227 286 352 400
#
# _framework density 21.392527999999999
#
# number of rings (size 3 to 8) (size 9 to 14) (size 15 to 20)
#    0.000    0.833    5.000    1.000    2.333    6.333 
#    0.000    1.667    0.000    1.000    0.000    0.000 
#    0.000    0.000    0.000    0.000    0.000    0.000 
#
# Total GULP energy -134151.245364 kJ/mol
# GULP energy per Si atom -5589.635224 kJ/mol
# Density = 2.134384 g / cm^3
# Si number density = 21.392528 Si / 1000 Ang^3
#
#
#
# Elastic Constant Matrix: (Units=GPa)
#
#
# Indices 1 2 3 4 5 6 
#
# 1 136.4001 47.3665 60.7354 0.0000 -11.7967 0.0000
# 2 47.3665 150.1377 45.4213 0.0000 -5.0143 0.0000
# 3 60.7354 45.4213 123.9101 0.0000 -11.4385 0.0000
# 4 0.0000 0.0000 0.0000 20.0935 0.0000 -3.2286
# 5 -11.7967 -5.0143 -11.4385 0.0000 37.8304 0.0000
# 6 0.0000 0.0000 0.0000 -3.2286 0.0000 15.1663
#
#
#
# Elastic Compliance Matrix: (Units=1/GPa)
#
#
# Indices 1 2 3 4 5 6 
#
# 1 0.009909 -0.001853 -0.004027 0.000000 0.001627 0.000000
# 2 -0.001853 0.007839 -0.001978 0.000000 -0.000137 0.000000
# 3 -0.004027 -0.001978 0.010934 0.000000 0.001788 0.000000
# 4 0.000000 0.000000 0.000000 0.051530 0.000000 0.010970
# 5 0.001627 -0.000137 0.001788 0.000000 0.027464 0.000000
# 6 0.000000 0.000000 0.000000 0.010970 0.000000 0.068271
#
#
# Mechanical properties :
#
#
# Convention : Reuss Voigt Hill
#
# Bulk Modulus (GPa) = 77.12827 79.72161 78.42494
# Shear Modulus (GPa) = 25.51206 31.74634 28.62920
#
# Velocity S-wave (km/s) = 3.45711 3.85644 3.66222
# Velocity P-wave (km/s) = 7.21578 7.56152 7.39067
#
# Compressibility (1/GPa) = 0.01296541
#
# Stress axis : x y z
#
# Youngs Moduli (GPa) = 100.91880 127.56692 91.45405
#
# Poissons Ratio (x) = 0.23643 0.36832
# Poissons Ratio (y) = 0.18704 0.18087
# Poissons Ratio (z) = 0.40644 0.25229
#
# Static dielectric constant tensor:
#      x y z
#    x 1.895740 0.000000 0.033040 
#    y 0.000000 1.764210 0.000000 
#    z 0.033040 0.000000 1.862630 
# 
# From -- ./inp_files/42198.got.cif
#   From: 2010.05.17/outbox.cif.g08.bks.cpg/sg12_22_cif.got.tgz:42198.got - 2010.06.03 13:09:07.
