data_PCOD9218280
_publ_section_title
;
Structure prediction by ZEFSAII (Michael W. Deem and Ramdas Pophale) SiO2 
 PCOD9218280
Probable space group: C 2/M
;
_chemical_formula_sum "Si O2"
_cell_formula_units_Z 40
_cell_length_a 23.758514
_cell_length_b 8.880089
_cell_length_c 9.737714
_cell_angle_alpha 90.000000
_cell_angle_beta 104.182971
_cell_angle_gamma 90.000000
_cell_volume 1991.817668
_symmetry_space_group_name_H-M "C 2/M"
_symmetry_group_IT_number 12
_symmetry_cell_setting 'monoclinic'
loop_
_space_group_symop_operation_xyz
x,y,z
-x,y,-z
-x,-y,-z
x,-y,z
1/2+x,1/2+y,z
1/2-x,1/2+y,-z
1/2-x,1/2-y,-z
1/2+x,1/2-y,z
loop_
_atom_site_type_symbol
_atom_site_label
_atom_site_fract_x
_atom_site_fract_y
_atom_site_fract_z
Si Si1 0.423900 0.323257 0.580853
Si Si2 0.988039 0.680648 0.149628
Si Si3 0.238449 0.820719 0.845561
Si Si4 0.885689 0.679001 0.282446
Si Si5 0.704092 0.677043 0.368884
O O1 0.434551 0.500000 0.561398
O O2 0.469000 0.259308 0.717588
O O3 0.422017 0.234686 0.436030
O O4 0.359988 0.306575 0.608790
O O5 0.997058 0.500000 0.162076
O O6 0.923243 0.710015 0.167923
O O7 0.000000 0.728519 0.000000
O O8 0.175450 0.764304 0.757029
O O9 0.286459 0.760033 0.768962
O O10 0.239423 0.000000 0.851226
O O11 0.250000 0.750000 0.000000
O O12 0.875720 0.500000 0.286263
O O13 0.716658 0.500000 0.360672
O O14 0.750000 0.750000 0.500000
#
# Coordination Sequence:
#
# PCOD9218280 Si02
#       5
#     8   8   8   8   8
#     4  11  24  41  65  96 128 167 212 262 317 377
#     4  10  24  44  65  93 126 165 212 264 322 380
#     4  12  26  43  65  95 132 171 212 264 321 382
#     4  11  23  42  67  94 126 168 216 264 316 380
#     4  11  23  41  65  97 131 169 213 259 315 379
#
# _framework density 20.082158
#
# number of rings (size 3 to 8) (size 9 to 14) (size 15 to 20)
#    0.000    1.000    2.000    4.200    2.800    6.800 
#    0.000    0.000    0.000    0.000    0.000    0.000 
#    0.000    0.000    0.000    0.000    0.000    0.000 
#
# Total GULP energy -111920.671396 kJ/mol
# GULP energy per Si atom -5596.033570 kJ/mol
# Density = 2.003645 g / cm^3
# Si number density = 20.082158 Si / 1000 Ang^3
#
#
#
# Elastic Constant Matrix: (Units=GPa)
#
#
# Indices 1 2 3 4 5 6 
#
# 1 60.3637 40.7326 16.2163 0.0000 -14.0084 0.0000
# 2 40.7326 110.2765 34.3159 0.0000 -18.6719 0.0000
# 3 16.2163 34.3159 111.7417 0.0000 -25.6531 0.0000
# 4 0.0000 0.0000 0.0000 35.8333 0.0000 5.3454
# 5 -14.0084 -18.6719 -25.6531 0.0000 39.0344 0.0000
# 6 0.0000 0.0000 0.0000 5.3454 0.0000 31.2731
#
#
#
# Elastic Compliance Matrix: (Units=1/GPa)
#
#
# Indices 1 2 3 4 5 6 
#
# 1 0.022776 -0.007670 0.000099 0.000000 0.004570 0.000000
# 2 -0.007670 0.012975 -0.002448 0.000000 0.001845 0.000000
# 3 0.000099 -0.002448 0.011101 0.000000 0.006160 0.000000
# 4 0.000000 0.000000 0.000000 0.028637 0.000000 -0.004895
# 5 0.004570 0.001845 0.006160 0.000000 0.032189 0.000000
# 6 0.000000 0.000000 0.000000 -0.004895 0.000000 0.032813
#
#
# Mechanical properties :
#
#
# Convention : Reuss Voigt Hill
#
# Bulk Modulus (GPa) = 37.29292 51.65683 44.47487
# Shear Modulus (GPa) = 29.50442 33.96933 31.73687
#
# Velocity S-wave (km/s) = 3.83715 4.11727 3.97968
# Velocity P-wave (km/s) = 6.18402 6.95565 6.58116
#
# Compressibility (1/GPa) = 0.02681474
#
# Stress axis : x y z
#
# Youngs Moduli (GPa) = 43.90683 77.06970 90.08396
#
# Poissons Ratio (x) = 0.59110 -0.00894
# Poissons Ratio (y) = 0.33675 0.22053
# Poissons Ratio (z) = -0.00436 0.18867
#
# Static dielectric constant tensor:
#      x y z
#    x 1.712920 0.000000 -0.018750 
#    y 0.000000 1.669320 0.000000 
#    z -0.018750 0.000000 1.688710 
# 
# From -- ./inp_files/92716.got.cif
#   From: 2010.05.17/outbox.cif.g08.bks.cpg/sg12_47_cif.got.tgz:92716.got - 2010.06.03 13:09:07.
