data_PCOD9218765
_publ_section_title
;
Structure prediction by ZEFSAII (Michael W. Deem and Ramdas Pophale) SiO2 
 PCOD9218765
Probable space group: C 2/M
;
_chemical_formula_sum "Si O2"
_cell_formula_units_Z 40
_cell_length_a 7.340977
_cell_length_b 19.444346
_cell_length_c 11.862761
_cell_angle_alpha 90.000000
_cell_angle_beta 110.511114
_cell_angle_gamma 90.000000
_cell_volume 1585.948586
_symmetry_space_group_name_H-M "C 2/M"
_symmetry_group_IT_number 12
_symmetry_cell_setting 'monoclinic'
loop_
_space_group_symop_operation_xyz
x,y,z
-x,y,-z
-x,-y,-z
x,-y,z
1/2+x,1/2+y,z
1/2-x,1/2+y,-z
1/2-x,1/2-y,-z
1/2+x,1/2-y,z
loop_
_atom_site_type_symbol
_atom_site_label
_atom_site_fract_x
_atom_site_fract_y
_atom_site_fract_z
Si Si1 0.466152 0.000000 0.356406
Si Si2 0.764592 0.151529 0.957033
Si Si3 0.868619 0.642635 0.629245
Si Si4 0.789953 0.000000 0.891264
Si Si5 0.768354 0.190298 0.601702
Si Si6 0.327710 0.709641 0.197926
O O1 0.500000 0.000000 0.500000
O O2 0.567524 0.933112 0.326696
O O3 0.248012 0.000000 0.253307
O O4 0.683581 0.215061 0.864689
O O5 0.709122 0.074502 0.911573
O O6 0.726669 0.164093 0.080332
O O7 0.000000 0.158146 0.000000
O O8 0.068984 0.678696 0.626680
O O9 0.774217 0.688749 0.706356
O O10 0.728552 0.630440 0.490574
O O11 0.000000 0.000000 0.000000
O O12 0.750000 0.250000 0.500000
O O13 0.950720 0.189610 0.723481
#
# Coordination Sequence:
#
# PCOD9218765 Si02
#       6
#     4   8   8   4   8   8
#     4  12  26  51  82 112 164 218 267 329 415 490
#     4  10  26  48  76 115 156 213 271 330 405 484
#     4  11  28  47  77 120 158 208 264 336 400 484
#     4  10  26  47  81 109 158 218 265 328 408 495
#     4  11  27  43  77 116 156 203 262 329 409 477
#     4  11  27  49  79 116 160 205 268 342 399 478
#
# _framework density 25.221496999999999
#
# number of rings (size 3 to 8) (size 9 to 14) (size 15 to 20)
#    0.000    1.200    2.000    0.600   16.800    2.400 
#    0.000    7.000    0.000    0.000    0.000    0.000 
#    0.000    0.000    0.000    0.000    0.000    0.000 
#
# Total GULP energy -111544.770736 kJ/mol
# GULP energy per Si atom -5577.238537 kJ/mol
# Density = 2.516409 g / cm^3
# Si number density = 25.221497 Si / 1000 Ang^3
#
#
#
# Elastic Constant Matrix: (Units=GPa)
#
#
# Indices 1 2 3 4 5 6 
#
# 1 105.0428 30.7581 52.3712 0.0000 -9.3314 0.0000
# 2 30.7581 170.9342 64.8570 0.0000 10.0528 0.0000
# 3 52.3712 64.8570 282.4493 0.0000 -1.6162 0.0000
# 4 0.0000 0.0000 0.0000 22.3645 0.0000 -1.3276
# 5 -9.3314 10.0528 -1.6162 0.0000 58.5736 0.0000
# 6 0.0000 0.0000 0.0000 -1.3276 0.0000 17.8741
#
#
#
# Elastic Compliance Matrix: (Units=1/GPa)
#
#
# Indices 1 2 3 4 5 6 
#
# 1 0.010958 -0.001446 -0.001689 0.000000 0.001947 0.000000
# 2 -0.001446 0.006676 -0.001273 0.000000 -0.001411 0.000000
# 3 -0.001689 -0.001273 0.004146 0.000000 0.000064 0.000000
# 4 0.000000 0.000000 0.000000 0.044912 0.000000 0.003336
# 5 0.001947 -0.001411 0.000064 0.000000 0.017627 0.000000
# 6 0.000000 0.000000 0.000000 0.003336 0.000000 0.056195
#
#
# Mechanical properties :
#
#
# Convention : Reuss Voigt Hill
#
# Bulk Modulus (GPa) = 77.12510 94.93321 86.02915
# Shear Modulus (GPa) = 32.54135 47.12511 39.83323
#
# Velocity S-wave (km/s) = 3.59586 4.32725 3.97840
# Velocity P-wave (km/s) = 6.91996 7.91759 7.43553
#
# Compressibility (1/GPa) = 0.01296595
#
# Stress axis : x y z
#
# Youngs Moduli (GPa) = 91.25615 149.78210 241.17999
#
# Poissons Ratio (x) = 0.21652 0.40729
# Poissons Ratio (y) = 0.13192 0.30704
# Poissons Ratio (z) = 0.15411 0.19069
#
# Static dielectric constant tensor:
#      x y z
#    x 2.102440 0.000000 -0.005490 
#    y 0.000000 2.136800 0.000000 
#    z -0.005490 0.000000 2.204550 
# 
# From -- ./inp_files/205526.got.cif
#   From: 2010.05.17/outbox.cif.g08.bks.cpg/sg12_103_cif.got.tgz:205526.got - 2010.06.03 13:09:07.
