data_PCOD9218144
_publ_section_title
;
Structure prediction by ZEFSAII (Michael W. Deem and Ramdas Pophale) SiO2 
 PCOD9218144
Probable space group: C 2/M
;
_chemical_formula_sum "Si O2"
_cell_formula_units_Z 36
_cell_length_a 19.821522
_cell_length_b 16.725149
_cell_length_c 4.975336
_cell_angle_alpha 90.000000
_cell_angle_beta 70.484312
_cell_angle_gamma 90.000000
_cell_volume 1554.654305
_symmetry_space_group_name_H-M "C 2/M"
_symmetry_group_IT_number 12
_symmetry_cell_setting 'monoclinic'
loop_
_space_group_symop_operation_xyz
x,y,z
-x,y,-z
-x,-y,-z
x,-y,z
1/2+x,1/2+y,z
1/2-x,1/2+y,-z
1/2-x,1/2-y,-z
1/2+x,1/2-y,z
loop_
_atom_site_type_symbol
_atom_site_label
_atom_site_fract_x
_atom_site_fract_y
_atom_site_fract_z
Si Si1 0.680089 0.242313 0.280850
Si Si2 0.147397 0.649794 0.831684
Si Si3 0.565820 0.642097 0.251057
Si Si4 0.500000 0.787132 0.000000
Si Si5 0.250763 0.500000 0.747256
Si Si6 0.852782 0.000000 0.119341
O O1 0.684023 0.213005 0.579247
O O2 0.632605 0.322574 0.331283
O O3 0.750000 0.250000 0.000000
O O4 0.642005 0.173955 0.151793
O O5 0.065900 0.655819 0.835753
O O6 0.198922 0.574449 0.758979
O O7 0.500000 0.604120 0.500000
O O8 0.530996 0.721794 0.168319
O O9 0.599532 0.578446 0.002408
O O10 0.286341 0.500000 0.995264
O O11 0.317814 0.500000 0.456746
#
# Coordination Sequence:
#
# PCOD9218144 Si02
#       6
#     8   8   8   4   4   4
#     4  11  22  39  67  95 127 176 222 272 320 386
#     4  11  23  41  66  93 133 166 224 271 331 391
#     4  11  23  43  66  98 138 170 222 270 332 400
#     4  10  24  42  70 100 128 178 222 276 334 390
#     4  12  26  47  64 100 134 178 219 277 330 394
#     4  12  29  43  68  97 136 178 219 267 337 392
#
# _framework density 23.156272000000001
#
# number of rings (size 3 to 8) (size 9 to 14) (size 15 to 20)
#    0.000    0.889    2.222    5.000    3.111    2.667 
#    0.000    0.000    0.000    5.333    0.000    0.000 
#    0.000    0.000    0.000    0.000    0.000    0.000 
#
# Total GULP energy -100461.606797 kJ/mol
# GULP energy per Si atom -5581.200378 kJ/mol
# Density = 2.310357 g / cm^3
# Si number density = 23.156272 Si / 1000 Ang^3
#
#
#
# Elastic Constant Matrix: (Units=GPa)
#
#
# Indices 1 2 3 4 5 6 
#
# 1 83.3287 8.8990 23.5165 0.0000 -27.8244 0.0000
# 2 8.8990 33.2643 13.7552 0.0000 -12.4921 0.0000
# 3 23.5165 13.7552 94.9926 0.0000 -8.0770 0.0000
# 4 0.0000 0.0000 0.0000 39.8218 0.0000 -12.7803
# 5 -27.8244 -12.4921 -8.0770 0.0000 55.6197 0.0000
# 6 0.0000 0.0000 0.0000 -12.7803 0.0000 35.5478
#
#
#
# Elastic Compliance Matrix: (Units=1/GPa)
#
#
# Indices 1 2 3 4 5 6 
#
# 1 0.015299 -0.000090 -0.003164 0.000000 0.007174 0.000000
# 2 -0.000090 0.034556 -0.004380 0.000000 0.007080 0.000000
# 3 -0.003164 -0.004380 0.011873 0.000000 -0.000842 0.000000
# 4 0.000000 0.000000 0.000000 0.028387 0.000000 0.010206
# 5 0.007174 0.007080 -0.000842 0.000000 0.023036 0.000000
# 6 0.000000 0.000000 0.000000 0.010206 0.000000 0.031800
#
#
# Mechanical properties :
#
#
# Convention : Reuss Voigt Hill
#
# Bulk Modulus (GPa) = 21.52403 33.76967 27.64685
# Shear Modulus (GPa) = 28.45658 37.22552 32.84105
#
# Velocity S-wave (km/s) = 3.50936 4.01381 3.77003
# Velocity P-wave (km/s) = 5.07308 6.00799 5.56022
#
# Compressibility (1/GPa) = 0.04645969
#
# Stress axis : x y z
#
# Youngs Moduli (GPa) = 65.36523 28.93833 84.22447
#
# Poissons Ratio (x) = 0.00261 0.26651
# Poissons Ratio (y) = 0.00590 0.36886
# Poissons Ratio (z) = 0.20684 0.12674
#
# Static dielectric constant tensor:
#      x y z
#    x 2.167050 0.000000 -0.024520 
#    y 0.000000 1.888520 0.000000 
#    z -0.024520 0.000000 1.859780 
# 
# From -- ./inp_files/20105.got.cif
#   From: 2010.05.17/outbox.cif.g08.bks.cpg/sg12_11_cif.got.tgz:20105.got - 2010.06.03 13:09:07.
