data_PCOD9218676
_publ_section_title
;
Structure prediction by ZEFSAII (Michael W. Deem and Ramdas Pophale) SiO2 
 PCOD9218676
Probable space group: C 2/M
;
_chemical_formula_sum "Si O2"
_cell_formula_units_Z 40
_cell_length_a 29.707852
_cell_length_b 8.710314
_cell_length_c 20.078685
_cell_angle_alpha 90.000000
_cell_angle_beta 158.416241
_cell_angle_gamma 90.000000
_cell_volume 1911.278868
_symmetry_space_group_name_H-M "C 2/M"
_symmetry_group_IT_number 12
_symmetry_cell_setting 'monoclinic'
loop_
_space_group_symop_operation_xyz
x,y,z
-x,y,-z
-x,-y,-z
x,-y,z
1/2+x,1/2+y,z
1/2-x,1/2+y,-z
1/2-x,1/2-y,-z
1/2+x,1/2-y,z
loop_
_atom_site_type_symbol
_atom_site_label
_atom_site_fract_x
_atom_site_fract_y
_atom_site_fract_z
Si Si1 0.263575 0.814891 0.228505
Si Si2 0.721297 0.675606 0.390638
Si Si3 0.094098 0.816064 0.460206
Si Si4 0.519859 0.830835 0.949600
Si Si5 0.675613 0.684479 0.959567
O O1 0.381428 0.759766 0.433441
O O2 0.254811 0.000000 0.222345
O O3 0.241244 0.773423 0.119921
O O4 0.151452 0.728274 0.109947
O O5 0.757011 0.500000 0.433615
O O6 0.750000 0.750000 0.500000
O O7 0.793874 0.766687 0.433468
O O8 0.575826 0.695331 0.193016
O O9 0.967022 0.769305 0.248558
O O10 0.094121 0.000000 0.467790
O O11 0.494295 0.000000 0.883009
O O12 0.500000 0.853124 0.000000
O O13 0.676653 0.500000 0.958959
O O14 0.750000 0.750000 0.000000
#
# Coordination Sequence:
#
# PCOD9218676 Si02
#       5
#     8   8   8   8   8
#     4  11  23  41  66  97 130 171 216 265 321 384
#     4  12  24  38  60  90 127 171 214 261 314 376
#     4  11  23  42  65  94 128 167 214 266 320 385
#     4  11  22  37  60  91 128 168 210 254 306 372
#     4  10  25  46  68  93 125 163 211 268 329 389
#
# _framework density 20.928395999999999
#
# number of rings (size 3 to 8) (size 9 to 14) (size 15 to 20)
#    0.000    1.000    2.000    4.800    0.000    6.400 
#    0.000    4.000    0.000    0.000    0.000    0.000 
#    0.000    0.000    0.000    0.000    0.000    0.000 
#
# Total GULP energy -111518.857497 kJ/mol
# GULP energy per Si atom -5575.942875 kJ/mol
# Density = 2.088076 g / cm^3
# Si number density = 20.928396 Si / 1000 Ang^3
#
#
#
# Elastic Constant Matrix: (Units=GPa)
#
#
# Indices 1 2 3 4 5 6 
#
# 1 103.8515 28.8599 26.0624 0.0000 -31.6952 0.0000
# 2 28.8599 78.7164 17.5806 0.0000 -13.6600 0.0000
# 3 26.0624 17.5806 64.4776 0.0000 -25.7893 0.0000
# 4 0.0000 0.0000 0.0000 35.1107 0.0000 8.1846
# 5 -31.6952 -13.6600 -25.7893 0.0000 37.4423 0.0000
# 6 0.0000 0.0000 0.0000 8.1846 0.0000 57.0074
#
#
#
# Elastic Compliance Matrix: (Units=1/GPa)
#
#
# Indices 1 2 3 4 5 6 
#
# 1 0.013727 -0.003143 -0.000694 0.000000 0.009996 0.000000
# 2 -0.003143 0.014550 -0.002261 0.000000 0.001090 0.000000
# 3 -0.000694 -0.002261 0.021865 0.000000 0.013648 0.000000
# 4 0.000000 0.000000 0.000000 0.029468 0.000000 -0.004231
# 5 0.009996 0.001090 0.013648 0.000000 0.044968 0.000000
# 6 0.000000 0.000000 0.000000 -0.004231 0.000000 0.018149
#
#
# Mechanical properties :
#
#
# Convention : Reuss Voigt Hill
#
# Bulk Modulus (GPa) = 26.35216 43.56125 34.95671
# Shear Modulus (GPa) = 29.83803 37.54824 33.69314
#
# Velocity S-wave (km/s) = 3.77997 4.24031 4.01674
# Velocity P-wave (km/s) = 5.62759 6.69576 6.18478
#
# Compressibility (1/GPa) = 0.03794755
#
# Stress axis : x y z
#
# Youngs Moduli (GPa) = 72.84676 68.72660 45.73542
#
# Poissons Ratio (x) = 0.21603 0.03172
# Poissons Ratio (y) = 0.22898 0.10339
# Poissons Ratio (z) = 0.05053 0.15537
#
# Static dielectric constant tensor:
#      x y z
#    x 1.731540 0.000000 -0.046630 
#    y 0.000000 1.670880 0.000000 
#    z -0.046630 0.000000 1.726230 
# 
# From -- ./inp_files/151845.got.cif
#   From: 2010.05.17/outbox.cif.g08.bks.cpg/sg12_76_cif.got.tgz:151845.got - 2010.06.03 13:09:07.
