data_PCOD9218117
_publ_section_title
;
Structure prediction by ZEFSAII (Michael W. Deem and Ramdas Pophale) SiO2 
 PCOD9218117
Probable space group: C 2/M
;
_chemical_formula_sum "Si O2"
_cell_formula_units_Z 38
_cell_length_a 13.687709
_cell_length_b 15.910214
_cell_length_c 17.342734
_cell_angle_alpha 90.000000
_cell_angle_beta 23.250387
_cell_angle_gamma 90.000000
_cell_volume 1490.893272
_symmetry_space_group_name_H-M "C 2/M"
_symmetry_group_IT_number 12
_symmetry_cell_setting 'monoclinic'
loop_
_space_group_symop_operation_xyz
x,y,z
-x,y,-z
-x,-y,-z
x,-y,z
1/2+x,1/2+y,z
1/2-x,1/2+y,-z
1/2-x,1/2-y,-z
1/2+x,1/2-y,z
loop_
_atom_site_type_symbol
_atom_site_label
_atom_site_fract_x
_atom_site_fract_y
_atom_site_fract_z
Si Si1 0.228405 0.147389 0.526533
Si Si2 0.077479 0.000000 0.321124
Si Si3 0.500000 0.500000 0.000000
Si Si4 0.467917 0.000000 0.893647
Si Si5 0.500000 0.220675 0.000000
Si Si6 0.731664 0.658150 0.049459
Si Si7 0.322464 0.863109 0.701577
O O1 0.250000 0.250000 0.500000
O O2 0.097057 0.083681 0.560926
O O3 0.499656 0.117403 0.354347
O O4 0.052932 0.137889 0.729300
O O5 0.736875 0.000000 0.739706
O O6 0.260950 0.000000 0.113213
O O7 0.399169 0.427731 0.132762
O O8 0.397352 0.083188 0.896622
O O9 0.654098 0.168923 0.948394
O O10 0.694864 0.274221 0.809504
O O11 0.750000 0.750000 0.000000
O O12 0.500000 0.865229 0.500000
#
# Coordination Sequence:
#
# PCOD9218117 Si02
#       7
#     8   4   2   4   4   8   8
#     4  11  21  39  66  97 133 181 230 298 360 430
#     4   9  19  37  65  94 127 168 236 282 354 429
#     4  10  24  42  66  90 136 188 236 304 360 456
#     4   9  20  38  67  97 128 181 231 301 356 425
#     4  11  22  40  66 103 142 190 240 294 368 442
#     4  11  22  41  68 103 140 186 246 299 367 445
#     4  11  23  41  65 101 139 188 242 300 378 439
#
# _framework density 25.488076
#
# number of rings (size 3 to 8) (size 9 to 14) (size 15 to 20)
#    0.000    1.474    2.105    4.737    0.000    0.000 
#    0.000   11.579    0.000    1.263    0.000    0.737 
#    0.000    0.000    0.000    0.000    0.000    0.000 
#
# Total GULP energy -105944.197202 kJ/mol
# GULP energy per Si atom -5576.010379 kJ/mol
# Density = 2.543006 g / cm^3
# Si number density = 25.488076 Si / 1000 Ang^3
#
#
#
# Elastic Constant Matrix: (Units=GPa)
#
#
# Indices 1 2 3 4 5 6 
#
# 1 99.6262 47.3815 31.8529 -0.0405 -21.2529 -0.3444
# 2 47.3815 195.7224 31.1523 -0.0836 -5.7874 -0.0827
# 3 31.8529 31.1523 133.9863 0.1110 7.4457 -0.4325
# 4 -0.0405 -0.0836 0.1110 37.8921 -0.0305 3.7992
# 5 -21.2529 -5.7874 7.4457 -0.0305 51.7184 0.3127
# 6 -0.3444 -0.0827 -0.4325 3.7992 0.3127 52.7893
#
#
#
# Elastic Compliance Matrix: (Units=1/GPa)
#
#
# Indices 1 2 3 4 5 6 
#
# 1 0.013410 -0.002619 -0.002892 0.000019 0.005634 0.000025
# 2 -0.002619 0.005848 -0.000719 0.000013 -0.000318 -0.000013
# 3 -0.002892 -0.000719 0.008457 -0.000038 -0.002487 0.000067
# 4 0.000019 0.000013 -0.000038 0.026583 0.000042 -0.001914
# 5 0.005634 -0.000318 -0.002487 0.000042 0.021974 -0.000117
# 6 0.000025 -0.000013 0.000067 -0.001914 -0.000117 0.019082
#
#
# Mechanical properties :
#
#
# Convention : Reuss Voigt Hill
#
# Bulk Modulus (GPa) = 65.55914 72.23427 68.89670
# Shear Modulus (GPa) = 44.28707 49.74318 47.01512
#
# Velocity S-wave (km/s) = 4.17293 4.42251 4.29953
# Velocity P-wave (km/s) = 6.99965 7.38106 7.19289
#
# Compressibility (1/GPa) = 0.01525340
#
# Stress axis : x y z
#
# Youngs Moduli (GPa) = 74.57226 170.98402 118.24988
#
# Poissons Ratio (x) = 0.44788 0.34197
# Poissons Ratio (y) = 0.19534 0.08507
# Poissons Ratio (z) = 0.21566 0.12301
#
# Static dielectric constant tensor:
#      x y z
#    x 2.049510 0.000060 -0.019530 
#    y 0.000060 2.166290 0.000150 
#    z -0.019530 0.000150 1.935310 
# 
# From -- ./inp_files/316657.got.cif
#   From: 2010.05.17/outbox.cif.g08.bks.cpg/sg12_159_cif.got.tgz:316657.got - 2010.06.03 13:09:07.
