data_PCOD9218260
_publ_section_title
;
Structure prediction by ZEFSAII (Michael W. Deem and Ramdas Pophale) SiO2 
 PCOD9218260
Probable space group: C 2/M
;
_chemical_formula_sum "Si O2"
_cell_formula_units_Z 28
_cell_length_a 12.246391
_cell_length_b 23.531789
_cell_length_c 7.053966
_cell_angle_alpha 90.000000
_cell_angle_beta 31.990697
_cell_angle_gamma 90.000000
_cell_volume 1076.944364
_symmetry_space_group_name_H-M "C 2/M"
_symmetry_group_IT_number 12
_symmetry_cell_setting 'monoclinic'
loop_
_space_group_symop_operation_xyz
x,y,z
-x,y,-z
-x,-y,-z
x,-y,z
1/2+x,1/2+y,z
1/2-x,1/2+y,-z
1/2-x,1/2-y,-z
1/2+x,1/2-y,z
loop_
_atom_site_type_symbol
_atom_site_label
_atom_site_fract_x
_atom_site_fract_y
_atom_site_fract_z
Si Si1 0.500000 0.727493 0.000000
Si Si2 0.304224 0.318352 0.654570
Si Si3 0.680184 0.434597 0.467389
Si Si4 0.714250 0.933984 0.246392
O O1 0.632565 0.690562 0.660046
O O2 0.637124 0.769300 0.927479
O O3 0.500000 0.310193 0.500000
O O4 0.221310 0.382741 0.791844
O O5 0.705039 0.500000 0.364015
O O6 0.760040 0.433559 0.564900
O O7 0.437086 0.417870 0.833727
O O8 0.500000 0.905537 0.500000
O O9 0.702186 0.000000 0.207486
#
# Coordination Sequence:
#
# PCOD9218260 Si02
#       4
#     4   8   8   8
#     4  10  24  44  64  88 116 156 212 252 286 346
#     4  11  23  42  65  89 120 159 199 249 300 349
#     4   9  18  32  53  87 123 151 190 242 297 361
#     4   8  14  27  49  78 116 160 196 229 280 347
#
# _framework density 25.999486999999998
#
# number of rings (size 3 to 8) (size 9 to 14) (size 15 to 20)
#    0.000    2.571    0.000    4.286    0.000    2.857 
#    0.000    7.857    0.000    0.000    0.000    0.000 
#    0.000    1.143    0.000    0.000    0.000    0.000 
#
# Total GULP energy -78323.032430 kJ/mol
# GULP energy per Si atom -5594.502316 kJ/mol
# Density = 2.594031 g / cm^3
# Si number density = 25.999487 Si / 1000 Ang^3
#
#
#
# Elastic Constant Matrix: (Units=GPa)
#
#
# Indices 1 2 3 4 5 6 
#
# 1 128.6533 27.1537 33.3015 0.0000 -21.9398 0.0000
# 2 27.1537 159.1823 25.4845 0.0000 -6.6030 0.0000
# 3 33.3015 25.4845 78.2394 0.0000 -12.8907 0.0000
# 4 0.0000 0.0000 0.0000 3.5161 0.0000 -13.8725
# 5 -21.9398 -6.6030 -12.8907 0.0000 49.5300 0.0000
# 6 0.0000 0.0000 0.0000 -13.8725 0.0000 19.2768
#
#
#
# Elastic Compliance Matrix: (Units=1/GPa)
#
#
# Indices 1 2 3 4 5 6 
#
# 1 0.009330 -0.000958 -0.003134 0.000000 0.003190 0.000000
# 2 -0.000958 0.006731 -0.001784 0.000000 0.000009 0.000000
# 3 -0.003134 -0.001784 0.015075 0.000000 0.002297 0.000000
# 4 0.000000 0.000000 0.000000 -0.154626 0.000000 -0.111276
# 5 0.003190 0.000009 0.002297 0.000000 0.022202 0.000000
# 6 0.000000 0.000000 0.000000 -0.111276 0.000000 -0.028204
#
#
# Mechanical properties :
#
#
# Convention : Reuss Voigt Hill
#
# Bulk Modulus (GPa) = 51.58277 59.77269 55.67773
# Shear Modulus (GPa) = -44.93169 33.14024 -5.89573
#
# Velocity S-wave (km/s) = -4.16164 3.57410 -1.50750
# Velocity P-wave (km/s) = 1.79147 6.33025 4.29318
#
# Compressibility (1/GPa) = 0.01938632
#
# Stress axis : x y z
#
# Youngs Moduli (GPa) = 107.18085 148.55852 66.33676
#
# Poissons Ratio (x) = 0.14225 0.20789
# Poissons Ratio (y) = 0.10263 0.11831
# Poissons Ratio (z) = 0.33588 0.26496
#
# Static dielectric constant tensor:
#      x y z
#    x 2.019050 0.000000 -0.067930 
#    y 0.000000 2.011790 0.000000 
#    z -0.067930 0.000000 2.103070 
# 
# From -- ./inp_files/49812.got.cif
#   From: 2010.05.17/outbox.cif.g08.bks.cpg/sg12_25_cif.got.tgz:49812.got - 2010.06.03 13:09:07.
