data_PCOD9218140
_publ_section_title
;
Structure prediction by ZEFSAII (Michael W. Deem and Ramdas Pophale) SiO2 
 PCOD9218140
Probable space group: C 2/M
;
_chemical_formula_sum "Si O2"
_cell_formula_units_Z 36
_cell_length_a 17.336794
_cell_length_b 8.711123
_cell_length_c 10.357351
_cell_angle_alpha 90.000000
_cell_angle_beta 93.712044
_cell_angle_gamma 90.000000
_cell_volume 1560.916012
_symmetry_space_group_name_H-M "C 2/M"
_symmetry_group_IT_number 12
_symmetry_cell_setting 'monoclinic'
loop_
_space_group_symop_operation_xyz
x,y,z
-x,y,-z
-x,-y,-z
x,-y,z
1/2+x,1/2+y,z
1/2-x,1/2+y,-z
1/2-x,1/2-y,-z
1/2+x,1/2-y,z
loop_
_atom_site_type_symbol
_atom_site_label
_atom_site_fract_x
_atom_site_fract_y
_atom_site_fract_z
Si Si1 0.788069 0.314959 0.134542
Si Si2 0.759934 0.000000 0.290703
Si Si3 0.358560 0.000000 0.512159
Si Si4 0.056900 0.783015 0.402954
Si Si5 0.810652 0.000000 0.576408
Si Si6 0.973521 0.321519 0.136441
O O1 0.764712 0.500000 0.148565
O O2 0.770271 0.167548 0.226436
O O3 0.881009 0.317114 0.135125
O O4 0.750000 0.250000 0.000000
O O5 0.675106 0.000000 0.346242
O O6 0.816091 0.000000 0.421107
O O7 0.412562 0.856736 0.506230
O O8 0.281616 0.000000 0.416799
O O9 0.138396 0.859570 0.372118
O O10 0.000000 0.857861 0.500000
O O11 0.012210 0.753880 0.265488
O O12 0.998266 0.500000 0.142830
O O13 0.000000 0.257343 0.000000
#
# Coordination Sequence:
#
# PCOD9218140 Si02
#       6
#     8   4   4   8   4   8
#     4  11  23  43  72 102 143 198 244 299 369 448
#     4  10  24  46  67 104 150 181 251 304 367 431
#     4  10  25  43  70 101 143 192 243 312 356 448
#     4  12  23  45  72 104 140 191 245 301 374 447
#     4  10  25  45  68 102 149 183 238 316 373 427
#     4  10  24  42  69 103 144 187 237 299 372 442
#
# _framework density 23.063382000000001
#
# number of rings (size 3 to 8) (size 9 to 14) (size 15 to 20)
#    0.667    0.667    2.222    2.667    3.111    0.889 
#    4.000    2.222    0.000    0.000    0.000    0.000 
#    0.000    0.000    0.000    0.000    0.000    0.000 
#
# Total GULP energy -100250.983563 kJ/mol
# GULP energy per Si atom -5569.499087 kJ/mol
# Density = 2.301089 g / cm^3
# Si number density = 23.063382 Si / 1000 Ang^3
#
#
#
# Elastic Constant Matrix: (Units=GPa)
#
#
# Indices 1 2 3 4 5 6 
#
# 1 114.9665 55.2095 52.8444 0.0000 21.4541 0.0000
# 2 55.2095 160.4174 51.1292 0.0000 4.4841 0.0000
# 3 52.8444 51.1292 183.4458 0.0000 22.4148 0.0000
# 4 0.0000 0.0000 0.0000 -18.5406 0.0000 -16.8301
# 5 21.4541 4.4841 22.4148 0.0000 50.7991 0.0000
# 6 0.0000 0.0000 0.0000 -16.8301 0.0000 77.7999
#
#
#
# Elastic Compliance Matrix: (Units=1/GPa)
#
#
# Indices 1 2 3 4 5 6 
#
# 1 0.011970 -0.003362 -0.002040 0.000000 -0.003859 0.000000
# 2 -0.003362 0.007789 -0.001366 0.000000 0.001335 0.000000
# 3 -0.002040 -0.001366 0.006658 0.000000 -0.001956 0.000000
# 4 0.000000 0.000000 0.000000 -0.045083 0.000000 -0.009753
# 5 -0.003859 0.001335 -0.001956 0.000000 0.022060 0.000000
# 6 0.000000 0.000000 0.000000 -0.009753 0.000000 0.010744
#
#
# Mechanical properties :
#
#
# Convention : Reuss Voigt Hill
#
# Bulk Modulus (GPa) = 77.62022 86.35510 81.98766
# Shear Modulus (GPa) = 156.41266 41.98812 99.20039
#
# Velocity S-wave (km/s) = 8.24414 4.27142 6.56547
# Velocity P-wave (km/s) = 11.15120 7.86451 9.64883
#
# Compressibility (1/GPa) = 0.01288324
#
# Stress axis : x y z
#
# Youngs Moduli (GPa) = 83.54088 128.39253 150.18688
#
# Poissons Ratio (x) = 0.43162 0.30635
# Poissons Ratio (y) = 0.28084 0.20508
# Poissons Ratio (z) = 0.17040 0.17532
#
# Static dielectric constant tensor:
#      x y z
#    x 1.828390 0.000000 -0.042240 
#    y 0.000000 1.982550 0.000000 
#    z -0.042240 0.000000 1.855340 
# 
# From -- ./inp_files/152109.got.cif
#   From: 2010.05.17/outbox.cif.g08.bks.cpg/sg12_77_cif.got.tgz:152109.got - 2010.06.03 13:09:07.
