data_PCOD9218568
_publ_section_title
;
Structure prediction by ZEFSAII (Michael W. Deem and Ramdas Pophale) SiO2 
 PCOD9218568
Probable space group: C 2/M
;
_chemical_formula_sum "Si O2"
_cell_formula_units_Z 56
_cell_length_a 14.373939
_cell_length_b 14.419958
_cell_length_c 20.418360
_cell_angle_alpha 90.000000
_cell_angle_beta 136.907221
_cell_angle_gamma 90.000000
_cell_volume 2891.324946
_symmetry_space_group_name_H-M "C 2/M"
_symmetry_group_IT_number 12
_symmetry_cell_setting 'monoclinic'
loop_
_space_group_symop_operation_xyz
x,y,z
-x,y,-z
-x,-y,-z
x,-y,z
1/2+x,1/2+y,z
1/2-x,1/2+y,-z
1/2-x,1/2-y,-z
1/2+x,1/2-y,z
loop_
_atom_site_type_symbol
_atom_site_label
_atom_site_fract_x
_atom_site_fract_y
_atom_site_fract_z
Si Si1 0.346123 0.364136 0.943492
Si Si2 0.126582 0.742614 0.279331
Si Si3 0.137183 0.389892 0.612701
Si Si4 0.432428 0.899116 0.853556
Si Si5 0.936361 0.098895 0.131447
Si Si6 0.561113 0.106491 0.726081
Si Si7 0.175533 0.644837 0.062006
O O1 0.209303 0.397224 0.837789
O O2 0.333933 0.253841 0.931463
O O3 0.500000 0.390683 0.000000
O O4 0.353406 0.392433 0.022171
O O5 0.254813 0.811768 0.358143
O O6 0.153670 0.666473 0.237380
O O7 0.029555 0.813727 0.190605
O O8 0.039553 0.683364 0.290081
O O9 0.181206 0.500000 0.630944
O O10 0.097641 0.371523 0.668794
O O11 0.000000 0.382331 0.500000
O O12 0.377066 0.899582 0.898576
O O13 0.434832 0.000000 0.824601
O O14 0.587017 0.871116 0.950761
O O15 0.824726 0.106416 0.129737
O O16 0.009200 0.000000 0.169436
O O17 0.504859 0.000000 0.699288
#
# Coordination Sequence:
#
# PCOD9218568 Si02
#       7
#     8   8   8   8   8   8   8
#     4  12  21  37  57  83 127 173 216 258 301 355
#     4  12  23  39  65  93 125 160 212 258 313 380
#     4  10  24  48  73  96 123 156 202 265 334 397
#     4  11  21  34  54  81 119 166 207 247 297 356
#     4  12  23  34  52  82 122 166 208 250 296 355
#     4  11  24  41  65  95 128 169 213 262 320 377
#     4  11  19  35  50  76 119 168 211 249 289 342
#
# _framework density 19.368283000000002
#
# number of rings (size 3 to 8) (size 9 to 14) (size 15 to 20)
#    0.000    0.714    4.286    6.000    0.000    2.857 
#    0.000    0.000    0.000    1.714    0.000    0.000 
#    0.000    0.000    0.000    0.000    0.000    0.000 
#
# Total GULP energy -155920.752230 kJ/mol
# GULP energy per Si atom -5568.598294 kJ/mol
# Density = 1.932420 g / cm^3
# Si number density = 19.368283 Si / 1000 Ang^3
#
#
#
# Elastic Constant Matrix: (Units=GPa)
#
#
# Indices 1 2 3 4 5 6 
#
# 1 84.6758 17.3815 32.3243 0.0000 2.5122 0.0000
# 2 17.3815 127.6469 23.3172 0.0000 6.1194 0.0000
# 3 32.3243 23.3172 93.5332 0.0000 9.1619 0.0000
# 4 0.0000 0.0000 0.0000 30.7090 0.0000 -0.5950
# 5 2.5122 6.1194 9.1619 0.0000 17.3921 0.0000
# 6 0.0000 0.0000 0.0000 -0.5950 0.0000 9.0051
#
#
#
# Elastic Compliance Matrix: (Units=1/GPa)
#
#
# Indices 1 2 3 4 5 6 
#
# 1 0.013748 -0.001077 -0.004561 0.000000 0.000796 0.000000
# 2 -0.001077 0.008353 -0.001516 0.000000 -0.001985 0.000000
# 3 -0.004561 -0.001516 0.013210 0.000000 -0.005767 0.000000
# 4 0.000000 0.000000 0.000000 0.032605 0.000000 0.002154
# 5 0.000796 -0.001985 -0.005767 0.000000 0.061119 0.000000
# 6 0.000000 0.000000 0.000000 0.002154 0.000000 0.111190
#
#
# Mechanical properties :
#
#
# Convention : Reuss Voigt Hill
#
# Bulk Modulus (GPa) = 47.60901 50.21132 48.91017
# Shear Modulus (GPa) = 19.11797 26.94344 23.03071
#
# Velocity S-wave (km/s) = 3.14519 3.73381 3.45207
# Velocity P-wave (km/s) = 6.15011 6.67602 6.41845
#
# Compressibility (1/GPa) = 0.02100443
#
# Stress axis : x y z
#
# Youngs Moduli (GPa) = 72.73646 119.72040 75.69870
#
# Poissons Ratio (x) = 0.12895 0.34524
# Poissons Ratio (y) = 0.07835 0.11473
# Poissons Ratio (z) = 0.33173 0.18145
#
# Static dielectric constant tensor:
#      x y z
#    x 1.832740 0.000000 0.061700 
#    y 0.000000 1.742350 0.000000 
#    z 0.061700 0.000000 1.670220 
# 
# From -- ./inp_files/310826.got.cif
#   From: 2010.05.17/outbox.cif.g08.bks.cpg/sg12_156_cif.got.tgz:310826.got - 2010.06.03 13:09:07.
