data_PCOD9218988
_publ_section_title
;
Structure prediction by ZEFSAII (Michael W. Deem and Ramdas Pophale) SiO2 
 PCOD9218988
Probable space group: C 2/M
;
_chemical_formula_sum "Si O2"
_cell_formula_units_Z 36
_cell_length_a 10.121367
_cell_length_b 17.449743
_cell_length_c 9.890062
_cell_angle_alpha 90.000000
_cell_angle_beta 88.272921
_cell_angle_gamma 90.000000
_cell_volume 1745.942308
_symmetry_space_group_name_H-M "C 2/M"
_symmetry_group_IT_number 12
_symmetry_cell_setting 'monoclinic'
loop_
_space_group_symop_operation_xyz
x,y,z
-x,y,-z
-x,-y,-z
x,-y,z
1/2+x,1/2+y,z
1/2-x,1/2+y,-z
1/2-x,1/2-y,-z
1/2+x,1/2-y,z
loop_
_atom_site_type_symbol
_atom_site_label
_atom_site_fract_x
_atom_site_fract_y
_atom_site_fract_z
Si Si1 0.589958 0.657476 0.314582
Si Si2 0.846058 0.911237 0.957055
Si Si3 0.309177 0.085035 0.467777
Si Si4 0.310058 0.410506 0.247652
Si Si5 0.500000 0.790150 0.500000
O O1 0.164737 0.902042 0.409759
O O2 0.438197 0.636314 0.289866
O O3 0.584141 0.736471 0.396786
O O4 0.663383 0.645951 0.168824
O O5 0.768743 0.889641 0.096489
O O6 0.815720 0.000000 0.918452
O O7 0.000000 0.910424 0.000000
O O8 0.295843 0.093402 0.630165
O O9 0.403028 0.153822 0.420666
O O10 0.356723 0.000000 0.432623
O O11 0.351315 0.500000 0.237985
#
# Coordination Sequence:
#
# PCOD9218988 Si02
#       5
#     8   8   8   8   4
#     4  11  19  33  58  82 109 136 177 226 273 308
#     4   8  15  29  52  84 112 134 170 224 272 314
#     4  11  22  38  58  77 105 150 187 214 261 327
#     4   9  17  32  58  86 108 136 181 226 265 315
#     4  12  25  36  51  80 122 140 172 228 277 308
#
# _framework density 20.619237999999999
#
# number of rings (size 3 to 8) (size 9 to 14) (size 15 to 20)
#    0.000    2.000    2.222    4.333    0.000    1.778 
#    0.000    1.111    4.889    0.000    0.000    6.222 
#    0.000    0.000    0.000    0.000    0.000    0.000 
#
# Total GULP energy -100322.569093 kJ/mol
# GULP energy per Si atom -5573.476061 kJ/mol
# Density = 2.057231 g / cm^3
# Si number density = 20.619238 Si / 1000 Ang^3
#
#
#
# Elastic Constant Matrix: (Units=GPa)
#
#
# Indices 1 2 3 4 5 6 
#
# 1 23.6993 21.9899 1.1986 0.0000 3.2681 0.0000
# 2 21.9899 110.4029 28.4818 0.0000 12.0649 0.0000
# 3 1.1986 28.4818 112.1744 0.0000 13.2504 0.0000
# 4 0.0000 0.0000 0.0000 -10.9397 0.0000 16.4962
# 5 3.2681 12.0649 13.2504 0.0000 9.1867 0.0000
# 6 0.0000 0.0000 0.0000 16.4962 0.0000 4.3182
#
#
#
# Elastic Compliance Matrix: (Units=1/GPa)
#
#
# Indices 1 2 3 4 5 6 
#
# 1 0.052955 -0.010289 0.003225 0.000000 -0.009978 0.000000
# 2 -0.010289 0.012724 -0.001904 0.000000 -0.010305 0.000000
# 3 0.003225 -0.001904 0.011094 0.000000 -0.014649 0.000000
# 4 0.000000 0.000000 0.000000 -0.013521 0.000000 0.051653
# 5 -0.009978 -0.010305 -0.014649 0.000000 0.147065 0.000000
# 6 0.000000 0.000000 0.000000 0.051653 0.000000 0.034255
#
#
# Mechanical properties :
#
#
# Convention : Reuss Voigt Hill
#
# Bulk Modulus (GPa) = 16.99570 38.84635 27.92102
# Shear Modulus (GPa) = 17.72296 13.48677 15.60487
#
# Velocity S-wave (km/s) = 2.93496 2.56029 2.75400
# Velocity P-wave (km/s) = 4.44363 5.25555 4.86656
#
# Compressibility (1/GPa) = 0.05883841
#
# Stress axis : x y z
#
# Youngs Moduli (GPa) = 18.88385 78.58953 90.13951
#
# Poissons Ratio (x) = 0.80863 -0.29072
# Poissons Ratio (y) = 0.19430 0.17159
# Poissons Ratio (z) = -0.06091 0.14960
#
# Static dielectric constant tensor:
#      x y z
#    x 1.748180 0.000000 -0.029310 
#    y 0.000000 1.741550 0.000000 
#    z -0.029310 0.000000 1.836280 
# 
# From -- ./inp_files/129014.got.cif
#   From: 2010.05.17/outbox.cif.g08.bks.cpg/sg12_65_cif.got.tgz:129014.got - 2010.06.03 13:09:07.
