data_PCOD9218216
_publ_section_title
;
Structure prediction by ZEFSAII (Michael W. Deem and Ramdas Pophale) SiO2 
 PCOD9218216
Probable space group: C 2/M
;
_chemical_formula_sum "Si O2"
_cell_formula_units_Z 34
_cell_length_a 22.135740
_cell_length_b 7.818231
_cell_length_c 18.677106
_cell_angle_alpha 90.000000
_cell_angle_beta 153.808976
_cell_angle_gamma 90.000000
_cell_volume 1426.626528
_symmetry_space_group_name_H-M "C 2/M"
_symmetry_group_IT_number 12
_symmetry_cell_setting 'monoclinic'
loop_
_space_group_symop_operation_xyz
x,y,z
-x,y,-z
-x,-y,-z
x,-y,z
1/2+x,1/2+y,z
1/2-x,1/2+y,-z
1/2-x,1/2-y,-z
1/2+x,1/2-y,z
loop_
_atom_site_type_symbol
_atom_site_label
_atom_site_fract_x
_atom_site_fract_y
_atom_site_fract_z
Si Si1 0.594830 0.194495 0.343707
Si Si2 0.353434 0.707776 0.875041
Si Si3 0.817871 0.809843 0.996816
Si Si4 0.000000 0.000000 0.500000
Si Si5 0.418439 0.802671 0.501450
O O1 0.750000 0.250000 0.500000
O O2 0.480652 0.307606 0.184789
O O3 0.572760 0.200090 0.404659
O O4 0.575892 0.000000 0.297802
O O5 0.362742 0.500000 0.889848
O O6 0.231599 0.745989 0.689660
O O7 0.500000 0.768091 0.000000
O O8 0.313990 0.772324 0.912898
O O9 0.760757 0.000000 0.926624
O O10 0.750000 0.750000 0.000000
O O11 0.013855 0.846430 0.574399
O O12 0.444793 0.000000 0.508723
#
# Coordination Sequence:
#
# PCOD9218216 Si02
#       5
#     8   8   8   2   8
#     4  11  24  43  68  96 133 176 219 275 333 398
#     4   9  19  41  67  91 123 169 216 265 327 392
#     4  11  24  40  65  96 132 170 216 273 333 393
#     4  12  26  40  66  98 132 172 220 274 328 382
#     4  10  24  43  67  96 130 172 222 270 327 394
#
# _framework density 23.832446000000001
#
# number of rings (size 3 to 8) (size 9 to 14) (size 15 to 20)
#    0.000    1.647    0.000    3.176    6.588    3.765 
#    2.118    0.588    0.000    0.000    0.000    0.000 
#    0.000    0.000    0.000    0.000    0.000    0.000 
#
# Total GULP energy -94680.342960 kJ/mol
# GULP energy per Si atom -5569.431939 kJ/mol
# Density = 2.377820 g / cm^3
# Si number density = 23.832446 Si / 1000 Ang^3
#
#
#
# Elastic Constant Matrix: (Units=GPa)
#
#
# Indices 1 2 3 4 5 6 
#
# 1 72.5759 26.1481 18.7518 0.0000 5.1944 0.0000
# 2 26.1481 92.8774 8.2399 0.0000 4.8814 0.0000
# 3 18.7518 8.2399 143.0764 0.0000 4.0551 0.0000
# 4 0.0000 0.0000 0.0000 15.9465 0.0000 -3.5048
# 5 5.1944 4.8814 4.0551 0.0000 35.1939 0.0000
# 6 0.0000 0.0000 0.0000 -3.5048 0.0000 20.7290
#
#
#
# Elastic Compliance Matrix: (Units=1/GPa)
#
#
# Indices 1 2 3 4 5 6 
#
# 1 0.015877 -0.004229 -0.001793 0.000000 -0.001550 0.000000
# 2 -0.004229 0.012021 -0.000109 0.000000 -0.001031 0.000000
# 3 -0.001793 -0.000109 0.007246 0.000000 -0.000555 0.000000
# 4 0.000000 0.000000 0.000000 0.065130 0.000000 0.011012
# 5 -0.001550 -0.001031 -0.000555 0.000000 0.028850 0.000000
# 6 0.000000 0.000000 0.000000 0.011012 0.000000 0.050104
#
#
# Mechanical properties :
#
#
# Convention : Reuss Voigt Hill
#
# Bulk Modulus (GPa) = 43.70324 46.08990 44.89657
# Shear Modulus (GPa) = 25.11080 31.39986 28.25533
#
# Velocity S-wave (km/s) = 3.24950 3.63371 3.44696
# Velocity P-wave (km/s) = 5.69706 6.08163 5.89249
#
# Compressibility (1/GPa) = 0.02288160
#
# Stress axis : x y z
#
# Youngs Moduli (GPa) = 62.98532 83.18512 138.00126
#
# Poissons Ratio (x) = 0.35181 0.24748
# Poissons Ratio (y) = 0.26638 0.01502
# Poissons Ratio (z) = 0.11295 0.00905
#
# Static dielectric constant tensor:
#      x y z
#    x 1.947270 0.000000 0.025480 
#    y 0.000000 1.990810 0.000000 
#    z 0.025480 0.000000 1.925940 
# 
# From -- ./inp_files/281972.got.cif
#   From: 2010.05.17/outbox.cif.g08.bks.cpg/sg12_141_cif.got.tgz:281972.got - 2010.06.03 13:09:07.
