data_PCOD9218738
_publ_section_title
;
Structure prediction by ZEFSAII (Michael W. Deem and Ramdas Pophale) SiO2 
 PCOD9218738
Probable space group: C 2/M
;
_chemical_formula_sum "Si O2"
_cell_formula_units_Z 34
_cell_length_a 16.627021
_cell_length_b 20.547173
_cell_length_c 7.633733
_cell_angle_alpha 90.000000
_cell_angle_beta 143.366579
_cell_angle_gamma 90.000000
_cell_volume 1556.160821
_symmetry_space_group_name_H-M "C 2/M"
_symmetry_group_IT_number 12
_symmetry_cell_setting 'monoclinic'
loop_
_space_group_symop_operation_xyz
x,y,z
-x,y,-z
-x,-y,-z
x,-y,z
1/2+x,1/2+y,z
1/2-x,1/2+y,-z
1/2-x,1/2-y,-z
1/2+x,1/2-y,z
loop_
_atom_site_type_symbol
_atom_site_label
_atom_site_fract_x
_atom_site_fract_y
_atom_site_fract_z
Si Si1 0.893673 0.264245 0.158290
Si Si2 0.005769 0.867840 0.300673
Si Si3 0.500000 0.000000 0.000000
Si Si4 0.612178 0.500000 0.043764
Si Si5 0.691363 0.896740 0.146140
Si Si6 0.338955 0.000000 0.207156
O O1 0.942223 0.200931 0.134317
O O2 0.000000 0.276463 0.500000
O O3 0.750000 0.250000 0.000000
O O4 0.879145 0.328730 0.019165
O O5 0.000000 0.862949 0.500000
O O6 0.160617 0.880446 0.521118
O O7 0.925291 0.931701 0.109700
O O8 0.393409 0.943329 0.879082
O O9 0.500000 0.500000 0.000000
O O10 0.774803 0.500000 0.290750
O O11 0.703461 0.937751 0.984599
O O12 0.500000 0.000000 0.500000
#
# Coordination Sequence:
#
# PCOD9218738 Si02
#       6
#     8   8   2   4   8   4
#     4  11  20  38  68 106 130 170 235 288 341 409
#     4  11  21  41  72  95 128 182 231 275 352 412
#     4  10  26  42  64  94 140 182 224 286 350 412
#     4  12  24  40  64 102 133 170 236 292 343 412
#     4  11  22  43  67  96 131 179 237 272 347 420
#     4  11  22  37  63  92 129 178 221 287 338 412
#
# _framework density 21.848641000000001
#
# number of rings (size 3 to 8) (size 9 to 14) (size 15 to 20)
#    0.000    0.941    7.059    2.471    0.000    3.765 
#    2.118    1.176    0.000    0.000    0.000    0.000 
#    0.000    0.000    0.000    0.000    0.000    0.000 
#
# Total GULP energy -94638.275683 kJ/mol
# GULP energy per Si atom -5566.957393 kJ/mol
# Density = 2.179891 g / cm^3
# Si number density = 21.848641 Si / 1000 Ang^3
#
#
#
# Elastic Constant Matrix: (Units=GPa)
#
#
# Indices 1 2 3 4 5 6 
#
# 1 124.4688 45.2257 35.7315 0.0000 51.8236 0.0000
# 2 45.2257 238.3849 51.7360 0.0000 26.6675 0.0000
# 3 35.7315 51.7360 95.4466 0.0000 50.9705 0.0000
# 4 0.0000 0.0000 0.0000 36.9054 0.0000 10.2893
# 5 51.8236 26.6675 50.9705 0.0000 44.7076 0.0000
# 6 0.0000 0.0000 0.0000 10.2893 0.0000 24.6837
#
#
#
# Elastic Compliance Matrix: (Units=1/GPa)
#
#
# Indices 1 2 3 4 5 6 
#
# 1 0.021667 -0.002849 0.015180 0.000000 -0.040722 0.000000
# 2 -0.002849 0.005130 -0.004713 0.000000 0.005617 0.000000
# 3 0.015180 -0.004713 0.038971 0.000000 -0.059214 0.000000
# 4 0.000000 0.000000 0.000000 0.030659 0.000000 -0.012780
# 5 -0.040722 0.005617 -0.059214 0.000000 0.133730 0.000000
# 6 0.000000 0.000000 0.000000 -0.012780 0.000000 0.045840
#
#
# Mechanical properties :
#
#
# Convention : Reuss Voigt Hill
#
# Bulk Modulus (GPa) = 12.34551 80.40966 46.37759
# Shear Modulus (GPa) = 17.37533 42.96648 30.17091
#
# Velocity S-wave (km/s) = 2.82309 4.43939 3.72009
# Velocity P-wave (km/s) = 4.03599 7.94736 6.30277
#
# Compressibility (1/GPa) = 0.08100109
#
# Stress axis : x y z
#
# Youngs Moduli (GPa) = 46.15392 194.92753 25.66006
#
# Poissons Ratio (x) = 0.55544 -0.38951
# Poissons Ratio (y) = 0.13152 0.12095
# Poissons Ratio (z) = -0.70060 0.91878
#
# Static dielectric constant tensor:
#      x y z
#    x 1.850430 0.000000 0.003110 
#    y 0.000000 1.807670 0.000000 
#    z 0.003110 0.000000 1.851800 
# 
# From -- ./inp_files/78173.got.cif
#   From: 2010.05.17/outbox.cif.g08.bks.cpg/sg12_40_cif.got.tgz:78173.got - 2010.06.03 13:09:07.
