data_PCOD9218905
_publ_section_title
;
Structure prediction by ZEFSAII (Michael W. Deem and Ramdas Pophale) SiO2 
 PCOD9218905
Probable space group: C 2/M
;
_chemical_formula_sum "Si O2"
_cell_formula_units_Z 64
_cell_length_a 8.820420
_cell_length_b 19.033519
_cell_length_c 21.484147
_cell_angle_alpha 90.000000
_cell_angle_beta 89.163477
_cell_angle_gamma 90.000000
_cell_volume 3606.452207
_symmetry_space_group_name_H-M "C 2/M"
_symmetry_group_IT_number 12
_symmetry_cell_setting 'monoclinic'
loop_
_space_group_symop_operation_xyz
x,y,z
-x,y,-z
-x,-y,-z
x,-y,z
1/2+x,1/2+y,z
1/2-x,1/2+y,-z
1/2-x,1/2-y,-z
1/2+x,1/2-y,z
loop_
_atom_site_type_symbol
_atom_site_label
_atom_site_fract_x
_atom_site_fract_y
_atom_site_fract_z
Si Si1 0.626940 0.712415 0.456252
Si Si2 0.601236 0.918101 0.303439
Si Si3 0.854939 0.801319 0.958714
Si Si4 0.877808 0.579815 0.189140
Si Si5 0.672779 0.302832 0.734445
Si Si6 0.871606 0.202198 0.813429
Si Si7 0.882701 0.418311 0.050159
Si Si8 0.904772 0.691632 0.374800
O O1 0.500000 0.673799 0.500000
O O2 0.750000 0.750000 0.500000
O O3 0.741429 0.675255 0.407207
O O4 0.523452 0.768330 0.419443
O O5 0.507927 0.913907 0.239317
O O6 0.753799 0.872151 0.296169
O O7 0.490203 0.877764 0.351494
O O8 0.627039 0.000000 0.317847
O O9 0.886965 0.779673 0.886736
O O10 0.769684 0.875035 0.952372
O O11 0.750000 0.750000 0.000000
O O12 0.000000 0.810053 0.000000
O O13 0.814751 0.500000 0.193590
O O14 0.748004 0.638479 0.195328
O O15 0.944817 0.587858 0.119561
O O16 0.801396 0.267130 0.776221
O O17 0.529847 0.316395 0.779830
O O18 0.626923 0.246236 0.681589
O O19 0.857053 0.500000 0.036437
O O20 0.000000 0.388470 0.000000
#
# Coordination Sequence:
#
# PCOD9218905 Si02
#       8
#     8   8   8   8   8   8   8   8
#     4   9  19  33  60  96 118 148 195 241 267 316
#     4  11  23  37  57  88 125 158 192 241 298 345
#     4  11  23  36  51  76 107 142 184 244 297 353
#     4   9  19  36  54  78 111 147 188 237 299 360
#     4  12  21  35  58  87 111 150 197 239 283 343
#     4  11  21  35  56  78 108 147 192 244 297 351
#     4   9  19  36  57  75  99 142 190 236 291 358
#     4  11  18  36  60  89 120 151 193 234 276 338
#
# _framework density 17.745971999999998
#
# number of rings (size 3 to 8) (size 9 to 14) (size 15 to 20)
#    0.000    1.625    3.750    1.125    0.000    4.750 
#    0.000    0.000    0.000    3.750    0.000    0.000 
#    0.000    0.000    0.000    0.000    0.000    0.000 
#
# Total GULP energy -178380.609064 kJ/mol
# GULP energy per Si atom -5574.394033 kJ/mol
# Density = 1.770558 g / cm^3
# Si number density = 17.745972 Si / 1000 Ang^3
#
#
#
# Elastic Constant Matrix: (Units=GPa)
#
#
# Indices 1 2 3 4 5 6 
#
# 1 84.7267 22.2334 35.8725 0.0000 -23.6880 0.0000
# 2 22.2334 83.1484 26.3640 0.0000 -16.1162 0.0000
# 3 35.8725 26.3640 84.8603 0.0000 -8.9389 0.0000
# 4 0.0000 0.0000 0.0000 12.4534 0.0000 -2.8671
# 5 -23.6880 -16.1162 -8.9389 0.0000 44.7937 0.0000
# 6 0.0000 0.0000 0.0000 -2.8671 0.0000 21.5533
#
#
#
# Elastic Compliance Matrix: (Units=1/GPa)
#
#
# Indices 1 2 3 4 5 6 
#
# 1 0.016621 -0.001180 -0.005902 0.000000 0.007187 0.000000
# 2 -0.001180 0.014188 -0.003511 0.000000 0.003780 0.000000
# 3 -0.005902 -0.003511 0.015228 0.000000 -0.001346 0.000000
# 4 0.000000 0.000000 0.000000 0.082837 0.000000 0.011019
# 5 0.007187 0.003780 -0.001346 0.000000 0.027217 0.000000
# 6 0.000000 0.000000 0.000000 0.011019 0.000000 0.047862
#
#
# Mechanical properties :
#
#
# Convention : Reuss Voigt Hill
#
# Bulk Modulus (GPa) = 40.24035 46.85281 43.54658
# Shear Modulus (GPa) = 21.42040 26.97776 24.19908
#
# Velocity S-wave (km/s) = 3.47804 3.90323 3.69675
# Velocity P-wave (km/s) = 6.23330 6.83907 6.54320
#
# Compressibility (1/GPa) = 0.02485068
#
# Stress axis : x y z
#
# Youngs Moduli (GPa) = 60.16623 70.48168 65.66779
#
# Poissons Ratio (x) = 0.08315 0.38759
# Poissons Ratio (y) = 0.07098 0.23056
# Poissons Ratio (z) = 0.35512 0.24746
#
# Static dielectric constant tensor:
#      x y z
#    x 1.754010 0.000000 -0.039720 
#    y 0.000000 1.633220 0.000000 
#    z -0.039720 0.000000 1.656390 
# 
# From -- ./inp_files/300788.got.cif
#   From: 2010.05.17/outbox.cif.g08.bks.cpg/sg12_151_cif.got.tgz:300788.got - 2010.06.03 13:09:07.
