data_PCOD9218726
_publ_section_title
;
Structure prediction by ZEFSAII (Michael W. Deem and Ramdas Pophale) SiO2 
 PCOD9218726
Probable space group: C 2/M
;
_chemical_formula_sum "Si O2"
_cell_formula_units_Z 42
_cell_length_a 5.076104
_cell_length_b 25.705971
_cell_length_c 12.118683
_cell_angle_alpha 90.000000
_cell_angle_beta 76.888874
_cell_angle_gamma 90.000000
_cell_volume 1540.098710
_symmetry_space_group_name_H-M "C 2/M"
_symmetry_group_IT_number 12
_symmetry_cell_setting 'monoclinic'
loop_
_space_group_symop_operation_xyz
x,y,z
-x,y,-z
-x,-y,-z
x,-y,z
1/2+x,1/2+y,z
1/2-x,1/2+y,-z
1/2-x,1/2-y,-z
1/2+x,1/2-y,z
loop_
_atom_site_type_symbol
_atom_site_label
_atom_site_fract_x
_atom_site_fract_y
_atom_site_fract_z
Si Si1 0.138547 0.805227 0.383464
Si Si2 0.287233 0.558020 0.920386
Si Si3 0.500000 0.500000 0.500000
Si Si4 0.829714 0.132156 0.227224
Si Si5 0.529076 0.778036 0.156209
Si Si6 0.126957 0.416118 0.602088
O O1 0.380937 0.778243 0.291866
O O2 0.274475 0.857311 0.421558
O O3 0.000000 0.777494 0.500000
O O4 0.923505 0.829897 0.317167
O O5 0.273711 0.500000 0.871648
O O6 0.399596 0.602859 0.832500
O O7 0.500000 0.556104 0.000000
O O8 0.000000 0.569964 0.000000
O O9 0.375618 0.454321 0.594068
O O10 0.691871 0.168126 0.146444
O O11 0.610084 0.089585 0.286312
O O12 0.258176 0.765824 0.114151
O O13 0.000000 0.437151 0.500000
#
# Coordination Sequence:
#
# PCOD9218726 Si02
#       6
#     8   8   2   8   8   8
#     4  11  22  41  61  96 137 182 233 279 335 413
#     4  10  25  49  75 107 136 171 233 292 347 420
#     4  12  22  36  56  86 136 182 234 282 322 416
#     4  11  24  43  72  96 137 189 225 291 354 413
#     4  11  24  42  65 100 138 183 237 287 340 409
#     4  11  22  38  57  91 135 183 229 275 331 410
#
# _framework density 27.270977999999999
#
# number of rings (size 3 to 8) (size 9 to 14) (size 15 to 20)
#    0.000    1.143    4.762    0.286    6.667    0.762 
#    1.714    0.000    0.000    3.429    0.000    0.000 
#    0.000    0.000    0.000    0.000    0.000    0.000 
#
# Total GULP energy -117356.347498 kJ/mol
# GULP energy per Si atom -5588.397500 kJ/mol
# Density = 2.720891 g / cm^3
# Si number density = 27.270978 Si / 1000 Ang^3
#
#
#
# Elastic Constant Matrix: (Units=GPa)
#
#
# Indices 1 2 3 4 5 6 
#
# 1 159.5967 37.7243 52.3779 0.0000 -43.5898 0.0000
# 2 37.7243 126.0300 54.8383 0.0000 -23.8703 0.0000
# 3 52.3779 54.8383 82.8856 0.0000 -16.2864 0.0000
# 4 0.0000 0.0000 0.0000 29.4326 0.0000 -81.7428
# 5 -43.5898 -23.8703 -16.2864 0.0000 53.1515 0.0000
# 6 0.0000 0.0000 0.0000 -81.7428 0.0000 -813.5949
#
#
#
# Elastic Compliance Matrix: (Units=1/GPa)
#
#
# Indices 1 2 3 4 5 6 
#
# 1 0.009622 0.000631 -0.005205 0.000000 0.006579 0.000000
# 2 0.000631 0.011627 -0.007410 0.000000 0.003469 0.000000
# 3 -0.005205 -0.007410 0.019966 0.000000 -0.001478 0.000000
# 4 0.000000 0.000000 0.000000 0.026564 0.000000 -0.002669
# 5 0.006579 0.003469 -0.001478 0.000000 0.025315 0.000000
# 6 0.000000 0.000000 0.000000 -0.002669 0.000000 -0.000961
#
#
# Mechanical properties :
#
#
# Convention : Reuss Voigt Hill
#
# Bulk Modulus (GPa) = 57.98068 73.15481 65.56774
# Shear Modulus (GPa) = 41.03474 -131.29736 -45.13131
#
# Velocity S-wave (km/s) = 3.88326 -6.94622 -4.07249
# Velocity P-wave (km/s) = 6.43532 6.11963 1.40774
#
# Compressibility (1/GPa) = 0.01724712
#
# Stress axis : x y z
#
# Youngs Moduli (GPa) = 103.92999 86.00830 50.08586
#
# Poissons Ratio (x) = -0.05426 0.26069
# Poissons Ratio (y) = -0.06556 0.37111
# Poissons Ratio (z) = 0.54094 0.63728
#
# Static dielectric constant tensor:
#      x y z
#    x 2.223750 0.000000 0.048120 
#    y 0.000000 2.113320 0.000000 
#    z 0.048120 0.000000 2.213460 
# 
# From -- ./inp_files/192299.got.cif
#   From: 2010.05.17/outbox.cif.g08.bks.cpg/sg12_97_cif.got.tgz:192299.got - 2010.06.03 13:09:07.
