data_PCOD9218812
_publ_section_title
;
Structure prediction by ZEFSAII (Michael W. Deem and Ramdas Pophale) SiO2 
 PCOD9218812
Probable space group: C 2/M
;
_chemical_formula_sum "Si O2"
_cell_formula_units_Z 56
_cell_length_a 26.156567
_cell_length_b 13.966645
_cell_length_c 30.091433
_cell_angle_alpha 90.000000
_cell_angle_beta 161.146175
_cell_angle_gamma 90.000000
_cell_volume 3552.437091
_symmetry_space_group_name_H-M "C 2/M"
_symmetry_group_IT_number 12
_symmetry_cell_setting 'monoclinic'
loop_
_space_group_symop_operation_xyz
x,y,z
-x,y,-z
-x,-y,-z
x,-y,z
1/2+x,1/2+y,z
1/2-x,1/2+y,-z
1/2-x,1/2-y,-z
1/2+x,1/2-y,z
loop_
_atom_site_type_symbol
_atom_site_label
_atom_site_fract_x
_atom_site_fract_y
_atom_site_fract_z
Si Si1 0.507641 0.115637 0.435650
Si Si2 0.836311 0.612785 0.029372
Si Si3 0.983210 0.115168 0.763140
Si Si4 0.051159 0.202655 0.915396
Si Si5 0.142468 0.383345 0.452744
Si Si6 0.883763 0.615055 0.171915
Si Si7 0.238136 0.115468 0.278130
O O1 0.553581 0.149501 0.424567
O O2 0.340050 0.145069 0.318862
O O3 0.646471 0.137904 0.585093
O O4 0.502388 0.000000 0.429727
O O5 0.860682 0.500000 0.041732
O O6 0.928689 0.683784 0.073270
O O7 0.884542 0.636260 0.120056
O O8 0.647962 0.634153 0.873609
O O9 0.825496 0.144752 0.607542
O O10 0.991300 0.161910 0.818435
O O11 0.977369 0.000000 0.765571
O O12 0.927346 0.167087 0.849890
O O13 0.226659 0.159163 0.064326
O O14 0.141784 0.500000 0.452299
O O15 0.041154 0.353565 0.326906
O O16 0.869342 0.500000 0.163510
O O17 0.215414 0.000000 0.258845
#
# Coordination Sequence:
#
# PCOD9218812 Si02
#       7
#     8   8   8   8   8   8   8
#     4   8  14  24  39  63  90 113 136 162 191 240
#     4   9  19  32  42  56  80 112 148 185 212 237
#     4   9  15  25  43  62  82 111 143 163 192 248
#     4  11  17  27  43  60  81 113 146 176 207 242
#     4   9  15  25  41  63  93 119 133 156 198 252
#     4   9  17  27  41  63  92 114 132 164 210 254
#     4   9  15  24  42  65  87 110 140 168 195 240
#
# _framework density 15.763825000000001
#
# number of rings (size 3 to 8) (size 9 to 14) (size 15 to 20)
#    0.000    2.857    1.429    4.714    0.000    0.000 
#    0.000    3.571    0.000    3.429    0.000    2.000 
#    0.000    1.143    0.000    0.000    0.000    0.000 
#
# Total GULP energy -155978.397404 kJ/mol
# GULP energy per Si atom -5570.657050 kJ/mol
# Density = 1.572795 g / cm^3
# Si number density = 15.763825 Si / 1000 Ang^3
#
#
#
# Elastic Constant Matrix: (Units=GPa)
#
#
# Indices 1 2 3 4 5 6 
#
# 1 43.3430 25.2012 27.9484 -0.0004 12.7240 0.0016
# 2 25.2012 47.9263 21.7130 -0.0076 11.5308 -0.0003
# 3 27.9484 21.7130 105.1517 -0.0041 -0.7741 -0.0001
# 4 -0.0004 -0.0076 -0.0041 0.7204 0.0007 3.5287
# 5 12.7240 11.5308 -0.7741 0.0007 16.5045 0.0011
# 6 0.0016 -0.0003 -0.0001 3.5287 0.0011 15.8344
#
#
#
# Elastic Compliance Matrix: (Units=1/GPa)
#
#
# Indices 1 2 3 4 5 6 
#
# 1 0.043893 -0.012819 -0.009206 0.001376 -0.025315 -0.000310
# 2 -0.012819 0.032185 -0.003333 -0.003433 -0.012760 0.000768
# 3 -0.009206 -0.003333 0.012719 -0.000235 0.010022 0.000053
# 4 0.001376 -0.003433 -0.000235-15.166996 0.001782 3.379982
# 5 -0.025315 -0.012760 0.010022 0.001782 0.089490 -0.000401
# 6 -0.000310 0.000768 0.000053 3.379982 -0.000401 -0.690079
#
#
# Mechanical properties :
#
#
# Convention : Reuss Voigt Hill
#
# Bulk Modulus (GPa) = 26.25907 38.46069 32.35988
# Shear Modulus (GPa) = -0.32020 14.71575 7.19778
#
# Velocity S-wave (km/s) = -0.45118 3.05866 2.13914
# Velocity P-wave (km/s) = 4.05247 6.07659 5.16466
#
# Compressibility (1/GPa) = 0.03808208
#
# Stress axis : x y z
#
# Youngs Moduli (GPa) = 22.78290 31.07002 78.62356
#
# Poissons Ratio (x) = 0.39828 0.72378
# Poissons Ratio (y) = 0.29205 0.26205
# Poissons Ratio (z) = 0.20973 0.10356
#
# Static dielectric constant tensor:
#      x y z
#    x 1.517420 0.000000 0.003430 
#    y 0.000000 1.528920 0.000000 
#    z 0.003430 0.000000 1.550930 
# 
# From -- ./inp_files/110903.got.cif
#   From: 2010.05.17/outbox.cif.g08.bks.cpg/sg12_56_cif.got.tgz:110903.got - 2010.06.03 13:09:07.
