data_PCOD9218854
_publ_section_title
;
Structure prediction by ZEFSAII (Michael W. Deem and Ramdas Pophale) SiO2 
 PCOD9218854
Probable space group: C 2/M
;
_chemical_formula_sum "Si O2"
_cell_formula_units_Z 56
_cell_length_a 21.966131
_cell_length_b 14.316678
_cell_length_c 12.327765
_cell_angle_alpha 90.000000
_cell_angle_beta 54.213424
_cell_angle_gamma 90.000000
_cell_volume 3144.912521
_symmetry_space_group_name_H-M "C 2/M"
_symmetry_group_IT_number 12
_symmetry_cell_setting 'monoclinic'
loop_
_space_group_symop_operation_xyz
x,y,z
-x,y,-z
-x,-y,-z
x,-y,z
1/2+x,1/2+y,z
1/2-x,1/2+y,-z
1/2-x,1/2-y,-z
1/2+x,1/2-y,z
loop_
_atom_site_type_symbol
_atom_site_label
_atom_site_fract_x
_atom_site_fract_y
_atom_site_fract_z
Si Si1 0.871013 0.894724 0.698455
Si Si2 0.499644 0.111291 0.333443
Si Si3 0.453968 0.800657 0.940762
Si Si4 0.198204 0.390536 0.942305
Si Si5 0.411468 0.605505 0.909505
Si Si6 0.737387 0.890830 0.146161
Si Si7 0.611031 0.197830 0.397422
O O1 0.780657 0.885906 0.804468
O O2 0.902182 0.884288 0.788827
O O3 0.898766 0.809085 0.597659
O O4 0.888774 0.000000 0.642541
O O5 0.516756 0.143272 0.194345
O O6 0.562189 0.153529 0.349726
O O7 0.421947 0.152963 0.459997
O O8 0.500524 0.000000 0.341908
O O9 0.458036 0.690863 0.908162
O O10 0.500000 0.822574 0.000000
O O11 0.366846 0.830315 0.043141
O O12 0.176186 0.500000 0.965635
O O13 0.208075 0.360570 0.057623
O O14 0.438641 0.500000 0.902955
O O15 0.327029 0.613639 0.045524
O O16 0.695746 0.830919 0.280011
O O17 0.716898 0.000000 0.181509
#
# Coordination Sequence:
#
# PCOD9218854 Si02
#       7
#     8   8   8   8   8   8   8
#     4   9  17  31  55  82 106 130 165 216 268 303
#     4  11  23  35  48  74 107 140 173 204 252 315
#     4  12  23  35  52  73 104 147 179 205 246 304
#     4   9  17  30  50  79 106 129 166 215 261 303
#     4   9  18  33  52  79 105 130 174 222 258 295
#     4   9  15  27  54  81 101 127 162 216 273 306
#     4  11  18  31  53  76 109 136 160 209 264 310
#
# _framework density 17.806536999999999
#
# number of rings (size 3 to 8) (size 9 to 14) (size 15 to 20)
#    0.000    2.000    2.857    4.714    0.000    3.714 
#    0.000    2.143    0.000    3.429    0.000    4.000 
#    0.000    0.000    0.000    0.000    0.000    0.000 
#
# Total GULP energy -156277.037077 kJ/mol
# GULP energy per Si atom -5581.322753 kJ/mol
# Density = 1.776601 g / cm^3
# Si number density = 17.806537 Si / 1000 Ang^3
#
#
#
# Elastic Constant Matrix: (Units=GPa)
#
#
# Indices 1 2 3 4 5 6 
#
# 1 23.2282 13.5450 18.3507 0.0000 10.8774 0.0000
# 2 13.5450 122.1757 30.4822 0.0000 0.2936 0.0000
# 3 18.3507 30.4822 29.4646 0.0000 6.8845 0.0000
# 4 0.0000 0.0000 0.0000 16.8921 0.0000 -12.4900
# 5 10.8774 0.2936 6.8845 0.0000 12.8887 0.0000
# 6 0.0000 0.0000 0.0000 -12.4900 0.0000 11.8512
#
#
#
# Elastic Compliance Matrix: (Units=1/GPa)
#
#
# Indices 1 2 3 4 5 6 
#
# 1 0.126177 0.002115 -0.063848 0.000000 -0.072430 0.000000
# 2 0.002115 0.011595 -0.014665 0.000000 0.005784 0.000000
# 3 -0.063848 -0.014665 0.087074 0.000000 0.007708 0.000000
# 4 0.000000 0.000000 0.000000 0.268178 0.000000 0.282633
# 5 -0.072430 0.005784 0.007708 0.000000 0.134465 0.000000
# 6 0.000000 0.000000 0.000000 0.282633 0.000000 0.382246
#
#
# Mechanical properties :
#
#
# Convention : Reuss Voigt Hill
#
# Bulk Modulus (GPa) = 13.87907 33.29159 23.58533
# Shear Modulus (GPa) = 4.21391 15.82578 10.01984
#
# Velocity S-wave (km/s) = 1.54001 2.98445 2.37472
# Velocity P-wave (km/s) = 3.31262 5.53288 4.55995
#
# Compressibility (1/GPa) = 0.07205093
#
# Stress axis : x y z
#
# Youngs Moduli (GPa) = 7.92540 86.24222 11.48444
#
# Poissons Ratio (x) = -0.18243 0.73326
# Poissons Ratio (y) = -0.01676 0.16841
# Poissons Ratio (z) = 0.50602 1.26470
#
# Static dielectric constant tensor:
#      x y z
#    x 1.599080 0.000000 -0.048360 
#    y 0.000000 1.653370 0.000000 
#    z -0.048360 0.000000 1.618400 
# 
# From -- ./inp_files/155986.got.cif
#   From: 2010.05.17/outbox.cif.g08.bks.cpg/sg12_78_cif.got.tgz:155986.got - 2010.06.03 13:09:07.
