data_PCOD9218580
_publ_section_title
;
Structure prediction by ZEFSAII (Michael W. Deem and Ramdas Pophale) SiO2 
 PCOD9218580
Probable space group: C 2/M
;
_chemical_formula_sum "Si O2"
_cell_formula_units_Z 56
_cell_length_a 5.412461
_cell_length_b 22.976796
_cell_length_c 21.638740
_cell_angle_alpha 90.000000
_cell_angle_beta 70.083206
_cell_angle_gamma 90.000000
_cell_volume 2530.061440
_symmetry_space_group_name_H-M "C 2/M"
_symmetry_group_IT_number 12
_symmetry_cell_setting 'monoclinic'
loop_
_space_group_symop_operation_xyz
x,y,z
-x,y,-z
-x,-y,-z
x,-y,z
1/2+x,1/2+y,z
1/2-x,1/2+y,-z
1/2-x,1/2-y,-z
1/2+x,1/2-y,z
loop_
_atom_site_type_symbol
_atom_site_label
_atom_site_fract_x
_atom_site_fract_y
_atom_site_fract_z
Si Si1 0.768232 0.905285 0.285385
Si Si2 0.316783 0.218411 0.267447
Si Si3 0.040206 0.066730 0.597270
Si Si4 0.138648 0.333112 0.616062
Si Si5 0.199281 0.385034 0.819310
Si Si6 0.500000 0.854387 0.500000
Si Si7 0.609198 0.214426 0.921243
Si Si8 0.007809 0.500000 0.774209
O O1 0.917522 0.932980 0.332150
O O2 0.636428 0.848296 0.326810
O O3 0.987790 0.892511 0.215809
O O4 0.569441 0.950089 0.271606
O O5 0.579862 0.255394 0.248659
O O6 0.220340 0.207702 0.346358
O O7 0.379625 0.157213 0.230546
O O8 0.277809 0.102891 0.546531
O O9 0.787716 0.104884 0.601827
O O10 0.026366 0.000000 0.577691
O O11 0.102897 0.316526 0.548547
O O12 0.134916 0.347546 0.885147
O O13 0.075882 0.447921 0.818621
O O14 0.391044 0.253245 0.903680
O O15 0.500000 0.207198 0.000000
#
# Coordination Sequence:
#
# PCOD9218580 Si02
#       8
#     8   8   8   8   8   4   8   4
#     4  11  22  38  63  97 141 183 223 285 360 430
#     4  12  26  43  71 102 133 177 233 298 357 418
#     4  11  22  39  63  92 127 174 227 292 358 430
#     4  11  24  41  63  89 131 171 231 291 364 431
#     4  12  25  43  69 109 148 186 237 296 359 424
#     4  10  25  40  62  88 130 174 226 293 356 448
#     4  10  24  48  80 114 151 200 251 300 352 410
#     4  12  24  38  65 106 142 192 227 287 363 438
#
# _framework density 22.133849000000001
#
# number of rings (size 3 to 8) (size 9 to 14) (size 15 to 20)
#    0.000    0.857    3.571    2.786    7.000    1.714 
#    0.000    1.071    0.000    0.857    0.000    0.000 
#    0.000    0.000    0.000    0.000    0.000    0.000 
#
# Total GULP energy -156111.125208 kJ/mol
# GULP energy per Si atom -5575.397329 kJ/mol
# Density = 2.208347 g / cm^3
# Si number density = 22.133849 Si / 1000 Ang^3
#
#
#
# Elastic Constant Matrix: (Units=GPa)
#
#
# Indices 1 2 3 4 5 6 
#
# 1 94.0310 38.0081 36.1858 0.0000 11.9103 0.0000
# 2 38.0081 124.1360 42.4797 0.0000 13.0110 0.0000
# 3 36.1858 42.4797 102.8376 0.0000 17.6782 0.0000
# 4 0.0000 0.0000 0.0000 26.8259 0.0000 22.6507
# 5 11.9103 13.0110 17.6782 0.0000 25.8432 0.0000
# 6 0.0000 0.0000 0.0000 22.6507 0.0000 29.3248
#
#
#
# Elastic Compliance Matrix: (Units=1/GPa)
#
#
# Indices 1 2 3 4 5 6 
#
# 1 0.013258 -0.002728 -0.003087 0.000000 -0.002625 0.000000
# 2 -0.002728 0.010071 -0.002884 0.000000 -0.001840 0.000000
# 3 -0.003087 -0.002884 0.013041 0.000000 -0.006046 0.000000
# 4 0.000000 0.000000 0.000000 0.107177 0.000000 -0.082785
# 5 -0.002625 -0.001840 -0.006046 0.000000 0.044967 0.000000
# 6 0.000000 0.000000 0.000000 -0.082785 0.000000 0.098044
#
#
# Mechanical properties :
#
#
# Convention : Reuss Voigt Hill
#
# Bulk Modulus (GPa) = 52.70859 61.59464 57.15162
# Shear Modulus (GPa) = 16.11451 30.02084 23.06767
#
# Velocity S-wave (km/s) = 2.70116 3.68684 3.23180
# Velocity P-wave (km/s) = 5.79600 6.78324 6.30896
#
# Compressibility (1/GPa) = 0.01897224
#
# Stress axis : x y z
#
# Youngs Moduli (GPa) = 75.42693 99.29916 76.68202
#
# Poissons Ratio (x) = 0.27087 0.23672
# Poissons Ratio (y) = 0.20575 0.22113
# Poissons Ratio (z) = 0.23285 0.28635
#
# Static dielectric constant tensor:
#      x y z
#    x 1.905760 0.000000 -0.008540 
#    y 0.000000 1.821700 0.000000 
#    z -0.008540 0.000000 1.832550 
# 
# From -- ./inp_files/298080.got.cif
#   From: 2010.05.17/outbox.cif.g08.bks.cpg/sg12_150_cif.got.tgz:298080.got - 2010.06.03 13:09:07.
