data_PCOD9218516
_publ_section_title
;
Structure prediction by ZEFSAII (Michael W. Deem and Ramdas Pophale) SiO2 
 PCOD9218516
Probable space group: C 2/M
;
_chemical_formula_sum "Si O2"
_cell_formula_units_Z 56
_cell_length_a 20.298229
_cell_length_b 22.126540
_cell_length_c 16.643598
_cell_angle_alpha 90.000000
_cell_angle_beta 159.886185
_cell_angle_gamma 90.000000
_cell_volume 2570.594151
_symmetry_space_group_name_H-M "C 2/M"
_symmetry_group_IT_number 12
_symmetry_cell_setting 'monoclinic'
loop_
_space_group_symop_operation_xyz
x,y,z
-x,y,-z
-x,-y,-z
x,-y,z
1/2+x,1/2+y,z
1/2-x,1/2+y,-z
1/2-x,1/2-y,-z
1/2+x,1/2-y,z
loop_
_atom_site_type_symbol
_atom_site_label
_atom_site_fract_x
_atom_site_fract_y
_atom_site_fract_z
Si Si1 0.698482 0.156390 0.551548
Si Si2 0.192391 0.570469 0.259958
Si Si3 0.991437 0.431972 0.196965
Si Si4 0.076700 0.260780 0.677967
Si Si5 0.409349 0.358537 0.081599
Si Si6 0.597272 0.622626 0.738547
Si Si7 0.722893 0.931004 0.729586
O O1 0.549275 0.115918 0.330408
O O2 0.594111 0.217235 0.459523
O O3 0.752031 0.116830 0.691494
O O4 0.885960 0.165524 0.713221
O O5 0.208136 0.500000 0.253944
O O6 0.391318 0.602730 0.469352
O O7 0.143106 0.571929 0.298309
O O8 0.000000 0.596847 0.000000
O O9 0.994892 0.500000 0.233820
O O10 0.779077 0.417247 0.921563
O O11 0.132797 0.192085 0.757428
O O12 0.000000 0.268133 0.500000
O O13 0.252671 0.305727 0.894226
O O14 0.345236 0.410926 0.946655
O O15 0.415193 0.381657 0.179007
O O16 0.500000 0.927506 0.500000
O O17 0.764439 0.000000 0.752828
#
# Coordination Sequence:
#
# PCOD9218516 Si02
#       7
#     8   8   8   8   8   8   8
#     4  12  23  43  68 100 141 181 223 271 338 397
#     4  10  24  47  70 101 137 171 225 288 343 406
#     4  11  24  43  72 105 139 174 220 281 342 408
#     4  12  27  47  65  98 137 179 234 283 326 400
#     4  12  24  43  67  98 136 181 227 276 330 395
#     4  12  26  45  71  99 133 181 230 277 342 398
#     4  11  22  40  68 100 141 182 220 271 334 405
#
# _framework density 21.784846000000002
#
# number of rings (size 3 to 8) (size 9 to 14) (size 15 to 20)
#    0.000    0.571    5.714    1.714    2.000    5.714 
#    0.000    2.143    0.000    0.000    0.000    0.000 
#    0.000    0.000    0.000    0.000    0.000    0.000 
#
# Total GULP energy -156792.721904 kJ/mol
# GULP energy per Si atom -5599.740068 kJ/mol
# Density = 2.173526 g / cm^3
# Si number density = 21.784846 Si / 1000 Ang^3
#
#
#
# Elastic Constant Matrix: (Units=GPa)
#
#
# Indices 1 2 3 4 5 6 
#
# 1 37.0286 -7.9707 9.9467 0.0000 10.6284 0.0000
# 2 -7.9707 42.9631 -2.0218 0.0002 3.3944 0.0001
# 3 9.9467 -2.0218 100.9907 0.0000 9.6799 0.0001
# 4 0.0000 0.0002 0.0000 3.7805 0.0000 -14.9083
# 5 10.6284 3.3944 9.6799 0.0000 47.8850 0.0000
# 6 0.0000 0.0001 0.0001 -14.9083 0.0000 6.4229
#
#
#
# Elastic Compliance Matrix: (Units=1/GPa)
#
#
# Indices 1 2 3 4 5 6 
#
# 1 0.030905 0.006167 -0.002265 0.000000 -0.006839 0.000000
# 2 0.006167 0.024678 0.000189 0.000000 -0.003156 0.000000
# 3 -0.002265 0.000189 0.010281 0.000000 -0.001589 0.000000
# 4 0.000000 0.000000 0.000000 -0.032443 0.000000 -0.075304
# 5 -0.006839 -0.003156 -0.001589 0.000000 0.022946 0.000000
# 6 0.000000 0.000000 0.000000 -0.075304 0.000000 -0.019096
#
#
# Mechanical properties :
#
#
# Convention : Reuss Voigt Hill
#
# Bulk Modulus (GPa) = 13.50480 20.09898 16.80189
# Shear Modulus (GPa) = 92.98685 23.68624 58.33655
#
# Velocity S-wave (km/s) = 6.54040 3.30097 5.18041
# Velocity P-wave (km/s) = 7.95289 4.87593 6.59633
#
# Compressibility (1/GPa) = 0.07404773
#
# Stress axis : x y z
#
# Youngs Moduli (GPa) = 32.35711 40.52148 97.26621
#
# Poissons Ratio (x) = -0.24991 0.22030
# Poissons Ratio (y) = -0.19956 -0.01840
# Poissons Ratio (z) = 0.07329 -0.00767
#
# Static dielectric constant tensor:
#      x y z
#    x 1.790160 0.000000 -0.010600 
#    y 0.000000 1.738970 0.000000 
#    z -0.010600 0.000000 1.800310 
# 
# From -- ./inp_files/286348.got.cif
#   From: 2010.05.17/outbox.cif.g08.bks.cpg/sg12_144_cif.got.tgz:286348.got - 2010.06.03 13:09:07.
