data_PCOD9218829
_publ_section_title
;
Structure prediction by ZEFSAII (Michael W. Deem and Ramdas Pophale) SiO2 
 PCOD9218829
Probable space group: C 2/M
;
_chemical_formula_sum "Si O2"
_cell_formula_units_Z 56
_cell_length_a 8.850183
_cell_length_b 18.243526
_cell_length_c 31.289987
_cell_angle_alpha 90.000000
_cell_angle_beta 139.120781
_cell_angle_gamma 90.000000
_cell_volume 3306.388775
_symmetry_space_group_name_H-M "C 2/M"
_symmetry_group_IT_number 12
_symmetry_cell_setting 'monoclinic'
loop_
_space_group_symop_operation_xyz
x,y,z
-x,y,-z
-x,-y,-z
x,-y,z
1/2+x,1/2+y,z
1/2-x,1/2+y,-z
1/2-x,1/2-y,-z
1/2+x,1/2-y,z
loop_
_atom_site_type_symbol
_atom_site_label
_atom_site_fract_x
_atom_site_fract_y
_atom_site_fract_z
Si Si1 0.739702 0.202125 0.455095
Si Si2 0.475400 0.804728 0.247647
Si Si3 0.752109 0.216709 0.952959
Si Si4 0.496926 0.304392 0.332497
Si Si5 0.157538 0.585722 0.632816
Si Si6 0.166064 0.085785 0.231931
Si Si7 0.751580 0.695701 0.866059
O O1 0.750000 0.250000 0.500000
O O2 0.631307 0.254223 0.395385
O O3 0.572753 0.132707 0.423868
O O4 0.000000 0.179893 0.500000
O O5 0.474940 0.744268 0.285120
O O6 0.740123 0.821290 0.293465
O O7 0.338017 0.874304 0.235862
O O8 0.348391 0.766098 0.180818
O O9 0.756038 0.278535 0.916564
O O10 0.502759 0.177657 0.899732
O O11 0.750000 0.250000 0.000000
O O12 0.000000 0.176568 0.000000
O O13 0.644144 0.375912 0.352811
O O14 0.130621 0.500000 0.617840
O O15 0.230768 0.594064 0.698228
O O16 0.926782 0.129908 0.178272
O O17 0.138541 0.000000 0.217192
#
# Coordination Sequence:
#
# PCOD9218829 Si02
#       7
#     8   8   8   8   8   8   8
#     4  12  22  37  62  84 105 153 200 235 275 353
#     4  12  19  34  63  88 110 148 196 239 288 342
#     4   9  19  31  53  90 116 145 195 243 266 313
#     4  12  20  37  59  86 113 146 192 243 292 341
#     4  11  24  41  58  86 121 148 186 248 305 342
#     4  11  23  37  57  90 123 148 184 245 307 346
#     4  11  17  33  59  86 111 152 192 236 278 341
#
# _framework density 16.936906
#
# number of rings (size 3 to 8) (size 9 to 14) (size 15 to 20)
#    0.000    0.857    8.571    0.000    0.000    0.857 
#    0.000    1.429    0.000    4.286    0.000    0.000 
#    0.000    0.000    0.000    0.000    0.000    0.000 
#
# Total GULP energy -156234.086376 kJ/mol
# GULP energy per Si atom -5579.788799 kJ/mol
# Density = 1.689836 g / cm^3
# Si number density = 16.936906 Si / 1000 Ang^3
#
#
#
# Elastic Constant Matrix: (Units=GPa)
#
#
# Indices 1 2 3 4 5 6 
#
# 1 145.1016 62.9613 50.5149 0.0000 45.4066 0.0000
# 2 62.9613 123.7744 40.1129 0.0000 21.4456 0.0000
# 3 50.5149 40.1129 79.2391 0.0001 20.9559 0.0000
# 4 0.0000 0.0000 0.0001 7.8567 0.0000 1.3173
# 5 45.4066 21.4456 20.9559 0.0000 53.9094 0.0000
# 6 0.0000 0.0000 0.0000 1.3173 0.0000 26.5319
#
#
#
# Elastic Compliance Matrix: (Units=1/GPa)
#
#
# Indices 1 2 3 4 5 6 
#
# 1 0.012102 -0.003618 -0.003977 0.000000 -0.007208 0.000000
# 2 -0.003618 0.010979 -0.003235 0.000000 -0.000063 0.000000
# 3 -0.003977 -0.003235 0.017350 0.000000 -0.002108 0.000000
# 4 0.000000 0.000000 0.000000 0.128348 0.000000 -0.006372
# 5 -0.007208 -0.000063 -0.002108 0.000000 0.025465 0.000000
# 6 0.000000 0.000000 0.000000 -0.006372 0.000000 0.038007
#
#
# Mechanical properties :
#
#
# Convention : Reuss Voigt Hill
#
# Bulk Modulus (GPa) = 53.27317 72.81036 63.04177
# Shear Modulus (GPa) = 19.21839 30.62800 24.92319
#
# Velocity S-wave (km/s) = 3.37219 4.25709 3.84022
# Velocity P-wave (km/s) = 6.83260 8.20038 7.54754
#
# Compressibility (1/GPa) = 0.01877118
#
# Stress axis : x y z
#
# Youngs Moduli (GPa) = 82.63273 91.08435 57.63573
#
# Poissons Ratio (x) = 0.32956 0.22922
# Poissons Ratio (y) = 0.29898 0.18643
# Poissons Ratio (z) = 0.32863 0.29463
#
# Static dielectric constant tensor:
#      x y z
#    x 1.595760 0.000000 0.014560 
#    y 0.000000 1.525180 0.000000 
#    z 0.014560 0.000000 1.617140 
# 
# From -- ./inp_files/333158.got.cif
#   From: 2010.05.17/outbox.cif.g08.bks.cpg/sg12_167_cif.got.tgz:333158.got - 2010.06.03 13:09:07.
