data_PCOD9218954
_publ_section_title
;
Structure prediction by ZEFSAII (Michael W. Deem and Ramdas Pophale) SiO2 
 PCOD9218954
Probable space group: C 2/M
;
_chemical_formula_sum "Si O2"
_cell_formula_units_Z 32
_cell_length_a 29.302683
_cell_length_b 10.386807
_cell_length_c 21.237424
_cell_angle_alpha 90.000000
_cell_angle_beta 167.834136
_cell_angle_gamma 90.000000
_cell_volume 1362.207501
_symmetry_space_group_name_H-M "C 2/M"
_symmetry_group_IT_number 12
_symmetry_cell_setting 'monoclinic'
loop_
_space_group_symop_operation_xyz
x,y,z
-x,y,-z
-x,-y,-z
x,-y,z
1/2+x,1/2+y,z
1/2-x,1/2+y,-z
1/2-x,1/2-y,-z
1/2+x,1/2-y,z
loop_
_atom_site_type_symbol
_atom_site_label
_atom_site_fract_x
_atom_site_fract_y
_atom_site_fract_z
Si Si1 0.708285 0.500000 0.867438
Si Si2 0.347636 0.264624 0.851444
Si Si3 0.045984 0.150919 0.747539
Si Si4 0.061351 0.854726 0.257231
Si Si5 0.310331 0.000000 0.864413
O O1 0.735766 0.621528 0.952298
O O2 0.839315 0.500000 0.979331
O O3 0.453883 0.500000 0.501880
O O4 0.117203 0.243854 0.508781
O O5 0.612519 0.349688 0.033803
O O6 0.402473 0.123852 0.953655
O O7 0.500000 0.304714 0.000000
O O8 0.056734 0.175804 0.836063
O O9 0.955167 0.000000 0.626853
O O10 0.250000 0.750000 0.500000
O O11 0.151030 0.000000 0.379645
#
# Coordination Sequence:
#
# PCOD9218954 Si02
#       5
#     4   8   8   8   4
#     4   7  14  32  54  76 106 133 195 213 261 303
#     4  11  19  30  52  82 111 135 178 224 269 312
#     4   8  17  34  54  72 108 143 174 222 258 317
#     4  11  23  35  53  79 111 147 176 217 273 325
#     4   9  17  28  56  86  98 141 185 225 253 329
#
# _framework density 23.491281000000001
#
# number of rings (size 3 to 8) (size 9 to 14) (size 15 to 20)
#    0.750    1.750    3.750    0.375    1.750    0.500 
#    0.000    1.250    0.000    0.000    0.000   14.000 
#    0.000    0.000    0.000    0.000    0.000    0.000 
#
# Total GULP energy -89100.854935 kJ/mol
# GULP energy per Si atom -5568.803433 kJ/mol
# Density = 2.343781 g / cm^3
# Si number density = 23.491281 Si / 1000 Ang^3
#
#
#
# Elastic Constant Matrix: (Units=GPa)
#
#
# Indices 1 2 3 4 5 6 
#
# 1 269.5926 32.2617 41.5529 -0.0022 -29.5103 0.0010
# 2 32.2617 78.3248 19.6214 -0.0114 -1.2092 0.0042
# 3 41.5529 19.6214 72.0700 -0.0614 -23.4048 0.0219
# 4 -0.0022 -0.0114 -0.0614 -737.9778 -0.0070 211.0358
# 5 -29.5103 -1.2092 -23.4048 -0.0070 24.8062 0.0030
# 6 0.0010 0.0042 0.0219 211.0358 0.0030 -20.8663
#
#
#
# Elastic Compliance Matrix: (Units=1/GPa)
#
#
# Indices 1 2 3 4 5 6 
#
# 1 0.004516 -0.001628 -0.000637 0.000000 0.004692 0.000000
# 2 -0.001628 0.014586 -0.004946 0.000000 -0.005892 0.000000
# 3 -0.000637 -0.004946 0.022008 -0.000003 0.019766 -0.000003
# 4 0.000000 0.000000 -0.000003 0.000716 -0.000003 0.007243
# 5 0.004692 -0.005892 0.019766 -0.000003 0.064257 -0.000004
# 6 0.000000 0.000000 -0.000003 0.007243 -0.000004 0.025328
#
#
# Mechanical properties :
#
#
# Convention : Reuss Voigt Hill
#
# Bulk Modulus (GPa) = 37.46920 67.42883 52.44901
# Shear Modulus (GPa) = 32.31469 -125.03747 -46.36139
#
# Velocity S-wave (km/s) = 3.71294 -7.30361 -4.44729
# Velocity P-wave (km/s) = 5.86226 6.50827 1.99893
#
# Compressibility (1/GPa) = 0.02668859
#
# Stress axis : x y z
#
# Youngs Moduli (GPa) = 221.44043 68.55872 45.43776
#
# Poissons Ratio (x) = 0.11162 0.02893
# Poissons Ratio (y) = 0.36054 0.22473
# Poissons Ratio (z) = 0.14097 0.33909
#
# Static dielectric constant tensor:
#      x y z
#    x 1.890460 0.000000 -0.004200 
#    y 0.000000 1.482410 -0.000060 
#    z -0.004200 -0.000060 1.946010 
# 
# From -- ./inp_files/327531.got.cif
#   From: 2010.05.17/outbox.cif.g08.bks.cpg/sg12_164_cif.got.tgz:327531.got - 2010.06.03 13:09:07.
