data_PCOD9218185
_publ_section_title
;
Structure prediction by ZEFSAII (Michael W. Deem and Ramdas Pophale) SiO2 
 PCOD9218185
Probable space group: C 2/M
;
_chemical_formula_sum "Si O2"
_cell_formula_units_Z 44
_cell_length_a 20.887158
_cell_length_b 19.523188
_cell_length_c 5.031928
_cell_angle_alpha 90.000000
_cell_angle_beta 80.427470
_cell_angle_gamma 90.000000
_cell_volume 2023.367837
_symmetry_space_group_name_H-M "C 2/M"
_symmetry_group_IT_number 12
_symmetry_cell_setting 'monoclinic'
loop_
_space_group_symop_operation_xyz
x,y,z
-x,y,-z
-x,-y,-z
x,-y,z
1/2+x,1/2+y,z
1/2-x,1/2+y,-z
1/2-x,1/2-y,-z
1/2+x,1/2-y,z
loop_
_atom_site_type_symbol
_atom_site_label
_atom_site_fract_x
_atom_site_fract_y
_atom_site_fract_z
Si Si1 0.192908 0.500000 0.878372
Si Si2 0.290345 0.500000 0.285987
Si Si3 0.068008 0.245564 0.077947
Si Si4 0.124395 0.871410 0.673624
Si Si5 0.500000 0.637470 0.500000
Si Si6 0.747192 0.174198 0.609980
Si Si7 0.666648 0.860719 0.154370
O O1 0.237345 0.500000 0.573597
O O2 0.248668 0.500000 0.054960
O O3 0.153211 0.432058 0.002566
O O4 0.336551 0.433994 0.227864
O O5 0.044264 0.187906 0.297175
O O6 0.107053 0.307553 0.183937
O O7 0.109293 0.199535 0.840600
O O8 0.000000 0.271692 0.000000
O O9 0.179164 0.851994 0.420881
O O10 0.054184 0.899765 0.634225
O O11 0.750000 0.250000 0.500000
O O12 0.700011 0.136076 0.423709
O O13 0.719046 0.171894 0.921172
#
# Coordination Sequence:
#
# PCOD9218185 Si02
#       7
#     4   4   8   8   4   8   8
#     4  12  24  44  61 105 133 174 210 271 342 394
#     4  12  26  41  67  95 142 170 214 271 326 400
#     4  10  24  43  65  95 130 172 225 272 328 385
#     4  11  23  41  64  94 133 173 215 268 327 389
#     4  10  24  43  64  91 128 178 222 274 318 391
#     4  12  23  37  67 101 126 165 221 273 333 384
#     4  12  24  41  68  96 135 170 211 280 331 388
#
# _framework density 21.745923000000001
#
# number of rings (size 3 to 8) (size 9 to 14) (size 15 to 20)
#    0.000    0.727    5.455    1.636    7.636    0.364 
#    0.000    4.545    0.000    0.545    0.000    0.000 
#    0.000    0.000    0.000    0.000    0.000    0.000 
#
# Total GULP energy -122541.832770 kJ/mol
# GULP energy per Si atom -5570.083308 kJ/mol
# Density = 2.169643 g / cm^3
# Si number density = 21.745923 Si / 1000 Ang^3
#
#
#
# Elastic Constant Matrix: (Units=GPa)
#
#
# Indices 1 2 3 4 5 6 
#
# 1 109.3250 14.7698 20.2005 0.0000 3.6068 0.0000
# 2 14.7698 65.5845 -16.2127 0.0000 5.4141 0.0000
# 3 20.2005 -16.2127 72.8789 0.0000 7.2848 0.0000
# 4 0.0000 0.0000 0.0000 15.3258 0.0000 4.3786
# 5 3.6068 5.4141 7.2848 0.0000 26.7252 0.0000
# 6 0.0000 0.0000 0.0000 4.3786 0.0000 37.2887
#
#
#
# Elastic Compliance Matrix: (Units=1/GPa)
#
#
# Indices 1 2 3 4 5 6 
#
# 1 0.010233 -0.003208 -0.003574 0.000000 0.000243 0.000000
# 2 -0.003208 0.017652 0.005274 0.000000 -0.004581 0.000000
# 3 -0.003574 0.005274 0.016391 0.000000 -0.005054 0.000000
# 4 0.000000 0.000000 0.000000 0.067514 0.000000 -0.007928
# 5 0.000243 -0.004581 -0.005054 0.000000 0.039691 0.000000
# 6 0.000000 0.000000 0.000000 -0.007928 0.000000 0.027749
#
#
# Mechanical properties :
#
#
# Convention : Reuss Voigt Hill
#
# Bulk Modulus (GPa) = 24.23762 31.70040 27.96901
# Shear Modulus (GPa) = 25.51039 31.13668 28.32353
#
# Velocity S-wave (km/s) = 3.42879 3.78807 3.61290
# Velocity P-wave (km/s) = 5.18126 5.80878 5.50397
#
# Compressibility (1/GPa) = 0.04125818
#
# Stress axis : x y z
#
# Youngs Moduli (GPa) = 97.72424 56.65132 61.01088
#
# Poissons Ratio (x) = 0.18174 0.21807
# Poissons Ratio (y) = 0.31351 -0.32177
# Poissons Ratio (z) = 0.34930 -0.29878
#
# Static dielectric constant tensor:
#      x y z
#    x 1.897680 0.000000 0.032170 
#    y 0.000000 1.923670 0.000000 
#    z 0.032170 0.000000 1.893260 
# 
# From -- ./inp_files/16106.got.cif
#   From: 2010.05.17/outbox.cif.g08.bks.cpg/sg12_9_cif.got.tgz:16106.got - 2010.06.03 13:09:07.
