data_PCOD9218038
_publ_section_title
;
Structure prediction by ZEFSAII (Michael W. Deem and Ramdas Pophale) SiO2 
 PCOD9218038
Probable space group: C 2/M
;
_chemical_formula_sum "Si O2"
_cell_formula_units_Z 44
_cell_length_a 17.952014
_cell_length_b 16.048831
_cell_length_c 10.463079
_cell_angle_alpha 90.000000
_cell_angle_beta 135.032403
_cell_angle_gamma 90.000000
_cell_volume 2130.371479
_symmetry_space_group_name_H-M "C 2/M"
_symmetry_group_IT_number 12
_symmetry_cell_setting 'monoclinic'
loop_
_space_group_symop_operation_xyz
x,y,z
-x,y,-z
-x,-y,-z
x,-y,z
1/2+x,1/2+y,z
1/2-x,1/2+y,-z
1/2-x,1/2-y,-z
1/2+x,1/2-y,z
loop_
_atom_site_type_symbol
_atom_site_label
_atom_site_fract_x
_atom_site_fract_y
_atom_site_fract_z
Si Si1 0.122304 0.000000 0.101275
Si Si2 0.089334 0.500000 0.219841
Si Si3 0.670920 0.349385 0.971542
Si Si4 0.828899 0.000000 0.557733
Si Si5 0.931990 0.822279 0.624801
Si Si6 0.723591 0.690975 0.775842
Si Si7 0.903586 0.318290 0.787926
O O1 0.189994 0.000000 0.312818
O O2 0.148247 0.078570 0.044633
O O3 0.000000 0.000000 0.000000
O O4 0.216201 0.500000 0.350663
O O5 0.074288 0.406270 0.257088
O O6 0.000000 0.500000 0.000000
O O7 0.556424 0.313687 0.794537
O O8 0.720948 0.370856 0.894142
O O9 0.740970 0.279248 0.123575
O O10 0.895618 0.917033 0.609077
O O11 0.886850 0.803749 0.430741
O O12 0.883860 0.757177 0.667874
O O13 0.806646 0.669263 0.766555
O O14 0.000000 0.297368 0.000000
#
# Coordination Sequence:
#
# PCOD9218038 Si02
#       7
#     4   4   8   4   8   8   8
#     4  12  24  42  68  99 137 173 219 291 348 407
#     4  10  24  41  60  99 127 167 221 276 327 394
#     4  11  25  43  63  97 135 178 218 278 348 408
#     4  12  24  37  68 106 124 164 231 269 344 405
#     4  12  23  41  69  98 132 174 222 282 335 407
#     4  11  24  41  64  96 133 179 218 266 345 406
#     4  11  22  41  68  93 130 175 221 277 329 392
#
# _framework density 20.653673999999999
#
# number of rings (size 3 to 8) (size 9 to 14) (size 15 to 20)
#    0.000    0.727    5.455    2.182    2.545    1.455 
#    0.000    1.818    0.000    0.000    0.000    6.364 
#    0.000    0.000    0.000    0.000    0.000    0.000 
#
# Total GULP energy -122742.337633 kJ/mol
# GULP energy per Si atom -5579.197165 kJ/mol
# Density = 2.060667 g / cm^3
# Si number density = 20.653674 Si / 1000 Ang^3
#
#
#
# Elastic Constant Matrix: (Units=GPa)
#
#
# Indices 1 2 3 4 5 6 
#
# 1 88.2181 37.6755 23.5891 0.0000 -19.5241 0.0000
# 2 37.6755 134.0551 49.3216 0.0000 -21.0579 0.0000
# 3 23.5891 49.3216 110.4538 0.0000 -7.2432 0.0000
# 4 0.0000 0.0000 0.0000 7.6972 0.0000 13.6697
# 5 -19.5241 -21.0579 -7.2432 0.0000 33.0367 0.0000
# 6 0.0000 0.0000 0.0000 13.6697 0.0000 14.2101
#
#
#
# Elastic Compliance Matrix: (Units=1/GPa)
#
#
# Indices 1 2 3 4 5 6 
#
# 1 0.014219 -0.002405 -0.001534 0.000000 0.006534 0.000000
# 2 -0.002405 0.010184 -0.003756 0.000000 0.004247 0.000000
# 3 -0.001534 -0.003756 0.011000 0.000000 -0.000889 0.000000
# 4 0.000000 0.000000 0.000000 -0.183396 0.000000 0.176422
# 5 0.006534 0.004247 -0.000889 0.000000 0.036643 0.000000
# 6 0.000000 0.000000 0.000000 0.176422 0.000000 -0.099341
#
#
# Mechanical properties :
#
#
# Convention : Reuss Voigt Hill
#
# Bulk Modulus (GPa) = 49.96692 61.54437 55.75565
# Shear Modulus (GPa) = -26.50706 25.79819 -0.35444
#
# Velocity S-wave (km/s) = -3.58635 3.53807 -0.41471
# Velocity P-wave (km/s) = 2.66384 6.82302 5.17927
#
# Compressibility (1/GPa) = 0.02001324
#
# Stress axis : x y z
#
# Youngs Moduli (GPa) = 70.32823 98.18857 90.90991
#
# Poissons Ratio (x) = 0.23619 0.13947
# Poissons Ratio (y) = 0.16917 0.34142
# Poissons Ratio (z) = 0.10789 0.36875
#
# Static dielectric constant tensor:
#      x y z
#    x 1.785870 0.000000 0.028580 
#    y 0.000000 1.757890 0.000000 
#    z 0.028580 0.000000 1.756600 
# 
# From -- ./inp_files/167453.got.cif
#   From: 2010.05.17/outbox.cif.g08.bks.cpg/sg12_84_cif.got.tgz:167453.got - 2010.06.03 13:09:07.
