data_PCOD9218431
_publ_section_title
;
Structure prediction by ZEFSAII (Michael W. Deem and Ramdas Pophale) SiO2 
 PCOD9218431
Probable space group: C 2/M
;
_chemical_formula_sum "Si O2"
_cell_formula_units_Z 44
_cell_length_a 23.415324
_cell_length_b 7.950965
_cell_length_c 18.858146
_cell_angle_alpha 90.000000
_cell_angle_beta 35.647648
_cell_angle_gamma 90.000000
_cell_volume 2046.151430
_symmetry_space_group_name_H-M "C 2/M"
_symmetry_group_IT_number 12
_symmetry_cell_setting 'monoclinic'
loop_
_space_group_symop_operation_xyz
x,y,z
-x,y,-z
-x,-y,-z
x,-y,z
1/2+x,1/2+y,z
1/2-x,1/2+y,-z
1/2-x,1/2-y,-z
1/2+x,1/2-y,z
loop_
_atom_site_type_symbol
_atom_site_label
_atom_site_fract_x
_atom_site_fract_y
_atom_site_fract_z
Si Si1 0.308933 0.803824 0.645115
Si Si2 0.328659 0.000000 0.028841
Si Si3 0.128625 0.000000 0.164227
Si Si4 0.484326 0.251207 0.820436
Si Si5 0.352176 0.500000 0.695844
Si Si6 0.847271 0.203427 0.444540
Si Si7 0.414405 0.796878 0.144570
O O1 0.365016 0.670087 0.638696
O O2 0.335060 0.755681 0.538080
O O3 0.191959 0.769791 0.770923
O O4 0.329610 0.000000 0.638745
O O5 0.403242 0.149962 0.945556
O O6 0.246005 0.000000 0.051312
O O7 0.263073 0.000000 0.164524
O O8 0.095549 0.000000 0.280124
O O9 0.085632 0.149172 0.162105
O O10 0.565863 0.195449 0.681674
O O11 0.553664 0.302399 0.816349
O O12 0.750000 0.250000 0.500000
O O13 0.865998 0.000000 0.420209
O O14 0.406366 0.000000 0.168798
O O15 0.500000 0.776891 0.000000
#
# Coordination Sequence:
#
# PCOD9218431 Si02
#       7
#     8   4   4   8   4   8   8
#     4  12  25  44  71 108 146 191 246 301 372 444
#     4  10  24  45  73  99 140 191 240 305 362 425
#     4  10  26  47  72 102 142 193 252 302 368 426
#     4  12  23  44  69 106 138 192 249 291 365 444
#     4  10  24  52  72 103 147 195 238 306 375 428
#     4  12  25  42  69 104 152 194 237 303 363 446
#     4  11  23  41  67 103 151 191 232 298 383 440
#
# _framework density 21.503785000000001
#
# number of rings (size 3 to 8) (size 9 to 14) (size 15 to 20)
#    0.545    0.182    5.455    2.182    3.818    0.364 
#    6.545    1.818    0.000    1.091    0.000    0.000 
#    0.000    0.000    0.000    0.000    0.000    0.000 
#
# Total GULP energy -122564.015363 kJ/mol
# GULP energy per Si atom -5571.091607 kJ/mol
# Density = 2.145484 g / cm^3
# Si number density = 21.503785 Si / 1000 Ang^3
#
#
#
# Elastic Constant Matrix: (Units=GPa)
#
#
# Indices 1 2 3 4 5 6 
#
# 1 85.7911 34.6085 -20.0225 -0.0024 24.8664 -0.0008
# 2 34.6085 117.2079 10.4047 -0.0003 23.7541 0.0013
# 3 -20.0225 10.4047 94.1309 -0.0020 16.5672 -0.0003
# 4 -0.0024 -0.0003 -0.0020 13.7001 -0.0002 -6.6698
# 5 24.8664 23.7541 16.5672 -0.0002 49.8631 -0.0009
# 6 -0.0008 0.0013 -0.0003 -6.6698 -0.0009 13.9124
#
#
#
# Elastic Compliance Matrix: (Units=1/GPa)
#
#
# Indices 1 2 3 4 5 6 
#
# 1 0.016916 -0.003767 0.005505 0.000005 -0.008471 0.000003
# 2 -0.003767 0.010289 -0.001494 -0.000002 -0.002527 -0.000002
# 3 0.005505 -0.001494 0.013083 0.000004 -0.006381 0.000002
# 4 0.000005 -0.000002 0.000004 0.095215 -0.000002 0.045648
# 5 -0.008471 -0.002527 -0.006381 -0.000002 0.027603 0.000001
# 6 0.000003 -0.000002 0.000002 0.045648 0.000001 0.093763
#
#
# Mechanical properties :
#
#
# Convention : Reuss Voigt Hill
#
# Bulk Modulus (GPa) = 24.52389 38.56793 31.54591
# Shear Modulus (GPa) = 18.52054 33.63773 26.07913
#
# Velocity S-wave (km/s) = 2.93792 3.95938 3.48626
# Velocity P-wave (km/s) = 4.78933 6.23511 5.55942
#
# Compressibility (1/GPa) = 0.04077657
#
# Stress axis : x y z
#
# Youngs Moduli (GPa) = 59.11632 97.19336 76.43715
#
# Poissons Ratio (x) = 0.36611 -0.42081
# Poissons Ratio (y) = 0.22268 0.11418
# Poissons Ratio (z) = -0.32545 0.14519
#
# Static dielectric constant tensor:
#      x y z
#    x 1.734210 0.000000 0.001460 
#    y 0.000000 1.832060 0.000000 
#    z 0.001460 0.000000 1.760850 
# 
# From -- ./inp_files/288130.got.cif
#   From: 2010.05.17/outbox.cif.g08.bks.cpg/sg12_145_cif.got.tgz:288130.got - 2010.06.03 13:09:07.
