data_PCOD9218779
_publ_section_title
;
Structure prediction by ZEFSAII (Michael W. Deem and Ramdas Pophale) SiO2 
 PCOD9218779
Probable space group: C 2/M
;
_chemical_formula_sum "Si O2"
_cell_formula_units_Z 24
_cell_length_a 9.698996
_cell_length_b 11.964787
_cell_length_c 10.317421
_cell_angle_alpha 90.000000
_cell_angle_beta 63.046267
_cell_angle_gamma 90.000000
_cell_volume 1067.240504
_symmetry_space_group_name_H-M "C 2/M"
_symmetry_group_IT_number 12
_symmetry_cell_setting 'monoclinic'
loop_
_space_group_symop_operation_xyz
x,y,z
-x,y,-z
-x,-y,-z
x,-y,z
1/2+x,1/2+y,z
1/2-x,1/2+y,-z
1/2-x,1/2-y,-z
1/2+x,1/2-y,z
loop_
_atom_site_type_symbol
_atom_site_label
_atom_site_fract_x
_atom_site_fract_y
_atom_site_fract_z
Si Si1 0.367096 0.627649 0.300439
Si Si2 0.156238 0.721537 0.170189
Si Si3 0.683687 0.500000 0.444833
Si Si4 0.521900 0.000000 0.837499
O O1 0.383944 0.500000 0.240984
O O2 0.271229 0.699843 0.239921
O O3 0.533663 0.681545 0.249764
O O4 0.285213 0.605999 0.473633
O O5 0.060157 0.608589 0.186434
O O6 0.250000 0.750000 0.000000
O O7 0.500000 0.500000 0.500000
O O8 0.798030 0.500000 0.277220
O O9 0.500000 0.000000 0.000000
#
# Coordination Sequence:
#
# PCOD9218779 Si02
#       4
#     8   8   4   4
#     4  10  26  50  74 109 155 202 260 311 392 454
#     4  12  26  46  78 115 155 206 249 327 390 455
#     4  10  27  51  76 112 155 207 258 325 384 462
#     4  12  27  47  76 116 155 194 270 318 388 468
#
# _framework density 22.487902999999999
#
# number of rings (size 3 to 8) (size 9 to 14) (size 15 to 20)
#    1.000    0.000    1.667    3.000   11.667    5.333 
#    0.000    0.000    0.000    0.000    0.000    0.000 
#    0.000    0.000    0.000    0.000    0.000    0.000 
#
# Total GULP energy -67173.519488 kJ/mol
# GULP energy per Si atom -5597.793291 kJ/mol
# Density = 2.243672 g / cm^3
# Si number density = 22.487903 Si / 1000 Ang^3
#
#
#
# Elastic Constant Matrix: (Units=GPa)
#
#
# Indices 1 2 3 4 5 6 
#
# 1 128.4888 70.2110 55.8464 0.0000 -0.1020 0.0000
# 2 70.2110 72.5384 36.3889 0.0000 -10.6660 0.0000
# 3 55.8464 36.3889 170.5558 0.0000 -15.4285 0.0000
# 4 0.0000 0.0000 0.0000 31.7984 0.0000 -0.5157
# 5 -0.1020 -10.6660 -15.4285 0.0000 40.0300 0.0000
# 6 0.0000 0.0000 0.0000 -0.5157 0.0000 56.6484
#
#
#
# Elastic Compliance Matrix: (Units=1/GPa)
#
#
# Indices 1 2 3 4 5 6 
#
# 1 0.018455 -0.017253 -0.002874 0.000000 -0.005658 0.000000
# 2 -0.017253 0.031911 -0.000408 0.000000 0.008301 0.000000
# 3 -0.002874 -0.000408 0.007129 0.000000 0.002632 0.000000
# 4 0.000000 0.000000 0.000000 0.031453 0.000000 0.000286
# 5 -0.005658 0.008301 0.002632 0.000000 0.028193 0.000000
# 6 0.000000 0.000000 0.000000 0.000286 0.000000 0.017655
#
#
# Mechanical properties :
#
#
# Convention : Reuss Voigt Hill
#
# Bulk Modulus (GPa) = 60.88158 77.38617 69.13388
# Shear Modulus (GPa) = 27.57227 39.63779 33.60503
#
# Velocity S-wave (km/s) = 3.50536 4.20292 3.86989
# Velocity P-wave (km/s) = 6.59661 7.61838 7.12583
#
# Compressibility (1/GPa) = 0.01642533
#
# Stress axis : x y z
#
# Youngs Moduli (GPa) = 54.18543 31.33725 140.26760
#
# Poissons Ratio (x) = 0.54067 0.40308
# Poissons Ratio (y) = 0.93488 0.05723
# Poissons Ratio (z) = 0.15571 0.01279
#
# Static dielectric constant tensor:
#      x y z
#    x 1.825890 0.000000 0.040290 
#    y 0.000000 1.843770 0.000000 
#    z 0.040290 0.000000 1.810870 
# 
# From -- ./inp_files/35910.got.cif
#   From: 2010.05.17/outbox.cif.g08.bks.cpg/sg12_18_cif.got.tgz:35910.got - 2010.06.03 13:09:07.
