data_PCOD9218567
_publ_section_title
;
Structure prediction by ZEFSAII (Michael W. Deem and Ramdas Pophale) SiO2 
 PCOD9218567
Probable space group: C 2/M
;
_chemical_formula_sum "Si O2"
_cell_formula_units_Z 42
_cell_length_a 17.174986
_cell_length_b 20.051870
_cell_length_c 6.575477
_cell_angle_alpha 90.000000
_cell_angle_beta 70.440151
_cell_angle_gamma 90.000000
_cell_volume 2133.851414
_symmetry_space_group_name_H-M "C 2/M"
_symmetry_group_IT_number 12
_symmetry_cell_setting 'monoclinic'
loop_
_space_group_symop_operation_xyz
x,y,z
-x,y,-z
-x,-y,-z
x,-y,z
1/2+x,1/2+y,z
1/2-x,1/2+y,-z
1/2-x,1/2-y,-z
1/2+x,1/2-y,z
loop_
_atom_site_type_symbol
_atom_site_label
_atom_site_fract_x
_atom_site_fract_y
_atom_site_fract_z
Si Si1 0.906364 0.424717 0.001662
Si Si2 0.907435 0.316162 0.653902
Si Si3 0.282319 0.871938 0.438331
Si Si4 0.688968 0.302571 0.160811
Si Si5 0.500000 0.500000 0.000000
Si Si6 0.170071 0.071331 0.885627
O O1 0.901709 0.500000 0.923146
O O2 0.841687 0.415242 0.241098
O O3 0.888512 0.369004 0.848660
O O4 0.000000 0.414660 0.000000
O O5 0.843043 0.329901 0.529699
O O6 0.893784 0.240482 0.737807
O O7 0.000000 0.327946 0.500000
O O8 0.227713 0.825840 0.339410
O O9 0.222192 0.913188 0.638282
O O10 0.750000 0.250000 0.000000
O O11 0.678970 0.367624 0.031279
O O12 0.425917 0.556821 0.076276
O O13 0.200508 0.000000 0.949079
#
# Coordination Sequence:
#
# PCOD9218567 Si02
#       6
#     8   8   8   8   2   8
#     4  11  24  42  66 100 139 179 233 286 338 417
#     4  12  26  44  66 104 139 185 238 291 350 418
#     4  12  23  43  73 100 137 191 228 284 355 422
#     4  12  25  44  70 104 140 183 237 287 348 425
#     4   8  24  52  70 112 132 180 226 312 344 398
#     4  10  24  48  73 101 141 178 236 291 351 419
#
# _framework density 19.682718999999999
#
# number of rings (size 3 to 8) (size 9 to 14) (size 15 to 20)
#    0.571    0.190    5.714    1.143    0.000    6.476 
#    1.714    0.952    0.000    0.000    0.000    0.000 
#    0.000    0.000    0.000    0.000    0.000    0.000 
#
# Total GULP energy -117043.810878 kJ/mol
# GULP energy per Si atom -5573.514804 kJ/mol
# Density = 1.963792 g / cm^3
# Si number density = 19.682719 Si / 1000 Ang^3
#
#
#
# Elastic Constant Matrix: (Units=GPa)
#
#
# Indices 1 2 3 4 5 6 
#
# 1 108.0621 52.7105 61.6176 0.0000 -16.2832 0.0000
# 2 52.7105 167.7665 72.7556 0.0000 6.0863 0.0000
# 3 61.6176 72.7556 113.7845 0.0000 -4.5445 0.0000
# 4 0.0000 0.0000 0.0000 11.6412 0.0000 -0.9620
# 5 -16.2832 6.0863 -4.5445 0.0000 28.5389 0.0000
# 6 0.0000 0.0000 0.0000 -0.9620 0.0000 35.4377
#
#
#
# Elastic Compliance Matrix: (Units=1/GPa)
#
#
# Indices 1 2 3 4 5 6 
#
# 1 0.015311 -0.002288 -0.006501 0.000000 0.008189 0.000000
# 2 -0.002288 0.008788 -0.004536 0.000000 -0.003902 0.000000
# 3 -0.006501 -0.004536 0.015197 0.000000 -0.000322 0.000000
# 4 0.000000 0.000000 0.000000 0.086095 0.000000 0.002337
# 5 0.008189 -0.003902 -0.000322 0.000000 0.040493 0.000000
# 6 0.000000 0.000000 0.000000 0.002337 0.000000 0.028282
#
#
# Mechanical properties :
#
#
# Convention : Reuss Voigt Hill
#
# Bulk Modulus (GPa) = 79.08246 84.86449 81.97347
# Shear Modulus (GPa) = 22.21909 28.62552 25.42230
#
# Velocity S-wave (km/s) = 3.36350 3.81773 3.59779
# Velocity P-wave (km/s) = 7.43976 7.91475 7.68093
#
# Compressibility (1/GPa) = 0.01264503
#
# Stress axis : x y z
#
# Youngs Moduli (GPa) = 65.31255 113.78684 65.80385
#
# Poissons Ratio (x) = 0.26038 0.42780
# Poissons Ratio (y) = 0.14945 0.29849
# Poissons Ratio (z) = 0.42461 0.51615
#
# Static dielectric constant tensor:
#      x y z
#    x 1.694550 0.000000 -0.010880 
#    y 0.000000 1.702060 0.000000 
#    z -0.010880 0.000000 1.689980 
# 
# From -- ./inp_files/16025.got.cif
#   From: 2010.05.17/outbox.cif.g08.bks.cpg/sg12_9_cif.got.tgz:16025.got - 2010.06.03 13:09:07.
