data_PCOD9218563
_publ_section_title
;
Structure prediction by ZEFSAII (Michael W. Deem and Ramdas Pophale) SiO2 
 PCOD9218563
Probable space group: C 2/M
;
_chemical_formula_sum "Si O2"
_cell_formula_units_Z 36
_cell_length_a 8.029804
_cell_length_b 28.130085
_cell_length_c 7.017056
_cell_angle_alpha 90.000000
_cell_angle_beta 88.307731
_cell_angle_gamma 90.000000
_cell_volume 1584.314783
_symmetry_space_group_name_H-M "C 2/M"
_symmetry_group_IT_number 12
_symmetry_cell_setting 'monoclinic'
loop_
_space_group_symop_operation_xyz
x,y,z
-x,y,-z
-x,-y,-z
x,-y,z
1/2+x,1/2+y,z
1/2-x,1/2+y,-z
1/2-x,1/2-y,-z
1/2+x,1/2-y,z
loop_
_atom_site_type_symbol
_atom_site_label
_atom_site_fract_x
_atom_site_fract_y
_atom_site_fract_z
Si Si1 0.298199 0.000000 0.024662
Si Si2 0.782377 0.179327 0.661763
Si Si3 0.180713 0.601764 0.405527
Si Si4 0.678360 0.500000 0.596477
Si Si5 0.500000 0.245844 0.500000
Si Si6 0.800503 0.897770 0.975332
O O1 0.193015 0.000000 0.828069
O O2 0.500000 0.000000 0.000000
O O3 0.248281 0.949035 0.113171
O O4 0.803299 0.140004 0.495157
O O5 0.630014 0.211929 0.599054
O O6 0.758089 0.147383 0.847688
O O7 0.927962 0.217946 0.660148
O O8 0.229139 0.548361 0.457828
O O9 0.799516 0.605315 0.822369
O O10 0.000000 0.611429 0.500000
O O11 0.500000 0.500000 0.500000
O O12 0.000000 0.897944 0.000000
#
# Coordination Sequence:
#
# PCOD9218563 Si02
#       6
#     4   8   8   4   4   8
#     4  10  25  43  69 111 160 188 246 299 353 445
#     4  11  24  46  76  97 149 176 250 298 377 420
#     4  11  25  46  72 109 146 195 240 294 360 438
#     4  10  25  43  73 109 152 200 246 289 363 437
#     4  10  24  48  72 110 132 192 238 330 350 438
#     4  11  26  46  73 109 145 197 237 293 364 436
#
# _framework density 22.722757000000001
#
# number of rings (size 3 to 8) (size 9 to 14) (size 15 to 20)
#    0.000    1.333    1.111    2.000   14.000    0.889 
#    0.000   12.222    0.000    0.000    0.000    0.000 
#    0.000    0.000    0.000    0.000    0.000    0.000 
#
# Total GULP energy -100613.426700 kJ/mol
# GULP energy per Si atom -5589.634817 kJ/mol
# Density = 2.267104 g / cm^3
# Si number density = 22.722757 Si / 1000 Ang^3
#
#
#
# Elastic Constant Matrix: (Units=GPa)
#
#
# Indices 1 2 3 4 5 6 
#
# 1 84.7344 52.0656 27.6992 0.0000 -5.0453 0.0000
# 2 52.0656 214.8063 59.8501 0.0000 -8.3923 0.0000
# 3 27.6992 59.8501 128.3368 0.0000 -23.9320 0.0000
# 4 0.0000 0.0000 0.0000 55.9824 0.0000 25.2078
# 5 -5.0453 -8.3923 -23.9320 0.0000 27.8129 0.0000
# 6 0.0000 0.0000 0.0000 25.2078 0.0000 102.0285
#
#
#
# Elastic Compliance Matrix: (Units=1/GPa)
#
#
# Indices 1 2 3 4 5 6 
#
# 1 0.014175 -0.002973 -0.001621 0.000000 0.000280 0.000000
# 2 -0.002973 0.005984 -0.002278 0.000000 -0.000694 0.000000
# 3 -0.001621 -0.002278 0.010745 0.000000 0.008265 0.000000
# 4 0.000000 0.000000 0.000000 0.020099 0.000000 -0.004966
# 5 0.000280 -0.000694 0.008265 0.000000 0.042907 0.000000
# 6 0.000000 0.000000 0.000000 -0.004966 0.000000 0.011028
#
#
# Mechanical properties :
#
#
# Convention : Reuss Voigt Hill
#
# Bulk Modulus (GPa) = 58.27598 78.56747 68.42173
# Shear Modulus (GPa) = 40.19215 56.38226 48.28720
#
# Velocity S-wave (km/s) = 4.21028 4.98668 4.61484
# Velocity P-wave (km/s) = 7.02406 8.23454 7.65327
#
# Compressibility (1/GPa) = 0.01715973
#
# Stress axis : x y z
#
# Youngs Moduli (GPa) = 70.54677 167.12118 93.06296
#
# Poissons Ratio (x) = 0.49690 0.15082
# Poissons Ratio (y) = 0.20976 0.21202
# Poissons Ratio (z) = 0.11433 0.38074
#
# Static dielectric constant tensor:
#      x y z
#    x 1.912640 0.000000 -0.003840 
#    y 0.000000 1.803750 0.000000 
#    z -0.003840 0.000000 1.903530 
# 
# From -- ./inp_files/41163.got.cif
#   From: 2010.05.17/outbox.cif.g08.bks.cpg/sg12_21_cif.got.tgz:41163.got - 2010.06.03 13:09:07.
