data_PCOD9218033
_publ_section_title
;
Structure prediction by ZEFSAII (Michael W. Deem and Ramdas Pophale) SiO2 
 PCOD9218033
Probable space group: C 2/M
;
_chemical_formula_sum "Si O2"
_cell_formula_units_Z 22
_cell_length_a 22.909528
_cell_length_b 8.335810
_cell_length_c 4.837043
_cell_angle_alpha 90.000000
_cell_angle_beta 114.599538
_cell_angle_gamma 90.000000
_cell_volume 839.889545
_symmetry_space_group_name_H-M "C 2/M"
_symmetry_group_IT_number 12
_symmetry_cell_setting 'monoclinic'
loop_
_space_group_symop_operation_xyz
x,y,z
-x,y,-z
-x,-y,-z
x,-y,z
1/2+x,1/2+y,z
1/2-x,1/2+y,-z
1/2-x,1/2-y,-z
1/2+x,1/2-y,z
loop_
_atom_site_type_symbol
_atom_site_label
_atom_site_fract_x
_atom_site_fract_y
_atom_site_fract_z
Si Si1 0.824789 0.500000 0.665854
Si Si2 0.737315 0.500000 0.992452
Si Si3 0.870748 0.829866 0.514007
Si Si4 0.000000 0.500000 0.000000
Si Si5 0.500000 0.242534 0.500000
O O1 0.801647 0.500000 0.933456
O O2 0.862437 0.661470 0.655591
O O3 0.760419 0.500000 0.351118
O O4 0.691878 0.353410 0.804814
O O5 0.934313 0.827353 0.455718
O O6 0.873129 0.000000 0.683788
O O7 0.014275 0.636506 0.794130
#
# Coordination Sequence:
#
# PCOD9218033 Si02
#       5
#     4   4   8   2   4
#     4  12  22  47  64  99 136 178 226 272 326 398
#     4  10  26  42  70  97 136 179 222 274 334 386
#     4  10  25  43  72  98 137 176 221 281 328 399
#     4  10  24  40  74  94 136 174 220 262 334 404
#     4  11  23  48  64 107 131 174 223 275 338 395
#
# _framework density 26.193919000000001
#
# number of rings (size 3 to 8) (size 9 to 14) (size 15 to 20)
#    1.091    0.364    0.000    4.909    0.000    8.727 
#    0.000    1.818    0.000    0.000    0.000    0.000 
#    0.000    0.000    0.000    0.000    0.000    0.000 
#
# Total GULP energy -61329.216025 kJ/mol
# GULP energy per Si atom -5575.383275 kJ/mol
# Density = 2.613430 g / cm^3
# Si number density = 26.193919 Si / 1000 Ang^3
#
#
#
# Elastic Constant Matrix: (Units=GPa)
#
#
# Indices 1 2 3 4 5 6 
#
# 1 196.8833 76.0404 16.8407 0.0000 -6.4668 0.0000
# 2 76.0404 230.8880 30.2423 0.0000 -14.0832 0.0000
# 3 16.8407 30.2423 87.9620 0.0000 -5.3932 0.0000
# 4 0.0000 0.0000 0.0000 231.3136 0.0000 265.3398
# 5 -6.4668 -14.0832 -5.3932 0.0000 42.4429 0.0000
# 6 0.0000 0.0000 0.0000 265.3398 0.0000 312.5044
#
#
#
# Elastic Compliance Matrix: (Units=1/GPa)
#
#
# Indices 1 2 3 4 5 6 
#
# 1 0.005840 -0.001849 -0.000469 0.000000 0.000217 0.000000
# 2 -0.001849 0.005195 -0.001354 0.000000 0.001270 0.000000
# 3 -0.000469 -0.001354 0.011985 0.000000 0.001002 0.000000
# 4 0.000000 0.000000 0.000000 0.166114 0.000000 -0.141043
# 5 0.000217 0.001270 0.001002 0.000000 0.024143 0.000000
# 6 0.000000 0.000000 0.000000 -0.141043 0.000000 0.122956
#
#
# Mechanical properties :
#
#
# Convention : Reuss Voigt Hill
#
# Bulk Modulus (GPa) = 63.79108 84.66445 74.22777
# Shear Modulus (GPa) = 14.33473 143.42617 78.88045
#
# Velocity S-wave (km/s) = 2.34188 7.40773 5.49358
# Velocity P-wave (km/s) = 5.63195 10.27415 8.28484
#
# Compressibility (1/GPa) = 0.01567617
#
# Stress axis : x y z
#
# Youngs Moduli (GPa) = 171.21949 192.49927 83.43473
#
# Poissons Ratio (x) = 0.35589 0.03915
# Poissons Ratio (y) = 0.31655 0.11299
# Poissons Ratio (z) = 0.08034 0.26068
#
# Static dielectric constant tensor:
#      x y z
#    x 2.044610 0.000000 0.111980 
#    y 0.000000 2.136410 0.000000 
#    z 0.111980 0.000000 1.989860 
# 
# From -- ./inp_files/23092.got.cif
#   From: 2010.05.17/outbox.cif.g08.bks.cpg/sg12_12_cif.got.tgz:23092.got - 2010.06.03 13:09:07.
