data_PCOD9218883
_publ_section_title
;
Structure prediction by ZEFSAII (Michael W. Deem and Ramdas Pophale) SiO2 
 PCOD9218883
Probable space group: C 2/M
;
_chemical_formula_sum "Si O2"
_cell_formula_units_Z 56
_cell_length_a 12.424184
_cell_length_b 17.245860
_cell_length_c 15.216595
_cell_angle_alpha 90.000000
_cell_angle_beta 69.833691
_cell_angle_gamma 90.000000
_cell_volume 3060.519385
_symmetry_space_group_name_H-M "C 2/M"
_symmetry_group_IT_number 12
_symmetry_cell_setting 'monoclinic'
loop_
_space_group_symop_operation_xyz
x,y,z
-x,y,-z
-x,-y,-z
x,-y,z
1/2+x,1/2+y,z
1/2-x,1/2+y,-z
1/2-x,1/2-y,-z
1/2+x,1/2-y,z
loop_
_atom_site_type_symbol
_atom_site_label
_atom_site_fract_x
_atom_site_fract_y
_atom_site_fract_z
Si Si1 0.338443 0.409078 0.119765
Si Si2 0.378187 0.333672 0.431051
Si Si3 0.265810 0.808484 0.695669
Si Si4 0.406297 0.413067 0.720036
Si Si5 0.109809 0.089968 0.083671
Si Si6 0.026461 0.338066 0.588791
Si Si7 0.268946 0.865569 0.358186
O O1 0.300929 0.500000 0.137979
O O2 0.282825 0.352201 0.205985
O O3 0.474376 0.409446 0.101349
O O4 0.327009 0.380789 0.021786
O O5 0.289122 0.346374 0.376572
O O6 0.497569 0.369274 0.363940
O O7 0.403324 0.242821 0.443286
O O8 0.320499 0.365339 0.535144
O O9 0.402356 0.816391 0.660463
O O10 0.230530 0.719172 0.688999
O O11 0.451900 0.500000 0.723035
O O12 0.381005 0.374634 0.821825
O O13 0.289280 0.417104 0.698988
O O14 0.146893 0.000000 0.080320
O O15 0.107890 0.383467 0.633573
O O16 0.000000 0.372754 0.500000
#
# Coordination Sequence:
#
# PCOD9218883 Si02
#       7
#     8   8   8   8   8   8   8
#     4   9  17  32  54  82 106 134 178 223 275 319
#     4  11  19  32  53  80 106 138 187 215 263 317
#     4  11  19  31  56  80 107 141 178 223 261 319
#     4  11  21  35  55  80 110 139 178 230 275 313
#     4   8  16  32  55  79 106 135 170 225 281 322
#     4  11  18  34  52  73 103 147 184 214 252 316
#     4  11  22  33  51  79 109 148 183 213 262 325
#
# _framework density 18.297547000000002
#
# number of rings (size 3 to 8) (size 9 to 14) (size 15 to 20)
#    0.000    1.714    5.714    2.143    0.000    1.143 
#    0.000    1.429    0.000    1.714    0.000    3.000 
#    0.000    0.000    0.000    0.000    0.000    0.000 
#
# Total GULP energy -155919.542949 kJ/mol
# GULP energy per Si atom -5568.555105 kJ/mol
# Density = 1.825590 g / cm^3
# Si number density = 18.297547 Si / 1000 Ang^3
#
#
#
# Elastic Constant Matrix: (Units=GPa)
#
#
# Indices 1 2 3 4 5 6 
#
# 1 109.3170 2.5869 34.9779 0.0000 15.5999 0.0000
# 2 2.5869 29.4357 34.4494 0.0000 3.6693 0.0000
# 3 34.9779 34.4494 108.1286 0.0000 0.4949 0.0000
# 4 0.0000 0.0000 0.0000 106.7406 0.0000 -66.6300
# 5 15.5999 3.6693 0.4949 0.0000 17.1538 0.0000
# 6 0.0000 0.0000 0.0000 -66.6300 0.0000 66.6301
#
#
#
# Elastic Compliance Matrix: (Units=1/GPa)
#
#
# Indices 1 2 3 4 5 6 
#
# 1 0.013095 0.008649 -0.006930 0.000000 -0.013559 0.000000
# 2 0.008649 0.062078 -0.022482 0.000000 -0.020496 0.000000
# 3 -0.006930 -0.022482 0.018604 0.000000 0.010574 0.000000
# 4 0.000000 0.000000 0.000000 0.024931 0.000000 0.024931
# 5 -0.013559 -0.020496 0.010574 0.000000 0.074706 0.000000
# 6 0.000000 0.000000 0.000000 0.024931 0.000000 0.039939
#
#
# Mechanical properties :
#
#
# Convention : Reuss Voigt Hill
#
# Bulk Modulus (GPa) = 19.13765 43.43441 31.28603
# Shear Modulus (GPa) = 17.10592 49.76271 33.43431
#
# Velocity S-wave (km/s) = 3.06089 5.22067 4.27928
# Velocity P-wave (km/s) = 4.79311 7.75435 6.44608
#
# Compressibility (1/GPa) = 0.05225303
#
# Stress axis : x y z
#
# Youngs Moduli (GPa) = 76.36368 16.10864 53.75128
#
# Poissons Ratio (x) = -0.13933 0.37248
# Poissons Ratio (y) = -0.66050 1.20844
# Poissons Ratio (z) = 0.52918 0.36216
#
# Static dielectric constant tensor:
#      x y z
#    x 1.653660 0.000000 0.034160 
#    y 0.000000 1.649200 0.000000 
#    z 0.034160 0.000000 1.666900 
# 
# From -- ./inp_files/206124.got.cif
#   From: 2010.05.17/outbox.cif.g08.bks.cpg/sg12_104_cif.got.tgz:206124.got - 2010.06.03 13:09:07.
