data_PCOD9218940
_publ_section_title
;
Structure prediction by ZEFSAII (Michael W. Deem and Ramdas Pophale) SiO2 
 PCOD9218940
Probable space group: C 2/M
;
_chemical_formula_sum "Si O2"
_cell_formula_units_Z 48
_cell_length_a 24.905351
_cell_length_b 8.722481
_cell_length_c 22.219506
_cell_angle_alpha 90.000000
_cell_angle_beta 142.088779
_cell_angle_gamma 90.000000
_cell_volume 2965.830891
_symmetry_space_group_name_H-M "C 2/M"
_symmetry_group_IT_number 12
_symmetry_cell_setting 'monoclinic'
loop_
_space_group_symop_operation_xyz
x,y,z
-x,y,-z
-x,-y,-z
x,-y,z
1/2+x,1/2+y,z
1/2-x,1/2+y,-z
1/2-x,1/2-y,-z
1/2+x,1/2-y,z
loop_
_atom_site_type_symbol
_atom_site_label
_atom_site_fract_x
_atom_site_fract_y
_atom_site_fract_z
Si Si1 0.454074 0.322649 0.525386
Si Si2 0.864486 0.184664 0.272201
Si Si3 0.287748 0.819315 0.327798
Si Si4 0.893941 0.317300 0.849593
Si Si5 0.577631 0.683324 0.992213
Si Si6 0.269533 0.183712 0.951888
O O1 0.500000 0.317559 0.500000
O O2 0.431578 0.500000 0.517471
O O3 0.532967 0.272372 0.638624
O O4 0.366301 0.225772 0.442151
O O5 0.820019 0.265073 0.290149
O O6 0.810031 0.218534 0.164426
O O7 0.861271 0.000000 0.280069
O O8 0.197167 0.733296 0.260046
O O9 0.273316 0.000000 0.314690
O O10 0.902505 0.500000 0.858239
O O11 0.979069 0.241975 0.894883
O O12 0.894002 0.255366 0.918469
O O13 0.579276 0.500000 0.998362
O O14 0.644345 0.742102 0.001117
O O15 0.279399 0.000000 0.962894
O O16 0.250000 0.250000 0.000000
#
# Coordination Sequence:
#
# PCOD9218940 Si02
#       6
#     8   8   8   8   8   8
#     4   8  15  28  44  64  92 128 163 196 240 297
#     4   9  18  32  48  65  94 132 167 202 245 295
#     4  11  19  27  44  72 101 129 161 200 246 294
#     4  11  20  32  50  71  99 135 165 198 246 302
#     4  11  21  34  50  73  99 127 165 209 250 295
#     4  11  22  36  53  73  99 135 173 209 247 290
#
# _framework density 16.184335000000001
#
# number of rings (size 3 to 8) (size 9 to 14) (size 15 to 20)
#    0.000    1.833    1.667    7.000    0.000    3.667 
#    0.000    0.000    0.000    0.000    0.000    1.167 
#    0.000    0.000    0.000    0.000    0.000    0.000 
#
# Total GULP energy -133908.692011 kJ/mol
# GULP energy per Si atom -5579.528834 kJ/mol
# Density = 1.614750 g / cm^3
# Si number density = 16.184335 Si / 1000 Ang^3
#
#
#
# Elastic Constant Matrix: (Units=GPa)
#
#
# Indices 1 2 3 4 5 6 
#
# 1 84.5050 37.5263 51.8381 0.0000 11.5333 0.0000
# 2 37.5263 99.2882 45.6370 0.0000 8.6132 0.0000
# 3 51.8381 45.6370 100.3504 0.0000 24.1350 0.0000
# 4 0.0000 0.0000 0.0000 7.9585 0.0000 5.3558
# 5 11.5333 8.6132 24.1350 0.0000 22.3501 0.0000
# 6 0.0000 0.0000 0.0000 5.3558 0.0000 23.5294
#
#
#
# Elastic Compliance Matrix: (Units=1/GPa)
#
#
# Indices 1 2 3 4 5 6 
#
# 1 0.018105 -0.003199 -0.008034 0.000000 0.000565 0.000000
# 2 -0.003199 0.013354 -0.004835 0.000000 0.001726 0.000000
# 3 -0.008034 -0.004835 0.020085 0.000000 -0.015680 0.000000
# 4 0.000000 0.000000 0.000000 0.148381 0.000000 -0.033775
# 5 0.000565 0.001726 -0.015680 0.000000 0.060718 0.000000
# 6 0.000000 0.000000 0.000000 -0.033775 0.000000 0.050188
#
#
# Mechanical properties :
#
#
# Convention : Reuss Voigt Hill
#
# Bulk Modulus (GPa) = 51.52684 61.57181 56.54933
# Shear Modulus (GPa) = 14.30874 20.71043 17.50958
#
# Velocity S-wave (km/s) = 2.97662 3.58111 3.29277
# Velocity P-wave (km/s) = 6.61213 7.43141 7.03371
#
# Compressibility (1/GPa) = 0.01940736
#
# Stress axis : x y z
#
# Youngs Moduli (GPa) = 55.23243 74.88540 49.78767
#
# Poissons Ratio (x) = 0.23959 0.39998
# Poissons Ratio (y) = 0.17671 0.24075
# Poissons Ratio (z) = 0.44372 0.36210
#
# Static dielectric constant tensor:
#      x y z
#    x 1.511190 0.000000 0.027440 
#    y 0.000000 1.538500 0.000000 
#    z 0.027440 0.000000 1.578410 
# 
# From -- ./inp_files/323852.got.cif
#   From: 2010.05.17/outbox.cif.g08.bks.cpg/sg12_162_cif.got.tgz:323852.got - 2010.06.03 13:09:07.
