data_PCOD9218770
_publ_section_title
;
Structure prediction by ZEFSAII (Michael W. Deem and Ramdas Pophale) SiO2 
 PCOD9218770
Probable space group: C 2/M
;
_chemical_formula_sum "Si O2"
_cell_formula_units_Z 64
_cell_length_a 31.706748
_cell_length_b 8.624431
_cell_length_c 24.650122
_cell_angle_alpha 90.000000
_cell_angle_beta 28.185861
_cell_angle_gamma 90.000000
_cell_volume 3183.829209
_symmetry_space_group_name_H-M "C 2/M"
_symmetry_group_IT_number 12
_symmetry_cell_setting 'monoclinic'
loop_
_space_group_symop_operation_xyz
x,y,z
-x,y,-z
-x,-y,-z
x,-y,z
1/2+x,1/2+y,z
1/2-x,1/2+y,-z
1/2-x,1/2-y,-z
1/2+x,1/2-y,z
loop_
_atom_site_type_symbol
_atom_site_label
_atom_site_fract_x
_atom_site_fract_y
_atom_site_fract_z
Si Si1 0.393045 0.820239 0.992015
Si Si2 0.504030 0.683826 0.220367
Si Si3 0.808266 0.819602 0.807363
Si Si4 0.845378 0.318023 0.874755
Si Si5 0.399060 0.316903 0.101722
Si Si6 0.396913 0.814247 0.601192
Si Si7 0.222210 0.186318 0.358677
Si Si8 0.309303 0.686699 0.481703
O O1 0.471539 0.769638 0.863050
O O2 0.402063 0.000000 0.997940
O O3 0.298791 0.804430 0.067794
O O4 0.387114 0.715552 0.051688
O O5 0.504189 0.500000 0.210066
O O6 0.579623 0.727948 0.177553
O O7 0.410191 0.730516 0.352259
O O8 0.853695 0.714869 0.801381
O O9 0.837863 0.766616 0.714506
O O10 0.830893 0.000000 0.790545
O O11 0.849839 0.500000 0.881683
O O12 0.750000 0.250000 0.000000
O O13 0.394432 0.500000 0.118644
O O14 0.318090 0.235917 0.225401
O O15 0.500000 0.261800 0.000000
O O16 0.500000 0.778058 0.500000
O O17 0.357034 0.755586 0.589142
O O18 0.386466 0.000000 0.615190
O O19 0.214983 0.238149 0.429696
O O20 0.215002 0.000000 0.364744
O O21 0.302953 0.500000 0.488863
O O22 0.250000 0.750000 0.500000
#
# Coordination Sequence:
#
# PCOD9218770 Si02
#       8
#     8   8   8   8   8   8   8   8
#     4  11  23  40  65  97 129 168 215 266 325 388
#     4  11  24  43  66  95 131 173 219 269 323 388
#     4  11  23  40  63  92 128 171 214 263 324 386
#     4  12  24  39  61  93 129 170 213 260 317 381
#     4  11  25  43  67  98 130 167 209 265 331 391
#     4  11  25  43  65  97 131 171 219 269 326 389
#     4  11  24  45  69  99 133 173 221 271 326 391
#     4  10  26  48  70  97 129 172 223 273 328 386
#
# _framework density 20.101580999999999
#
# number of rings (size 3 to 8) (size 9 to 14) (size 15 to 20)
#    0.000    1.000    2.500    3.375    3.500    5.000 
#    0.000    0.000    0.000    0.000    0.000    0.000 
#    0.000    0.000    0.000    0.000    0.000    0.000 
#
# Total GULP energy -178928.605685 kJ/mol
# GULP energy per Si atom -5591.518928 kJ/mol
# Density = 2.005583 g / cm^3
# Si number density = 20.101581 Si / 1000 Ang^3
#
#
#
# Elastic Constant Matrix: (Units=GPa)
#
#
# Indices 1 2 3 4 5 6 
#
# 1 98.0597 -1.7749 63.7617 -0.0018 3.1441 0.0009
# 2 -1.7749 31.9685 24.4343 0.0041 -8.1574 -0.0007
# 3 63.7617 24.4343 115.1156 -0.0009 0.5986 0.0016
# 4 -0.0018 0.0041 -0.0009 27.7311 0.0012 0.6357
# 5 3.1441 -8.1574 0.5986 0.0012 40.7578 -0.0008
# 6 0.0009 -0.0007 0.0016 0.6357 -0.0008 35.1109
#
#
#
# Elastic Compliance Matrix: (Units=1/GPa)
#
#
# Indices 1 2 3 4 5 6 
#
# 1 0.018555 0.010895 -0.012595 -0.000001 0.000934 0.000000
# 2 0.010895 0.046241 -0.015895 -0.000007 0.008648 0.000002
# 3 -0.012595 -0.015895 0.019050 0.000002 -0.002489 -0.000001
# 4 -0.000001 -0.000007 0.000002 0.036076 -0.000002 -0.000653
# 5 0.000934 0.008648 -0.002489 -0.000002 0.026231 0.000001
# 6 0.000000 0.000002 -0.000001 -0.000653 0.000001 0.028493
#
#
# Mechanical properties :
#
#
# Convention : Reuss Voigt Hill
#
# Bulk Modulus (GPa) = 20.55215 46.44288 33.49752
# Shear Modulus (GPa) = 22.11875 31.30144 26.71009
#
# Velocity S-wave (km/s) = 3.32075 3.95037 3.64916
# Velocity P-wave (km/s) = 4.99495 6.63035 5.86988
#
# Compressibility (1/GPa) = 0.04865671
#
# Stress axis : x y z
#
# Youngs Moduli (GPa) = 53.89491 21.62576 52.49402
#
# Poissons Ratio (x) = -0.23561 0.66115
# Poissons Ratio (y) = -0.58719 0.83438
# Poissons Ratio (z) = 0.67879 0.34374
#
# Static dielectric constant tensor:
#      x y z
#    x 1.724970 0.000000 -0.007230 
#    y 0.000000 1.675810 0.000000 
#    z -0.007230 0.000000 1.692230 
# 
# From -- ./inp_files/353260.got.cif
#   From: 2010.05.17/outbox.cif.g08.bks.cpg/sg12_177_cif.got.tgz:353260.got - 2010.06.03 13:09:07.
