data_PCOD9218199
_publ_section_title
;
Structure prediction by ZEFSAII (Michael W. Deem and Ramdas Pophale) SiO2 
 PCOD9218199
Probable space group: C 2/M
;
_chemical_formula_sum "Si O2"
_cell_formula_units_Z 58
_cell_length_a 27.335363
_cell_length_b 15.005875
_cell_length_c 20.567281
_cell_angle_alpha 90.000000
_cell_angle_beta 160.429133
_cell_angle_gamma 90.000000
_cell_volume 2826.000497
_symmetry_space_group_name_H-M "C 2/M"
_symmetry_group_IT_number 12
_symmetry_cell_setting 'monoclinic'
loop_
_space_group_symop_operation_xyz
x,y,z
-x,y,-z
-x,-y,-z
x,-y,z
1/2+x,1/2+y,z
1/2-x,1/2+y,-z
1/2-x,1/2-y,-z
1/2+x,1/2-y,z
loop_
_atom_site_type_symbol
_atom_site_label
_atom_site_fract_x
_atom_site_fract_y
_atom_site_fract_z
Si Si1 0.351378 0.898418 0.272676
Si Si2 0.000000 0.500000 0.000000
Si Si3 0.278367 0.371571 0.349137
Si Si4 0.329431 0.392769 0.566092
Si Si5 0.222818 0.270248 0.164250
Si Si6 0.539904 0.799111 0.248969
Si Si7 0.177622 0.653244 0.912542
Si Si8 0.604045 0.405219 0.708321
O O1 0.500000 0.884105 0.500000
O O2 0.236648 0.829932 0.158119
O O3 0.362737 0.879754 0.209657
O O4 0.306669 0.000000 0.225275
O O5 0.870387 0.424985 0.849436
O O6 0.302196 0.379063 0.455372
O O7 0.252582 0.280214 0.277618
O O8 0.434410 0.401467 0.514611
O O9 0.361648 0.500000 0.617353
O O10 0.433814 0.308047 0.713376
O O11 0.181220 0.359959 0.415361
O O12 0.341444 0.325682 0.269604
O O13 0.070131 0.310744 0.949141
O O14 0.460828 0.834363 0.214421
O O15 0.250000 0.750000 0.000000
O O16 0.299545 0.598847 0.105146
O O17 0.637248 0.500000 0.717289
#
# Coordination Sequence:
#
# PCOD9218199 Si02
#       8
#     8   2   8   8   8   8   8   8
#     4  11  24  42  65  97 132 175 222 272 345 405
#     4  12  24  40  58 100 130 184 210 252 326 416
#     4  12  24  40  64  94 138 172 222 268 334 404
#     4  11  24  43  68  97 132 182 230 277 328 403
#     4  11  25  40  66  95 139 172 219 284 340 405
#     4  10  24  43  65  98 132 179 227 274 339 401
#     4  11  21  42  67  98 134 169 220 283 345 398
#     4  11  22  37  62 100 132 175 213 273 344 410
#
# _framework density 20.523705
#
# number of rings (size 3 to 8) (size 9 to 14) (size 15 to 20)
#    0.000    0.966    4.138    3.310    2.897    3.862 
#    0.000    0.000    0.000    0.000    0.000    3.379 
#    0.000    0.000    0.000    0.000    0.000    0.000 
#
# Total GULP energy -161447.129386 kJ/mol
# GULP energy per Si atom -5567.142393 kJ/mol
# Density = 2.047699 g / cm^3
# Si number density = 20.523705 Si / 1000 Ang^3
#
#
#
# Elastic Constant Matrix: (Units=GPa)
#
#
# Indices 1 2 3 4 5 6 
#
# 1 63.5788 26.4284 34.1102 -0.0001 -15.3828 0.0000
# 2 26.4284 91.0525 35.3429 -0.0007 -3.6418 -0.0004
# 3 34.1102 35.3429 105.1500 -0.0008 5.5986 0.0002
# 4 -0.0001 -0.0007 -0.0008 6.3863 -0.0005 6.3359
# 5 -15.3828 -3.6418 5.5986 -0.0005 25.9602 -0.0001
# 6 0.0000 -0.0004 0.0002 6.3359 -0.0001 3.7699
#
#
#
# Elastic Compliance Matrix: (Units=1/GPa)
#
#
# Indices 1 2 3 4 5 6 
#
# 1 0.025406 -0.003669 -0.007873 0.000000 0.016238 0.000000
# 2 -0.003669 0.013353 -0.003320 0.000001 0.000415 0.000000
# 3 -0.007873 -0.003320 0.013610 -0.000003 -0.008066 0.000003
# 4 0.000000 0.000001 -0.000003 -0.234613 -0.000003 0.394306
# 5 0.016238 0.000415 -0.008066 -0.000003 0.049940 0.000006
# 6 0.000000 0.000000 0.000003 0.394306 0.000006 -0.397437
#
#
# Mechanical properties :
#
#
# Convention : Reuss Voigt Hill
#
# Bulk Modulus (GPa) = 44.16041 50.17160 47.16601
# Shear Modulus (GPa) = -10.15290 18.14993 3.99851
#
# Velocity S-wave (km/s) = -2.22658 2.97701 1.39731
# Velocity P-wave (km/s) = 3.86695 6.02624 5.06304
#
# Compressibility (1/GPa) = 0.02264472
#
# Stress axis : x y z
#
# Youngs Moduli (GPa) = 39.36057 74.89009 73.47731
#
# Poissons Ratio (x) = 0.27476 0.57849
# Poissons Ratio (y) = 0.14441 0.24395
# Poissons Ratio (z) = 0.30989 0.24864
#
# Static dielectric constant tensor:
#      x y z
#    x 1.749040 0.000000 -0.019080 
#    y 0.000000 1.733240 0.000000 
#    z -0.019080 0.000000 1.785870 
# 
# From -- ./inp_files/328404.got.cif
#   From: 2010.05.17/outbox.cif.g08.bks.cpg/sg12_165_cif.got.tgz:328404.got - 2010.06.03 13:09:07.
