data_PCOD9218207
_publ_section_title
;
Structure prediction by ZEFSAII (Michael W. Deem and Ramdas Pophale) SiO2 
 PCOD9218207
Probable space group: C 2/M
;
_chemical_formula_sum "Si O2"
_cell_formula_units_Z 36
_cell_length_a 9.608153
_cell_length_b 23.056380
_cell_length_c 7.623980
_cell_angle_alpha 90.000000
_cell_angle_beta 111.131081
_cell_angle_gamma 90.000000
_cell_volume 1575.367256
_symmetry_space_group_name_H-M "C 2/M"
_symmetry_group_IT_number 12
_symmetry_cell_setting 'monoclinic'
loop_
_space_group_symop_operation_xyz
x,y,z
-x,y,-z
-x,-y,-z
x,-y,z
1/2+x,1/2+y,z
1/2-x,1/2+y,-z
1/2-x,1/2-y,-z
1/2+x,1/2-y,z
loop_
_atom_site_type_symbol
_atom_site_label
_atom_site_fract_x
_atom_site_fract_y
_atom_site_fract_z
Si Si1 0.454047 0.315657 0.286391
Si Si2 0.698261 0.500000 0.898545
Si Si3 0.666179 0.121798 0.024670
Si Si4 0.243523 0.875592 0.332127
Si Si5 0.354041 0.500000 0.699735
Si Si6 0.500000 0.796992 0.500000
O O1 0.500000 0.339814 0.500000
O O2 0.293464 0.335551 0.152857
O O3 0.586621 0.342713 0.232130
O O4 0.460510 0.246883 0.323187
O O5 0.787013 0.557615 0.889313
O O6 0.530984 0.500000 0.746576
O O7 0.671186 0.500000 0.098835
O O8 0.500000 0.137456 0.000000
O O9 0.679360 0.118693 0.821091
O O10 0.357725 0.835088 0.488422
O O11 0.215516 0.939536 0.395016
#
# Coordination Sequence:
#
# PCOD9218207 Si02
#       6
#     8   4   8   8   4   4
#     4  10  24  43  66  95 134 177 220 265 335 385
#     4   9  17  38  62  98 134 167 210 274 331 386
#     4  11  23  39  69 102 133 171 224 267 327 402
#     4  11  22  43  70  95 135 174 219 275 324 399
#     4   9  18  35  70  98 122 175 217 261 338 395
#     4  10  26  41  68  91 140 174 224 276 324 372
#
# _framework density 22.851814999999998
#
# number of rings (size 3 to 8) (size 9 to 14) (size 15 to 20)
#    0.667    1.111    2.222    1.667    3.111    1.333 
#    0.000    2.222    0.000    0.000    0.000    0.000 
#    0.000    0.000    0.000    0.000    0.000    0.000 
#
# Total GULP energy -100627.985999 kJ/mol
# GULP energy per Si atom -5590.443667 kJ/mol
# Density = 2.279980 g / cm^3
# Si number density = 22.851815 Si / 1000 Ang^3
#
#
#
# Elastic Constant Matrix: (Units=GPa)
#
#
# Indices 1 2 3 4 5 6 
#
# 1 162.8067 56.7295 22.2435 0.0000 40.5616 0.0000
# 2 56.7295 179.4979 22.9547 0.0000 45.0466 0.0000
# 3 22.2435 22.9547 42.9115 0.0000 19.0379 0.0000
# 4 0.0000 0.0000 0.0000 24.2337 0.0000 36.4716
# 5 40.5616 45.0466 19.0379 0.0000 41.0542 0.0000
# 6 0.0000 0.0000 0.0000 36.4716 0.0000 106.6380
#
#
#
# Elastic Compliance Matrix: (Units=1/GPa)
#
#
# Indices 1 2 3 4 5 6 
#
# 1 0.008246 -0.000762 -0.000785 0.000000 -0.006946 0.000000
# 2 -0.000762 0.007766 -0.000394 0.000000 -0.007585 0.000000
# 3 -0.000785 -0.000394 0.029443 0.000000 -0.012446 0.000000
# 4 0.000000 0.000000 0.000000 0.085034 0.000000 -0.029083
# 5 -0.006946 -0.007585 -0.012446 0.000000 0.045316 0.000000
# 6 0.000000 0.000000 0.000000 -0.029083 0.000000 0.019324
#
#
# Mechanical properties :
#
#
# Convention : Reuss Voigt Hill
#
# Bulk Modulus (GPa) = 24.05407 65.45240 44.75324
# Shear Modulus (GPa) = 23.48869 53.27109 38.37989
#
# Velocity S-wave (km/s) = 3.20952 4.83344 4.10263
# Velocity P-wave (km/s) = 4.92784 7.73652 6.48604
#
# Compressibility (1/GPa) = 0.04157300
#
# Stress axis : x y z
#
# Youngs Moduli (GPa) = 121.27489 128.76580 33.96401
#
# Poissons Ratio (x) = 0.09818 0.02665
# Poissons Ratio (y) = 0.09246 0.01338
# Poissons Ratio (z) = 0.09515 0.05071
#
# Static dielectric constant tensor:
#      x y z
#    x 1.838010 0.000000 -0.051220 
#    y 0.000000 1.864090 0.000000 
#    z -0.051220 0.000000 1.884790 
# 
# From -- ./inp_files/39557.got.cif
#   From: 2010.05.17/outbox.cif.g08.bks.cpg/sg12_20_cif.got.tgz:39557.got - 2010.06.03 13:09:07.
