data_PCOD9218278
_publ_section_title
;
Structure prediction by ZEFSAII (Michael W. Deem and Ramdas Pophale) SiO2 
 PCOD9218278
Probable space group: C 2/M
;
_chemical_formula_sum "Si O2"
_cell_formula_units_Z 48
_cell_length_a 20.736411
_cell_length_b 8.755736
_cell_length_c 21.457499
_cell_angle_alpha 90.000000
_cell_angle_beta 41.696897
_cell_angle_gamma 90.000000
_cell_volume 2591.498784
_symmetry_space_group_name_H-M "C 2/M"
_symmetry_group_IT_number 12
_symmetry_cell_setting 'monoclinic'
loop_
_space_group_symop_operation_xyz
x,y,z
-x,y,-z
-x,-y,-z
x,-y,z
1/2+x,1/2+y,z
1/2-x,1/2+y,-z
1/2-x,1/2-y,-z
1/2+x,1/2-y,z
loop_
_atom_site_type_symbol
_atom_site_label
_atom_site_fract_x
_atom_site_fract_y
_atom_site_fract_z
Si Si1 0.021764 0.318346 0.814415
Si Si2 0.735854 0.682556 0.682503
Si Si3 0.416738 0.682317 0.008395
Si Si4 0.226613 0.183077 0.209328
Si Si5 0.174208 0.817176 0.504814
Si Si6 0.527328 0.682587 0.282714
O O1 0.031410 0.500000 0.811930
O O2 0.127019 0.242581 0.748520
O O3 0.983399 0.269889 0.774475
O O4 0.951614 0.256703 0.919024
O O5 0.734832 0.500000 0.683368
O O6 0.769472 0.745167 0.724866
O O7 0.802249 0.744749 0.578804
O O8 0.407691 0.500000 0.007716
O O9 0.317135 0.752119 0.105299
O O10 0.500000 0.711422 0.000000
O O11 0.126226 0.219582 0.247096
O O12 0.235017 0.000000 0.208331
O O13 0.250000 0.750000 0.500000
O O14 0.066392 0.783742 0.607201
O O15 0.186361 0.000000 0.492711
O O16 0.526231 0.500000 0.270748
#
# Coordination Sequence:
#
# PCOD9218278 Si02
#       6
#     8   8   8   8   8   8
#     4  12  24  39  66  96 124 164 214 261 308 376
#     4  12  24  40  63  93 129 167 210 262 314 370
#     4  11  23  40  65  94 127 166 207 257 315 374
#     4  11  24  43  66  94 127 166 211 260 314 373
#     4  11  22  39  65  95 126 166 212 261 313 371
#     4  10  24  44  65  92 131 167 204 261 321 371
#
# _framework density 18.522099999999998
#
# number of rings (size 3 to 8) (size 9 to 14) (size 15 to 20)
#    0.000    0.833    3.333    4.500    0.000    4.000 
#    0.000    3.333    0.000    0.000    0.000    0.000 
#    0.000    0.000    0.000    0.000    0.000    0.000 
#
# Total GULP energy -134297.516808 kJ/mol
# GULP energy per Si atom -5595.729867 kJ/mol
# Density = 1.847994 g / cm^3
# Si number density = 18.522100 Si / 1000 Ang^3
#
#
#
# Elastic Constant Matrix: (Units=GPa)
#
#
# Indices 1 2 3 4 5 6 
#
# 1 149.2457 97.8036 98.3992 0.0000 2.6653 0.0000
# 2 97.8036 129.1301 98.5501 0.0001 3.0978 -0.0002
# 3 98.3992 98.5501 181.2865 -0.0001 12.4210 0.0000
# 4 0.0000 0.0001 -0.0001 30.9135 0.0000 4.3734
# 5 2.6653 3.0978 12.4210 0.0000 39.4634 0.0000
# 6 0.0000 -0.0002 0.0000 4.3734 0.0000 32.8355
#
#
#
# Elastic Compliance Matrix: (Units=1/GPa)
#
#
# Indices 1 2 3 4 5 6 
#
# 1 0.014337 -0.008373 -0.003279 0.000000 0.000721 0.000000
# 2 -0.008373 0.018186 -0.005399 0.000000 0.000837 0.000000
# 3 -0.003279 -0.005399 0.010411 0.000000 -0.002632 0.000000
# 4 0.000000 0.000000 0.000000 0.032970 0.000000 -0.004391
# 5 0.000721 0.000837 -0.002632 0.000000 0.026054 0.000000
# 6 0.000000 0.000000 0.000000 -0.004391 0.000000 0.031040
#
#
# Mechanical properties :
#
#
# Convention : Reuss Voigt Hill
#
# Bulk Modulus (GPa) = 113.23137 116.57424 114.90281
# Shear Modulus (GPa) = 29.40414 31.63644 30.52029
#
# Velocity S-wave (km/s) = 3.98869 4.13732 4.06369
# Velocity P-wave (km/s) = 9.08178 9.26811 9.17542
#
# Compressibility (1/GPa) = 0.00883147
#
# Stress axis : x y z
#
# Youngs Moduli (GPa) = 69.75087 54.98641 96.04971
#
# Poissons Ratio (x) = 0.46042 0.31498
# Poissons Ratio (y) = 0.58404 0.51856
# Poissons Ratio (z) = 0.22873 0.29686
#
# Static dielectric constant tensor:
#      x y z
#    x 1.604790 0.000000 -0.000650 
#    y 0.000000 1.618940 0.000000 
#    z -0.000650 0.000000 1.612070 
# 
# From -- ./inp_files/319544.got.cif
#   From: 2010.05.17/outbox.cif.g08.bks.cpg/sg12_160_cif.got.tgz:319544.got - 2010.06.03 13:09:07.
