data_PCOD9218832
_publ_section_title
;
Structure prediction by ZEFSAII (Michael W. Deem and Ramdas Pophale) SiO2 
 PCOD9218832
Probable space group: C 2/M
;
_chemical_formula_sum "Si O2"
_cell_formula_units_Z 48
_cell_length_a 20.176469
_cell_length_b 19.069635
_cell_length_c 14.031381
_cell_angle_alpha 90.000000
_cell_angle_beta 151.669831
_cell_angle_gamma 90.000000
_cell_volume 2561.955301
_symmetry_space_group_name_H-M "C 2/M"
_symmetry_group_IT_number 12
_symmetry_cell_setting 'monoclinic'
loop_
_space_group_symop_operation_xyz
x,y,z
-x,y,-z
-x,-y,-z
x,-y,z
1/2+x,1/2+y,z
1/2-x,1/2+y,-z
1/2-x,1/2-y,-z
1/2+x,1/2-y,z
loop_
_atom_site_type_symbol
_atom_site_label
_atom_site_fract_x
_atom_site_fract_y
_atom_site_fract_z
Si Si1 0.519864 0.581605 0.633609
Si Si2 0.151543 0.777320 0.145323
Si Si3 0.642835 0.789215 0.438444
Si Si4 0.488413 0.923796 0.826213
Si Si5 0.631360 0.298690 0.895599
Si Si6 0.205566 0.389007 0.241330
O O1 0.500000 0.608773 0.500000
O O2 0.559722 0.500000 0.681486
O O3 0.620942 0.627846 0.826786
O O4 0.360070 0.589108 0.465764
O O5 0.266848 0.813141 0.357221
O O6 0.185116 0.694417 0.201632
O O7 0.153172 0.799704 0.037410
O O8 0.000000 0.788947 0.000000
O O9 0.750000 0.750000 0.500000
O O10 0.560471 0.855743 0.292544
O O11 0.521452 0.735390 0.312497
O O12 0.391973 0.916992 0.797966
O O13 0.467465 0.000000 0.754358
O O14 0.646011 0.918738 0.066415
O O15 0.750000 0.250000 0.000000
#
# Coordination Sequence:
#
# PCOD9218832 Si02
#       6
#     8   8   8   8   8   8
#     4  11  24  40  61  89 125 161 197 249 315 371
#     4  12  21  38  64  90 123 164 212 256 305 367
#     4  12  21  39  63  87 123 167 209 252 303 371
#     4  11  21  33  57  93 124 153 198 255 310 358
#     4  12  25  40  63  94 126 161 208 256 304 371
#     4  11  17  35  58  89 121 153 198 254 305 359
#
# _framework density 18.735690000000002
#
# number of rings (size 3 to 8) (size 9 to 14) (size 15 to 20)
#    0.000    0.500    8.333    3.000    0.000    0.000 
#    0.000    0.833    0.000    1.000    0.000    2.333 
#    0.000    0.000    0.000    0.000    0.000    0.000 
#
# Total GULP energy -133960.027974 kJ/mol
# GULP energy per Si atom -5581.667832 kJ/mol
# Density = 1.869305 g / cm^3
# Si number density = 18.735690 Si / 1000 Ang^3
#
#
#
# Elastic Constant Matrix: (Units=GPa)
#
#
# Indices 1 2 3 4 5 6 
#
# 1 81.2922 7.4342 26.8129 0.0000 -12.8674 0.0000
# 2 7.4342 96.7021 17.6626 0.0000 -16.4355 0.0000
# 3 26.8129 17.6626 94.1521 0.0000 -15.8444 0.0000
# 4 0.0000 0.0000 0.0000 21.4716 0.0000 -8.0841
# 5 -12.8674 -16.4355 -15.8444 0.0000 36.9842 0.0000
# 6 0.0000 0.0000 0.0000 -8.0841 0.0000 14.3257
#
#
#
# Elastic Compliance Matrix: (Units=1/GPa)
#
#
# Indices 1 2 3 4 5 6 
#
# 1 0.013964 0.000138 -0.003421 0.000000 0.003454 0.000000
# 2 0.000138 0.011351 -0.001414 0.000000 0.004487 0.000000
# 3 -0.003421 -0.001414 0.012452 0.000000 0.003516 0.000000
# 4 0.000000 0.000000 0.000000 0.059138 0.000000 0.033372
# 5 0.003454 0.004487 0.003516 0.000000 0.031741 0.000000
# 6 0.000000 0.000000 0.000000 0.033372 0.000000 0.088636
#
#
# Mechanical properties :
#
#
# Convention : Reuss Voigt Hill
#
# Bulk Modulus (GPa) = 35.24352 41.77398 38.50875
# Shear Modulus (GPa) = 21.17448 29.23876 25.20662
#
# Velocity S-wave (km/s) = 3.36544 3.95472 3.67192
# Velocity P-wave (km/s) = 5.82695 6.57251 6.21093
#
# Compressibility (1/GPa) = 0.02837401
#
# Stress axis : x y z
#
# Youngs Moduli (GPa) = 71.61349 88.09633 80.30590
#
# Poissons Ratio (x) = -0.01220 0.27476
# Poissons Ratio (y) = -0.00992 0.11354
# Poissons Ratio (z) = 0.24502 0.12455
#
# Static dielectric constant tensor:
#      x y z
#    x 1.709110 0.000000 0.022000 
#    y 0.000000 1.682160 0.000000 
#    z 0.022000 0.000000 1.693230 
# 
# From -- ./inp_files/234343.got.cif
#   From: 2010.05.17/outbox.cif.g08.bks.cpg/sg12_118_cif.got.tgz:234343.got - 2010.06.03 13:09:07.
