data_PCOD9218374
_publ_section_title
;
Structure prediction by ZEFSAII (Michael W. Deem and Ramdas Pophale) SiO2 
 PCOD9218374
Probable space group: C 2/M
;
_chemical_formula_sum "Si O2"
_cell_formula_units_Z 56
_cell_length_a 29.871721
_cell_length_b 8.380728
_cell_length_c 12.917601
_cell_angle_alpha 90.000000
_cell_angle_beta 58.018798
_cell_angle_gamma 90.000000
_cell_volume 2743.047589
_symmetry_space_group_name_H-M "C 2/M"
_symmetry_group_IT_number 12
_symmetry_cell_setting 'monoclinic'
loop_
_space_group_symop_operation_xyz
x,y,z
-x,y,-z
-x,-y,-z
x,-y,z
1/2+x,1/2+y,z
1/2-x,1/2+y,-z
1/2-x,1/2-y,-z
1/2+x,1/2-y,z
loop_
_atom_site_type_symbol
_atom_site_label
_atom_site_fract_x
_atom_site_fract_y
_atom_site_fract_z
Si Si1 0.366670 0.810937 0.481822
Si Si2 0.060043 0.308187 0.419190
Si Si3 0.752348 0.189017 0.679560
Si Si4 0.053064 0.805053 0.991973
Si Si5 0.645406 0.689178 0.725332
Si Si6 0.595308 0.689466 0.154008
Si Si7 0.710938 0.191219 0.958877
O O1 0.403480 0.751160 0.530645
O O2 0.305744 0.777940 0.584445
O O3 0.377482 0.727005 0.359450
O O4 0.374647 0.000000 0.459508
O O5 0.058895 0.500000 0.428084
O O6 0.083329 0.264710 0.279246
O O7 0.000000 0.248034 0.500000
O O8 0.702298 0.230155 0.669567
O O9 0.734579 0.232335 0.817761
O O10 0.762693 0.000000 0.661929
O O11 0.104390 0.754660 0.863428
O O12 0.053116 0.000000 0.991483
O O13 0.058314 0.753502 0.104617
O O14 0.000000 0.751760 0.000000
O O15 0.652622 0.500000 0.728015
O O16 0.589351 0.500000 0.171340
O O17 0.654505 0.729194 0.046141
O O18 0.705138 0.000000 0.970821
O O19 0.750000 0.250000 0.000000
#
# Coordination Sequence:
#
# PCOD9218374 Si02
#       7
#     8   8   8   8   8   8   8
#     4  11  24  41  62  88 123 163 206 253 304 364
#     4  10  24  45  65  88 124 167 208 255 310 365
#     4  11  23  40  61  89 124 160 204 250 302 367
#     4   9  20  38  61  92 126 160 199 249 307 362
#     4  11  22  39  65  92 125 162 201 250 306 366
#     4  11  22  39  65  94 125 159 205 255 305 367
#     4  11  23  38  61  90 125 163 204 253 305 366
#
# _framework density 20.415248999999999
#
# number of rings (size 3 to 8) (size 9 to 14) (size 15 to 20)
#    0.000    1.429    1.429    3.429    2.000    5.429 
#    0.000    0.000    0.000    3.429    0.000    0.000 
#    0.000    0.000    0.000    0.000    0.000    0.000 
#
# Total GULP energy -156582.441432 kJ/mol
# GULP energy per Si atom -5592.230051 kJ/mol
# Density = 2.036878 g / cm^3
# Si number density = 20.415249 Si / 1000 Ang^3
#
#
#
# Elastic Constant Matrix: (Units=GPa)
#
#
# Indices 1 2 3 4 5 6 
#
# 1 119.3267 -6.1796 15.9208 0.0000 26.1508 0.0000
# 2 -6.1796 8.5881 -2.3382 0.0000 2.7460 0.0000
# 3 15.9208 -2.3382 69.7734 0.0000 25.4236 0.0000
# 4 0.0000 0.0000 0.0000 7.5462 0.0000 7.4010
# 5 26.1508 2.7460 25.4236 0.0000 39.3262 0.0000
# 6 0.0000 0.0000 0.0000 7.4010 0.0000 14.8586
#
#
#
# Elastic Compliance Matrix: (Units=1/GPa)
#
#
# Indices 1 2 3 4 5 6 
#
# 1 0.010657 0.010660 0.001019 0.000000 -0.008490 0.000000
# 2 0.010660 0.134439 0.010565 0.000000 -0.023306 0.000000
# 3 0.001019 0.010565 0.019582 0.000000 -0.014075 0.000000
# 4 0.000000 0.000000 0.000000 0.259084 0.000000 -0.129048
# 5 -0.008490 -0.023306 -0.014075 0.000000 0.041800 0.000000
# 6 0.000000 0.000000 0.000000 -0.129048 0.000000 0.131579
#
#
# Mechanical properties :
#
#
# Convention : Reuss Voigt Hill
#
# Bulk Modulus (GPa) = 4.78087 23.61046 14.19566
# Shear Modulus (GPa) = 8.03373 25.03188 16.53280
#
# Velocity S-wave (km/s) = 1.98588 3.50542 2.84883
# Velocity P-wave (km/s) = 2.75775 5.28906 4.21778
#
# Compressibility (1/GPa) = 0.20916712
#
# Stress axis : x y z
#
# Youngs Moduli (GPa) = 93.83495 7.43829 51.06694
#
# Poissons Ratio (x) = -0.07929 -0.05204
# Poissons Ratio (y) = -1.00031 -0.53952
# Poissons Ratio (z) = -0.09562 -0.07859
#
# Static dielectric constant tensor:
#      x y z
#    x 1.714540 0.000000 0.014000 
#    y 0.000000 1.704980 0.000000 
#    z 0.014000 0.000000 1.699560 
# 
# From -- ./inp_files/187271.got.cif
#   From: 2010.05.17/outbox.cif.g08.bks.cpg/sg12_94_cif.got.tgz:187271.got - 2010.06.03 13:09:07.
