data_PCOD9218606
_publ_section_title
;
Structure prediction by ZEFSAII (Michael W. Deem and Ramdas Pophale) SiO2 
 PCOD9218606
Probable space group: C 2/M
;
_chemical_formula_sum "Si O2"
_cell_formula_units_Z 44
_cell_length_a 9.010276
_cell_length_b 16.648255
_cell_length_c 17.714686
_cell_angle_alpha 90.000000
_cell_angle_beta 56.818563
_cell_angle_gamma 90.000000
_cell_volume 2224.003491
_symmetry_space_group_name_H-M "C 2/M"
_symmetry_group_IT_number 12
_symmetry_cell_setting 'monoclinic'
loop_
_space_group_symop_operation_xyz
x,y,z
-x,y,-z
-x,-y,-z
x,-y,z
1/2+x,1/2+y,z
1/2-x,1/2+y,-z
1/2-x,1/2-y,-z
1/2+x,1/2-y,z
loop_
_atom_site_type_symbol
_atom_site_label
_atom_site_fract_x
_atom_site_fract_y
_atom_site_fract_z
Si Si1 0.320757 0.662067 0.002602
Si Si2 0.328665 0.166073 0.598550
Si Si3 0.015557 0.591338 0.820268
Si Si4 0.355325 0.500000 0.325753
Si Si5 0.146181 0.876387 0.175894
Si Si6 0.001643 0.276509 0.702825
O O1 0.355538 0.618319 0.913550
O O2 0.500000 0.669113 0.000000
O O3 0.250000 0.750000 0.000000
O O4 0.171683 0.617221 0.092610
O O5 0.500000 0.182109 0.500000
O O6 0.273089 0.073177 0.608428
O O7 0.166165 0.225765 0.624253
O O8 0.381106 0.187725 0.670257
O O9 0.008218 0.500000 0.794898
O O10 0.164648 0.599139 0.842942
O O11 0.064178 0.651285 0.739030
O O12 0.493951 0.430820 0.254228
O O13 0.107087 0.785595 0.214495
#
# Coordination Sequence:
#
# PCOD9218606 Si02
#       6
#     8   8   8   4   8   8
#     4  12  27  41  66  97 134 181 229 274 316 389
#     4  11  24  45  71 100 131 171 222 277 339 401
#     4  12  26  43  67 100 137 177 225 273 329 387
#     4  10  25  40  74  95 136 171 217 275 339 392
#     4  11  23  46  66  95 136 179 218 269 335 388
#     4  11  24  42  70  97 132 175 220 270 332 403
#
# _framework density 19.784141999999999
#
# number of rings (size 3 to 8) (size 9 to 14) (size 15 to 20)
#    0.000    0.727    4.545    2.455    7.636    1.091 
#    0.000    0.000    0.000    1.636    0.000    0.000 
#    0.000    0.000    0.000    0.000    0.000    0.000 
#
# Total GULP energy -122520.393093 kJ/mol
# GULP energy per Si atom -5569.108777 kJ/mol
# Density = 1.973911 g / cm^3
# Si number density = 19.784142 Si / 1000 Ang^3
#
#
#
# Elastic Constant Matrix: (Units=GPa)
#
#
# Indices 1 2 3 4 5 6 
#
# 1 49.0615 13.6923 3.9447 0.0000 -7.4909 0.0000
# 2 13.6923 146.3997 16.2482 0.0000 -8.3251 0.0000
# 3 3.9447 16.2482 54.1653 0.0000 -18.4138 0.0000
# 4 0.0000 0.0000 0.0000 23.5356 0.0000 -8.3633
# 5 -7.4909 -8.3251 -18.4138 0.0000 37.2747 0.0000
# 6 0.0000 0.0000 0.0000 -8.3633 0.0000 13.0228
#
#
#
# Elastic Compliance Matrix: (Units=1/GPa)
#
#
# Indices 1 2 3 4 5 6 
#
# 1 0.021485 -0.001818 0.000373 0.000000 0.004096 0.000000
# 2 -0.001818 0.007232 -0.001938 0.000000 0.000293 0.000000
# 3 0.000373 -0.001938 0.022708 0.000000 0.010860 0.000000
# 4 0.000000 0.000000 0.000000 0.055052 0.000000 0.035355
# 5 0.004096 0.000293 0.010860 0.000000 0.033081 0.000000
# 6 0.000000 0.000000 0.000000 0.035355 0.000000 0.099493
#
#
# Mechanical properties :
#
#
# Convention : Reuss Voigt Hill
#
# Bulk Modulus (GPa) = 22.39103 35.26636 28.82870
# Shear Modulus (GPa) = 19.17884 29.14937 24.16411
#
# Velocity S-wave (km/s) = 3.11690 3.84262 3.49863
# Velocity P-wave (km/s) = 4.92907 6.12796 5.56091
#
# Compressibility (1/GPa) = 0.04466074
#
# Stress axis : x y z
#
# Youngs Moduli (GPa) = 46.54339 138.26793 44.03737
#
# Poissons Ratio (x) = 0.25136 -0.01643
# Poissons Ratio (y) = 0.08461 0.08533
# Poissons Ratio (z) = -0.01736 0.26791
#
# Static dielectric constant tensor:
#      x y z
#    x 1.692740 0.000000 0.001210 
#    y 0.000000 1.717940 0.000000 
#    z 0.001210 0.000000 1.693000 
# 
# From -- ./inp_files/195515.got.cif
#   From: 2010.05.17/outbox.cif.g08.bks.cpg/sg12_98_cif.got.tgz:195515.got - 2010.06.03 13:09:07.
