data_PCOD9218731
_publ_section_title
;
Structure prediction by ZEFSAII (Michael W. Deem and Ramdas Pophale) SiO2 
 PCOD9218731
Probable space group: C 2/M
;
_chemical_formula_sum "Si O2"
_cell_formula_units_Z 28
_cell_length_a 18.461563
_cell_length_b 17.410250
_cell_length_c 8.786400
_cell_angle_alpha 90.000000
_cell_angle_beta 23.772848
_cell_angle_gamma 90.000000
_cell_volume 1138.439102
_symmetry_space_group_name_H-M "C 2/M"
_symmetry_group_IT_number 12
_symmetry_cell_setting 'monoclinic'
loop_
_space_group_symop_operation_xyz
x,y,z
-x,y,-z
-x,-y,-z
x,-y,z
1/2+x,1/2+y,z
1/2-x,1/2+y,-z
1/2-x,1/2-y,-z
1/2+x,1/2-y,z
loop_
_atom_site_type_symbol
_atom_site_label
_atom_site_fract_x
_atom_site_fract_y
_atom_site_fract_z
Si Si1 0.302257 0.840482 0.197516
Si Si2 0.734450 0.000000 0.647642
Si Si3 0.713958 0.586347 0.071563
Si Si4 0.000000 0.209774 0.000000
Si Si5 0.160593 0.000000 0.899445
O O1 0.284755 0.847853 0.047708
O O2 0.124557 0.838611 0.647567
O O3 0.402616 0.766926 0.068357
O O4 0.374068 0.924152 0.099827
O O5 0.940545 0.000000 0.323375
O O6 0.774363 0.000000 0.393867
O O7 0.500000 0.590257 0.500000
O O8 0.776211 0.500000 0.002720
O O9 0.733547 0.575058 0.852557
#
# Coordination Sequence:
#
# PCOD9218731 Si02
#       5
#     8   4   8   4   4
#     4  11  20  40  58  84 111 154 181 242 269 343
#     4  11  17  31  68  81 106 144 205 225 267 323
#     4   9  15  30  55  87 109 138 183 241 268 327
#     4  10  26  36  56  82 124 144 192 220 298 326
#     4   9  16  27  55 100 104 136 190 248 258 333
#
# _framework density 24.595081
#
# number of rings (size 3 to 8) (size 9 to 14) (size 15 to 20)
#    0.857    1.143    4.286    1.714    0.000    0.571 
#    0.000    1.429    0.000    1.714    0.000    0.000 
#    0.000    0.000    0.000    0.000    0.000    0.000 
#
# Total GULP energy -77947.066196 kJ/mol
# GULP energy per Si atom -5567.647585 kJ/mol
# Density = 2.453910 g / cm^3
# Si number density = 24.595081 Si / 1000 Ang^3
#
#
#
# Elastic Constant Matrix: (Units=GPa)
#
#
# Indices 1 2 3 4 5 6 
#
# 1 182.8840 34.4529 15.0507 -0.0022 21.1174 -0.0023
# 2 34.4529 88.6907 2.7780 -0.0013 -3.9110 -0.0033
# 3 15.0507 2.7780 38.3022 -0.0018 3.4860 -0.0009
# 4 -0.0022 -0.0013 -0.0018 -53.1200 0.0023 -47.7285
# 5 21.1174 -3.9110 3.4860 0.0023 28.4093 0.0014
# 6 -0.0023 -0.0033 -0.0009 -47.7285 0.0014 -4.3714
#
#
#
# Elastic Compliance Matrix: (Units=1/GPa)
#
#
# Indices 1 2 3 4 5 6 
#
# 1 0.006752 -0.002788 -0.001981 0.000000 -0.005160 0.000000
# 2 -0.002788 0.012532 -0.000161 -0.000001 0.003818 0.000001
# 3 -0.001981 -0.000161 0.027069 0.000000 -0.001871 -0.000001
# 4 0.000000 -0.000001 0.000000 0.002137 0.000001 -0.023330
# 5 -0.005160 0.003818 -0.001871 0.000001 0.039790 0.000001
# 6 0.000000 0.000001 -0.000001 -0.023330 0.000001 0.025965
#
#
# Mechanical properties :
#
#
# Convention : Reuss Voigt Hill
#
# Bulk Modulus (GPa) = 27.40354 46.04889 36.72622
# Shear Modulus (GPa) = 36.69195 11.35660 24.02428
#
# Velocity S-wave (km/s) = 3.86663 2.15115 3.12876
# Velocity P-wave (km/s) = 5.57678 4.99333 5.29310
#
# Compressibility (1/GPa) = 0.03649163
#
# Stress axis : x y z
#
# Youngs Moduli (GPa) = 148.10230 79.79768 36.94307
#
# Poissons Ratio (x) = 0.22251 0.07320
# Poissons Ratio (y) = 0.41297 0.00594
# Poissons Ratio (z) = 0.29344 0.01282
#
# Static dielectric constant tensor:
#      x y z
#    x 2.072870 0.000000 -0.049490 
#    y 0.000000 1.959900 0.000000 
#    z -0.049490 0.000000 1.980140 
# 
# From -- ./inp_files/74878.got.cif
#   From: 2010.05.17/outbox.cif.g08.bks.cpg/sg12_38_cif.got.tgz:74878.got - 2010.06.03 13:09:07.
