data_PCOD9218792
_publ_section_title
;
Structure prediction by ZEFSAII (Michael W. Deem and Ramdas Pophale) SiO2 
 PCOD9218792
Probable space group: C 2/M
;
_chemical_formula_sum "Si O2"
_cell_formula_units_Z 58
_cell_length_a 25.283865
_cell_length_b 7.979740
_cell_length_c 22.804342
_cell_angle_alpha 90.000000
_cell_angle_beta 38.202547
_cell_angle_gamma 90.000000
_cell_volume 2845.441483
_symmetry_space_group_name_H-M "C 2/M"
_symmetry_group_IT_number 12
_symmetry_cell_setting 'monoclinic'
loop_
_space_group_symop_operation_xyz
x,y,z
-x,y,-z
-x,-y,-z
x,-y,z
1/2+x,1/2+y,z
1/2-x,1/2+y,-z
1/2-x,1/2-y,-z
1/2+x,1/2-y,z
loop_
_atom_site_type_symbol
_atom_site_label
_atom_site_fract_x
_atom_site_fract_y
_atom_site_fract_z
Si Si1 0.296794 0.691966 0.805717
Si Si2 0.283933 0.808849 0.688391
Si Si3 0.500000 0.000000 0.000000
Si Si4 0.818052 0.701570 0.990317
Si Si5 0.447761 0.307063 0.489357
Si Si6 0.083550 0.796187 0.845790
Si Si7 0.531842 0.813699 0.300538
Si Si8 0.494095 0.693385 0.210456
O O1 0.276694 0.500000 0.807591
O O2 0.308285 0.787966 0.735337
O O3 0.220990 0.756481 0.913261
O O4 0.384819 0.697496 0.765368
O O5 0.348876 0.701893 0.593095
O O6 0.183911 0.770694 0.770811
O O7 0.297249 0.000000 0.658403
O O8 0.533138 0.152959 0.925814
O O9 0.825984 0.500000 0.984702
O O10 0.750000 0.750000 0.000000
O O11 0.909167 0.778272 0.896437
O O12 0.500000 0.237599 0.500000
O O13 0.475437 0.500000 0.457931
O O14 0.471628 0.216530 0.408598
O O15 0.064840 0.765556 0.793401
O O16 0.064252 0.000000 0.873830
O O17 0.485901 0.789926 0.278627
O O18 0.568123 0.000000 0.271079
O O19 0.481367 0.500000 0.236217
#
# Coordination Sequence:
#
# PCOD9218792 Si02
#       8
#     8   8   2   8   8   8   8   8
#     4  11  23  37  58  91 129 169 215 265 333 400
#     4  11  24  43  66  95 135 169 217 281 335 398
#     4  12  26  44  80  94 138 180 236 276 328 400
#     4  11  23  36  57  88 125 168 214 261 322 394
#     4  11  23  40  66  97 131 170 219 275 340 405
#     4  10  27  47  69 104 140 182 230 282 336 396
#     4  12  24  39  64  95 128 170 220 270 335 403
#     4  11  24  44  65  89 135 177 220 277 330 398
#
# _framework density 20.383479999999999
#
# number of rings (size 3 to 8) (size 9 to 14) (size 15 to 20)
#    0.000    0.966    2.759    3.517    5.793    2.207 
#    0.000    0.690    0.000    0.000    0.000    0.000 
#    0.000    0.000    0.000    0.000    0.000    0.000 
#
# Total GULP energy -161758.061433 kJ/mol
# GULP energy per Si atom -5577.864187 kJ/mol
# Density = 2.033709 g / cm^3
# Si number density = 20.383480 Si / 1000 Ang^3
#
#
#
# Elastic Constant Matrix: (Units=GPa)
#
#
# Indices 1 2 3 4 5 6 
#
# 1 79.6147 22.7968 26.4782 0.0020 10.8830 -0.0028
# 2 22.7968 66.4685 22.8416 0.0065 13.7267 -0.0072
# 3 26.4782 22.8416 80.1976 -0.0027 39.8956 0.0049
# 4 0.0020 0.0065 -0.0027 29.6433 -0.0014 3.7869
# 5 10.8830 13.7267 39.8956 -0.0014 13.9288 0.0010
# 6 -0.0028 -0.0072 0.0049 3.7869 0.0010 19.3795
#
#
#
# Elastic Compliance Matrix: (Units=1/GPa)
#
#
# Indices 1 2 3 4 5 6 
#
# 1 0.014624 -0.003443 -0.000350 -0.000001 -0.007032 0.000001
# 2 -0.003443 0.017229 -0.007856 -0.000005 0.008214 0.000008
# 3 -0.000350 -0.007856 -0.025502 0.000004 0.081059 -0.000001
# 4 -0.000001 -0.000005 0.000004 0.034598 -0.000001 -0.006761
# 5 -0.007032 0.008214 0.081059 -0.000001 -0.162979 -0.000010
# 6 0.000001 0.000008 -0.000001 -0.006761 -0.000010 0.052922
#
#
# Mechanical properties :
#
#
# Convention : Reuss Voigt Hill
#
# Bulk Modulus (GPa) = -59.00780 41.16821 -8.91980
# Shear Modulus (GPa) = -97.16729 22.86794 -37.14967
#
# Velocity S-wave (km/s) = -6.91181 3.35309 -4.27375
# Velocity P-wave (km/s) = 9.62856 5.93563 5.36085
#
# Compressibility (1/GPa) = -0.01694691
#
# Stress axis : x y z
#
# Youngs Moduli (GPa) = 68.38122 58.04089 -39.21314
#
# Poissons Ratio (x) = 0.19985 -0.01371
# Poissons Ratio (y) = 0.23546 -0.30807
# Poissons Ratio (z) = 0.02390 0.45599
#
# Static dielectric constant tensor:
#      x y z
#    x 1.721210 0.000000 0.006410 
#    y 0.000000 1.724640 0.000000 
#    z 0.006410 0.000000 1.691430 
# 
# From -- ./inp_files/324535.got.cif
#   From: 2010.05.17/outbox.cif.g08.bks.cpg/sg12_163_cif.got.tgz:324535.got - 2010.06.03 13:09:07.
