data_PCOD9218046
_publ_section_title
;
Structure prediction by ZEFSAII (Michael W. Deem and Ramdas Pophale) SiO2 
 PCOD9218046
Probable space group: C 2/M
;
_chemical_formula_sum "Si O2"
_cell_formula_units_Z 32
_cell_length_a 9.095335
_cell_length_b 10.064325
_cell_length_c 16.503571
_cell_angle_alpha 90.000000
_cell_angle_beta 79.671553
_cell_angle_gamma 90.000000
_cell_volume 1486.231267
_symmetry_space_group_name_H-M "C 2/M"
_symmetry_group_IT_number 12
_symmetry_cell_setting 'monoclinic'
loop_
_space_group_symop_operation_xyz
x,y,z
-x,y,-z
-x,-y,-z
x,-y,z
1/2+x,1/2+y,z
1/2-x,1/2+y,-z
1/2-x,1/2-y,-z
1/2+x,1/2-y,z
loop_
_atom_site_type_symbol
_atom_site_label
_atom_site_fract_x
_atom_site_fract_y
_atom_site_fract_z
Si Si1 0.530751 0.757206 0.313650
Si Si2 0.165145 0.651774 0.947496
Si Si3 0.241579 0.853847 0.428590
Si Si4 0.675372 0.646492 0.800317
O O1 0.395890 0.843146 0.363337
O O2 0.609236 0.679688 0.379409
O O3 0.452332 0.663934 0.254783
O O4 0.663383 0.839031 0.258249
O O5 0.225300 0.500000 0.934413
O O6 0.161076 0.730876 0.863357
O O7 0.250000 0.750000 0.000000
O O8 0.000000 0.640983 0.000000
O O9 0.250000 0.750000 0.500000
O O10 0.222550 0.000000 0.464844
O O11 0.664068 0.500000 0.840149
#
# Coordination Sequence:
#
# PCOD9218046 Si02
#       4
#     8   8   8   8
#     4  10  24  41  63  92 126 162 205 255 310 368
#     4  11  25  43  64  93 128 165 206 253 306 365
#     4  11  24  42  64  91 125 164 207 256 309 367
#     4  11  23  41  66  93 123 162 207 255 308 366
#
# _framework density 21.530968999999999
#
# number of rings (size 3 to 8) (size 9 to 14) (size 15 to 20)
#    0.000    1.250    0.000    4.500    0.000   20.000 
#    0.000    0.000    0.000    0.000    0.000    0.000 
#    0.000    0.000    0.000    0.000    0.000    0.000 
#
# Total GULP energy -89482.573986 kJ/mol
# GULP energy per Si atom -5592.660874 kJ/mol
# Density = 2.148196 g / cm^3
# Si number density = 21.530969 Si / 1000 Ang^3
#
#
#
# Elastic Constant Matrix: (Units=GPa)
#
#
# Indices 1 2 3 4 5 6 
#
# 1 107.6940 29.0652 21.9484 0.0000 26.1374 0.0000
# 2 29.0652 202.7419 58.6373 0.0000 25.0518 0.0000
# 3 21.9484 58.6373 99.8727 0.0000 25.4823 0.0000
# 4 0.0000 0.0000 0.0000 31.8363 0.0000 -0.6365
# 5 26.1374 25.0518 25.4823 0.0000 29.9417 0.0000
# 6 0.0000 0.0000 0.0000 -0.6365 0.0000 0.6722
#
#
#
# Elastic Compliance Matrix: (Units=1/GPa)
#
#
# Indices 1 2 3 4 5 6 
#
# 1 0.011828 -0.000529 0.000297 0.000000 -0.010135 0.000000
# 2 -0.000529 0.006122 -0.002924 0.000000 -0.002172 0.000000
# 3 0.000297 -0.002924 0.014187 0.000000 -0.009887 0.000000
# 4 0.000000 0.000000 0.000000 0.032017 0.000000 0.030317
# 5 -0.010135 -0.002172 -0.009887 0.000000 0.052477 0.000000
# 6 0.000000 0.000000 0.000000 0.030317 0.000000 1.516446
#
#
# Mechanical properties :
#
#
# Convention : Reuss Voigt Hill
#
# Bulk Modulus (GPa) = 38.72235 69.95672 54.33953
# Shear Modulus (GPa) = 3.03399 32.53386 17.78392
#
# Velocity S-wave (km/s) = 1.18835 3.89141 2.87709
# Velocity P-wave (km/s) = 4.46166 7.26309 6.02739
#
# Compressibility (1/GPa) = 0.02582488
#
# Stress axis : x y z
#
# Youngs Moduli (GPa) = 84.54794 163.33644 70.48796
#
# Poissons Ratio (x) = 0.08645 -0.02097
# Poissons Ratio (y) = 0.04475 0.20611
# Poissons Ratio (z) = -0.02515 0.47761
#
# Static dielectric constant tensor:
#      x y z
#    x 1.768530 0.000000 -0.006400 
#    y 0.000000 1.781010 0.000000 
#    z -0.006400 0.000000 1.765450 
# 
# From -- ./inp_files/201888.got.cif
#   From: 2010.05.17/outbox.cif.g08.bks.cpg/sg12_101_cif.got.tgz:201888.got - 2010.06.03 13:09:07.
