data_PCOD9218576
_publ_section_title
;
Structure prediction by ZEFSAII (Michael W. Deem and Ramdas Pophale) SiO2 
 PCOD9218576
Probable space group: C 2/M
;
_chemical_formula_sum "Si O2"
_cell_formula_units_Z 32
_cell_length_a 10.114558
_cell_length_b 11.939637
_cell_length_c 12.422151
_cell_angle_alpha 90.000000
_cell_angle_beta 82.367263
_cell_angle_gamma 90.000000
_cell_volume 1486.858902
_symmetry_space_group_name_H-M "C 2/M"
_symmetry_group_IT_number 12
_symmetry_cell_setting 'monoclinic'
loop_
_space_group_symop_operation_xyz
x,y,z
-x,y,-z
-x,-y,-z
x,-y,z
1/2+x,1/2+y,z
1/2-x,1/2+y,-z
1/2-x,1/2-y,-z
1/2+x,1/2-y,z
loop_
_atom_site_type_symbol
_atom_site_label
_atom_site_fract_x
_atom_site_fract_y
_atom_site_fract_z
Si Si1 0.241374 0.721866 0.876121
Si Si2 0.458418 0.000000 0.368724
Si Si3 0.564162 0.000000 0.871829
Si Si4 0.113459 0.740764 0.575010
Si Si5 0.471323 0.369011 0.217343
O O1 0.157127 0.609769 0.863219
O O2 0.391654 0.700449 0.816879
O O3 0.152108 0.821917 0.838071
O O4 0.250000 0.750000 0.000000
O O5 0.500000 0.000000 0.500000
O O6 0.387077 0.118980 0.370047
O O7 0.520160 0.000000 0.234677
O O8 0.500000 0.000000 0.000000
O O9 0.250000 0.750000 0.500000
O O10 0.080107 0.841081 0.658166
O O11 0.000000 0.740646 0.500000
O O12 0.495941 0.500000 0.195880
#
# Coordination Sequence:
#
# PCOD9218576 Si02
#       5
#     8   4   4   8   8
#     4  12  27  48  75 110 157 205 262 323 398 473
#     4  10  24  48  76 107 153 200 264 311 392 480
#     4  12  24  48  78 114 160 209 258 329 399 472
#     4  11  25  46  71 106 146 197 253 321 392 462
#     4  12  27  50  75 110 152 202 265 327 393 478
#
# _framework density 21.521878999999998
#
# number of rings (size 3 to 8) (size 9 to 14) (size 15 to 20)
#    0.000    0.500    3.750    3.750    3.500    1.500 
#    9.000    0.000    0.000    0.000    0.000    0.000 
#    0.000    0.000    0.000    0.000    0.000    0.000 
#
# Total GULP energy -89109.941905 kJ/mol
# GULP energy per Si atom -5569.371369 kJ/mol
# Density = 2.147289 g / cm^3
# Si number density = 21.521879 Si / 1000 Ang^3
#
#
#
# Elastic Constant Matrix: (Units=GPa)
#
#
# Indices 1 2 3 4 5 6 
#
# 1 139.0472 24.9166 64.1506 0.0000 -19.7498 0.0000
# 2 24.9166 72.7423 9.7501 0.0000 8.4158 0.0000
# 3 64.1506 9.7501 148.3229 0.0000 -3.4405 0.0000
# 4 0.0000 0.0000 0.0000 36.8743 0.0000 -0.0867
# 5 -19.7498 8.4158 -3.4405 0.0000 38.4492 0.0000
# 6 0.0000 0.0000 0.0000 -0.0867 0.0000 24.7737
#
#
#
# Elastic Compliance Matrix: (Units=1/GPa)
#
#
# Indices 1 2 3 4 5 6 
#
# 1 0.010657 -0.003769 -0.004224 0.000000 0.005921 0.000000
# 2 -0.003769 0.015587 0.000483 0.000000 -0.005305 0.000000
# 3 -0.004224 0.000483 0.008502 0.000000 -0.001515 0.000000
# 4 0.000000 0.000000 0.000000 0.027119 0.000000 0.000095
# 5 0.005921 -0.005305 -0.001515 0.000000 0.030075 0.000000
# 6 0.000000 0.000000 0.000000 0.000095 0.000000 0.040366
#
#
# Mechanical properties :
#
#
# Convention : Reuss Voigt Hill
#
# Bulk Modulus (GPa) = 50.69749 61.97189 56.33469
# Shear Modulus (GPa) = 32.48785 37.43911 34.96348
#
# Velocity S-wave (km/s) = 3.88948 4.17536 4.03495
# Velocity P-wave (km/s) = 6.61650 7.21818 6.92388
#
# Compressibility (1/GPa) = 0.01972484
#
# Stress axis : x y z
#
# Youngs Moduli (GPa) = 93.83412 64.15480 117.61715
#
# Poissons Ratio (x) = 0.24182 0.49683
# Poissons Ratio (y) = 0.35369 -0.05676
# Poissons Ratio (z) = 0.39637 -0.03096
#
# Static dielectric constant tensor:
#      x y z
#    x 1.041440 0.000000 -0.837550 
#    y 0.000000 1.782480 0.000000 
#    z -0.837550 0.000000 0.828270 
# 
# From -- ./inp_files/127705.got.cif
#   From: 2010.05.17/outbox.cif.g08.bks.cpg/sg12_64_cif.got.tgz:127705.got - 2010.06.03 13:09:07.
