data_PCOD9218084
_publ_section_title
;
Structure prediction by ZEFSAII (Michael W. Deem and Ramdas Pophale) SiO2 
 PCOD9218084
Probable space group: C 2/M
;
_chemical_formula_sum "Si O2"
_cell_formula_units_Z 48
_cell_length_a 9.683120
_cell_length_b 16.049932
_cell_length_c 31.431561
_cell_angle_alpha 90.000000
_cell_angle_beta 151.364265
_cell_angle_gamma 90.000000
_cell_volume 2341.029776
_symmetry_space_group_name_H-M "C 2/M"
_symmetry_group_IT_number 12
_symmetry_cell_setting 'monoclinic'
loop_
_space_group_symop_operation_xyz
x,y,z
-x,y,-z
-x,-y,-z
x,-y,z
1/2+x,1/2+y,z
1/2-x,1/2+y,-z
1/2-x,1/2-y,-z
1/2+x,1/2-y,z
loop_
_atom_site_type_symbol
_atom_site_label
_atom_site_fract_x
_atom_site_fract_y
_atom_site_fract_z
Si Si1 0.286941 0.905731 0.060993
Si Si2 0.351190 0.500000 0.601097
Si Si3 0.102574 0.790827 0.254880
Si Si4 0.275236 0.181175 0.543686
Si Si5 0.865398 0.000000 0.511793
Si Si6 0.703235 0.640491 0.743796
Si Si7 0.337621 0.099928 0.911859
O O1 0.541374 0.909062 0.163891
O O2 0.430160 0.865957 0.059025
O O3 0.205160 0.000000 0.025711
O O4 0.000000 0.863022 0.000000
O O5 0.511281 0.500000 0.598026
O O6 0.468207 0.580762 0.658273
O O7 0.000000 0.500000 0.500000
O O8 0.436861 0.811371 0.351462
O O9 0.127238 0.697522 0.244099
O O10 0.949513 0.806870 0.259231
O O11 0.947305 0.848949 0.177666
O O12 0.250000 0.250000 0.500000
O O13 0.000000 0.189016 0.500000
O O14 0.290805 0.088458 0.528912
O O15 0.000000 0.000000 0.500000
O O16 0.283340 0.000000 0.890556
O O17 0.500000 0.109373 0.000000
#
# Coordination Sequence:
#
# PCOD9218084 Si02
#       7
#     8   4   8   8   4   8   8
#     4   9  18  37  64  90 125 164 213 270 319 386
#     4  12  24  44  71  93 123 174 229 265 320 407
#     4  11  24  39  66  93 136 167 219 280 332 389
#     4  11  23  42  64  91 128 169 214 268 330 391
#     4  10  24  42  62  89 123 162 207 261 322 383
#     4  11  24  42  64 100 129 172 219 269 334 395
#     4   9  20  39  63  93 129 175 225 267 332 405
#
# _framework density 20.503798
#
# number of rings (size 3 to 8) (size 9 to 14) (size 15 to 20)
#    0.000    1.667    0.833    3.000    2.333    4.667 
#    0.000    3.333    1.833    0.000    0.000    0.000 
#    0.000    0.000    0.000    0.000    0.000    0.000 
#
# Total GULP energy -133691.320168 kJ/mol
# GULP energy per Si atom -5570.471674 kJ/mol
# Density = 2.045713 g / cm^3
# Si number density = 20.503798 Si / 1000 Ang^3
#
#
#
# Elastic Constant Matrix: (Units=GPa)
#
#
# Indices 1 2 3 4 5 6 
#
# 1 92.9254 39.3736 58.2745 -0.0006 -5.0540 0.0007
# 2 39.3736 97.9942 29.7790 -0.0002 -13.9984 0.0000
# 3 58.2745 29.7790 139.7257 -0.0061 1.2562 0.0046
# 4 -0.0006 -0.0002 -0.0061 2.2795 -0.0004 15.5587
# 5 -5.0540 -13.9984 1.2562 -0.0004 36.5989 0.0003
# 6 0.0007 0.0000 0.0046 15.5587 0.0003 -9.6870
#
#
#
# Elastic Compliance Matrix: (Units=1/GPa)
#
#
# Indices 1 2 3 4 5 6 
#
# 1 0.016491 -0.004747 -0.005872 0.000000 0.000663 -0.000002
# 2 -0.004747 0.012983 -0.000826 0.000000 0.004339 0.000000
# 3 -0.005872 -0.000826 0.009795 0.000000 -0.001463 0.000004
# 4 0.000000 0.000000 0.000000 0.036672 0.000000 0.058900
# 5 0.000663 0.004339 -0.001463 0.000000 0.029124 0.000000
# 6 -0.000002 0.000000 0.000004 0.058900 0.000000 -0.008630
#
#
# Mechanical properties :
#
#
# Convention : Reuss Voigt Hill
#
# Bulk Modulus (GPa) = 61.05504 65.05553 63.05528
# Shear Modulus (GPa) = 40.06863 19.38616 29.72740
#
# Velocity S-wave (km/s) = 4.42544 3.07822 3.81182
# Velocity P-wave (km/s) = 7.48029 6.66568 7.08470
#
# Compressibility (1/GPa) = 0.01637867
#
# Stress axis : x y z
#
# Youngs Moduli (GPa) = 60.63844 77.02513 102.09098
#
# Poissons Ratio (x) = 0.36563 0.59950
# Poissons Ratio (y) = 0.28784 0.08435
# Poissons Ratio (z) = 0.35608 0.06364
#
# Static dielectric constant tensor:
#      x y z
#    x 1.791300 0.000000 0.010160 
#    y 0.000000 1.793190 0.000000 
#    z 0.010160 0.000000 1.726370 
# 
# From -- ./inp_files/373042.got.cif
#   From: 2010.05.17/outbox.cif.g08.bks.cpg/sg12_187_cif.got.tgz:373042.got - 2010.06.03 13:09:07.
