data_PCOD9218133
_publ_section_title
;
Structure prediction by ZEFSAII (Michael W. Deem and Ramdas Pophale) SiO2 
 PCOD9218133
Probable space group: C 2/M
;
_chemical_formula_sum "Si O2"
_cell_formula_units_Z 52
_cell_length_a 26.595681
_cell_length_b 11.610021
_cell_length_c 17.968438
_cell_angle_alpha 90.000000
_cell_angle_beta 152.240090
_cell_angle_gamma 90.000000
_cell_volume 2584.185614
_symmetry_space_group_name_H-M "C 2/M"
_symmetry_group_IT_number 12
_symmetry_cell_setting 'monoclinic'
loop_
_space_group_symop_operation_xyz
x,y,z
-x,y,-z
-x,-y,-z
x,-y,z
1/2+x,1/2+y,z
1/2-x,1/2+y,-z
1/2-x,1/2-y,-z
1/2+x,1/2-y,z
loop_
_atom_site_type_symbol
_atom_site_label
_atom_site_fract_x
_atom_site_fract_y
_atom_site_fract_z
Si Si1 0.795589 0.251512 0.976888
Si Si2 0.874068 0.366363 0.351466
Si Si3 0.516610 0.634902 0.235117
Si Si4 0.026446 0.500000 0.121972
Si Si5 0.843314 0.268872 0.684178
Si Si6 0.828887 0.500000 0.970153
Si Si7 0.888761 0.000000 0.401752
Si Si8 0.341484 0.278933 0.445080
O O1 0.699296 0.217513 0.794641
O O2 0.843302 0.379516 0.029991
O O3 0.750000 0.250000 0.000000
O O4 0.891647 0.163794 0.083106
O O5 0.847368 0.500000 0.301625
O O6 0.857803 0.332361 0.415846
O O7 0.000000 0.348222 0.500000
O O8 0.538169 0.500000 0.273786
O O9 0.566140 0.675870 0.220963
O O10 0.578342 0.705880 0.380435
O O11 0.095233 0.389898 0.237349
O O12 0.000000 0.500000 0.000000
O O13 0.911268 0.500000 0.010374
O O14 0.750000 0.250000 0.500000
O O15 0.778651 0.271292 0.677450
O O16 0.706328 0.500000 0.782430
O O17 0.868987 0.111561 0.428288
O O18 0.000000 0.000000 0.500000
#
# Coordination Sequence:
#
# PCOD9218133 Si02
#       8
#     8   8   8   4   8   4   4   8
#     4  12  27  44  66  98 135 177 227 285 349 416
#     4  11  25  46  66  94 134 178 225 281 348 416
#     4  11  24  43  67  98 137 176 224 284 346 410
#     4  12  24  46  74 102 146 183 231 306 353 426
#     4  10  24  42  68 103 136 180 234 282 355 422
#     4  12  26  44  70 104 132 179 233 280 353 421
#     4  12  24  40  72 104 136 169 236 290 342 416
#     4  11  22  43  68  99 131 178 226 279 337 413
#
# _framework density 20.122392999999999
#
# number of rings (size 3 to 8) (size 9 to 14) (size 15 to 20)
#    0.000    0.769    3.846    3.231    7.538    0.615 
#    5.538    0.000    0.000    2.308    0.000    0.000 
#    0.000    0.000    0.000    0.000    0.000    0.000 
#
# Total GULP energy -145162.893213 kJ/mol
# GULP energy per Si atom -5583.188201 kJ/mol
# Density = 2.007659 g / cm^3
# Si number density = 20.122393 Si / 1000 Ang^3
#
#
#
# Elastic Constant Matrix: (Units=GPa)
#
#
# Indices 1 2 3 4 5 6 
#
# 1 167.1272 38.6301 28.3709 0.0000 27.9087 0.0000
# 2 38.6301 77.9631 24.8209 0.0000 -4.2883 0.0000
# 3 28.3709 24.8209 67.0326 0.0000 12.1047 0.0000
# 4 0.0000 0.0000 0.0000 27.5844 0.0000 -9.6993
# 5 27.9087 -4.2883 12.1047 0.0000 31.6808 0.0000
# 6 0.0000 0.0000 0.0000 -9.6993 0.0000 -52.3758
#
#
#
# Elastic Compliance Matrix: (Units=1/GPa)
#
#
# Indices 1 2 3 4 5 6 
#
# 1 0.008396 -0.004429 -0.000505 0.000000 -0.007803 0.000000
# 2 -0.004429 0.017450 -0.006142 0.000000 0.008610 0.000000
# 3 -0.000505 -0.006142 0.018771 0.000000 -0.007559 0.000000
# 4 0.000000 0.000000 0.000000 0.034036 0.000000 -0.006303
# 5 -0.007803 0.008610 -0.007559 0.000000 0.042492 0.000000
# 6 0.000000 0.000000 0.000000 -0.006303 0.000000 -0.017926
#
#
# Mechanical properties :
#
#
# Convention : Reuss Voigt Hill
#
# Bulk Modulus (GPa) = 44.51061 55.08519 49.79790
# Shear Modulus (GPa) = 37.63427 16.06462 26.84944
#
# Velocity S-wave (km/s) = 4.32935 2.82857 3.65678
# Velocity P-wave (km/s) = 6.86724 6.17270 6.52921
#
# Compressibility (1/GPa) = 0.02246655
#
# Stress axis : x y z
#
# Youngs Moduli (GPa) = 119.10799 57.30726 53.27423
#
# Poissons Ratio (x) = 0.25379 0.02688
# Poissons Ratio (y) = 0.52748 0.32720
# Poissons Ratio (z) = 0.06010 0.35197
#
# Static dielectric constant tensor:
#      x y z
#    x 1.691990 0.000000 0.014070 
#    y 0.000000 1.729600 0.000000 
#    z 0.014070 0.000000 1.712700 
# 
# From -- ./inp_files/293188.got.cif
#   From: 2010.05.17/outbox.cif.g08.bks.cpg/sg12_147_cif.got.tgz:293188.got - 2010.06.03 13:09:07.
