data_PCOD9218317
_publ_section_title
;
Structure prediction by ZEFSAII (Michael W. Deem and Ramdas Pophale) SiO2 
 PCOD9218317
Probable space group: C 2/M
;
_chemical_formula_sum "Si O2"
_cell_formula_units_Z 44
_cell_length_a 13.368874
_cell_length_b 27.453792
_cell_length_c 9.396320
_cell_angle_alpha 90.000000
_cell_angle_beta 40.896062
_cell_angle_gamma 90.000000
_cell_volume 2257.823141
_symmetry_space_group_name_H-M "C 2/M"
_symmetry_group_IT_number 12
_symmetry_cell_setting 'monoclinic'
loop_
_space_group_symop_operation_xyz
x,y,z
-x,y,-z
-x,-y,-z
x,-y,z
1/2+x,1/2+y,z
1/2-x,1/2+y,-z
1/2-x,1/2-y,-z
1/2+x,1/2-y,z
loop_
_atom_site_type_symbol
_atom_site_label
_atom_site_fract_x
_atom_site_fract_y
_atom_site_fract_z
Si Si1 0.168504 0.104140 0.318097
Si Si2 0.167784 0.158866 0.817161
Si Si3 0.967538 0.500000 0.789351
Si Si4 0.744441 0.000000 0.696607
Si Si5 0.138834 0.665266 0.668481
Si Si6 0.363884 0.896682 0.829993
Si Si7 0.500000 0.750305 0.000000
O O1 0.289133 0.134878 0.279332
O O2 0.000000 0.126058 0.500000
O O3 0.163743 0.050170 0.392128
O O4 0.231242 0.100877 0.091346
O O5 0.231694 0.168651 0.591227
O O6 0.291118 0.128256 0.770828
O O7 0.126435 0.212381 0.924646
O O8 0.000000 0.133884 0.000000
O O9 0.928596 0.451170 0.746298
O O10 0.137436 0.500000 0.672338
O O11 0.863384 0.500000 0.045901
O O12 0.998644 0.635973 0.750325
O O13 0.075562 0.715503 0.800299
#
# Coordination Sequence:
#
# PCOD9218317 Si02
#       7
#     8   8   4   4   8   8   4
#     4  11  21  35  63  95 132 161 211 259 315 367
#     4  10  25  43  62  91 133 160 209 266 318 369
#     4   9  18  34  65  91 130 161 216 247 306 378
#     4   9  17  34  57  96 125 171 199 265 297 376
#     4  12  21  43  66  93 123 169 210 259 315 381
#     4  11  21  41  64  95 125 170 210 256 313 378
#     4  10  24  44  68  88 126 162 224 260 316 372
#
# _framework density 19.487798000000002
#
# number of rings (size 3 to 8) (size 9 to 14) (size 15 to 20)
#    0.545    0.909    3.636    2.455    0.000    0.727 
#    0.000    3.182    0.000    0.000    0.000    0.000 
#    0.000    0.000    0.000    0.000    0.000    0.000 
#
# Total GULP energy -122752.418960 kJ/mol
# GULP energy per Si atom -5579.655407 kJ/mol
# Density = 1.944344 g / cm^3
# Si number density = 19.487798 Si / 1000 Ang^3
#
#
#
# Elastic Constant Matrix: (Units=GPa)
#
#
# Indices 1 2 3 4 5 6 
#
# 1 82.2076 35.3867 8.3051 0.0000 -1.1578 0.0000
# 2 35.3867 102.9967 -5.7611 0.0000 8.2601 0.0000
# 3 8.3051 -5.7611 73.9329 0.0000 5.7197 0.0000
# 4 0.0000 0.0000 0.0000 12.8652 0.0000 16.6923
# 5 -1.1578 8.2601 5.7197 0.0000 30.7024 0.0000
# 6 0.0000 0.0000 0.0000 16.6923 0.0000 9.7361
#
#
#
# Elastic Compliance Matrix: (Units=1/GPa)
#
#
# Indices 1 2 3 4 5 6 
#
# 1 0.014746 -0.005388 -0.002264 0.000000 0.002427 0.000000
# 2 -0.005388 0.011964 0.001829 0.000000 -0.003763 0.000000
# 3 -0.002264 0.001829 0.014172 0.000000 -0.003217 0.000000
# 4 0.000000 0.000000 0.000000 -0.063479 0.000000 0.108833
# 5 0.002427 -0.003763 -0.003217 0.000000 0.034274 0.000000
# 6 0.000000 0.000000 0.000000 0.108833 0.000000 -0.083881
#
#
# Mechanical properties :
#
#
# Convention : Reuss Voigt Hill
#
# Bulk Modulus (GPa) = 34.20498 37.22208 35.71353
# Shear Modulus (GPa) = -98.40254 25.40784 -36.49735
#
# Velocity S-wave (km/s) = -7.11365 3.61471 -4.33232
# Velocity P-wave (km/s) = 7.06272 6.04675 2.58058
#
# Compressibility (1/GPa) = 0.02923551
#
# Stress axis : x y z
#
# Youngs Moduli (GPa) = 67.81289 83.58287 70.56411
#
# Poissons Ratio (x) = 0.45033 0.15977
# Poissons Ratio (y) = 0.36536 -0.12903
# Poissons Ratio (z) = 0.15354 -0.15284
#
# Static dielectric constant tensor:
#      x y z
#    x 1.653550 0.000000 -0.008990 
#    y 0.000000 1.681050 0.000000 
#    z -0.008990 0.000000 1.705880 
# 
# From -- ./inp_files/53034.got.cif
#   From: 2010.05.17/outbox.cif.g08.bks.cpg/sg12_27_cif.got.tgz:53034.got - 2010.06.03 13:09:07.
