data_PCOD9218989
_publ_section_title
;
Structure prediction by ZEFSAII (Michael W. Deem and Ramdas Pophale) SiO2 
 PCOD9218989
Probable space group: C 2/M
;
_chemical_formula_sum "Si O2"
_cell_formula_units_Z 34
_cell_length_a 23.290092
_cell_length_b 16.580071
_cell_length_c 7.180618
_cell_angle_alpha 90.000000
_cell_angle_beta 148.548519
_cell_angle_gamma 90.000000
_cell_volume 1446.784349
_symmetry_space_group_name_H-M "C 2/M"
_symmetry_group_IT_number 12
_symmetry_cell_setting 'monoclinic'
loop_
_space_group_symop_operation_xyz
x,y,z
-x,y,-z
-x,-y,-z
x,-y,z
1/2+x,1/2+y,z
1/2-x,1/2+y,-z
1/2-x,1/2-y,-z
1/2+x,1/2-y,z
loop_
_atom_site_type_symbol
_atom_site_label
_atom_site_fract_x
_atom_site_fract_y
_atom_site_fract_z
Si Si1 0.155118 0.594142 0.758035
Si Si2 0.888091 0.831996 0.767546
Si Si3 0.000000 0.000000 0.000000
Si Si4 0.745222 0.310098 0.266298
Si Si5 0.590995 0.093554 0.012656
O O1 0.176564 0.500000 0.773431
O O2 0.246502 0.648454 0.910417
O O3 0.134712 0.598103 0.921856
O O4 0.036299 0.619166 0.344538
O O5 0.791997 0.779960 0.406323
O O6 0.868371 0.819088 0.934282
O O7 0.000000 0.794018 0.000000
O O8 0.906552 0.926852 0.774342
O O9 0.829817 0.359496 0.631456
O O10 0.591836 0.000000 0.069336
#
# Coordination Sequence:
#
# PCOD9218989 Si02
#       5
#     8   8   2   8   8
#     4   9  18  30  48  81 118 143 174 230 285 324
#     4   9  21  35  53  83 111 144 188 230 282 321
#     4   8  20  40  52  76 126 148 168 242 292 312
#     4  11  19  33  60  83  96 148 201 221 262 345
#     4   9  18  30  48  81 118 143 174 230 285 324
#
# _framework density 23.500392999999999
#
# number of rings (size 3 to 8) (size 9 to 14) (size 15 to 20)
#    0.706    1.882    0.000    4.235    3.294    1.882 
#    0.000    4.706    0.000    4.235    0.000    9.882 
#    0.000    0.000    0.000    0.000    0.000    0.000 
#
# Total GULP energy -94661.246840 kJ/mol
# GULP energy per Si atom -5568.308638 kJ/mol
# Density = 2.344690 g / cm^3
# Si number density = 23.500393 Si / 1000 Ang^3
#
#
#
# Elastic Constant Matrix: (Units=GPa)
#
#
# Indices 1 2 3 4 5 6 
#
# 1 183.2072 53.1886 21.2955 0.0000 26.9130 0.0000
# 2 53.1886 134.7107 16.8419 0.0000 15.4660 0.0000
# 3 21.2955 16.8419 28.5691 0.0000 7.9550 0.0000
# 4 0.0000 0.0000 0.0000 -2.5022 0.0000 26.2633
# 5 26.9130 15.4660 7.9550 0.0000 44.4415 0.0000
# 6 0.0000 0.0000 0.0000 26.2633 0.0000 16.8198
#
#
#
# Elastic Compliance Matrix: (Units=1/GPa)
#
#
# Indices 1 2 3 4 5 6 
#
# 1 0.006816 -0.001971 -0.003116 0.000000 -0.002884 0.000000
# 2 -0.001971 0.008764 -0.003348 0.000000 -0.001257 0.000000
# 3 -0.003116 -0.003348 0.040466 0.000000 -0.004191 0.000000
# 4 0.000000 0.000000 0.000000 -0.022983 0.000000 0.035886
# 5 -0.002884 -0.001257 -0.004191 0.000000 0.025436 0.000000
# 6 0.000000 0.000000 0.000000 0.035886 0.000000 0.003419
#
#
# Mechanical properties :
#
#
# Convention : Reuss Voigt Hill
#
# Bulk Modulus (GPa) = 25.52447 58.79323 42.15885
# Shear Modulus (GPa) = 54.43827 28.76256 41.60041
#
# Velocity S-wave (km/s) = 4.81821 3.50225 4.21194
# Velocity P-wave (km/s) = 6.46826 6.43635 6.45233
#
# Compressibility (1/GPa) = 0.03917809
#
# Stress axis : x y z
#
# Youngs Moduli (GPa) = 146.70700 114.09947 24.71199
#
# Poissons Ratio (x) = 0.22484 0.07700
# Poissons Ratio (y) = 0.28910 0.08273
# Poissons Ratio (z) = 0.45715 0.38196
#
# Static dielectric constant tensor:
#      x y z
#    x 1.955660 0.000000 0.011480 
#    y 0.000000 1.893220 0.000000 
#    z 0.011480 0.000000 1.937110 
# 
# From -- ./inp_files/87520.got.cif
#   From: 2010.05.17/outbox.cif.g08.bks.cpg/sg12_44_cif.got.tgz:87520.got - 2010.06.03 13:09:07.
