data_PCOD9218826
_publ_section_title
;
Structure prediction by ZEFSAII (Michael W. Deem and Ramdas Pophale) SiO2 
 PCOD9218826
Probable space group: C 2/M
;
_chemical_formula_sum "Si O2"
_cell_formula_units_Z 56
_cell_length_a 14.055233
_cell_length_b 17.988329
_cell_length_c 11.172073
_cell_angle_alpha 90.000000
_cell_angle_beta 64.562564
_cell_angle_gamma 90.000000
_cell_volume 2550.802076
_symmetry_space_group_name_H-M "C 2/M"
_symmetry_group_IT_number 12
_symmetry_cell_setting 'monoclinic'
loop_
_space_group_symop_operation_xyz
x,y,z
-x,y,-z
-x,-y,-z
x,-y,z
1/2+x,1/2+y,z
1/2-x,1/2+y,-z
1/2-x,1/2-y,-z
1/2+x,1/2-y,z
loop_
_atom_site_type_symbol
_atom_site_label
_atom_site_fract_x
_atom_site_fract_y
_atom_site_fract_z
Si Si1 0.243813 0.084428 0.917484
Si Si2 0.950600 0.678006 0.784833
Si Si3 0.391447 0.803722 0.487502
Si Si4 0.376941 0.366532 0.537069
Si Si5 0.314945 0.621904 0.316037
Si Si6 0.418618 0.742871 0.116607
Si Si7 0.698300 0.319352 0.174983
O O1 0.362358 0.115376 0.832045
O O2 0.188922 0.086393 0.815333
O O3 0.244310 0.000000 0.959451
O O4 0.197948 0.136279 0.049477
O O5 0.890767 0.754317 0.774995
O O6 0.061582 0.663442 0.659110
O O7 0.995082 0.696881 0.889703
O O8 0.500000 0.802775 0.500000
O O9 0.351799 0.719185 0.513692
O O10 0.304593 0.854421 0.593379
O O11 0.500000 0.375571 0.500000
O O12 0.351756 0.409441 0.425905
O O13 0.318223 0.371076 0.698025
O O14 0.384211 0.694628 0.249757
O O15 0.309512 0.775415 0.125779
O O16 0.500000 0.690671 0.000000
#
# Coordination Sequence:
#
# PCOD9218826 Si02
#       7
#     8   8   8   8   8   8   8
#     4  12  27  45  63  91 140 189 222 264 329 402
#     4  12  21  39  67 102 134 167 221 282 337 387
#     4  11  17  32  61 104 133 156 208 276 338 386
#     4  11  20  36  65 103 131 158 210 285 345 384
#     4  12  22  38  64 100 141 166 214 278 333 397
#     4  12  21  32  64 102 131 168 219 270 333 385
#     4  12  22  42  66  99 133 172 225 281 332 386
#
# _framework density 21.953879000000001
#
# number of rings (size 3 to 8) (size 9 to 14) (size 15 to 20)
#    0.000    0.286   10.000    2.571    0.000    0.000 
#    0.000    3.571    0.000   11.571    0.000    0.000 
#    0.000    0.000    0.000    0.000    0.000    0.000 
#
# Total GULP energy -155885.715312 kJ/mol
# GULP energy per Si atom -5567.346975 kJ/mol
# Density = 2.190391 g / cm^3
# Si number density = 21.953879 Si / 1000 Ang^3
#
#
#
# Elastic Constant Matrix: (Units=GPa)
#
#
# Indices 1 2 3 4 5 6 
#
# 1 92.4552 21.0519 49.2193 0.0000 11.5731 0.0000
# 2 21.0519 54.7336 21.2065 0.0000 4.3813 0.0000
# 3 49.2193 21.2065 179.2757 0.0000 -0.5542 0.0000
# 4 0.0000 0.0000 0.0000 -2.4314 0.0000 3.4491
# 5 11.5731 4.3813 -0.5542 0.0000 47.0557 0.0000
# 6 0.0000 0.0000 0.0000 3.4491 0.0000 5.5939
#
#
#
# Elastic Compliance Matrix: (Units=1/GPa)
#
#
# Indices 1 2 3 4 5 6 
#
# 1 0.013856 -0.003777 -0.003367 0.000000 -0.003096 0.000000
# 2 -0.003777 0.020333 -0.001371 0.000000 -0.000980 0.000000
# 3 -0.003367 -0.001371 0.006668 0.000000 0.001034 0.000000
# 4 0.000000 0.000000 0.000000 -0.219394 0.000000 0.135274
# 5 -0.003096 -0.000980 0.001034 0.000000 0.022116 0.000000
# 6 0.000000 0.000000 0.000000 0.135274 0.000000 0.095359
#
#
# Mechanical properties :
#
#
# Convention : Reuss Voigt Hill
#
# Bulk Modulus (GPa) = 41.97050 56.60220 49.28635
# Shear Modulus (GPa) = -138.54178 25.70944 -56.41617
#
# Velocity S-wave (km/s) = -7.95254 3.42580 -5.07478
# Velocity P-wave (km/s) = 8.07246 6.44099 3.44081
#
# Compressibility (1/GPa) = 0.02382626
#
# Stress axis : x y z
#
# Youngs Moduli (GPa) = 72.17105 49.18160 149.97545
#
# Poissons Ratio (x) = 0.18576 0.50495
# Poissons Ratio (y) = 0.27259 0.20565
# Poissons Ratio (z) = 0.24299 0.06744
#
# Static dielectric constant tensor:
#      x y z
#    x 1.833590 0.000000 0.126330 
#    y 0.000000 1.800810 0.000000 
#    z 0.126330 0.000000 2.990250 
# 
# From -- ./inp_files/146021.got.cif
#   From: 2010.05.17/outbox.cif.g08.bks.cpg/sg12_74_cif.got.tgz:146021.got - 2010.06.03 13:09:07.
