data_PCOD9218106
_publ_section_title
;
Structure prediction by ZEFSAII (Michael W. Deem and Ramdas Pophale) SiO2 
 PCOD9218106
Probable space group: C 2/M
;
_chemical_formula_sum "Si O2"
_cell_formula_units_Z 40
_cell_length_a 16.038032
_cell_length_b 19.762644
_cell_length_c 4.934802
_cell_angle_alpha 90.000000
_cell_angle_beta 94.326797
_cell_angle_gamma 90.000000
_cell_volume 1559.647057
_symmetry_space_group_name_H-M "C 2/M"
_symmetry_group_IT_number 12
_symmetry_cell_setting 'monoclinic'
loop_
_space_group_symop_operation_xyz
x,y,z
-x,y,-z
-x,-y,-z
x,-y,z
1/2+x,1/2+y,z
1/2-x,1/2+y,-z
1/2-x,1/2-y,-z
1/2+x,1/2-y,z
loop_
_atom_site_type_symbol
_atom_site_label
_atom_site_fract_x
_atom_site_fract_y
_atom_site_fract_z
Si Si1 0.128727 0.074220 0.356657
Si Si2 0.345716 0.212261 0.170770
Si Si3 0.912014 0.573635 0.126368
Si Si4 0.079787 0.778959 0.339819
Si Si5 0.757413 0.105646 0.104394
O O1 0.072568 0.140331 0.292037
O O2 0.185355 0.092876 0.627241
O O3 0.089090 0.000000 0.377224
O O4 0.193241 0.071788 0.126994
O O5 0.345713 0.259287 0.433641
O O6 0.238294 0.318437 0.987827
O O7 0.389505 0.141405 0.284274
O O8 0.401549 0.243155 0.940458
O O9 0.910161 0.500000 0.264000
O O10 0.835416 0.575915 0.892296
O O11 0.000000 0.580906 0.000000
O O12 0.000000 0.758278 0.500000
#
# Coordination Sequence:
#
# PCOD9218106 Si02
#       5
#     8   8   8   8   8
#     4  12  25  44  68  94 128 170 215 270 324 376
#     4  10  24  42  65  92 133 163 214 254 319 379
#     4   9  18  36  61  90 126 168 213 258 305 370
#     4  12  25  44  68  94 128 170 215 270 324 376
#     4  10  24  42  65  92 133 163 214 254 319 379
#
# _framework density 25.646826999999998
#
# number of rings (size 3 to 8) (size 9 to 14) (size 15 to 20)
#    1.200    0.200    0.000    6.000    0.000    5.200 
#    0.000    2.000    0.000   12.000    0.000    0.000 
#    0.000    0.000    0.000    0.000    0.000    0.000 
#
# Total GULP energy -111745.786290 kJ/mol
# GULP energy per Si atom -5587.289314 kJ/mol
# Density = 2.558845 g / cm^3
# Si number density = 25.646827 Si / 1000 Ang^3
#
#
#
# Elastic Constant Matrix: (Units=GPa)
#
#
# Indices 1 2 3 4 5 6 
#
# 1 62.9245 -26.5800 13.9718 0.0000 -14.6288 0.0000
# 2 -26.5800 196.5968 28.1991 0.0000 -3.3690 0.0000
# 3 13.9718 28.1991 140.1041 0.0000 2.1824 0.0000
# 4 0.0000 0.0000 0.0000 20.2552 0.0000 8.7248
# 5 -14.6288 -3.3690 2.1824 0.0000 25.0249 0.0000
# 6 0.0000 0.0000 0.0000 8.7248 0.0000 -26.2588
#
#
#
# Elastic Compliance Matrix: (Units=1/GPa)
#
#
# Indices 1 2 3 4 5 6 
#
# 1 0.021076 0.003505 -0.003011 0.000000 0.013055 0.000000
# 2 0.003505 0.005837 -0.001571 0.000000 0.002972 0.000000
# 3 -0.003011 -0.001571 0.007795 0.000000 -0.002651 0.000000
# 4 0.000000 0.000000 0.000000 0.043189 0.000000 0.014350
# 5 0.013055 0.002972 -0.002651 0.000000 0.048223 0.000000
# 6 0.000000 0.000000 0.000000 0.014350 0.000000 -0.033315
#
#
# Mechanical properties :
#
#
# Convention : Reuss Voigt Hill
#
# Bulk Modulus (GPa) = 30.71667 47.86748 39.29207
# Shear Modulus (GPa) = 47.25477 29.40656 38.33066
#
# Velocity S-wave (km/s) = 4.29711 3.38982 3.87014
# Velocity P-wave (km/s) = 6.05170 5.83316 5.94343
#
# Compressibility (1/GPa) = 0.03255562
#
# Stress axis : x y z
#
# Youngs Moduli (GPa) = 47.44707 171.33137 128.28406
#
# Poissons Ratio (x) = -0.60053 0.38622
# Poissons Ratio (y) = -0.16630 0.20148
# Poissons Ratio (z) = 0.14285 0.26909
#
# Static dielectric constant tensor:
#      x y z
#    x 2.100920 0.000000 0.052530 
#    y 0.000000 2.127980 0.000000 
#    z 0.052530 0.000000 1.921860 
# 
# From -- ./inp_files/15149.got.cif
#   From: 2010.05.17/outbox.cif.g08.bks.cpg/sg12_8_cif.got.tgz:15149.got - 2010.06.03 13:09:07.
