data_PCOD9218964
_publ_section_title
;
Structure prediction by ZEFSAII (Michael W. Deem and Ramdas Pophale) SiO2 
 PCOD9218964
Probable space group: C 2/M
;
_chemical_formula_sum "Si O2"
_cell_formula_units_Z 44
_cell_length_a 11.653994
_cell_length_b 26.956731
_cell_length_c 11.869132
_cell_angle_alpha 90.000000
_cell_angle_beta 38.811377
_cell_angle_gamma 90.000000
_cell_volume 2337.013609
_symmetry_space_group_name_H-M "C 2/M"
_symmetry_group_IT_number 12
_symmetry_cell_setting 'monoclinic'
loop_
_space_group_symop_operation_xyz
x,y,z
-x,y,-z
-x,-y,-z
x,-y,z
1/2+x,1/2+y,z
1/2-x,1/2+y,-z
1/2-x,1/2-y,-z
1/2+x,1/2-y,z
loop_
_atom_site_type_symbol
_atom_site_label
_atom_site_fract_x
_atom_site_fract_y
_atom_site_fract_z
Si Si1 0.884888 0.747469 0.203663
Si Si2 0.026644 0.554880 0.297190
Si Si3 0.974668 0.342082 0.761450
Si Si4 0.500000 0.794792 0.500000
Si Si5 0.686068 0.555903 0.729253
Si Si6 0.956584 0.152696 0.900068
O O1 0.674307 0.760194 0.344696
O O2 0.919137 0.698461 0.248621
O O3 0.952801 0.797172 0.217261
O O4 0.000000 0.742509 0.000000
O O5 0.045083 0.500000 0.233583
O O6 0.983177 0.600412 0.249846
O O7 0.212842 0.565356 0.227318
O O8 0.857090 0.553965 0.513474
O O9 0.012508 0.329510 0.600866
O O10 0.758111 0.339796 0.951454
O O11 0.605047 0.500000 0.794521
O O12 0.549824 0.600139 0.798267
O O13 0.000000 0.155473 0.000000
#
# Coordination Sequence:
#
# PCOD9218964 Si02
#       6
#     8   8   8   4   8   8
#     4  11  24  41  56  81 114 147 193 233 274 325
#     4   9  17  30  49  76 110 145 183 225 272 332
#     4  12  22  36  58  81 114 150 184 230 276 334
#     4  12  22  38  59  84 113 150 182 222 290 332
#     4   9  17  30  49  77 114 148 177 217 278 344
#     4  11  19  32  51  77 115 147 177 227 266 328
#
# _framework density 18.827446999999999
#
# number of rings (size 3 to 8) (size 9 to 14) (size 15 to 20)
#    0.000    1.455    5.455    4.364    0.000    1.091 
#    0.000    0.000    0.000    0.545    0.000    0.636 
#    0.000    0.000    0.000    0.000    0.000    0.000 
#
# Total GULP energy -122673.990544 kJ/mol
# GULP energy per Si atom -5576.090479 kJ/mol
# Density = 1.878459 g / cm^3
# Si number density = 18.827447 Si / 1000 Ang^3
#
#
#
# Elastic Constant Matrix: (Units=GPa)
#
#
# Indices 1 2 3 4 5 6 
#
# 1 12.3539 27.2352 11.7153 0.0000 -0.2651 0.0000
# 2 27.2352 172.5716 17.6020 0.0000 2.7436 0.0000
# 3 11.7153 17.6020 62.8358 0.0000 -11.8339 0.0000
# 4 0.0000 0.0000 0.0000 26.5390 0.0000 -3.7246
# 5 -0.2651 2.7436 -11.8339 0.0000 16.1620 0.0000
# 6 0.0000 0.0000 0.0000 -3.7246 0.0000 27.3111
#
#
#
# Elastic Compliance Matrix: (Units=1/GPa)
#
#
# Indices 1 2 3 4 5 6 
#
# 1 0.150089 -0.021020 -0.024312 0.000000 -0.011771 0.000000
# 2 -0.021020 0.009004 0.001211 0.000000 -0.000987 0.000000
# 3 -0.024312 0.001211 0.023192 0.000000 0.016377 0.000000
# 4 0.000000 0.000000 0.000000 0.038416 0.000000 0.005239
# 5 -0.011771 -0.000987 0.016377 0.000000 0.073840 0.000000
# 6 0.000000 0.000000 0.000000 0.005239 0.000000 0.037330
#
#
# Mechanical properties :
#
#
# Convention : Reuss Voigt Hill
#
# Bulk Modulus (GPa) = 10.63329 40.09624 25.36477
# Shear Modulus (GPa) = 11.07517 26.74967 18.91242
#
# Velocity S-wave (km/s) = 2.42801 3.77341 3.17284
# Velocity P-wave (km/s) = 3.67700 6.35042 5.18884
#
# Compressibility (1/GPa) = 0.09404423
#
# Stress axis : x y z
#
# Youngs Moduli (GPa) = 6.66270 111.05855 43.11767
#
# Poissons Ratio (x) = 2.33447 1.04826
# Poissons Ratio (y) = 0.14005 -0.05221
# Poissons Ratio (z) = 0.16198 -0.13448
#
# Static dielectric constant tensor:
#      x y z
#    x 1.637430 0.000000 -0.022050 
#    y 0.000000 1.732640 0.000000 
#    z -0.022050 0.000000 1.712060 
# 
# From -- ./inp_files/135729.got.cif
#   From: 2010.05.17/outbox.cif.g08.bks.cpg/sg12_68_cif.got.tgz:135729.got - 2010.06.03 13:09:07.
