data_PCOD9218325
_publ_section_title
;
Structure prediction by ZEFSAII (Michael W. Deem and Ramdas Pophale) SiO2 
 PCOD9218325
Probable space group: C 2/M
;
_chemical_formula_sum "Si O2"
_cell_formula_units_Z 50
_cell_length_a 9.079731
_cell_length_b 15.334409
_cell_length_c 18.630031
_cell_angle_alpha 90.000000
_cell_angle_beta 105.519409
_cell_angle_gamma 90.000000
_cell_volume 2499.328218
_symmetry_space_group_name_H-M "C 2/M"
_symmetry_group_IT_number 12
_symmetry_cell_setting 'monoclinic'
loop_
_space_group_symop_operation_xyz
x,y,z
-x,y,-z
-x,-y,-z
x,-y,z
1/2+x,1/2+y,z
1/2-x,1/2+y,-z
1/2-x,1/2-y,-z
1/2+x,1/2-y,z
loop_
_atom_site_type_symbol
_atom_site_label
_atom_site_fract_x
_atom_site_fract_y
_atom_site_fract_z
Si Si1 0.461665 0.403272 0.781331
Si Si2 0.298175 0.903251 0.781848
Si Si3 0.885123 0.154436 0.925894
Si Si4 0.526512 0.819346 0.425671
Si Si5 0.033640 0.345892 0.925960
Si Si6 0.500000 0.000000 0.500000
Si Si7 0.286620 0.257794 0.671791
O O1 0.428188 0.500000 0.748154
O O2 0.645098 0.394334 0.810094
O O3 0.389434 0.393266 0.850375
O O4 0.398529 0.329444 0.720647
O O5 0.446239 0.894133 0.850850
O O6 0.289968 0.826056 0.723611
O O7 0.294512 0.000000 0.748444
O O8 0.713766 0.160540 0.933926
O O9 0.955312 0.250186 0.918761
O O10 0.000000 0.114871 0.000000
O O11 0.500000 0.775967 0.500000
O O12 0.661111 0.775166 0.399156
O O13 0.377617 0.802382 0.357654
O O14 0.543186 0.921202 0.447537
O O15 0.000000 0.385404 0.000000
#
# Coordination Sequence:
#
# PCOD9218325 Si02
#       7
#     8   8   8   8   8   2   8
#     4  11  25  42  63  96 134 176 225 275 332 397
#     4  11  25  42  63  96 134 176 225 275 332 397
#     4  11  22  39  64  93 129 177 229 281 341 397
#     4  10  24  44  69 100 135 168 219 261 327 390
#     4  11  22  39  64  93 129 177 229 281 341 397
#     4   8  24  44  72 110 130 168 216 274 312 400
#     4  12  23  44  69  98 134 180 212 268 331 392
#
# _framework density 20.005375999999998
#
# number of rings (size 3 to 8) (size 9 to 14) (size 15 to 20)
#    0.480    0.640    3.200    4.320    4.480    1.280 
#    0.000    0.000    0.000    1.920    0.000    0.000 
#    0.000    0.000    0.000    0.000    0.000    0.000 
#
# Total GULP energy -139305.465161 kJ/mol
# GULP energy per Si atom -5572.218606 kJ/mol
# Density = 1.995984 g / cm^3
# Si number density = 20.005376 Si / 1000 Ang^3
#
#
#
# Elastic Constant Matrix: (Units=GPa)
#
#
# Indices 1 2 3 4 5 6 
#
# 1 126.1217 24.5603 16.7842 0.0000 -3.0232 0.0000
# 2 24.5603 109.7810 26.9923 0.0000 -9.0011 0.0000
# 3 16.7842 26.9923 70.6360 0.0000 -12.4127 0.0000
# 4 0.0000 0.0000 0.0000 -32.7486 0.0000 5.1922
# 5 -3.0232 -9.0011 -12.4127 0.0000 39.4001 0.0000
# 6 0.0000 0.0000 0.0000 5.1922 0.0000 15.0827
#
#
#
# Elastic Compliance Matrix: (Units=1/GPa)
#
#
# Indices 1 2 3 4 5 6 
#
# 1 0.008417 -0.001542 -0.001439 0.000000 -0.000160 0.000000
# 2 -0.001542 0.010386 -0.003394 0.000000 0.001185 0.000000
# 3 -0.001439 -0.003394 0.016557 0.000000 0.004330 0.000000
# 4 0.000000 0.000000 0.000000 -0.028955 0.000000 0.009968
# 5 -0.000160 0.001185 0.004330 0.000000 0.027003 0.000000
# 6 0.000000 0.000000 0.000000 0.009968 0.000000 0.062870
#
#
# Mechanical properties :
#
#
# Convention : Reuss Voigt Hill
#
# Bulk Modulus (GPa) = 44.22945 49.24582 46.73763
# Shear Modulus (GPa) = 42.89496 20.22697 31.56096
#
# Velocity S-wave (km/s) = 4.63554 3.18319 3.97624
# Velocity P-wave (km/s) = 7.12796 6.17900 6.67038
#
# Compressibility (1/GPa) = 0.02260937
#
# Stress axis : x y z
#
# Youngs Moduli (GPa) = 118.80953 96.28560 60.39799
#
# Poissons Ratio (x) = 0.14851 0.08689
# Poissons Ratio (y) = 0.18325 0.20499
# Poissons Ratio (z) = 0.17092 0.32679
#
# Static dielectric constant tensor:
#      x y z
#    x 1.730440 0.000000 0.006590 
#    y 0.000000 1.717160 0.000000 
#    z 0.006590 0.000000 1.717180 
# 
# From -- ./inp_files/299886.got.cif
#   From: 2010.05.17/outbox.cif.g08.bks.cpg/sg12_150_cif.got.tgz:299886.got - 2010.06.03 13:09:07.
