data_PCOD9218821
_publ_section_title
;
Structure prediction by ZEFSAII (Michael W. Deem and Ramdas Pophale) SiO2 
 PCOD9218821
Probable space group: C 2/M
;
_chemical_formula_sum "Si O2"
_cell_formula_units_Z 48
_cell_length_a 22.730290
_cell_length_b 16.924673
_cell_length_c 8.930984
_cell_angle_alpha 90.000000
_cell_angle_beta 119.379650
_cell_angle_gamma 90.000000
_cell_volume 2993.892522
_symmetry_space_group_name_H-M "C 2/M"
_symmetry_group_IT_number 12
_symmetry_cell_setting 'monoclinic'
loop_
_space_group_symop_operation_xyz
x,y,z
-x,y,-z
-x,-y,-z
x,-y,z
1/2+x,1/2+y,z
1/2-x,1/2+y,-z
1/2-x,1/2-y,-z
1/2+x,1/2-y,z
loop_
_atom_site_type_symbol
_atom_site_label
_atom_site_fract_x
_atom_site_fract_y
_atom_site_fract_z
Si Si1 0.325514 0.259678 0.530520
Si Si2 0.306056 0.589827 0.303868
Si Si3 0.921186 0.260039 0.933543
Si Si4 0.162585 0.171036 0.941996
Si Si5 0.350805 0.089903 0.990056
Si Si6 0.311113 0.170737 0.221505
O O1 0.250000 0.250000 0.500000
O O2 0.328103 0.343938 0.449115
O O3 0.378564 0.252775 0.729475
O O4 0.335987 0.192013 0.417369
O O5 0.314782 0.500000 0.365742
O O6 0.343904 0.604641 0.192839
O O7 0.226235 0.602666 0.165917
O O8 0.897684 0.193313 0.023276
O O9 0.897478 0.343981 0.973741
O O10 0.000000 0.258491 0.000000
O O11 0.177468 0.249834 0.862491
O O12 0.230697 0.155681 0.121773
O O13 0.346134 0.104658 0.163295
O O14 0.370299 0.000000 0.981460
#
# Coordination Sequence:
#
# PCOD9218821 Si02
#       6
#     8   8   8   8   8   8
#     4  11  17  31  53  76 104 131 168 219 251 287
#     4   9  17  31  55  80  99 127 171 217 258 293
#     4  11  21  32  50  76 106 141 169 200 255 311
#     4   8  14  29  48  68  95 126 168 204 242 292
#     4   9  17  32  51  76 107 136 166 203 250 305
#     4   8  14  27  50  70  89 129 169 208 242 279
#
# _framework density 16.032640000000001
#
# number of rings (size 3 to 8) (size 9 to 14) (size 15 to 20)
#    0.000    2.667    3.333    2.000    0.000    0.333 
#    0.000   10.000    0.000    4.000    0.000    0.000 
#    0.000    0.000    0.000    0.000    0.000    0.000 
#
# Total GULP energy -133611.505469 kJ/mol
# GULP energy per Si atom -5567.146061 kJ/mol
# Density = 1.599615 g / cm^3
# Si number density = 16.032640 Si / 1000 Ang^3
#
#
#
# Elastic Constant Matrix: (Units=GPa)
#
#
# Indices 1 2 3 4 5 6 
#
# 1 118.2573 38.6499 56.7491 0.0000 -0.3067 0.0000
# 2 38.6499 70.0472 26.8721 0.0000 -3.1552 0.0000
# 3 56.7491 26.8721 82.3662 0.0000 -6.3466 0.0000
# 4 0.0000 0.0000 0.0000 14.2103 0.0000 -5.2466
# 5 -0.3067 -3.1552 -6.3466 0.0000 18.7261 0.0000
# 6 0.0000 0.0000 0.0000 -5.2466 0.0000 17.5600
#
#
#
# Elastic Compliance Matrix: (Units=1/GPa)
#
#
# Indices 1 2 3 4 5 6 
#
# 1 0.013992 -0.004658 -0.008383 0.000000 -0.003397 0.000000
# 2 -0.004658 0.017886 -0.002464 0.000000 0.002102 0.000000
# 3 -0.008383 -0.002464 0.019179 0.000000 0.005947 0.000000
# 4 0.000000 0.000000 0.000000 0.079097 0.000000 0.023632
# 5 -0.003397 0.002102 0.005947 0.000000 0.055716 0.000000
# 6 0.000000 0.000000 0.000000 0.023632 0.000000 0.064008
#
#
# Mechanical properties :
#
#
# Convention : Reuss Voigt Hill
#
# Bulk Modulus (GPa) = 49.88075 57.24589 53.56332
# Shear Modulus (GPa) = 17.38709 19.99259 18.68984
#
# Velocity S-wave (km/s) = 3.29672 3.53511 3.41799
# Velocity P-wave (km/s) = 6.75801 7.24196 7.00417
#
# Compressibility (1/GPa) = 0.02004781
#
# Stress axis : x y z
#
# Youngs Moduli (GPa) = 71.46841 55.90924 52.14132
#
# Poissons Ratio (x) = 0.26041 0.43708
# Poissons Ratio (y) = 0.33288 0.12849
# Poissons Ratio (z) = 0.59909 0.13778
#
# Static dielectric constant tensor:
#      x y z
#    x 1.538980 0.000000 -0.026930 
#    y 0.000000 1.558480 0.000000 
#    z -0.026930 0.000000 1.531390 
# 
# From -- ./inp_files/74500.got.cif
#   From: 2010.05.17/outbox.cif.g08.bks.cpg/sg12_38_cif.got.tgz:74500.got - 2010.06.03 13:09:07.
