data_PCOD9218759
_publ_section_title
;
Structure prediction by ZEFSAII (Michael W. Deem and Ramdas Pophale) SiO2 
 PCOD9218759
Probable space group: C 2/M
;
_chemical_formula_sum "Si O2"
_cell_formula_units_Z 48
_cell_length_a 10.229330
_cell_length_b 27.878493
_cell_length_c 17.775581
_cell_angle_alpha 90.000000
_cell_angle_beta 155.630351
_cell_angle_gamma 90.000000
_cell_volume 2091.667390
_symmetry_space_group_name_H-M "C 2/M"
_symmetry_group_IT_number 12
_symmetry_cell_setting 'monoclinic'
loop_
_space_group_symop_operation_xyz
x,y,z
-x,y,-z
-x,-y,-z
x,-y,z
1/2+x,1/2+y,z
1/2-x,1/2+y,-z
1/2-x,1/2-y,-z
1/2+x,1/2-y,z
loop_
_atom_site_type_symbol
_atom_site_label
_atom_site_fract_x
_atom_site_fract_y
_atom_site_fract_z
Si Si1 0.912202 0.444759 0.300803
Si Si2 0.106243 0.195607 0.240123
Si Si3 0.258520 0.848772 0.471340
Si Si4 0.677902 0.206786 0.876462
Si Si5 0.182322 0.553765 0.930939
Si Si6 0.756565 0.129296 0.316321
O O1 0.001579 0.500000 0.367215
O O2 0.879664 0.443900 0.192395
O O3 0.125489 0.402684 0.447590
O O4 0.549929 0.435622 0.137122
O O5 0.433361 0.186045 0.366728
O O6 0.123405 0.157680 0.316393
O O7 0.057852 0.248409 0.249616
O O8 0.808131 0.194392 0.028316
O O9 0.970444 0.836991 0.376296
O O10 0.481618 0.159336 0.756200
O O11 0.000000 0.215536 0.000000
O O12 0.114862 0.500000 0.920330
O O13 0.942003 0.592430 0.836652
O O14 0.000000 0.103465 0.500000
#
# Coordination Sequence:
#
# PCOD9218759 Si02
#       6
#     8   8   8   8   8   8
#     4   9  18  37  65  94 135 182 220 264 320 389
#     4  10  26  46  66  90 129 174 213 276 329 402
#     4  11  23  42  64  99 137 169 218 273 337 382
#     4  11  26  46  69  92 125 171 226 269 334 402
#     4   9  19  36  62 100 139 178 224 267 316 377
#     4  12  24  35  65 102 134 171 215 281 321 386
#
# _framework density 22.948198999999999
#
# number of rings (size 3 to 8) (size 9 to 14) (size 15 to 20)
#    0.000    1.667    1.667    3.000    9.333    1.667 
#    0.000    1.667    0.000    1.000    0.000   11.667 
#    0.000    0.000    0.000    0.000    0.000    0.000 
#
# Total GULP energy -133968.236683 kJ/mol
# GULP energy per Si atom -5582.009862 kJ/mol
# Density = 2.289597 g / cm^3
# Si number density = 22.948199 Si / 1000 Ang^3
#
#
#
# Elastic Constant Matrix: (Units=GPa)
#
#
# Indices 1 2 3 4 5 6 
#
# 1 60.2602 24.6709 23.0404 -0.0001 19.5492 0.0000
# 2 24.6709 120.6571 55.6005 0.0002 12.5323 -0.0001
# 3 23.0404 55.6005 61.6613 0.0005 7.1482 0.0001
# 4 -0.0001 0.0002 0.0005 47.8780 0.0010 3.0859
# 5 19.5492 12.5323 7.1482 0.0010 45.7072 -0.0004
# 6 0.0000 -0.0001 0.0001 3.0859 -0.0004 17.8648
#
#
#
# Elastic Compliance Matrix: (Units=1/GPa)
#
#
# Indices 1 2 3 4 5 6 
#
# 1 0.022092 -0.000509 -0.006841 0.000000 -0.008239 0.000000
# 2 -0.000509 0.014360 -0.012555 0.000000 -0.001756 0.000000
# 3 -0.006841 -0.012555 0.029898 0.000000 0.001692 0.000000
# 4 0.000000 0.000000 0.000000 0.021122 -0.000001 -0.003649
# 5 -0.008239 -0.001756 0.001692 -0.000001 0.025619 0.000001
# 6 0.000000 0.000000 0.000000 -0.003649 0.000001 0.056606
#
#
# Mechanical properties :
#
#
# Convention : Reuss Voigt Hill
#
# Bulk Modulus (GPa) = 37.67755 49.91137 43.79446
# Shear Modulus (GPa) = 22.89884 31.57445 27.23664
#
# Velocity S-wave (km/s) = 3.16230 3.71334 3.44884
# Velocity P-wave (km/s) = 5.45781 6.33893 5.91480
#
# Compressibility (1/GPa) = 0.02654101
#
# Stress axis : x y z
#
# Youngs Moduli (GPa) = 45.26624 69.63915 33.44702
#
# Poissons Ratio (x) = 0.03545 0.22880
# Poissons Ratio (y) = 0.02304 0.41991
# Poissons Ratio (z) = 0.30965 0.87429
#
# Static dielectric constant tensor:
#      x y z
#    x 1.952720 0.000000 -0.028380 
#    y 0.000000 1.872190 0.000000 
#    z -0.028380 0.000000 1.859760 
# 
# From -- ./inp_files/307545.got.cif
#   From: 2010.05.17/outbox.cif.g08.bks.cpg/sg12_154_cif.got.tgz:307545.got - 2010.06.03 13:09:07.
