data_PCOD9218121
_publ_section_title
;
Structure prediction by ZEFSAII (Michael W. Deem and Ramdas Pophale) SiO2 
 PCOD9218121
Probable space group: C 2/M
;
_chemical_formula_sum "Si O2"
_cell_formula_units_Z 44
_cell_length_a 9.197083
_cell_length_b 22.327445
_cell_length_c 11.511152
_cell_angle_alpha 90.000000
_cell_angle_beta 100.409217
_cell_angle_gamma 90.000000
_cell_volume 2324.882550
_symmetry_space_group_name_H-M "C 2/M"
_symmetry_group_IT_number 12
_symmetry_cell_setting 'monoclinic'
loop_
_space_group_symop_operation_xyz
x,y,z
-x,y,-z
-x,-y,-z
x,-y,z
1/2+x,1/2+y,z
1/2-x,1/2+y,-z
1/2-x,1/2-y,-z
1/2+x,1/2-y,z
loop_
_atom_site_type_symbol
_atom_site_label
_atom_site_fract_x
_atom_site_fract_y
_atom_site_fract_z
Si Si1 0.316660 0.117761 0.179153
Si Si2 0.747864 0.500000 0.513996
Si Si3 0.996879 0.145447 0.752633
Si Si4 0.152635 0.932366 0.946553
Si Si5 0.399774 0.236520 0.092988
Si Si6 0.000000 0.102707 0.500000
Si Si7 0.552751 0.000000 0.690167
O O1 0.389884 0.182601 0.183003
O O2 0.409111 0.060962 0.235497
O O3 0.167277 0.124790 0.233179
O O4 0.265479 0.104621 0.039955
O O5 0.641431 0.557954 0.510506
O O6 0.833684 0.500000 0.402981
O O7 0.883208 0.500000 0.624474
O O8 0.110951 0.096477 0.819211
O O9 0.038090 0.205503 0.829692
O O10 0.007870 0.143394 0.616146
O O11 0.203557 0.000000 0.941936
O O12 0.000000 0.932339 0.000000
O O13 0.500000 0.218408 0.000000
O O14 0.250000 0.250000 0.000000
#
# Coordination Sequence:
#
# PCOD9218121 Si02
#       7
#     8   4   8   8   8   4   4
#     4  11  21  40  67  98 132 173 214 274 339 393
#     4  10  24  42  66  96 134 179 216 266 333 397
#     4  11  22  39  64  97 131 177 227 264 322 393
#     4   9  17  29  57  94 122 156 213 266 318 381
#     4  12  23  42  66  95 131 175 220 269 332 394
#     4  11  24  42  68  98 130 177 226 268 310 397
#     4  11  22  44  68  98 135 170 219 275 343 388
#
# _framework density 18.925688000000001
#
# number of rings (size 3 to 8) (size 9 to 14) (size 15 to 20)
#    0.000    1.273    6.364    0.545    3.818    1.455 
#    0.000    3.182    0.000    0.000    0.000    0.000 
#    0.000    0.000    0.000    0.000    0.000    0.000 
#
# Total GULP energy -122739.355768 kJ/mol
# GULP energy per Si atom -5579.061626 kJ/mol
# Density = 1.888261 g / cm^3
# Si number density = 18.925688 Si / 1000 Ang^3
#
#
#
# Elastic Constant Matrix: (Units=GPa)
#
#
# Indices 1 2 3 4 5 6 
#
# 1 65.8332 10.3905 22.0941 0.0000 14.7770 0.0000
# 2 10.3905 89.3016 20.9786 0.0000 11.1307 0.0000
# 3 22.0941 20.9786 113.8388 0.0000 -3.7894 0.0000
# 4 0.0000 0.0000 0.0000 16.4725 0.0000 -1.6148
# 5 14.7770 11.1307 -3.7894 0.0000 24.9198 0.0000
# 6 0.0000 0.0000 0.0000 -1.6148 0.0000 22.9015
#
#
#
# Elastic Compliance Matrix: (Units=1/GPa)
#
#
# Indices 1 2 3 4 5 6 
#
# 1 0.019296 0.000262 -0.004199 0.000000 -0.012197 0.000000
# 2 0.000262 0.012536 -0.002566 0.000000 -0.006145 0.000000
# 3 -0.004199 -0.002566 0.010245 0.000000 0.005194 0.000000
# 4 0.000000 0.000000 0.000000 0.061130 0.000000 0.004310
# 5 -0.012197 -0.006145 0.005194 0.000000 0.050896 0.000000
# 6 0.000000 0.000000 0.000000 0.004310 0.000000 0.043969
#
#
# Mechanical properties :
#
#
# Convention : Reuss Voigt Hill
#
# Bulk Modulus (GPa) = 34.39881 41.76666 38.08273
# Shear Modulus (GPa) = 22.64814 27.22609 24.93711
#
# Velocity S-wave (km/s) = 3.46307 3.79697 3.63386
# Velocity P-wave (km/s) = 5.84856 6.42957 6.14593
#
# Compressibility (1/GPa) = 0.02907077
#
# Stress axis : x y z
#
# Youngs Moduli (GPa) = 51.82484 79.76940 97.60846
#
# Poissons Ratio (x) = -0.02087 0.40988
# Poissons Ratio (y) = -0.01356 0.25042
# Poissons Ratio (z) = 0.21762 0.20465
#
# Static dielectric constant tensor:
#      x y z
#    x 1.575940 0.000000 0.003000 
#    y 0.000000 1.694640 0.000000 
#    z 0.003000 0.000000 1.629800 
# 
# From -- ./inp_files/122139.got.cif
#   From: 2010.05.17/outbox.cif.g08.bks.cpg/sg12_62_cif.got.tgz:122139.got - 2010.06.03 13:09:07.
