data_PCOD9218239
_publ_section_title
;
Structure prediction by ZEFSAII (Michael W. Deem and Ramdas Pophale) SiO2 
 PCOD9218239
Probable space group: C 2/M
;
_chemical_formula_sum "Si O2"
_cell_formula_units_Z 52
_cell_length_a 27.739042
_cell_length_b 14.938219
_cell_length_c 8.413347
_cell_angle_alpha 90.000000
_cell_angle_beta 42.848642
_cell_angle_gamma 90.000000
_cell_volume 2370.876037
_symmetry_space_group_name_H-M "C 2/M"
_symmetry_group_IT_number 12
_symmetry_cell_setting 'monoclinic'
loop_
_space_group_symop_operation_xyz
x,y,z
-x,y,-z
-x,-y,-z
x,-y,z
1/2+x,1/2+y,z
1/2-x,1/2+y,-z
1/2-x,1/2-y,-z
1/2+x,1/2-y,z
loop_
_atom_site_type_symbol
_atom_site_label
_atom_site_fract_x
_atom_site_fract_y
_atom_site_fract_z
Si Si1 0.668947 0.827514 0.054214
Si Si2 0.076347 0.834424 0.374714
Si Si3 0.029594 0.396866 0.247574
Si Si4 0.295723 0.710757 0.531391
Si Si5 0.142513 0.000000 0.032959
Si Si6 0.762154 0.500000 0.002693
Si Si7 0.445901 0.740542 0.265381
Si Si8 0.181652 0.000000 0.557018
O O1 0.630586 0.746554 0.231989
O O2 0.611303 0.862899 0.063541
O O3 0.741709 0.790135 0.808371
O O4 0.688732 0.912660 0.110907
O O5 0.100798 0.914482 0.204801
O O6 0.066338 0.844187 0.586929
O O7 0.000000 0.804317 0.500000
O O8 0.027166 0.500000 0.194665
O O9 0.000000 0.398349 0.500000
O O10 0.982900 0.325897 0.261262
O O11 0.250000 0.750000 0.500000
O O12 0.368699 0.762670 0.383857
O O13 0.314218 0.607935 0.451530
O O14 0.215051 0.000000 0.959230
O O15 0.153438 0.000000 0.818354
O O16 0.715489 0.500000 0.280378
O O17 0.500000 0.711708 0.000000
#
# Coordination Sequence:
#
# PCOD9218239 Si02
#       8
#     8   8   8   8   4   4   8   4
#     4  11  20  43  76  95 148 184 231 305 368 444
#     4  12  25  46  71 105 141 195 253 300 368 443
#     4  11  22  45  73 107 144 189 237 298 379 454
#     4  11  25  44  69 105 145 194 240 308 380 436
#     4  12  27  46  73 107 146 196 262 313 368 453
#     4  10  24  43  72 116 144 191 242 305 392 458
#     4  12  26  45  71 103 149 192 248 307 373 455
#     4  10  24  47  70 105 152 189 249 314 389 432
#
# _framework density 21.932821000000001
#
# number of rings (size 3 to 8) (size 9 to 14) (size 15 to 20)
#    0.000    0.769    3.846    3.923    2.154    4.000 
#    1.385    0.769    0.000    0.000    0.000    0.000 
#    0.000    0.000    0.000    0.000    0.000    0.000 
#
# Total GULP energy -144787.947016 kJ/mol
# GULP energy per Si atom -5568.767193 kJ/mol
# Density = 2.188290 g / cm^3
# Si number density = 21.932821 Si / 1000 Ang^3
#
#
#
# Elastic Constant Matrix: (Units=GPa)
#
#
# Indices 1 2 3 4 5 6 
#
# 1 139.2984 43.1392 50.0250 0.0000 -20.8436 0.0000
# 2 43.1392 110.1027 42.9140 0.0000 1.5129 0.0000
# 3 50.0250 42.9140 137.3000 0.0000 -4.7256 0.0000
# 4 0.0000 0.0000 0.0000 116.9537 0.0000 73.8929
# 5 -20.8436 1.5129 -4.7256 0.0000 42.7117 0.0000
# 6 0.0000 0.0000 0.0000 73.8929 0.0000 85.5660
#
#
#
# Elastic Compliance Matrix: (Units=1/GPa)
#
#
# Indices 1 2 3 4 5 6 
#
# 1 0.009629 -0.002879 -0.002453 0.000000 0.004530 0.000000
# 2 -0.002879 0.011226 -0.002531 0.000000 -0.002083 0.000000
# 3 -0.002453 -0.002531 0.008964 0.000000 -0.000115 0.000000
# 4 0.000000 0.000000 0.000000 0.018818 0.000000 -0.016251
# 5 0.004530 -0.002083 -0.000115 0.000000 0.025684 0.000000
# 6 0.000000 0.000000 0.000000 -0.016251 0.000000 0.025720
#
#
# Mechanical properties :
#
#
# Convention : Reuss Voigt Hill
#
# Bulk Modulus (GPa) = 70.95773 73.20642 72.08207
# Shear Modulus (GPa) = 41.50587 65.75447 53.63017
#
# Velocity S-wave (km/s) = 4.35490 5.48133 4.95026
# Velocity P-wave (km/s) = 7.59667 8.57380 8.09998
#
# Compressibility (1/GPa) = 0.01409290
#
# Stress axis : x y z
#
# Youngs Moduli (GPa) = 103.85307 89.08109 111.55579
#
# Poissons Ratio (x) = 0.25647 0.27359
# Poissons Ratio (y) = 0.29900 0.28239
# Poissons Ratio (z) = 0.25470 0.22550
#
# Static dielectric constant tensor:
#      x y z
#    x 1.867050 0.000000 0.041030 
#    y 0.000000 1.790320 0.000000 
#    z 0.041030 0.000000 1.884160 
# 
# From -- ./inp_files/111927.got.cif
#   From: 2010.05.17/outbox.cif.g08.bks.cpg/sg12_56_cif.got.tgz:111927.got - 2010.06.03 13:09:07.
