data_PCOD9218707
_publ_section_title
;
Structure prediction by ZEFSAII (Michael W. Deem and Ramdas Pophale) SiO2 
 PCOD9218707
Probable space group: C 2/M
;
_chemical_formula_sum "Si O2"
_cell_formula_units_Z 46
_cell_length_a 14.533419
_cell_length_b 7.550366
_cell_length_c 24.301585
_cell_angle_alpha 90.000000
_cell_angle_beta 139.397989
_cell_angle_gamma 90.000000
_cell_volume 1735.475637
_symmetry_space_group_name_H-M "C 2/M"
_symmetry_group_IT_number 12
_symmetry_cell_setting 'monoclinic'
loop_
_space_group_symop_operation_xyz
x,y,z
-x,y,-z
-x,-y,-z
x,-y,z
1/2+x,1/2+y,z
1/2-x,1/2+y,-z
1/2-x,1/2-y,-z
1/2+x,1/2-y,z
loop_
_atom_site_type_symbol
_atom_site_label
_atom_site_fract_x
_atom_site_fract_y
_atom_site_fract_z
Si Si1 0.000000 0.500000 0.000000
Si Si2 0.500000 0.247535 0.500000
Si Si3 0.267457 0.800360 0.214747
Si Si4 0.306148 0.712886 0.638972
Si Si5 0.461310 0.298111 0.599490
Si Si6 0.487696 0.790624 0.826811
Si Si7 0.703589 0.285866 0.060500
O O1 0.072243 0.656665 0.993188
O O2 0.659790 0.309424 0.586553
O O3 0.463593 0.183842 0.545382
O O4 0.385579 0.699615 0.302365
O O5 0.122686 0.799464 0.182784
O O6 0.241818 0.735905 0.141601
O O7 0.321746 0.000000 0.234451
O O8 0.279899 0.500000 0.630429
O O9 0.357708 0.758416 0.601241
O O10 0.427915 0.753507 0.738261
O O11 0.428102 0.500000 0.567159
O O12 0.652009 0.739142 0.905869
O O13 0.478579 0.000000 0.830626
O O14 0.677238 0.500000 0.045530
#
# Coordination Sequence:
#
# PCOD9218707 Si02
#       7
#     2   4   8   8   8   8   8
#     4  12  26  44  88 106 148 186 218 284 356 414
#     4  12  24  40  60  92 138 186 228 304 354 394
#     4  11  23  41  70 100 135 178 232 286 336 412
#     4  11  24  40  62  92 131 180 236 287 349 416
#     4  11  24  40  62  92 131 180 236 287 349 416
#     4  11  23  41  70 100 135 178 232 286 336 412
#     4  10  25  47  73 109 146 184 229 280 349 423
#
# _framework density 26.505700999999998
#
# number of rings (size 3 to 8) (size 9 to 14) (size 15 to 20)
#    0.000    1.043    3.478    2.348    4.870    1.391 
#    0.000    0.870    0.000    0.000    0.000    0.000 
#    0.000    0.000    0.000    0.000    0.000    0.000 
#
# Total GULP energy -128388.417875 kJ/mol
# GULP energy per Si atom -5582.105125 kJ/mol
# Density = 2.644537 g / cm^3
# Si number density = 26.505701 Si / 1000 Ang^3
#
#
#
# Elastic Constant Matrix: (Units=GPa)
#
#
# Indices 1 2 3 4 5 6 
#
# 1 163.3002 13.1963 30.0588 0.0000 25.8337 0.0000
# 2 13.1963 111.0915 25.1459 0.0000 9.7724 0.0000
# 3 30.0588 25.1459 123.4945 0.0000 12.1630 0.0000
# 4 0.0000 0.0000 0.0000 9.4007 0.0000 8.1794
# 5 25.8337 9.7724 12.1630 0.0000 65.6599 0.0000
# 6 0.0000 0.0000 0.0000 8.1794 0.0000 17.8881
#
#
#
# Elastic Compliance Matrix: (Units=1/GPa)
#
#
# Indices 1 2 3 4 5 6 
#
# 1 0.006772 -0.000289 -0.001356 0.000000 -0.002370 0.000000
# 2 -0.000289 0.009523 -0.001773 0.000000 -0.000975 0.000000
# 3 -0.001356 -0.001773 0.008872 0.000000 -0.000846 0.000000
# 4 0.000000 0.000000 0.000000 0.176656 0.000000 -0.080776
# 5 -0.002370 -0.000975 -0.000846 0.000000 0.016464 0.000000
# 6 0.000000 0.000000 0.000000 -0.080776 0.000000 0.092838
#
#
# Mechanical properties :
#
#
# Convention : Reuss Voigt Hill
#
# Bulk Modulus (GPa) = 54.55176 59.40978 56.98077
# Shear Modulus (GPa) = 15.42874 40.55543 27.99209
#
# Velocity S-wave (km/s) = 2.41527 3.91585 3.25326
# Velocity P-wave (km/s) = 5.32953 6.55040 5.97125
#
# Compressibility (1/GPa) = 0.01833122
#
# Stress axis : x y z
#
# Youngs Moduli (GPa) = 147.67617 105.00939 112.71603
#
# Poissons Ratio (x) = 0.03034 0.15284
# Poissons Ratio (y) = 0.04267 0.19981
# Poissons Ratio (z) = 0.20024 0.18615
#
# Static dielectric constant tensor:
#      x y z
#    x 2.046280 0.000000 -0.019730 
#    y 0.000000 2.101370 0.000000 
#    z -0.019730 0.000000 2.193650 
# 
# From -- ./inp_files/360368.got.cif
#   From: 2010.05.17/outbox.cif.g08.bks.cpg/sg12_181_cif.got.tgz:360368.got - 2010.06.03 13:09:07.
