data_PCOD9218110
_publ_section_title
;
Structure prediction by ZEFSAII (Michael W. Deem and Ramdas Pophale) SiO2 
 PCOD9218110
Probable space group: C 2/M
;
_chemical_formula_sum "Si O2"
_cell_formula_units_Z 36
_cell_length_a 14.354065
_cell_length_b 8.675181
_cell_length_c 19.090516
_cell_angle_alpha 90.000000
_cell_angle_beta 139.260653
_cell_angle_gamma 90.000000
_cell_volume 1551.424905
_symmetry_space_group_name_H-M "C 2/M"
_symmetry_group_IT_number 12
_symmetry_cell_setting 'monoclinic'
loop_
_space_group_symop_operation_xyz
x,y,z
-x,y,-z
-x,-y,-z
x,-y,z
1/2+x,1/2+y,z
1/2-x,1/2+y,-z
1/2-x,1/2-y,-z
1/2+x,1/2-y,z
loop_
_atom_site_type_symbol
_atom_site_label
_atom_site_fract_x
_atom_site_fract_y
_atom_site_fract_z
Si Si1 0.442928 0.814403 0.207875
Si Si2 0.845933 0.000000 0.447454
Si Si3 0.414255 0.500000 0.648792
Si Si4 0.193101 0.714285 0.255971
Si Si5 0.839085 0.500000 0.382596
Si Si6 0.341658 0.172157 0.921015
O O1 0.504475 0.663975 0.288050
O O2 0.527110 0.783830 0.182875
O O3 0.274908 0.779319 0.109149
O O4 0.464809 0.000000 0.238872
O O5 0.865493 0.000000 0.540728
O O6 0.759064 0.861449 0.363614
O O7 0.000000 0.000000 0.500000
O O8 0.273778 0.500000 0.617704
O O9 0.293838 0.860100 0.308921
O O10 0.207023 0.649134 0.187233
O O11 0.000000 0.500000 0.500000
O O12 0.350395 0.000000 0.958394
O O13 0.500000 0.238526 0.000000
#
# Coordination Sequence:
#
# PCOD9218110 Si02
#       6
#     8   4   4   8   4   8
#     4  11  23  45  69  97 137 175 216 276 327 394
#     4  12  22  40  66  89 131 177 221 262 318 390
#     4  10  24  42  66  98 134 180 222 262 330 390
#     4  11  24  45  63  97 135 174 220 272 334 386
#     4  10  24  42  65  97 135 175 222 276 315 392
#     4  11  24  45  72  97 129 173 221 275 339 398
#
# _framework density 23.204474000000001
#
# number of rings (size 3 to 8) (size 9 to 14) (size 15 to 20)
#    0.000    1.111    3.333    2.000    1.556    6.667 
#    2.000    0.000    0.000    0.000    0.000    0.000 
#    0.000    0.000    0.000    0.000    0.000    0.000 
#
# Total GULP energy -100214.370504 kJ/mol
# GULP energy per Si atom -5567.465028 kJ/mol
# Density = 2.315166 g / cm^3
# Si number density = 23.204474 Si / 1000 Ang^3
#
#
#
# Elastic Constant Matrix: (Units=GPa)
#
#
# Indices 1 2 3 4 5 6 
#
# 1 99.7948 -4.4004 38.9924 0.0000 40.8573 0.0000
# 2 -4.4004 139.7209 44.4909 0.0000 20.4030 0.0000
# 3 38.9924 44.4909 59.7980 0.0000 33.8027 0.0000
# 4 0.0000 0.0000 0.0000 30.0174 0.0000 17.7186
# 5 40.8573 20.4030 33.8027 0.0000 58.8206 0.0000
# 6 0.0000 0.0000 0.0000 17.7186 0.0000 -3.1226
#
#
#
# Elastic Compliance Matrix: (Units=1/GPa)
#
#
# Indices 1 2 3 4 5 6 
#
# 1 0.017763 0.005219 -0.011061 0.000000 -0.007792 0.000000
# 2 0.005219 0.010963 -0.010903 0.000000 -0.001163 0.000000
# 3 -0.011061 -0.010903 0.037868 0.000000 -0.010297 0.000000
# 4 0.000000 0.000000 0.000000 0.007659 0.000000 0.043462
# 5 -0.007792 -0.001163 -0.010297 0.000000 0.028734 0.000000
# 6 0.000000 0.000000 0.000000 0.043462 0.000000 -0.073629
#
#
# Mechanical properties :
#
#
# Convention : Reuss Voigt Hill
#
# Bulk Modulus (GPa) = 30.20731 50.83105 40.51918
# Shear Modulus (GPa) = 67.67496 31.82512 49.75004
#
# Velocity S-wave (km/s) = 5.40629 3.70741 4.63534
# Velocity P-wave (km/s) = 7.21226 6.34663 6.79325
#
# Compressibility (1/GPa) = 0.03310457
#
# Stress axis : x y z
#
# Youngs Moduli (GPa) = 56.29756 91.21523 26.40733
#
# Poissons Ratio (x) = -0.47609 0.29210
# Poissons Ratio (y) = -0.29384 0.28792
# Poissons Ratio (z) = 0.62272 0.99452
#
# Static dielectric constant tensor:
#      x y z
#    x 1.868580 0.000000 0.068500 
#    y 0.000000 1.953650 0.000000 
#    z 0.068500 0.000000 1.938010 
# 
# From -- ./inp_files/309138.got.cif
#   From: 2010.05.17/outbox.cif.g08.bks.cpg/sg12_155_cif.got.tgz:309138.got - 2010.06.03 13:09:07.
