data_PCOD9218269
_publ_section_title
;
Structure prediction by ZEFSAII (Michael W. Deem and Ramdas Pophale) SiO2 
 PCOD9218269
Probable space group: C 2/M
;
_chemical_formula_sum "Si O2"
_cell_formula_units_Z 64
_cell_length_a 14.452900
_cell_length_b 18.874206
_cell_length_c 23.566060
_cell_angle_alpha 90.000000
_cell_angle_beta 150.628765
_cell_angle_gamma 90.000000
_cell_volume 3152.970037
_symmetry_space_group_name_H-M "C 2/M"
_symmetry_group_IT_number 12
_symmetry_cell_setting 'monoclinic'
loop_
_space_group_symop_operation_xyz
x,y,z
-x,y,-z
-x,-y,-z
x,-y,z
1/2+x,1/2+y,z
1/2-x,1/2+y,-z
1/2-x,1/2-y,-z
1/2+x,1/2-y,z
loop_
_atom_site_type_symbol
_atom_site_label
_atom_site_fract_x
_atom_site_fract_y
_atom_site_fract_z
Si Si1 0.792364 0.417648 0.913205
Si Si2 0.337021 0.738613 0.316413
Si Si3 0.566142 0.125464 0.477380
Si Si4 0.407990 0.832047 0.726554
Si Si5 0.971891 0.580203 0.304072
Si Si6 0.587603 0.669237 0.106149
Si Si7 0.019144 0.812339 0.300321
Si Si8 0.237151 0.583858 0.967375
O O1 0.745780 0.500000 0.875485
O O2 0.644161 0.364840 0.806466
O O3 0.787340 0.409063 0.978262
O O4 0.000000 0.403638 0.000000
O O5 0.438161 0.803909 0.401554
O O6 0.264923 0.682863 0.323912
O O7 0.155618 0.769558 0.185181
O O8 0.475686 0.711393 0.341451
O O9 0.500000 0.089457 0.500000
O O10 0.531101 0.083242 0.401105
O O11 0.781278 0.149115 0.596556
O O12 0.376285 0.880101 0.654104
O O13 0.474648 0.756323 0.737195
O O14 0.571073 0.873003 0.847867
O O15 0.944443 0.500000 0.271052
O O16 0.776411 0.623849 0.194320
O O17 0.500000 0.695748 0.000000
O O18 0.433690 0.618742 0.052960
O O19 0.233171 0.500000 0.951557
#
# Coordination Sequence:
#
# PCOD9218269 Si02
#       8
#     8   8   8   8   8   8   8   8
#     4  10  24  44  64  92 133 177 218 265 321 394
#     4  11  24  39  63  98 128 170 218 273 333 396
#     4  11  24  44  69  95 129 168 219 277 339 387
#     4  12  23  39  65  97 127 173 211 274 330 389
#     4  11  25  44  64  95 135 173 220 270 334 402
#     4  11  21  39  62  94 131 173 216 268 334 387
#     4  12  23  42  69  95 130 171 220 280 328 389
#     4  11  23  38  60  91 132 176 216 263 330 398
#
# _framework density 20.298321000000001
#
# number of rings (size 3 to 8) (size 9 to 14) (size 15 to 20)
#    0.000    0.875    5.000    2.625    1.750    5.750 
#    0.000    0.625    0.000    0.750    0.000    0.000 
#    0.000    0.000    0.000    0.000    0.000    0.000 
#
# Total GULP energy -178999.550694 kJ/mol
# GULP energy per Si atom -5593.735959 kJ/mol
# Density = 2.025212 g / cm^3
# Si number density = 20.298321 Si / 1000 Ang^3
#
#
#
# Elastic Constant Matrix: (Units=GPa)
#
#
# Indices 1 2 3 4 5 6 
#
# 1 118.2341 13.4327 7.0343 -0.0005 -6.4130 -0.0001
# 2 13.4327 23.7240 7.4168 -0.0001 -4.7148 -0.0002
# 3 7.0343 7.4168 48.0358 -0.0016 -10.8908 -0.0005
# 4 -0.0005 -0.0001 -0.0016 4.1811 0.0001 -5.8284
# 5 -6.4130 -4.7148 -10.8908 0.0001 29.9438 0.0000
# 6 -0.0001 -0.0002 -0.0005 -5.8284 0.0000 24.8835
#
#
#
# Elastic Compliance Matrix: (Units=1/GPa)
#
#
# Indices 1 2 3 4 5 6 
#
# 1 0.009084 -0.004825 -0.000345 0.000001 0.001060 0.000000
# 2 -0.004825 0.047519 -0.005633 -0.000001 0.004400 0.000000
# 3 -0.000345 -0.005633 0.023454 0.000014 0.007570 0.000004
# 4 0.000001 -0.000001 0.000014 0.355127 0.000003 0.083181
# 5 0.001060 0.004400 0.007570 0.000003 0.037069 0.000001
# 6 0.000000 0.000000 0.000004 0.083181 0.000001 0.059671
#
#
# Mechanical properties :
#
#
# Convention : Reuss Voigt Hill
#
# Bulk Modulus (GPa) = 17.10810 27.30684 22.20747
# Shear Modulus (GPa) = 8.72580 22.60903 15.66742
#
# Velocity S-wave (km/s) = 2.07560 3.34104 2.78125
# Velocity P-wave (km/s) = 3.76706 5.32591 4.61282
#
# Compressibility (1/GPa) = 0.05845186
#
# Stress axis : x y z
#
# Youngs Moduli (GPa) = 110.08375 21.04429 42.63614
#
# Poissons Ratio (x) = 0.10154 0.01470
# Poissons Ratio (y) = 0.53114 0.24016
# Poissons Ratio (z) = 0.03796 0.11854
#
# Static dielectric constant tensor:
#      x y z
#    x 1.733410 0.000000 -0.029600 
#    y 0.000000 1.691030 0.000000 
#    z -0.029600 0.000000 1.697820 
# 
# From -- ./inp_files/340835.got.cif
#   From: 2010.05.17/outbox.cif.g08.bks.cpg/sg12_171_cif.got.tgz:340835.got - 2010.06.03 13:09:07.
