data_PCOD9218522
_publ_section_title
;
Structure prediction by ZEFSAII (Michael W. Deem and Ramdas Pophale) SiO2 
 PCOD9218522
Probable space group: C 2/M
;
_chemical_formula_sum "Si O2"
_cell_formula_units_Z 48
_cell_length_a 21.818890
_cell_length_b 8.671217
_cell_length_c 20.676266
_cell_angle_alpha 90.000000
_cell_angle_beta 142.485886
_cell_angle_gamma 90.000000
_cell_volume 2382.162219
_symmetry_space_group_name_H-M "C 2/M"
_symmetry_group_IT_number 12
_symmetry_cell_setting 'monoclinic'
loop_
_space_group_symop_operation_xyz
x,y,z
-x,y,-z
-x,-y,-z
x,-y,z
1/2+x,1/2+y,z
1/2-x,1/2+y,-z
1/2-x,1/2-y,-z
1/2+x,1/2-y,z
loop_
_atom_site_type_symbol
_atom_site_label
_atom_site_fract_x
_atom_site_fract_y
_atom_site_fract_z
Si Si1 0.840027 0.184997 0.621642
Si Si2 0.884123 0.186830 0.918116
Si Si3 0.746948 0.682064 0.069688
Si Si4 0.044462 0.820650 0.716951
Si Si5 0.437196 0.171877 0.511800
Si Si6 0.776417 0.683924 0.701503
O O1 0.750000 0.250000 0.500000
O O2 0.838715 0.260265 0.691207
O O3 0.950141 0.215276 0.684332
O O4 0.826671 0.000000 0.614597
O O5 0.837176 0.237344 0.948283
O O6 0.818657 0.252890 0.804330
O O7 0.878446 0.000000 0.911847
O O8 0.000000 0.230426 0.000000
O O9 0.732082 0.500000 0.051006
O O10 0.856537 0.720284 0.190218
O O11 0.750000 0.750000 0.000000
O O12 0.997643 0.785260 0.608439
O O13 0.071455 0.000000 0.747485
O O14 0.500000 0.155852 0.500000
O O15 0.331157 0.242448 0.404136
O O16 0.425090 0.000000 0.531485
O O17 0.771015 0.500000 0.698891
#
# Coordination Sequence:
#
# PCOD9218522 Si02
#       6
#     8   8   8   8   8   8
#     4  11  23  40  64  95 132 173 219 265 321 390
#     4  10  24  47  71  95 128 173 222 270 325 391
#     4  11  25  45  70  99 132 172 219 273 331 392
#     4  11  24  41  64  94 129 169 214 267 326 389
#     4  11  23  39  62  91 125 168 213 262 324 392
#     4  12  25  40  63  96 132 169 213 269 328 388
#
# _framework density 20.149761000000002
#
# number of rings (size 3 to 8) (size 9 to 14) (size 15 to 20)
#    0.000    1.000    1.667    4.500    2.333    9.000 
#    0.000    0.000    0.000    0.000    0.000    0.000 
#    0.000    0.000    0.000    0.000    0.000    0.000 
#
# Total GULP energy -134115.297644 kJ/mol
# GULP energy per Si atom -5588.137402 kJ/mol
# Density = 2.010390 g / cm^3
# Si number density = 20.149761 Si / 1000 Ang^3
#
#
#
# Elastic Constant Matrix: (Units=GPa)
#
#
# Indices 1 2 3 4 5 6 
#
# 1 134.5888 27.5141 19.3176 0.0000 -10.6544 0.0000
# 2 27.5141 38.1501 -6.3638 0.0000 3.0667 0.0000
# 3 19.3176 -6.3638 56.9705 0.0000 -5.8690 0.0000
# 4 0.0000 0.0000 0.0000 39.1785 0.0000 -6.1821
# 5 -10.6544 3.0667 -5.8690 0.0000 31.4442 0.0000
# 6 0.0000 0.0000 0.0000 -6.1821 0.0000 30.3121
#
#
#
# Elastic Compliance Matrix: (Units=1/GPa)
#
#
# Indices 1 2 3 4 5 6 
#
# 1 0.009913 -0.008076 -0.003912 0.000000 0.003417 0.000000
# 2 -0.008076 0.033425 0.005969 0.000000 -0.004882 0.000000
# 3 -0.003912 0.005969 0.019729 0.000000 0.001775 0.000000
# 4 0.000000 0.000000 0.000000 0.026373 0.000000 0.005379
# 5 0.003417 -0.004882 0.001775 0.000000 0.033767 0.000000
# 6 0.000000 0.000000 0.000000 0.005379 0.000000 0.034087
#
#
# Mechanical properties :
#
#
# Convention : Reuss Voigt Hill
#
# Bulk Modulus (GPa) = 19.59638 34.51615 27.05626
# Shear Modulus (GPa) = 26.83240 32.80304 29.81772
#
# Velocity S-wave (km/s) = 3.65313 4.03918 3.85100
# Velocity P-wave (km/s) = 5.24789 6.23861 5.76457
#
# Compressibility (1/GPa) = 0.05102984
#
# Stress axis : x y z
#
# Youngs Moduli (GPa) = 100.87764 29.91752 50.68702
#
# Poissons Ratio (x) = 0.24163 0.19826
# Poissons Ratio (y) = 0.81473 -0.30257
# Poissons Ratio (z) = 0.39459 -0.17859
#
# Static dielectric constant tensor:
#      x y z
#    x 1.840730 0.000000 0.049360 
#    y 0.000000 1.739960 0.000000 
#    z 0.049360 0.000000 1.718710 
# 
# From -- ./inp_files/320302.got.cif
#   From: 2010.05.17/outbox.cif.g08.bks.cpg/sg12_161_cif.got.tgz:320302.got - 2010.06.03 13:09:07.
