data_PCOD9218994
_publ_section_title
;
Structure prediction by ZEFSAII (Michael W. Deem and Ramdas Pophale) SiO2 
 PCOD9218994
Probable space group: C 2/M
;
_chemical_formula_sum "Si O2"
_cell_formula_units_Z 52
_cell_length_a 25.554245
_cell_length_b 26.289434
_cell_length_c 9.191730
_cell_angle_alpha 90.000000
_cell_angle_beta 29.325581
_cell_angle_gamma 90.000000
_cell_volume 3024.372550
_symmetry_space_group_name_H-M "C 2/M"
_symmetry_group_IT_number 12
_symmetry_cell_setting 'monoclinic'
loop_
_space_group_symop_operation_xyz
x,y,z
-x,y,-z
-x,-y,-z
x,-y,z
1/2+x,1/2+y,z
1/2-x,1/2+y,-z
1/2-x,1/2-y,-z
1/2+x,1/2-y,z
loop_
_atom_site_type_symbol
_atom_site_label
_atom_site_fract_x
_atom_site_fract_y
_atom_site_fract_z
Si Si1 0.500000 0.757184 0.500000
Si Si2 0.804248 0.675023 0.451373
Si Si3 0.680141 0.701636 0.219129
Si Si4 0.570653 0.152870 0.140654
Si Si5 0.625732 0.288582 0.671775
Si Si6 0.178619 0.377085 0.294329
Si Si7 0.372226 0.944840 0.823569
O O1 0.563632 0.720633 0.453017
O O2 0.424445 0.795424 0.776174
O O3 0.691993 0.688656 0.646416
O O4 0.848100 0.728449 0.407158
O O5 0.801471 0.632752 0.583703
O O6 0.883832 0.660310 0.129145
O O7 0.671067 0.689278 0.411203
O O8 0.750000 0.750000 0.000000
O O9 0.732252 0.656089 0.003364
O O10 0.443064 0.142440 0.440900
O O11 0.632971 0.105576 0.063249
O O12 0.500000 0.295587 0.000000
O O13 0.176425 0.430912 0.216307
O O14 0.500000 0.949378 0.500000
O O15 0.332294 0.000000 0.973475
#
# Coordination Sequence:
#
# PCOD9218994 Si02
#       7
#     4   8   8   8   8   8   8
#     4  12  20  30  53  74 107 144 180 212 244 312
#     4  11  22  32  49  72 108 143 176 217 261 313
#     4  12  21  33  50  73 106 145 186 208 253 314
#     4  11  19  34  52  78 107 141 176 214 265 314
#     4  11  23  34  46  70 108 148 184 216 254 304
#     4  11  20  34  52  77 106 140 180 219 259 315
#     4   9  18  34  56  77 102 137 178 222 268 317
#
# _framework density 17.193650000000002
#
# number of rings (size 3 to 8) (size 9 to 14) (size 15 to 20)
#    0.000    1.077    5.385    4.154    4.308    0.000 
#    0.000    0.769    0.000    3.692    0.000    0.538 
#    0.000    3.692    0.000    0.000    0.000    0.000 
#
# Total GULP energy -144942.313785 kJ/mol
# GULP energy per Si atom -5574.704376 kJ/mol
# Density = 1.715452 g / cm^3
# Si number density = 17.193650 Si / 1000 Ang^3
#
#
#
# Elastic Constant Matrix: (Units=GPa)
#
#
# Indices 1 2 3 4 5 6 
#
# 1 76.3564 30.2903 26.5780 0.0000 11.7477 0.0000
# 2 30.2903 71.4498 20.0723 0.0000 4.3295 0.0000
# 3 26.5780 20.0723 86.1185 0.0000 14.5871 0.0000
# 4 0.0000 0.0000 0.0000 7.4059 0.0000 4.5784
# 5 11.7477 4.3295 14.5871 0.0000 34.1127 0.0000
# 6 0.0000 0.0000 0.0000 4.5784 0.0000 5.4285
#
#
#
# Elastic Compliance Matrix: (Units=1/GPa)
#
#
# Indices 1 2 3 4 5 6 
#
# 1 0.017257 -0.006175 -0.003248 0.000000 -0.003770 0.000000
# 2 -0.006175 0.017192 -0.002255 0.000000 0.000909 0.000000
# 3 -0.003248 -0.002255 0.013910 0.000000 -0.004543 0.000000
# 4 0.000000 0.000000 0.000000 0.282121 0.000000 -0.237936
# 5 -0.003770 0.000909 -0.004543 0.000000 0.032440 0.000001
# 6 0.000000 0.000000 0.000000 -0.237936 0.000001 0.384883
#
#
# Mechanical properties :
#
#
# Convention : Reuss Voigt Hill
#
# Bulk Modulus (GPa) = 39.99684 43.08953 41.54319
# Shear Modulus (GPa) = 6.41443 19.85503 13.13473
#
# Velocity S-wave (km/s) = 1.93360 3.40190 2.76692
# Velocity P-wave (km/s) = 5.31960 6.36760 5.86705
#
# Compressibility (1/GPa) = 0.02500197
#
# Stress axis : x y z
#
# Youngs Moduli (GPa) = 57.94876 58.16623 71.89330
#
# Poissons Ratio (x) = 0.35917 0.23350
# Poissons Ratio (y) = 0.35782 0.16215
# Poissons Ratio (z) = 0.18821 0.13119
#
# Static dielectric constant tensor:
#      x y z
#    x 1.664090 0.000000 -0.015600 
#    y 0.000000 1.608720 0.000000 
#    z -0.015600 0.000000 1.583980 
# 
# From -- ./inp_files/106952.got.cif
#   From: 2010.05.17/outbox.cif.g08.bks.cpg/sg12_54_cif.got.tgz:106952.got - 2010.06.03 13:09:07.
