data_PCOD9218020
_publ_section_title
;
Structure prediction by ZEFSAII (Michael W. Deem and Ramdas Pophale) SiO2 
 PCOD9218020
Probable space group: C 2/M
;
_chemical_formula_sum "Si O2"
_cell_formula_units_Z 44
_cell_length_a 8.882118
_cell_length_b 9.897774
_cell_length_c 21.272946
_cell_angle_alpha 90.000000
_cell_angle_beta 97.673579
_cell_angle_gamma 90.000000
_cell_volume 1853.425063
_symmetry_space_group_name_H-M "C 2/M"
_symmetry_group_IT_number 12
_symmetry_cell_setting 'monoclinic'
loop_
_space_group_symop_operation_xyz
x,y,z
-x,y,-z
-x,-y,-z
x,-y,z
1/2+x,1/2+y,z
1/2-x,1/2+y,-z
1/2-x,1/2-y,-z
1/2+x,1/2-y,z
loop_
_atom_site_type_symbol
_atom_site_label
_atom_site_fract_x
_atom_site_fract_y
_atom_site_fract_z
Si Si1 0.079087 0.199001 0.368200
Si Si2 0.746171 0.500000 0.863750
Si Si3 0.920929 0.000000 0.272059
Si Si4 0.633260 0.207833 0.547556
Si Si5 0.274904 0.799577 0.089210
Si Si6 0.500000 0.740630 0.000000
Si Si7 0.924455 0.500000 0.186200
Si Si8 0.906480 0.500000 0.677731
O O1 0.247366 0.149322 0.395399
O O2 0.083782 0.361102 0.360194
O O3 0.958998 0.178089 0.418351
O O4 0.014312 0.128286 0.302855
O O5 0.615923 0.500000 0.803078
O O6 0.732249 0.638694 0.900796
O O7 0.911196 0.500000 0.839053
O O8 0.756945 0.000000 0.296980
O O9 0.500000 0.138281 0.500000
O O10 0.750000 0.250000 0.500000
O O11 0.112706 0.840020 0.052035
O O12 0.329256 0.872619 0.155138
O O13 0.396063 0.826469 0.041200
O O14 0.963126 0.500000 0.261588
#
# Coordination Sequence:
#
# PCOD9218020 Si02
#       8
#     8   4   4   8   8   4   4   4
#     4  11  21  44  67  97 130 169 217 266 322 386
#     4  11  24  44  66  96 134 170 215 269 329 380
#     4  11  24  43  68  96 132 173 213 271 325 383
#     4   9  20  40  66  97 132 168 215 265 322 383
#     4  11  23  44  68  98 129 175 213 268 327 384
#     4  10  24  40  68  98 130 170 220 264 322 392
#     4  11  24  44  66  96 135 169 215 271 327 377
#     4  11  24  43  68  97 131 173 215 271 321 384
#
# _framework density 23.739833999999998
#
# number of rings (size 3 to 8) (size 9 to 14) (size 15 to 20)
#    0.000    1.455    3.636    1.091    0.000    5.818 
#    0.000   20.000    0.000    0.000    0.000    0.000 
#    0.000    0.000    0.000    0.000    0.000    0.000 
#
# Total GULP energy -122842.988403 kJ/mol
# GULP energy per Si atom -5583.772200 kJ/mol
# Density = 2.368580 g / cm^3
# Si number density = 23.739834 Si / 1000 Ang^3
#
#
#
# Elastic Constant Matrix: (Units=GPa)
#
#
# Indices 1 2 3 4 5 6 
#
# 1 141.6458 17.9832 43.9916 0.0000 42.4257 0.0000
# 2 17.9832 144.3625 38.9735 0.0000 18.2401 0.0000
# 3 43.9916 38.9735 130.5242 0.0000 50.9272 0.0000
# 4 0.0000 0.0000 0.0000 107.9611 0.0000 44.0875
# 5 42.4257 18.2401 50.9272 0.0000 62.1613 0.0000
# 6 0.0000 0.0000 0.0000 44.0875 0.0000 21.5908
#
#
#
# Elastic Compliance Matrix: (Units=1/GPa)
#
#
# Indices 1 2 3 4 5 6 
#
# 1 0.008956 -0.000205 -0.000876 0.000000 -0.005335 0.000000
# 2 -0.000205 0.007551 -0.002022 0.000000 -0.000419 0.000000
# 3 -0.000876 -0.002022 0.011899 0.000000 -0.008558 0.000000
# 4 0.000000 0.000000 0.000000 0.055752 0.000000 -0.113843
# 5 -0.005335 -0.000419 -0.008558 0.000000 0.026862 0.000000
# 6 0.000000 0.000000 0.000000 -0.113843 0.000000 0.278778
#
#
# Mechanical properties :
#
#
# Convention : Reuss Voigt Hill
#
# Bulk Modulus (GPa) = 45.04370 68.71436 56.87903
# Shear Modulus (GPa) = 12.39449 59.38160 35.88805
#
# Velocity S-wave (km/s) = 2.28742 5.00677 3.89231
# Velocity P-wave (km/s) = 5.09818 7.90135 6.64917
#
# Compressibility (1/GPa) = 0.02220066
#
# Stress axis : x y z
#
# Youngs Moduli (GPa) = 111.66025 132.42525 84.03781
#
# Poissons Ratio (x) = 0.02717 0.07359
# Poissons Ratio (y) = 0.02291 0.16993
# Poissons Ratio (z) = 0.09778 0.26778
#
# Static dielectric constant tensor:
#      x y z
#    x 1.913400 0.000000 0.023260 
#    y 0.000000 1.896190 0.000000 
#    z 0.023260 0.000000 1.888360 
# 
# From -- ./inp_files/299385.got.cif
#   From: 2010.05.17/outbox.cif.g08.bks.cpg/sg12_150_cif.got.tgz:299385.got - 2010.06.03 13:09:07.
