data_PCOD9218354
_publ_section_title
;
Structure prediction by ZEFSAII (Michael W. Deem and Ramdas Pophale) SiO2 
 PCOD9218354
Probable space group: C 2/M
;
_chemical_formula_sum "Si O2"
_cell_formula_units_Z 58
_cell_length_a 24.631685
_cell_length_b 7.920734
_cell_length_c 12.804584
_cell_angle_alpha 90.000000
_cell_angle_beta 99.989784
_cell_angle_gamma 90.000000
_cell_volume 2460.311690
_symmetry_space_group_name_H-M "C 2/M"
_symmetry_group_IT_number 12
_symmetry_cell_setting 'monoclinic'
loop_
_space_group_symop_operation_xyz
x,y,z
-x,y,-z
-x,-y,-z
x,-y,z
1/2+x,1/2+y,z
1/2-x,1/2+y,-z
1/2-x,1/2-y,-z
1/2+x,1/2-y,z
loop_
_atom_site_type_symbol
_atom_site_label
_atom_site_fract_x
_atom_site_fract_y
_atom_site_fract_z
Si Si1 0.423867 0.693505 0.997731
Si Si2 0.911798 0.805684 0.647481
Si Si3 0.023406 0.303018 0.774961
Si Si4 0.689348 0.700438 0.715072
Si Si5 0.082529 0.306640 0.576370
Si Si6 0.286435 0.297661 0.613374
Si Si7 0.000000 0.500000 0.000000
Si Si8 0.688984 0.298491 0.947430
O O1 0.429229 0.500000 0.958836
O O2 0.449384 0.695177 0.124230
O O3 0.359954 0.743655 0.990069
O O4 0.455710 0.847193 0.955629
O O5 0.929430 0.795873 0.531635
O O6 0.849543 0.734838 0.632881
O O7 0.959208 0.718848 0.729755
O O8 0.910105 0.000000 0.679885
O O9 0.033642 0.500000 0.810394
O O10 0.052727 0.261268 0.674599
O O11 0.678388 0.500000 0.705985
O O12 0.647193 0.788394 0.622566
O O13 0.751526 0.733368 0.700118
O O14 0.678329 0.768562 0.827291
O O15 0.068036 0.500000 0.548615
O O16 0.288984 0.500000 0.616342
O O17 0.250000 0.250000 0.500000
O O18 0.686997 0.500000 0.937765
O O19 0.750000 0.250000 0.000000
#
# Coordination Sequence:
#
# PCOD9218354 Si02
#       8
#     8   8   8   8   8   8   2   8
#     4  11  24  47  74 104 141 182 227 285 353 427
#     4  11  24  39  58  89 132 180 225 274 326 392
#     4  11  23  41  65  96 132 175 223 278 334 397
#     4  11  22  39  63  94 126 168 215 266 329 395
#     4  11  22  36  62  93 127 170 221 271 323 389
#     4  11  23  39  59  87 126 173 218 265 326 391
#     4  12  26  48  76 106 134 184 230 278 360 428
#     4  10  24  44  72 103 135 174 226 288 353 417
#
# _framework density 23.574248000000001
#
# number of rings (size 3 to 8) (size 9 to 14) (size 15 to 20)
#    0.000    1.103    3.448    2.690    0.966    6.069 
#    2.483    0.000    0.000    0.000    0.000    0.000 
#    0.000    0.000    0.000    0.000    0.000    0.000 
#
# Total GULP energy -162017.657428 kJ/mol
# GULP energy per Si atom -5586.815773 kJ/mol
# Density = 2.352059 g / cm^3
# Si number density = 23.574248 Si / 1000 Ang^3
#
#
#
# Elastic Constant Matrix: (Units=GPa)
#
#
# Indices 1 2 3 4 5 6 
#
# 1 137.2125 22.0925 18.3484 0.0000 9.2368 0.0000
# 2 22.0925 74.7063 17.1681 0.0000 -12.5835 0.0000
# 3 18.3484 17.1681 51.8310 0.0000 11.2928 0.0000
# 4 0.0000 0.0000 0.0000 27.5979 0.0000 -0.8779
# 5 9.2368 -12.5835 11.2928 0.0000 31.5819 0.0000
# 6 0.0000 0.0000 0.0000 -0.8779 0.0000 36.1523
#
#
#
# Elastic Compliance Matrix: (Units=1/GPa)
#
#
# Indices 1 2 3 4 5 6 
#
# 1 0.008079 -0.002557 -0.001384 0.000000 -0.002887 0.000000
# 2 -0.002557 0.017513 -0.007134 0.000000 0.010277 0.000000
# 3 -0.001384 -0.007134 0.024594 0.000000 -0.011232 0.000000
# 4 0.000000 0.000000 0.000000 0.036263 0.000000 0.000881
# 5 -0.002887 0.010277 -0.011232 0.000000 0.040619 0.000000
# 6 0.000000 0.000000 0.000000 0.000881 0.000000 0.027682
#
#
# Mechanical properties :
#
#
# Convention : Reuss Voigt Hill
#
# Bulk Modulus (GPa) = 35.67119 42.10752 38.88935
# Shear Modulus (GPa) = 26.84626 32.80913 29.82769
#
# Velocity S-wave (km/s) = 3.37827 3.73465 3.56092
# Velocity P-wave (km/s) = 5.51191 6.04129 5.78266
#
# Compressibility (1/GPa) = 0.02803383
#
# Stress axis : x y z
#
# Youngs Moduli (GPa) = 123.77540 57.10166 40.66076
#
# Poissons Ratio (x) = 0.14604 0.05627
# Poissons Ratio (y) = 0.31655 0.29009
# Poissons Ratio (z) = 0.17129 0.40739
#
# Static dielectric constant tensor:
#      x y z
#    x 1.938310 0.000000 0.094720 
#    y 0.000000 1.857860 0.000000 
#    z 0.094720 0.000000 1.593770 
# 
# From -- ./inp_files/237729.got.cif
#   From: 2010.05.17/outbox.cif.g08.bks.cpg/sg12_119_cif.got.tgz:237729.got - 2010.06.03 13:09:07.
