data_PCOD9218543
_publ_section_title
;
Structure prediction by ZEFSAII (Michael W. Deem and Ramdas Pophale) SiO2 
 PCOD9218543
Probable space group: C 2/M
;
_chemical_formula_sum "Si O2"
_cell_formula_units_Z 30
_cell_length_a 11.169137
_cell_length_b 21.171862
_cell_length_c 5.076238
_cell_angle_alpha 90.000000
_cell_angle_beta 83.383675
_cell_angle_gamma 90.000000
_cell_volume 1192.390651
_symmetry_space_group_name_H-M "C 2/M"
_symmetry_group_IT_number 12
_symmetry_cell_setting 'monoclinic'
loop_
_space_group_symop_operation_xyz
x,y,z
-x,y,-z
-x,-y,-z
x,-y,z
1/2+x,1/2+y,z
1/2-x,1/2+y,-z
1/2-x,1/2-y,-z
1/2+x,1/2-y,z
loop_
_atom_site_type_symbol
_atom_site_label
_atom_site_fract_x
_atom_site_fract_y
_atom_site_fract_z
Si Si1 0.128150 0.117360 0.693531
Si Si2 0.777219 0.622352 0.152246
Si Si3 0.500000 0.500000 0.000000
Si Si4 0.082694 0.500000 0.728773
Si Si5 0.614053 0.242344 0.658005
O O1 0.161188 0.125712 0.376646
O O2 0.086847 0.188309 0.776429
O O3 0.242802 0.109298 0.860450
O O4 0.050806 0.056458 0.788017
O O5 0.839901 0.562491 0.265760
O O6 0.859354 0.684479 0.152608
O O7 0.000000 0.500000 0.500000
O O8 0.000000 0.500000 0.000000
O O9 0.500000 0.226220 0.500000
O O10 0.750000 0.250000 0.500000
#
# Coordination Sequence:
#
# PCOD9218543 Si02
#       5
#     8   8   2   4   8
#     4  11  26  45  71 106 146 199 247 315 383 452
#     4  11  24  48  70 105 151 196 248 312 387 453
#     4  12  28  44  76 106 156 192 262 318 384 450
#     4  12  24  41  70 105 139 192 249 304 374 449
#     4  10  24  47  76 110 151 199 255 314 382 458
#
# _framework density 25.159538999999999
#
# number of rings (size 3 to 8) (size 9 to 14) (size 15 to 20)
#    0.000    1.067    0.000    4.800    7.467    3.200 
#    2.400    0.000    0.000    0.000    0.000    0.000 
#    0.000    0.000    0.000    0.000    0.000    0.000 
#
# Total GULP energy -83581.275021 kJ/mol
# GULP energy per Si atom -5572.085001 kJ/mol
# Density = 2.510228 g / cm^3
# Si number density = 25.159539 Si / 1000 Ang^3
#
#
#
# Elastic Constant Matrix: (Units=GPa)
#
#
# Indices 1 2 3 4 5 6 
#
# 1 104.7259 38.9717 44.5321 0.0000 18.9227 0.0000
# 2 38.9717 233.4736 20.4740 0.0000 5.7512 0.0000
# 3 44.5321 20.4740 95.7142 0.0000 11.5934 0.0000
# 4 0.0000 0.0000 0.0000 13.4607 0.0000 -5.5963
# 5 18.9227 5.7512 11.5934 0.0000 70.5273 0.0000
# 6 0.0000 0.0000 0.0000 -5.5963 0.0000 59.8796
#
#
#
# Elastic Compliance Matrix: (Units=1/GPa)
#
#
# Indices 1 2 3 4 5 6 
#
# 1 0.012864 -0.001619 -0.005343 0.000000 -0.002441 0.000000
# 2 -0.001619 0.004572 -0.000237 0.000000 0.000100 0.000000
# 3 -0.005343 -0.000237 0.013069 0.000000 -0.000695 0.000000
# 4 0.000000 0.000000 0.000000 0.077294 0.000000 0.007224
# 5 -0.002441 0.000100 -0.000695 0.000000 0.014940 0.000000
# 6 0.000000 0.000000 0.000000 0.007224 0.000000 0.017375
#
#
# Mechanical properties :
#
#
# Convention : Reuss Voigt Hill
#
# Bulk Modulus (GPa) = 62.08573 71.31882 66.70227
# Shear Modulus (GPa) = 31.27334 50.76925 41.02129
#
# Velocity S-wave (km/s) = 3.52945 4.49697 4.04226
# Velocity P-wave (km/s) = 6.42960 7.44122 6.95383
#
# Compressibility (1/GPa) = 0.01610676
#
# Stress axis : x y z
#
# Youngs Moduli (GPa) = 77.73463 218.74039 76.51857
#
# Poissons Ratio (x) = 0.35406 0.40886
# Poissons Ratio (y) = 0.12582 0.01813
# Poissons Ratio (z) = 0.41536 0.05184
#
# Static dielectric constant tensor:
#      x y z
#    x 2.185420 0.000000 -0.117740 
#    y 0.000000 1.888030 0.000000 
#    z -0.117740 0.000000 2.051370 
# 
# From -- ./inp_files/6087.got.cif
#   From: 2010.05.17/outbox.cif.g08.bks.cpg/sg12_4_cif.got.tgz:6087.got - 2010.06.03 13:09:07.
