data_PCOD9218221
_publ_section_title
;
Structure prediction by ZEFSAII (Michael W. Deem and Ramdas Pophale) SiO2 
 PCOD9218221
Probable space group: C 2/M
;
_chemical_formula_sum "Si O2"
_cell_formula_units_Z 48
_cell_length_a 9.027668
_cell_length_b 27.932608
_cell_length_c 18.299936
_cell_angle_alpha 90.000000
_cell_angle_beta 29.529682
_cell_angle_gamma 90.000000
_cell_volume 2274.431602
_symmetry_space_group_name_H-M "C 2/M"
_symmetry_group_IT_number 12
_symmetry_cell_setting 'monoclinic'
loop_
_space_group_symop_operation_xyz
x,y,z
-x,y,-z
-x,-y,-z
x,-y,z
1/2+x,1/2+y,z
1/2-x,1/2+y,-z
1/2-x,1/2-y,-z
1/2+x,1/2-y,z
loop_
_atom_site_type_symbol
_atom_site_label
_atom_site_fract_x
_atom_site_fract_y
_atom_site_fract_z
Si Si1 0.322113 0.128298 0.904307
Si Si2 0.209455 0.879162 0.571888
Si Si3 0.478138 0.832048 0.327410
Si Si4 0.147044 0.224420 0.637762
Si Si5 0.862512 0.203328 0.909753
Si Si6 0.143590 0.443160 0.858110
O O1 0.528524 0.152511 0.753785
O O2 0.423229 0.076977 0.889763
O O3 0.338398 0.160956 0.970719
O O4 0.000000 0.127000 0.000000
O O5 0.500000 0.884033 0.500000
O O6 0.341249 0.875300 0.433416
O O7 0.064540 0.825982 0.637326
O O8 0.958141 0.916174 0.706090
O O9 0.350781 0.778395 0.392711
O O10 0.815544 0.820166 0.209021
O O11 0.500000 0.216485 0.500000
O O12 0.917957 0.222825 0.804707
O O13 0.750000 0.250000 0.000000
O O14 0.184185 0.500000 0.836306
O O15 0.000000 0.432707 0.000000
#
# Coordination Sequence:
#
# PCOD9218221 Si02
#       6
#     8   8   8   8   8   8
#     4  10  24  43  68 100 142 178 229 289 353 410
#     4  11  24  43  68  97 142 186 231 284 352 419
#     4  11  23  38  59  99 141 184 227 278 340 418
#     4  11  22  35  56  91 139 185 227 268 332 404
#     4  11  21  37  56  94 138 186 230 268 329 410
#     4  11  27  50  77 104 130 177 242 298 358 417
#
# _framework density 21.104175000000001
#
# number of rings (size 3 to 8) (size 9 to 14) (size 15 to 20)
#    0.000    1.167    5.000    1.500    7.000    0.667 
#    0.000    1.667    0.000    0.000    0.000    0.000 
#    0.000    0.000    0.000    0.000    0.000    0.000 
#
# Total GULP energy -133632.246686 kJ/mol
# GULP energy per Si atom -5568.010279 kJ/mol
# Density = 2.105614 g / cm^3
# Si number density = 21.104175 Si / 1000 Ang^3
#
#
#
# Elastic Constant Matrix: (Units=GPa)
#
#
# Indices 1 2 3 4 5 6 
#
# 1 53.6696 40.0096 33.4668 0.0000 -0.5475 0.0000
# 2 40.0096 140.7952 61.0231 0.0000 14.1808 0.0000
# 3 33.4668 61.0231 109.5452 0.0003 7.7469 0.0001
# 4 0.0000 0.0000 0.0003 41.9083 -0.0001 3.4788
# 5 -0.5475 14.1808 7.7469 -0.0001 27.3810 0.0000
# 6 0.0000 0.0000 0.0001 3.4788 0.0000 28.5292
#
#
#
# Elastic Compliance Matrix: (Units=1/GPa)
#
#
# Indices 1 2 3 4 5 6 
#
# 1 0.026144 -0.005686 -0.005169 0.000000 0.004930 0.000000
# 2 -0.005686 0.010929 -0.004023 0.000000 -0.004636 0.000000
# 3 -0.005169 -0.004023 0.013070 0.000000 -0.001718 0.000000
# 4 0.000000 0.000000 0.000000 0.024106 0.000000 -0.002939
# 5 0.004930 -0.004636 -0.001718 0.000000 0.039507 0.000000
# 6 0.000000 0.000000 0.000000 -0.002939 0.000000 0.035410
#
#
# Mechanical properties :
#
#
# Convention : Reuss Voigt Hill
#
# Bulk Modulus (GPa) = 49.04728 63.66764 56.35746
# Shear Modulus (GPa) = 26.92260 30.86441 28.89350
#
# Velocity S-wave (km/s) = 3.57557 3.82839 3.70414
# Velocity P-wave (km/s) = 6.35116 7.05520 6.71242
#
# Compressibility (1/GPa) = 0.02038849
#
# Stress axis : x y z
#
# Youngs Moduli (GPa) = 38.24906 91.50112 76.50940
#
# Poissons Ratio (x) = 0.52026 0.39545
# Poissons Ratio (y) = 0.21748 0.30781
# Poissons Ratio (z) = 0.19769 0.36812
#
# Static dielectric constant tensor:
#      x y z
#    x 1.703540 0.000000 -0.215490 
#    y 0.000000 1.760150 0.000000 
#    z -0.215490 0.000000 1.333630 
# 
# From -- ./inp_files/260231.got.cif
#   From: 2010.05.17/outbox.cif.g08.bks.cpg/sg12_131_cif.got.tgz:260231.got - 2010.06.03 13:09:07.
