data_PCOD9218906
_publ_section_title
;
Structure prediction by ZEFSAII (Michael W. Deem and Ramdas Pophale) SiO2 
 PCOD9218906
Probable space group: C 2/M
;
_chemical_formula_sum "Si O2"
_cell_formula_units_Z 48
_cell_length_a 16.037912
_cell_length_b 16.196466
_cell_length_c 16.237772
_cell_angle_alpha 90.000000
_cell_angle_beta 142.771912
_cell_angle_gamma 90.000000
_cell_volume 2551.775028
_symmetry_space_group_name_H-M "C 2/M"
_symmetry_group_IT_number 12
_symmetry_cell_setting 'monoclinic'
loop_
_space_group_symop_operation_xyz
x,y,z
-x,y,-z
-x,-y,-z
x,-y,z
1/2+x,1/2+y,z
1/2-x,1/2+y,-z
1/2-x,1/2-y,-z
1/2+x,1/2-y,z
loop_
_atom_site_type_symbol
_atom_site_label
_atom_site_fract_x
_atom_site_fract_y
_atom_site_fract_z
Si Si1 0.855844 0.860544 0.400214
Si Si2 0.119595 0.685173 0.679304
Si Si3 0.139931 0.822537 0.404820
Si Si4 0.829137 0.405432 0.429230
Si Si5 0.108246 0.285611 0.855191
Si Si6 0.039200 0.403737 0.125157
O O1 0.864338 0.776137 0.350125
O O2 0.868455 0.849044 0.507963
O O3 0.705039 0.896461 0.264133
O O4 0.000000 0.906957 0.500000
O O5 0.208460 0.624514 0.691856
O O6 0.150157 0.678088 0.799184
O O7 0.961046 0.652693 0.551607
O O8 0.250000 0.750000 0.500000
O O9 0.209007 0.888811 0.399175
O O10 0.002221 0.785184 0.256838
O O11 0.871973 0.500000 0.464802
O O12 0.034774 0.346715 0.863568
O O13 0.250000 0.250000 0.000000
O O14 0.999640 0.500000 0.105620
O O15 0.000000 0.379745 0.000000
#
# Coordination Sequence:
#
# PCOD9218906 Si02
#       6
#     8   8   8   8   8   8
#     4  12  20  37  67  90 120 163 205 256 309 359
#     4  11  18  36  60  89 125 151 198 257 295 369
#     4  12  19  39  61  90 124 156 204 259 300 363
#     4  11  21  34  61  96 124 157 196 255 320 361
#     4  12  24  39  66  92 117 167 213 246 312 378
#     4  11  26  44  60  88 130 165 204 260 315 371
#
# _framework density 18.810434999999998
#
# number of rings (size 3 to 8) (size 9 to 14) (size 15 to 20)
#    0.000    0.500    8.333    2.000    0.000    3.667 
#    0.000    0.833    0.000    1.000    0.000    0.000 
#    0.000    0.000    0.000    0.000    0.000    0.000 
#
# Total GULP energy -133691.243289 kJ/mol
# GULP energy per Si atom -5570.468470 kJ/mol
# Density = 1.876762 g / cm^3
# Si number density = 18.810435 Si / 1000 Ang^3
#
#
#
# Elastic Constant Matrix: (Units=GPa)
#
#
# Indices 1 2 3 4 5 6 
#
# 1 156.6768 38.9215 65.5023 0.0000 -28.4148 0.0000
# 2 38.9215 68.0726 30.0669 0.0000 -9.9196 0.0000
# 3 65.5023 30.0669 144.5737 0.0001 -9.5258 0.0001
# 4 0.0000 0.0000 0.0001 14.8251 0.0000 2.4997
# 5 -28.4148 -9.9196 -9.5258 0.0000 42.6112 0.0000
# 6 0.0000 0.0000 0.0001 2.4997 0.0000 10.5217
#
#
#
# Elastic Compliance Matrix: (Units=1/GPa)
#
#
# Indices 1 2 3 4 5 6 
#
# 1 0.009431 -0.003243 -0.003282 0.000000 0.004800 0.000000
# 2 -0.003243 0.017694 -0.002113 0.000000 0.001484 0.000000
# 3 -0.003282 -0.002113 0.008796 0.000000 -0.000714 0.000000
# 4 0.000000 0.000000 0.000000 0.070268 0.000000 -0.016694
# 5 0.004800 0.001484 -0.000714 0.000000 0.026855 0.000000
# 6 0.000000 0.000000 0.000000 -0.016694 0.000000 0.099008
#
#
# Mechanical properties :
#
#
# Convention : Reuss Voigt Hill
#
# Bulk Modulus (GPa) = 53.63280 70.92273 62.27776
# Shear Modulus (GPa) = 19.56617 29.24706 24.40661
#
# Velocity S-wave (km/s) = 3.22868 3.94741 3.60600
# Velocity P-wave (km/s) = 6.51715 7.65257 7.10757
#
# Compressibility (1/GPa) = 0.01864531
#
# Stress axis : x y z
#
# Youngs Moduli (GPa) = 106.03366 56.51664 113.68465
#
# Poissons Ratio (x) = 0.18329 0.37313
# Poissons Ratio (y) = 0.34388 0.24018
# Poissons Ratio (z) = 0.34802 0.11940
#
# Static dielectric constant tensor:
#      x y z
#    x 1.714720 0.000000 -0.046650 
#    y 0.000000 1.594370 0.000000 
#    z -0.046650 0.000000 1.697630 
# 
# From -- ./inp_files/216514.got.cif
#   From: 2010.05.17/outbox.cif.g08.bks.cpg/sg12_109_cif.got.tgz:216514.got - 2010.06.03 13:09:07.
