data_PCOD9218411
_publ_section_title
;
Structure prediction by ZEFSAII (Michael W. Deem and Ramdas Pophale) SiO2 
 PCOD9218411
Probable space group: C 2/M
;
_chemical_formula_sum "Si O2"
_cell_formula_units_Z 48
_cell_length_a 12.974411
_cell_length_b 17.215537
_cell_length_c 17.861181
_cell_angle_alpha 90.000000
_cell_angle_beta 32.425470
_cell_angle_gamma 90.000000
_cell_volume 2139.177824
_symmetry_space_group_name_H-M "C 2/M"
_symmetry_group_IT_number 12
_symmetry_cell_setting 'monoclinic'
loop_
_space_group_symop_operation_xyz
x,y,z
-x,y,-z
-x,-y,-z
x,-y,z
1/2+x,1/2+y,z
1/2-x,1/2+y,-z
1/2-x,1/2-y,-z
1/2+x,1/2-y,z
loop_
_atom_site_type_symbol
_atom_site_label
_atom_site_fract_x
_atom_site_fract_y
_atom_site_fract_z
Si Si1 0.842175 0.339403 0.657538
Si Si2 0.719910 0.592233 0.879724
Si Si3 0.684430 0.162825 0.019900
Si Si4 0.253328 0.339788 0.700833
Si Si5 0.360491 0.409618 0.485388
Si Si6 0.536141 0.406968 0.739111
O O1 0.855854 0.371109 0.732916
O O2 0.832347 0.246585 0.665066
O O3 0.645228 0.373148 0.743822
O O4 0.000000 0.364588 0.500000
O O5 0.723247 0.500000 0.868183
O O6 0.781541 0.613918 0.925248
O O7 0.500000 0.619688 0.000000
O O8 0.461063 0.157162 0.136786
O O9 0.750000 0.250000 0.000000
O O10 0.824964 0.129622 0.870468
O O11 0.250252 0.358248 0.613716
O O12 0.412100 0.398964 0.635078
O O13 0.306160 0.500000 0.526447
O O14 0.348018 0.385236 0.406806
O O15 0.526029 0.500000 0.749084
#
# Coordination Sequence:
#
# PCOD9218411 Si02
#       6
#     8   8   8   8   8   8
#     4  12  25  42  68  99 133 172 219 273 327 391
#     4  11  24  44  66  94 138 177 213 267 332 394
#     4  12  25  42  68  99 131 173 220 271 323 390
#     4  11  23  43  68  97 129 172 221 273 328 390
#     4  10  24  45  69  95 133 173 218 276 330 390
#     4  11  25  45  66  97 136 171 217 273 329 391
#
# _framework density 22.438527000000001
#
# number of rings (size 3 to 8) (size 9 to 14) (size 15 to 20)
#    0.000    0.833    5.000    2.000    4.667    5.333 
#    0.000    1.667    0.000    0.000    0.000    0.000 
#    0.000    0.000    0.000    0.000    0.000    0.000 
#
# Total GULP energy -134310.199233 kJ/mol
# GULP energy per Si atom -5596.258301 kJ/mol
# Density = 2.238746 g / cm^3
# Si number density = 22.438527 Si / 1000 Ang^3
#
#
#
# Elastic Constant Matrix: (Units=GPa)
#
#
# Indices 1 2 3 4 5 6 
#
# 1 28.5347 -14.9781 -8.4917 0.0000 7.7076 -0.0022
# 2 -14.9781 64.7732 13.0652 -0.0015 19.4267 -0.0004
# 3 -8.4917 13.0652 100.5003 -0.0022 0.5143 -0.0001
# 4 0.0000 -0.0015 -0.0022 22.7837 0.0013 29.9506
# 5 7.7076 19.4267 0.5143 0.0013 49.0595 0.0016
# 6 -0.0022 -0.0004 -0.0001 29.9506 0.0016 -21.5429
#
#
#
# Elastic Compliance Matrix: (Units=1/GPa)
#
#
# Indices 1 2 3 4 5 6 
#
# 1 0.046685 0.014260 0.002157 0.000003 -0.013004 -0.000001
# 2 0.014260 0.022395 -0.001650 0.000002 -0.011091 0.000000
# 3 0.002157 -0.001650 0.010346 0.000000 0.000206 0.000000
# 4 0.000003 0.000002 0.000000 0.015522 -0.000002 0.021580
# 5 -0.013004 -0.011091 0.000206 -0.000002 0.026816 0.000000
# 6 -0.000001 0.000000 0.000000 0.021580 0.000000 -0.016416
#
#
# Mechanical properties :
#
#
# Convention : Reuss Voigt Hill
#
# Bulk Modulus (GPa) = 9.17749 19.22211 14.19980
# Shear Modulus (GPa) = 44.58980 23.67425 34.13203
#
# Velocity S-wave (km/s) = 4.46264 3.25171 3.90440
# Velocity P-wave (km/s) = 5.53646 4.76270 5.16410
#
# Compressibility (1/GPa) = 0.10896228
#
# Stress axis : x y z
#
# Youngs Moduli (GPa) = 21.42013 44.65219 96.65657
#
# Poissons Ratio (x) = -0.63676 -0.20851
# Poissons Ratio (y) = -0.30546 0.15946
# Poissons Ratio (z) = -0.04621 0.07366
#
# Static dielectric constant tensor:
#      x y z
#    x 1.891370 0.000000 -0.047210 
#    y 0.000000 1.775320 0.000000 
#    z -0.047210 0.000000 1.871370 
# 
# From -- ./inp_files/271591.got.cif
#   From: 2010.05.17/outbox.cif.g08.bks.cpg/sg12_136_cif.got.tgz:271591.got - 2010.06.03 13:09:07.
