data_PCOD9218650
_publ_section_title
;
Structure prediction by ZEFSAII (Michael W. Deem and Ramdas Pophale) SiO2 
 PCOD9218650
Probable space group: C 2/M
;
_chemical_formula_sum "Si O2"
_cell_formula_units_Z 26
_cell_length_a 9.833161
_cell_length_b 7.592742
_cell_length_c 14.571900
_cell_angle_alpha 90.000000
_cell_angle_beta 69.105743
_cell_angle_gamma 90.000000
_cell_volume 1016.404405
_symmetry_space_group_name_H-M "C 2/M"
_symmetry_group_IT_number 12
_symmetry_cell_setting 'monoclinic'
loop_
_space_group_symop_operation_xyz
x,y,z
-x,y,-z
-x,-y,-z
x,-y,z
1/2+x,1/2+y,z
1/2-x,1/2+y,-z
1/2-x,1/2-y,-z
1/2+x,1/2-y,z
loop_
_atom_site_type_symbol
_atom_site_label
_atom_site_fract_x
_atom_site_fract_y
_atom_site_fract_z
Si Si1 0.208648 0.290982 0.904164
Si Si2 0.288900 0.299994 0.593807
Si Si3 0.000000 0.000000 0.000000
Si Si4 0.522573 0.287422 0.292360
O O1 0.175918 0.500000 0.902811
O O2 0.078583 0.155566 0.918554
O O3 0.350631 0.248735 0.810153
O O4 0.250000 0.250000 0.000000
O O5 0.333974 0.500000 0.576393
O O6 0.250000 0.250000 0.500000
O O7 0.415239 0.216014 0.624911
O O8 0.137395 0.285913 0.685891
O O9 0.507206 0.500000 0.299038
#
# Coordination Sequence:
#
# PCOD9218650 Si02
#       4
#     8   8   2   8
#     4  11  25  45  69 102 139 183 231 287 340 415
#     4  11  24  43  67  97 132 173 222 278 339 406
#     4  12  26  44  72  96 142 186 232 280 352 406
#     4  10  25  44  67  97 134 176 224 279 339 407
#
# _framework density 25.580369000000001
#
# number of rings (size 3 to 8) (size 9 to 14) (size 15 to 20)
#    0.000    1.231    1.538    2.308    6.462    6.154 
#    0.000    0.000    0.000    0.000    0.000    0.000 
#    0.000    0.000    0.000    0.000    0.000    0.000 
#
# Total GULP energy -72501.614708 kJ/mol
# GULP energy per Si atom -5577.047285 kJ/mol
# Density = 2.552215 g / cm^3
# Si number density = 25.580369 Si / 1000 Ang^3
#
#
#
# Elastic Constant Matrix: (Units=GPa)
#
#
# Indices 1 2 3 4 5 6 
#
# 1 111.3011 1.8650 13.8045 0.0000 -11.2924 0.0000
# 2 1.8650 119.3133 20.3433 0.0000 -17.2072 0.0000
# 3 13.8045 20.3433 102.0081 0.0000 -14.0614 0.0000
# 4 0.0000 0.0000 0.0000 39.1011 0.0000 -12.2267
# 5 -11.2924 -17.2072 -14.0614 0.0000 53.8874 0.0000
# 6 0.0000 0.0000 0.0000 -12.2267 0.0000 18.2729
#
#
#
# Elastic Compliance Matrix: (Units=1/GPa)
#
#
# Indices 1 2 3 4 5 6 
#
# 1 0.009291 0.000292 -0.001073 0.000000 0.001760 0.000000
# 2 0.000292 0.008997 -0.001483 0.000000 0.002547 0.000000
# 3 -0.001073 -0.001483 0.010526 0.000000 0.002049 0.000000
# 4 0.000000 0.000000 0.000000 0.032341 0.000000 0.021640
# 5 0.001760 0.002547 0.002049 0.000000 0.020274 0.000000
# 6 0.000000 0.000000 0.000000 0.021640 0.000000 0.069206
#
#
# Mechanical properties :
#
#
# Convention : Reuss Voigt Hill
#
# Bulk Modulus (GPa) = 41.17462 44.96091 43.06777
# Shear Modulus (GPa) = 30.62615 42.02625 36.32620
#
# Velocity S-wave (km/s) = 3.46389 4.05768 3.77248
# Velocity P-wave (km/s) = 5.66826 6.29027 5.98735
#
# Compressibility (1/GPa) = 0.02428680
#
# Stress axis : x y z
#
# Youngs Moduli (GPa) = 107.62637 111.14991 94.99946
#
# Poissons Ratio (x) = -0.03241 0.10192
# Poissons Ratio (y) = -0.03138 0.14084
# Poissons Ratio (z) = 0.11547 0.16479
#
# Static dielectric constant tensor:
#      x y z
#    x 2.299170 0.000000 0.147810 
#    y 0.000000 1.951000 0.000000 
#    z 0.147810 0.000000 2.107290 
# 
# From -- ./inp_files/201784.got.cif
#   From: 2010.05.17/outbox.cif.g08.bks.cpg/sg12_101_cif.got.tgz:201784.got - 2010.06.03 13:09:07.
