data_PCOD9218934
_publ_section_title
;
Structure prediction by ZEFSAII (Michael W. Deem and Ramdas Pophale) SiO2 
 PCOD9218934
Probable space group: C 2/M
;
_chemical_formula_sum "Si O2"
_cell_formula_units_Z 48
_cell_length_a 17.861224
_cell_length_b 16.753790
_cell_length_c 11.347225
_cell_angle_alpha 90.000000
_cell_angle_beta 129.530206
_cell_angle_gamma 90.000000
_cell_volume 2618.973880
_symmetry_space_group_name_H-M "C 2/M"
_symmetry_group_IT_number 12
_symmetry_cell_setting 'monoclinic'
loop_
_space_group_symop_operation_xyz
x,y,z
-x,y,-z
-x,-y,-z
x,-y,z
1/2+x,1/2+y,z
1/2-x,1/2+y,-z
1/2-x,1/2-y,-z
1/2+x,1/2-y,z
loop_
_atom_site_type_symbol
_atom_site_label
_atom_site_fract_x
_atom_site_fract_y
_atom_site_fract_z
Si Si1 0.271123 0.773979 0.154856
Si Si2 0.278717 0.591282 0.530423
Si Si3 0.102369 0.168696 0.549944
Si Si4 0.401195 0.678807 0.848099
Si Si5 0.417238 0.806527 0.665274
Si Si6 0.934170 0.592740 0.315679
O O1 0.328969 0.703475 0.279360
O O2 0.172744 0.793096 0.125681
O O3 0.340418 0.851514 0.232467
O O4 0.250000 0.750000 0.000000
O O5 0.247678 0.500000 0.510453
O O6 0.340469 0.606211 0.473771
O O7 0.345467 0.618052 0.706420
O O8 0.186534 0.649963 0.437168
O O9 0.081000 0.243307 0.440643
O O10 0.000000 0.140799 0.500000
O O11 0.428315 0.754994 0.794053
O O12 0.500000 0.644953 0.000000
O O13 0.500343 0.870628 0.722980
O O14 0.910512 0.500000 0.274386
O O15 0.000000 0.598713 0.500000
#
# Coordination Sequence:
#
# PCOD9218934 Si02
#       6
#     8   8   8   8   8   8
#     4  12  22  38  61  89 123 163 196 239 301 362
#     4  11  23  39  63  89 121 159 198 253 301 348
#     4  11  20  39  63  88 115 154 211 244 287 363
#     4  11  23  38  62  90 117 158 207 246 292 360
#     4  11  18  39  65  90 115 151 201 252 300 350
#     4  11  21  36  63  96 120 145 193 257 309 343
#
# _framework density 18.327788000000002
#
# number of rings (size 3 to 8) (size 9 to 14) (size 15 to 20)
#    0.000    0.833    6.667    2.500    2.333    2.667 
#    0.000    0.833    0.000    2.000    0.000    0.000 
#    0.000    0.000    0.000    0.000    0.000    0.000 
#
# Total GULP energy -134143.672326 kJ/mol
# GULP energy per Si atom -5589.319680 kJ/mol
# Density = 1.828607 g / cm^3
# Si number density = 18.327788 Si / 1000 Ang^3
#
#
#
# Elastic Constant Matrix: (Units=GPa)
#
#
# Indices 1 2 3 4 5 6 
#
# 1 99.9477 -9.7609 17.3327 0.0000 -6.6605 0.0000
# 2 -9.7609 53.2773 0.4473 0.0000 -10.6746 0.0000
# 3 17.3327 0.4473 67.8165 0.0000 -12.3521 0.0000
# 4 0.0000 0.0000 0.0000 13.0026 0.0000 5.6008
# 5 -6.6605 -10.6746 -12.3521 0.0000 32.8709 0.0000
# 6 0.0000 0.0000 0.0000 5.6008 0.0000 12.0804
#
#
#
# Elastic Compliance Matrix: (Units=1/GPa)
#
#
# Indices 1 2 3 4 5 6 
#
# 1 0.010795 0.002412 -0.002398 0.000000 0.002070 0.000000
# 2 0.002412 0.020697 0.000601 0.000000 0.007436 0.000000
# 3 -0.002398 0.000601 0.016426 0.000000 0.005882 0.000000
# 4 0.000000 0.000000 0.000000 0.096099 0.000000 -0.044554
# 5 0.002070 0.007436 0.005882 0.000000 0.035466 0.000000
# 6 0.000000 0.000000 0.000000 -0.044554 0.000000 0.103435
#
#
# Mechanical properties :
#
#
# Convention : Reuss Voigt Hill
#
# Bulk Modulus (GPa) = 20.34640 26.34218 23.34429
# Shear Modulus (GPa) = 16.77467 25.79229 21.28348
#
# Velocity S-wave (km/s) = 3.02861 3.75544 3.41144
# Velocity P-wave (km/s) = 4.83275 5.76268 5.31808
#
# Compressibility (1/GPa) = 0.04914873
#
# Stress axis : x y z
#
# Youngs Moduli (GPa) = 92.63905 48.31735 60.87951
#
# Poissons Ratio (x) = -0.11656 0.14598
# Poissons Ratio (y) = -0.22349 -0.03660
# Poissons Ratio (z) = 0.22213 -0.02905
#
# Static dielectric constant tensor:
#      x y z
#    x 1.639770 0.000000 -0.002680 
#    y 0.000000 1.613990 0.000000 
#    z -0.002680 0.000000 1.614730 
# 
# From -- ./inp_files/158028.got.cif
#   From: 2010.05.17/outbox.cif.g08.bks.cpg/sg12_80_cif.got.tgz:158028.got - 2010.06.03 13:09:07.
