data_PCOD9218282
_publ_section_title
;
Structure prediction by ZEFSAII (Michael W. Deem and Ramdas Pophale) SiO2 
 PCOD9218282
Probable space group: C 2/M
;
_chemical_formula_sum "Si O2"
_cell_formula_units_Z 40
_cell_length_a 10.238064
_cell_length_b 16.204491
_cell_length_c 11.662506
_cell_angle_alpha 90.000000
_cell_angle_beta 71.440831
_cell_angle_gamma 90.000000
_cell_volume 1834.219798
_symmetry_space_group_name_H-M "C 2/M"
_symmetry_group_IT_number 12
_symmetry_cell_setting 'monoclinic'
loop_
_space_group_symop_operation_xyz
x,y,z
-x,y,-z
-x,-y,-z
x,-y,z
1/2+x,1/2+y,z
1/2-x,1/2+y,-z
1/2-x,1/2-y,-z
1/2+x,1/2-y,z
loop_
_atom_site_type_symbol
_atom_site_label
_atom_site_fract_x
_atom_site_fract_y
_atom_site_fract_z
Si Si1 0.527355 0.092149 0.356376
Si Si2 0.020615 0.000000 0.136079
Si Si3 0.726980 0.767172 0.240767
Si Si4 0.258043 0.336193 0.566345
Si Si5 0.388611 0.500000 0.426995
Si Si6 0.961600 0.810859 0.877816
O O1 0.500000 0.090856 0.500000
O O2 0.655978 0.147637 0.293378
O O3 0.389332 0.132636 0.347804
O O4 0.546302 0.000000 0.308769
O O5 0.077976 0.093202 0.132705
O O6 0.925153 0.000000 0.281053
O O7 0.000000 0.000000 0.000000
O O8 0.665362 0.694872 0.340778
O O9 0.889288 0.782633 0.214455
O O10 0.663629 0.743109 0.135904
O O11 0.250000 0.250000 0.500000
O O12 0.312543 0.413541 0.478569
O O13 0.500000 0.500000 0.500000
O O14 0.000000 0.801401 0.000000
#
# Coordination Sequence:
#
# PCOD9218282 Si02
#       6
#     8   4   8   8   4   8
#     4  11  24  40  61  95 136 181 217 270 354 423
#     4  10  24  44  65  95 136 185 230 276 337 418
#     4  12  24  42  69  96 137 175 224 290 352 406
#     4  12  24  40  62  99 138 175 221 279 355 410
#     4  12  26  40  66 100 138 177 228 287 349 400
#     4  11  25  45  69  95 129 182 238 282 336 415
#
# _framework density 21.807639000000002
#
# number of rings (size 3 to 8) (size 9 to 14) (size 15 to 20)
#    0.000    0.600    5.000    3.000    4.200    0.000 
#    0.000    0.000    0.000    0.600    0.000    0.000 
#    0.000    0.000    0.000    0.000    0.000    0.000 
#
# Total GULP energy -111342.897151 kJ/mol
# GULP energy per Si atom -5567.144858 kJ/mol
# Density = 2.175800 g / cm^3
# Si number density = 21.807639 Si / 1000 Ang^3
#
#
#
# Elastic Constant Matrix: (Units=GPa)
#
#
# Indices 1 2 3 4 5 6 
#
# 1 67.2036 35.7867 5.0627 0.0000 8.5551 0.0000
# 2 35.7867 170.8475 43.4916 0.0000 2.6906 0.0000
# 3 5.0627 43.4916 93.0295 0.0000 6.1178 0.0000
# 4 0.0000 0.0000 0.0000 22.3076 0.0000 -1.7017
# 5 8.5551 2.6906 6.1178 0.0000 25.7102 0.0000
# 6 0.0000 0.0000 0.0000 -1.7017 0.0000 19.9724
#
#
#
# Elastic Compliance Matrix: (Units=1/GPa)
#
#
# Indices 1 2 3 4 5 6 
#
# 1 0.017602 -0.003915 0.001250 0.000000 -0.005745 0.000000
# 2 -0.003915 0.007515 -0.003387 0.000000 0.001322 0.000000
# 3 0.001250 -0.003387 0.012464 0.000000 -0.003027 0.000000
# 4 0.000000 0.000000 0.000000 0.045121 0.000000 0.003844
# 5 -0.005745 0.001322 -0.003027 0.000000 0.041389 0.000000
# 6 0.000000 0.000000 0.000000 0.003844 0.000000 0.050397
#
#
# Mechanical properties :
#
#
# Convention : Reuss Voigt Hill
#
# Bulk Modulus (GPa) = 39.25123 55.52917 47.39020
# Shear Modulus (GPa) = 25.63021 30.04735 27.83878
#
# Velocity S-wave (km/s) = 3.43196 3.71595 3.57678
# Velocity P-wave (km/s) = 5.80882 6.62793 6.23185
#
# Compressibility (1/GPa) = 0.02547691
#
# Stress axis : x y z
#
# Youngs Moduli (GPa) = 56.81185 133.07499 80.23264
#
# Poissons Ratio (x) = 0.52095 -0.10029
# Poissons Ratio (y) = 0.22240 0.27175
# Poissons Ratio (z) = -0.07102 0.45072
#
# Static dielectric constant tensor:
#      x y z
#    x 1.639410 0.000000 0.183890 
#    y 0.000000 1.795590 0.000000 
#    z 0.183890 0.000000 1.819690 
# 
# From -- ./inp_files/129613.got.cif
#   From: 2010.05.17/outbox.cif.g08.bks.cpg/sg12_65_cif.got.tgz:129613.got - 2010.06.03 13:09:07.
