data_PCOD9218696
_publ_section_title
;
Structure prediction by ZEFSAII (Michael W. Deem and Ramdas Pophale) SiO2 
 PCOD9218696
Probable space group: C 2/M
;
_chemical_formula_sum "Si O2"
_cell_formula_units_Z 40
_cell_length_a 24.028035
_cell_length_b 9.572385
_cell_length_c 16.258209
_cell_angle_alpha 90.000000
_cell_angle_beta 34.064953
_cell_angle_gamma 90.000000
_cell_volume 2094.603343
_symmetry_space_group_name_H-M "C 2/M"
_symmetry_group_IT_number 12
_symmetry_cell_setting 'monoclinic'
loop_
_space_group_symop_operation_xyz
x,y,z
-x,y,-z
-x,-y,-z
x,-y,z
1/2+x,1/2+y,z
1/2-x,1/2+y,-z
1/2-x,1/2-y,-z
1/2+x,1/2-y,z
loop_
_atom_site_type_symbol
_atom_site_label
_atom_site_fract_x
_atom_site_fract_y
_atom_site_fract_z
Si Si1 0.372631 0.000000 0.784734
Si Si2 0.340306 0.500000 0.893274
Si Si3 0.032922 0.500000 0.094667
Si Si4 0.613038 0.000000 0.408299
Si Si5 0.115830 0.000000 0.351223
Si Si6 0.835957 0.212964 0.570109
Si Si7 0.470123 0.238816 0.763159
Si Si8 0.665361 0.000000 0.771121
O O1 0.435243 0.862539 0.730963
O O2 0.327800 0.000000 0.749114
O O3 0.277152 0.000000 0.958420
O O4 0.360253 0.500000 0.772213
O O5 0.391131 0.362603 0.868553
O O6 0.030654 0.635687 0.157414
O O7 0.931809 0.500000 0.166129
O O8 0.123739 0.500000 0.917031
O O9 0.500000 0.000000 0.500000
O O10 0.647316 0.129100 0.421891
O O11 0.148896 0.867758 0.362656
O O12 0.000000 0.000000 0.500000
O O13 0.924166 0.195016 0.394634
O O14 0.733539 0.137355 0.668490
#
# Coordination Sequence:
#
# PCOD9218696 Si02
#       8
#     4   4   4   4   4   8   8   4
#     4  11  24  33  53  88 136 170 192 233 304 359
#     4  12  23  34  57  94 128 168 207 238 294 360
#     4  10  25  47  67  85 123 151 202 273 326 356
#     4  12  20  36  56  91 132 160 188 248 298 350
#     4  11  19  35  58  87 130 168 199 241 278 370
#     4  11  22  37  64  90 119 163 210 242 299 368
#     4  11  22  40  59  91 124 160 204 256 296 362
#     4  10  25  47  68  88 109 165 211 254 318 377
#
# _framework density 19.096696000000001
#
# number of rings (size 3 to 8) (size 9 to 14) (size 15 to 20)
#    0.000    1.000    4.000    3.600    8.400    0.800 
#    0.000    1.000    0.000    2.400    0.000    0.000 
#    0.000    0.000    0.000    0.000    0.000    0.000 
#
# Total GULP energy -111382.563425 kJ/mol
# GULP energy per Si atom -5569.128171 kJ/mol
# Density = 1.905323 g / cm^3
# Si number density = 19.096696 Si / 1000 Ang^3
#
#
#
# Elastic Constant Matrix: (Units=GPa)
#
#
# Indices 1 2 3 4 5 6 
#
# 1 48.3842 32.1414 20.8621 0.0000 1.2988 0.0000
# 2 32.1414 136.6831 20.7382 0.0006 -15.9121 0.0006
# 3 20.8621 20.7382 124.7621 0.0003 -8.1758 0.0002
# 4 0.0000 0.0006 0.0003 2.2110 0.0000 -11.2807
# 5 1.2988 -15.9121 -8.1758 0.0000 31.2893 0.0000
# 6 0.0000 0.0006 0.0002 -11.2807 0.0000 11.2042
#
#
#
# Elastic Compliance Matrix: (Units=1/GPa)
#
#
# Indices 1 2 3 4 5 6 
#
# 1 0.026615 -0.006306 -0.003749 -0.000001 -0.005291 0.000000
# 2 -0.006306 0.009409 -0.000182 0.000001 0.004999 0.000001
# 3 -0.003749 -0.000182 0.008828 0.000000 0.002370 0.000000
# 4 -0.000001 0.000001 0.000000 -0.109327 0.000001 -0.110074
# 5 -0.005291 0.004999 0.002370 0.000001 0.035341 0.000000
# 6 0.000000 0.000001 0.000000 -0.110074 0.000000 -0.021574
#
#
# Mechanical properties :
#
#
# Convention : Reuss Voigt Hill
#
# Bulk Modulus (GPa) = 41.02049 50.81253 45.91651
# Shear Modulus (GPa) = -226.15566 24.68006 -100.73780
#
# Velocity S-wave (km/s) = -10.89420 3.59886 -7.27090
# Velocity P-wave (km/s) = 11.69264 6.62834 6.81113
#
# Compressibility (1/GPa) = 0.02437806
#
# Stress axis : x y z
#
# Youngs Moduli (GPa) = 37.57225 106.28601 113.27992
#
# Poissons Ratio (x) = 0.67022 0.42469
# Poissons Ratio (y) = 0.23692 0.02061
# Poissons Ratio (z) = 0.14086 0.01933
#
# Static dielectric constant tensor:
#      x y z
#    x 1.652720 0.000000 0.011220 
#    y 0.000000 1.626890 0.000000 
#    z 0.011220 0.000000 1.761800 
# 
# From -- ./inp_files/292105.got.cif
#   From: 2010.05.17/outbox.cif.g08.bks.cpg/sg12_147_cif.got.tgz:292105.got - 2010.06.03 13:09:07.
