data_PCOD9218671
_publ_section_title
;
Structure prediction by ZEFSAII (Michael W. Deem and Ramdas Pophale) SiO2 
 PCOD9218671
Probable space group: C 2/M
;
_chemical_formula_sum "Si O2"
_cell_formula_units_Z 40
_cell_length_a 16.872696
_cell_length_b 15.811074
_cell_length_c 10.958287
_cell_angle_alpha 90.000000
_cell_angle_beta 31.829760
_cell_angle_gamma 90.000000
_cell_volume 1541.793876
_symmetry_space_group_name_H-M "C 2/M"
_symmetry_group_IT_number 12
_symmetry_cell_setting 'monoclinic'
loop_
_space_group_symop_operation_xyz
x,y,z
-x,y,-z
-x,-y,-z
x,-y,z
1/2+x,1/2+y,z
1/2-x,1/2+y,-z
1/2-x,1/2-y,-z
1/2+x,1/2-y,z
loop_
_atom_site_type_symbol
_atom_site_label
_atom_site_fract_x
_atom_site_fract_y
_atom_site_fract_z
Si Si1 0.423006 0.866764 0.218425
Si Si2 0.296134 0.906924 0.626726
Si Si3 0.842473 0.783125 0.557465
Si Si4 0.938508 0.907559 0.865767
Si Si5 0.767424 0.337096 0.050303
O O1 0.308278 0.908760 0.463729
O O2 0.322432 0.792003 0.290412
O O3 0.500000 0.909441 0.000000
O O4 0.566199 0.847979 0.115696
O O5 0.368572 0.814691 0.558596
O O6 0.356059 0.000000 0.587618
O O7 0.135836 0.898845 0.903773
O O8 0.831746 0.833330 0.697913
O O9 0.958171 0.831527 0.318271
O O10 0.794492 0.904844 0.963002
O O11 0.010329 0.000000 0.761411
O O12 0.750000 0.250000 0.000000
#
# Coordination Sequence:
#
# PCOD9218671 Si02
#       5
#     8   8   8   8   8
#     4  10  25  45  74 107 146 198 249 306 378 448
#     4  11  25  46  75 110 151 195 250 316 377 444
#     4  11  24  47  78 106 155 198 252 310 379 450
#     4  11  26  47  77 115 148 194 260 316 373 448
#     4  11  22  45  76 107 149 197 249 305 377 444
#
# _framework density 25.943805000000001
#
# number of rings (size 3 to 8) (size 9 to 14) (size 15 to 20)
#    0.000    1.200    2.000    2.400    2.800    5.200 
#    0.000    8.000    0.000    0.000    0.000    0.000 
#    0.000    0.000    0.000    0.000    0.000    0.000 
#
# Total GULP energy -111605.216859 kJ/mol
# GULP energy per Si atom -5580.260843 kJ/mol
# Density = 2.588476 g / cm^3
# Si number density = 25.943805 Si / 1000 Ang^3
#
#
#
# Elastic Constant Matrix: (Units=GPa)
#
#
# Indices 1 2 3 4 5 6 
#
# 1 167.1728 31.8366 50.5149 0.0000 -16.0651 0.0000
# 2 31.8366 170.0705 59.4487 0.0000 -7.5088 0.0000
# 3 50.5149 59.4487 194.7701 0.0000 31.8352 0.0000
# 4 0.0000 0.0000 0.0000 13.1518 0.0000 -12.0743
# 5 -16.0651 -7.5088 31.8352 0.0000 38.2868 0.0000
# 6 0.0000 0.0000 0.0000 -12.0743 0.0000 9.9827
#
#
#
# Elastic Compliance Matrix: (Units=1/GPa)
#
#
# Indices 1 2 3 4 5 6 
#
# 1 0.007348 -0.000193 -0.002713 0.000000 0.005301 0.000000
# 2 -0.000193 0.007000 -0.002659 0.000000 0.003503 0.000000
# 3 -0.002713 -0.002659 0.008010 0.000000 -0.008320 0.000000
# 4 0.000000 0.000000 0.000000 -0.688607 0.000001 -0.832881
# 5 0.005301 0.003503 -0.008320 0.000001 0.035948 0.000001
# 6 0.000000 0.000000 0.000000 -0.832881 0.000001 -0.907210
#
#
# Mechanical properties :
#
#
# Convention : Reuss Voigt Hill
#
# Bulk Modulus (GPa) = 89.07346 90.62376 89.84861
# Shear Modulus (GPa) = -3.28378 38.29849 17.50736
#
# Velocity S-wave (km/s) = -1.12627 3.84632 2.60054
# Velocity P-wave (km/s) = 5.71983 7.39812 6.61244
#
# Compressibility (1/GPa) = 0.01122669
#
# Stress axis : x y z
#
# Youngs Moduli (GPa) = 136.09238 142.85276 124.85161
#
# Poissons Ratio (x) = 0.02757 0.33877
# Poissons Ratio (y) = 0.02626 0.33200
# Poissons Ratio (z) = 0.36927 0.37987
#
# Static dielectric constant tensor:
#      x y z
#    x 2.100270 0.000000 -0.046820 
#    y 0.000000 2.036900 0.000000 
#    z -0.046820 0.000000 2.082150 
# 
# From -- ./inp_files/176336.got.cif
#   From: 2010.05.17/outbox.cif.g08.bks.cpg/sg12_89_cif.got.tgz:176336.got - 2010.06.03 13:09:07.
