data_PCOD9218013
_publ_section_title
;
Structure prediction by ZEFSAII (Michael W. Deem and Ramdas Pophale) SiO2 
 PCOD9218013
Probable space group: C 2/M
;
_chemical_formula_sum "Si O2"
_cell_formula_units_Z 44
_cell_length_a 23.625290
_cell_length_b 13.326308
_cell_length_c 17.092037
_cell_angle_alpha 90.000000
_cell_angle_beta 23.164238
_cell_angle_gamma 90.000000
_cell_volume 2116.800856
_symmetry_space_group_name_H-M "C 2/M"
_symmetry_group_IT_number 12
_symmetry_cell_setting 'monoclinic'
loop_
_space_group_symop_operation_xyz
x,y,z
-x,y,-z
-x,-y,-z
x,-y,z
1/2+x,1/2+y,z
1/2-x,1/2+y,-z
1/2-x,1/2-y,-z
1/2+x,1/2-y,z
loop_
_atom_site_type_symbol
_atom_site_label
_atom_site_fract_x
_atom_site_fract_y
_atom_site_fract_z
Si Si1 0.974744 0.000000 0.939085
Si Si2 0.000000 0.674620 0.000000
Si Si3 0.027124 0.386876 0.667900
Si Si4 0.831342 0.610300 0.064467
Si Si5 0.119756 0.713949 0.280248
Si Si6 0.671029 0.000000 0.258194
Si Si7 0.173464 0.182919 0.665037
O O1 0.052031 0.098154 0.802205
O O2 0.000000 0.000000 0.000000
O O3 0.801754 0.000000 0.153424
O O4 0.896239 0.620328 0.069079
O O5 0.899248 0.742232 0.181946
O O6 0.994535 0.500000 0.678637
O O7 0.960411 0.296958 0.700998
O O8 0.196364 0.374048 0.458129
O O9 0.962831 0.383584 0.836371
O O10 0.763649 0.500000 0.142594
O O11 0.723863 0.695918 0.170799
O O12 0.198187 0.606434 0.182813
O O13 0.000000 0.713778 0.500000
O O14 0.500000 0.000000 0.500000
O O15 0.250000 0.250000 0.500000
#
# Coordination Sequence:
#
# PCOD9218013 Si02
#       7
#     4   4   8   8   8   4   8
#     4  12  26  42  76 109 146 192 256 319 377 448
#     4  12  23  45  70  98 142 193 244 305 386 442
#     4  11  23  42  68 101 140 188 233 305 371 444
#     4  11  25  44  67  97 138 193 251 296 368 453
#     4  11  23  42  70  98 139 184 240 300 377 439
#     4  10  24  40  68 108 140 179 239 309 386 443
#     4  12  25  43  70 107 150 188 245 313 377 447
#
# _framework density 20.786083000000001
#
# number of rings (size 3 to 8) (size 9 to 14) (size 15 to 20)
#    0.000    0.727    4.545    3.000    5.091    0.364 
#    1.636    0.000    0.000    0.000    0.000    0.000 
#    0.000    0.000    0.000    0.000    0.000    0.000 
#
# Total GULP energy -122660.990355 kJ/mol
# GULP energy per Si atom -5575.499562 kJ/mol
# Density = 2.073877 g / cm^3
# Si number density = 20.786083 Si / 1000 Ang^3
#
#
#
# Elastic Constant Matrix: (Units=GPa)
#
#
# Indices 1 2 3 4 5 6 
#
# 1 93.8372 39.1521 34.9737 0.0000 -3.4561 0.0000
# 2 39.1521 149.3461 48.7855 0.0000 -7.6321 0.0000
# 3 34.9737 48.7855 92.3158 0.0001 -2.7216 -0.0001
# 4 0.0000 0.0000 0.0001 -29.2776 0.0000 45.0636
# 5 -3.4561 -7.6321 -2.7216 0.0000 50.3193 0.0000
# 6 0.0000 0.0000 -0.0001 45.0636 0.0000 -14.5139
#
#
#
# Elastic Compliance Matrix: (Units=1/GPa)
#
#
# Indices 1 2 3 4 5 6 
#
# 1 0.012972 -0.002152 -0.003767 0.000000 0.000361 0.000000
# 2 -0.002152 0.008500 -0.003649 0.000000 0.000944 0.000000
# 3 -0.003767 -0.003649 0.014186 0.000000 -0.000045 0.000000
# 4 0.000000 0.000000 0.000000 0.009038 0.000000 0.028063
# 5 0.000361 0.000944 -0.000045 0.000000 0.020039 0.000000
# 6 0.000000 0.000000 0.000000 0.028063 0.000000 0.018232
#
#
# Mechanical properties :
#
#
# Convention : Reuss Voigt Hill
#
# Bulk Modulus (GPa) = 60.51952 64.59130 62.55541
# Shear Modulus (GPa) = 46.46399 15.47808 30.97103
#
# Velocity S-wave (km/s) = 4.73307 2.73176 3.86423
# Velocity P-wave (km/s) = 7.68426 6.41029 7.07600
#
# Compressibility (1/GPa) = 0.01652359
#
# Stress axis : x y z
#
# Youngs Moduli (GPa) = 77.09116 117.64435 70.49030
#
# Poissons Ratio (x) = 0.25315 0.26550
# Poissons Ratio (y) = 0.16588 0.25722
# Poissons Ratio (z) = 0.29036 0.42928
#
# Static dielectric constant tensor:
#      x y z
#    x 1.820060 0.000000 -0.034100 
#    y 0.000000 1.796440 0.000000 
#    z -0.034100 0.000000 1.736120 
# 
# From -- ./inp_files/290041.got.cif
#   From: 2010.05.17/outbox.cif.g08.bks.cpg/sg12_146_cif.got.tgz:290041.got - 2010.06.03 13:09:07.
