data_PCOD9218743
_publ_section_title
;
Structure prediction by ZEFSAII (Michael W. Deem and Ramdas Pophale) SiO2 
 PCOD9218743
Probable space group: C 2/M
;
_chemical_formula_sum "Si O2"
_cell_formula_units_Z 34
_cell_length_a 19.267605
_cell_length_b 9.959788
_cell_length_c 8.816640
_cell_angle_alpha 90.000000
_cell_angle_beta 99.113252
_cell_angle_gamma 90.000000
_cell_volume 1670.567512
_symmetry_space_group_name_H-M "C 2/M"
_symmetry_group_IT_number 12
_symmetry_cell_setting 'monoclinic'
loop_
_space_group_symop_operation_xyz
x,y,z
-x,y,-z
-x,-y,-z
x,-y,z
1/2+x,1/2+y,z
1/2-x,1/2+y,-z
1/2-x,1/2-y,-z
1/2+x,1/2-y,z
loop_
_atom_site_type_symbol
_atom_site_label
_atom_site_fract_x
_atom_site_fract_y
_atom_site_fract_z
Si Si1 0.781268 0.500000 0.341049
Si Si2 0.059310 0.000000 0.388239
Si Si3 0.730044 0.235339 0.167175
Si Si4 0.500000 0.000000 0.000000
Si Si5 0.206133 0.000000 0.622843
Si Si6 0.918597 0.500000 0.507106
Si Si7 0.576810 0.212809 0.239770
O O1 0.745647 0.372473 0.257079
O O2 0.765445 0.500000 0.513655
O O3 0.865010 0.500000 0.348771
O O4 0.056527 0.135272 0.282795
O O5 0.000000 0.000000 0.500000
O O6 0.133204 0.000000 0.506339
O O7 0.647736 0.206100 0.163374
O O8 0.779163 0.126492 0.265731
O O9 0.750000 0.250000 0.000000
O O10 0.478903 0.119575 0.867464
O O11 0.905121 0.634013 0.599239
O O12 0.000000 0.500000 0.500000
#
# Coordination Sequence:
#
# PCOD9218743 Si02
#       7
#     4   4   8   2   4   4   8
#     4  12  22  43  72  94 135 187 225 284 340 392
#     4  12  26  42  69 101 136 182 240 286 335 414
#     4  12  25  41  69 103 136 176 231 284 341 409
#     4  10  26  42  72  86 136 186 212 282 374 404
#     4  12  22  44  71  96 135 185 231 281 341 394
#     4  11  23  39  69 100 132 178 237 280 330 412
#     4  11  23  45  64  98 137 178 231 284 341 419
#
# _framework density 20.352364999999999
#
# number of rings (size 3 to 8) (size 9 to 14) (size 15 to 20)
#    0.000    0.471    4.706    4.235    0.000    6.118 
#    0.000    0.000    0.000    0.000    0.000    0.000 
#    0.000    0.000    0.000    0.000    0.000    0.000 
#
# Total GULP energy -94720.429116 kJ/mol
# GULP energy per Si atom -5571.789948 kJ/mol
# Density = 2.030604 g / cm^3
# Si number density = 20.352365 Si / 1000 Ang^3
#
#
#
# Elastic Constant Matrix: (Units=GPa)
#
#
# Indices 1 2 3 4 5 6 
#
# 1 81.4158 4.8104 18.1125 0.0000 -18.1945 0.0000
# 2 4.8104 173.6554 47.2971 0.0000 9.4637 0.0000
# 3 18.1125 47.2971 103.2889 0.0000 -3.7640 0.0000
# 4 0.0000 0.0000 0.0000 41.6119 0.0000 8.9207
# 5 -18.1945 9.4637 -3.7640 0.0000 39.6822 0.0000
# 6 0.0000 0.0000 0.0000 8.9207 0.0000 14.6272
#
#
#
# Elastic Compliance Matrix: (Units=1/GPa)
#
#
# Indices 1 2 3 4 5 6 
#
# 1 0.014194 -0.000141 -0.002194 0.000000 0.006334 0.000000
# 2 -0.000141 0.006720 -0.003124 0.000000 -0.001964 0.000000
# 3 -0.002194 -0.003124 0.011527 0.000000 0.000833 0.000000
# 4 0.000000 0.000000 0.000000 0.027646 0.000000 -0.016861
# 5 0.006334 -0.001964 0.000833 0.000000 0.028652 0.000000
# 6 0.000000 0.000000 0.000000 -0.016861 0.000000 0.078649
#
#
# Mechanical properties :
#
#
# Convention : Reuss Voigt Hill
#
# Bulk Modulus (GPa) = 46.45900 55.42221 50.94060
# Shear Modulus (GPa) = 26.95696 38.39359 32.67528
#
# Velocity S-wave (km/s) = 3.64333 4.34803 4.01119
# Velocity P-wave (km/s) = 6.36988 7.24553 6.82177
#
# Compressibility (1/GPa) = 0.02152435
#
# Stress axis : x y z
#
# Youngs Moduli (GPa) = 70.45011 148.80171 86.75120
#
# Poissons Ratio (x) = 0.02096 0.19031
# Poissons Ratio (y) = 0.00992 0.27103
# Poissons Ratio (z) = 0.15455 0.46488
#
# Static dielectric constant tensor:
#      x y z
#    x 1.763100 0.000000 -0.021320 
#    y 0.000000 1.711570 0.000000 
#    z -0.021320 0.000000 1.665220 
# 
# From -- ./inp_files/82115.got.cif
#   From: 2010.05.17/outbox.cif.g08.bks.cpg/sg12_42_cif.got.tgz:82115.got - 2010.06.03 13:09:07.
