data_PCOD9218442
_publ_section_title
;
Structure prediction by ZEFSAII (Michael W. Deem and Ramdas Pophale) SiO2 
 PCOD9218442
Probable space group: C 2/M
;
_chemical_formula_sum "Si O2"
_cell_formula_units_Z 40
_cell_length_a 9.776758
_cell_length_b 21.461038
_cell_length_c 9.089813
_cell_angle_alpha 90.000000
_cell_angle_beta 82.277142
_cell_angle_gamma 90.000000
_cell_volume 1889.919773
_symmetry_space_group_name_H-M "C 2/M"
_symmetry_group_IT_number 12
_symmetry_cell_setting 'monoclinic'
loop_
_space_group_symop_operation_xyz
x,y,z
-x,y,-z
-x,-y,-z
x,-y,z
1/2+x,1/2+y,z
1/2-x,1/2+y,-z
1/2-x,1/2-y,-z
1/2+x,1/2-y,z
loop_
_atom_site_type_symbol
_atom_site_label
_atom_site_fract_x
_atom_site_fract_y
_atom_site_fract_z
Si Si1 0.999811 0.386087 0.342251
Si Si2 0.224515 0.722514 0.340531
Si Si3 0.053563 0.866891 0.832872
Si Si4 0.198642 0.431848 0.071510
Si Si5 0.735515 0.646175 0.209877
O O1 0.092003 0.322933 0.348515
O O2 0.075130 0.423595 0.203182
O O3 0.000000 0.418201 0.500000
O O4 0.844056 0.372003 0.318447
O O5 0.250000 0.750000 0.500000
O O6 0.356231 0.682564 0.269547
O O7 0.209558 0.780512 0.232018
O O8 0.158625 0.921814 0.860350
O O9 0.915561 0.884813 0.765938
O O10 0.000000 0.841953 0.000000
O O11 0.195014 0.500000 0.001980
O O12 0.197220 0.376866 0.952176
#
# Coordination Sequence:
#
# PCOD9218442 Si02
#       5
#     8   8   8   8   8
#     4  11  23  40  62  99 128 169 208 259 324 379
#     4  11  22  40  61  93 139 170 197 256 319 390
#     4   9  22  39  62  94 122 168 210 259 319 375
#     4  10  24  46  65  87 126 170 220 270 314 372
#     4  11  22  37  66  95 124 165 214 257 316 379
#
# _framework density 21.164919999999999
#
# number of rings (size 3 to 8) (size 9 to 14) (size 15 to 20)
#    0.000    1.600    2.000    1.800    0.000   14.400 
#    0.000    0.000    0.000    1.200    0.000    0.000 
#    0.000    0.000    0.000    0.000    0.000    0.000 
#
# Total GULP energy -111688.464271 kJ/mol
# GULP energy per Si atom -5584.423214 kJ/mol
# Density = 2.111675 g / cm^3
# Si number density = 21.164920 Si / 1000 Ang^3
#
#
#
# Elastic Constant Matrix: (Units=GPa)
#
#
# Indices 1 2 3 4 5 6 
#
# 1 134.4530 -3.7454 28.4468 0.0000 23.5715 0.0000
# 2 -3.7454 68.9044 34.8068 0.0000 -3.8852 0.0000
# 3 28.4468 34.8068 73.3156 0.0000 -4.2377 0.0000
# 4 0.0000 0.0000 0.0000 2.7094 0.0000 -5.3348
# 5 23.5715 -3.8852 -4.2377 0.0000 37.3413 0.0000
# 6 0.0000 0.0000 0.0000 -5.3348 0.0000 -0.7269
#
#
#
# Elastic Compliance Matrix: (Units=1/GPa)
#
#
# Indices 1 2 3 4 5 6 
#
# 1 0.009863 0.003014 -0.005636 0.000000 -0.006552 0.000000
# 2 0.003014 0.020047 -0.010747 0.000000 -0.001036 0.000000
# 3 -0.005636 -0.010747 0.021209 0.000000 0.004847 0.000000
# 4 0.000000 0.000000 0.000000 0.023887 0.000000 -0.175318
# 5 -0.006552 -0.001036 0.004847 0.000000 0.031358 0.000000
# 6 0.000000 0.000000 0.000000 -0.175318 0.000000 -0.089039
#
#
# Mechanical properties :
#
#
# Convention : Reuss Voigt Hill
#
# Bulk Modulus (GPa) = 41.01706 43.96546 42.49126
# Shear Modulus (GPa) = 95.80606 22.34242 59.07424
#
# Velocity S-wave (km/s) = 6.73533 3.25258 5.28886
# Velocity P-wave (km/s) = 8.93913 5.90962 7.57732
#
# Compressibility (1/GPa) = 0.02438010
#
# Stress axis : x y z
#
# Youngs Moduli (GPa) = 101.39306 49.88319 47.15058
#
# Poissons Ratio (x) = -0.15034 0.26575
# Poissons Ratio (y) = -0.30558 0.50671
# Poissons Ratio (z) = 0.57148 0.53607
#
# Static dielectric constant tensor:
#      x y z
#    x 1.788810 0.000000 0.019180 
#    y 0.000000 1.755050 0.000000 
#    z 0.019180 0.000000 1.783370 
# 
# From -- ./inp_files/39315.got.cif
#   From: 2010.05.17/outbox.cif.g08.bks.cpg/sg12_20_cif.got.tgz:39315.got - 2010.06.03 13:09:07.
