data_PCOD9218699
_publ_section_title
;
Structure prediction by ZEFSAII (Michael W. Deem and Ramdas Pophale) SiO2 
 PCOD9218699
Probable space group: C 2/M
;
_chemical_formula_sum "Si O2"
_cell_formula_units_Z 36
_cell_length_a 7.668787
_cell_length_b 14.763415
_cell_length_c 19.698626
_cell_angle_alpha 90.000000
_cell_angle_beta 46.452029
_cell_angle_gamma 90.000000
_cell_volume 1616.464975
_symmetry_space_group_name_H-M "C 2/M"
_symmetry_group_IT_number 12
_symmetry_cell_setting 'monoclinic'
loop_
_space_group_symop_operation_xyz
x,y,z
-x,y,-z
-x,-y,-z
x,-y,z
1/2+x,1/2+y,z
1/2-x,1/2+y,-z
1/2-x,1/2-y,-z
1/2+x,1/2-y,z
loop_
_atom_site_type_symbol
_atom_site_label
_atom_site_fract_x
_atom_site_fract_y
_atom_site_fract_z
Si Si1 0.649056 0.148098 0.028912
Si Si2 0.256615 0.861899 0.743157
Si Si3 0.182357 0.844160 0.237352
Si Si4 0.956878 0.000000 0.622161
Si Si5 0.603902 0.000000 0.587770
Si Si6 0.438290 0.500000 0.099437
O O1 0.454073 0.138345 0.140639
O O2 0.500000 0.130314 0.000000
O O3 0.750000 0.250000 0.000000
O O4 0.863234 0.077558 0.977537
O O5 0.337383 0.760411 0.736427
O O6 0.434606 0.913010 0.643905
O O7 0.994097 0.861154 0.778803
O O8 0.226342 0.921138 0.818792
O O9 0.103465 0.912165 0.317112
O O10 0.786474 0.000000 0.602375
O O11 0.231763 0.000000 0.522773
#
# Coordination Sequence:
#
# PCOD9218699 Si02
#       6
#     8   8   8   4   4   4
#     4  12  23  40  65  95 136 178 225 265 324 391
#     4  11  24  41  69  94 138 173 228 270 339 386
#     4  12  23  42  67 101 132 184 217 281 322 406
#     4  11  25  45  73  96 136 163 230 274 352 395
#     4  10  25  47  68 103 126 175 214 293 336 410
#     4  11  21  38  61  90 131 175 216 274 311 388
#
# _framework density 22.270818999999999
#
# number of rings (size 3 to 8) (size 9 to 14) (size 15 to 20)
#    0.000    0.667    4.444    3.667    0.000    2.667 
#    0.000    0.556    0.000    0.000    0.000    0.000 
#    0.000    0.000    0.000    0.000    0.000    0.000 
#
# Total GULP energy -100393.743567 kJ/mol
# GULP energy per Si atom -5577.430198 kJ/mol
# Density = 2.222013 g / cm^3
# Si number density = 22.270819 Si / 1000 Ang^3
#
#
#
# Elastic Constant Matrix: (Units=GPa)
#
#
# Indices 1 2 3 4 5 6 
#
# 1 89.6498 18.7351 13.2095 -0.0010 2.5332 -0.0001
# 2 18.7351 199.8505 94.2796 -0.0013 -5.9101 0.0000
# 3 13.2095 94.2796 212.2062 -0.0049 -31.3521 -0.0007
# 4 -0.0010 -0.0013 -0.0049 29.8025 0.0021 -7.3980
# 5 2.5332 -5.9101 -31.3521 0.0021 21.4874 0.0002
# 6 -0.0001 0.0000 -0.0007 -7.3980 0.0002 18.4437
#
#
#
# Elastic Compliance Matrix: (Units=1/GPa)
#
#
# Indices 1 2 3 4 5 6 
#
# 1 0.011509 -0.000801 -0.000757 0.000000 -0.002681 0.000000
# 2 -0.000801 0.006543 -0.003285 0.000000 -0.002900 0.000000
# 3 -0.000757 -0.003285 0.007775 0.000000 0.010530 0.000000
# 4 0.000000 0.000000 0.000000 0.037265 -0.000003 0.014947
# 5 -0.002681 -0.002900 0.010530 -0.000003 0.061421 -0.000002
# 6 0.000000 0.000000 0.000000 0.014947 -0.000002 0.060215
#
#
# Mechanical properties :
#
#
# Convention : Reuss Voigt Hill
#
# Bulk Modulus (GPa) = 61.95617 83.79496 72.87557
# Shear Modulus (GPa) = 25.02569 38.97888 32.00228
#
# Velocity S-wave (km/s) = 3.35580 4.18810 3.79484
# Velocity P-wave (km/s) = 6.54943 7.81627 7.21072
#
# Compressibility (1/GPa) = 0.01614044
#
# Stress axis : x y z
#
# Youngs Moduli (GPa) = 86.88699 152.83417 128.61916
#
# Poissons Ratio (x) = 0.12247 0.09730
# Poissons Ratio (y) = 0.06963 0.42258
# Poissons Ratio (z) = 0.06573 0.50214
#
# Static dielectric constant tensor:
#      x y z
#    x 1.900390 0.000000 0.054240 
#    y 0.000000 1.752100 0.000000 
#    z 0.054240 0.000000 1.876610 
# 
# From -- ./inp_files/300103.got.cif
#   From: 2010.05.17/outbox.cif.g08.bks.cpg/sg12_151_cif.got.tgz:300103.got - 2010.06.03 13:09:07.
