data_PCOD9218763
_publ_section_title
;
Structure prediction by ZEFSAII (Michael W. Deem and Ramdas Pophale) SiO2 
 PCOD9218763
Probable space group: C 2/M
;
_chemical_formula_sum "Si O2"
_cell_formula_units_Z 32
_cell_length_a 18.887785
_cell_length_b 15.524850
_cell_length_c 12.127169
_cell_angle_alpha 90.000000
_cell_angle_beta 154.840790
_cell_angle_gamma 90.000000
_cell_volume 1511.801436
_symmetry_space_group_name_H-M "C 2/M"
_symmetry_group_IT_number 12
_symmetry_cell_setting 'monoclinic'
loop_
_space_group_symop_operation_xyz
x,y,z
-x,y,-z
-x,-y,-z
x,-y,z
1/2+x,1/2+y,z
1/2-x,1/2+y,-z
1/2-x,1/2-y,-z
1/2+x,1/2-y,z
loop_
_atom_site_type_symbol
_atom_site_label
_atom_site_fract_x
_atom_site_fract_y
_atom_site_fract_z
Si Si1 0.043532 0.401188 0.234279
Si Si2 0.261828 0.645332 0.345986
Si Si3 0.481107 0.500000 0.341485
Si Si4 0.297916 0.000000 0.220439
Si Si5 0.876496 0.671932 0.427281
O O1 0.093887 0.500000 0.320685
O O2 0.184344 0.355477 0.358824
O O3 0.022853 0.357759 0.322915
O O4 0.875951 0.397890 0.927138
O O5 0.423800 0.585253 0.567743
O O6 0.287059 0.740649 0.335295
O O7 0.500000 0.500000 0.500000
O O8 0.296450 0.500000 0.029320
O O9 0.500000 0.000000 0.500000
O O10 0.261860 0.909901 0.231680
O O11 0.000000 0.689369 0.500000
#
# Coordination Sequence:
#
# PCOD9218763 Si02
#       5
#     8   8   4   4   8
#     4  11  22  46  71  94 142 187 228 278 348 412
#     4  11  24  43  67 104 136 180 233 283 339 408
#     4  12  26  42  72 106 139 175 236 289 334 412
#     4  10  26  47  64  99 143 181 223 280 357 405
#     4  11  25  43  69  98 138 184 228 283 348 409
#
# _framework density 21.166801
#
# number of rings (size 3 to 8) (size 9 to 14) (size 15 to 20)
#    0.000    1.000    3.750    2.250   10.500    1.000 
#    0.000    1.250    0.000    0.000    0.000    0.000 
#    0.000    0.000    0.000    0.000    0.000    0.000 
#
# Total GULP energy -89427.457828 kJ/mol
# GULP energy per Si atom -5589.216114 kJ/mol
# Density = 2.111862 g / cm^3
# Si number density = 21.166801 Si / 1000 Ang^3
#
#
#
# Elastic Constant Matrix: (Units=GPa)
#
#
# Indices 1 2 3 4 5 6 
#
# 1 135.0203 41.3797 36.5635 0.0000 -13.2831 0.0000
# 2 41.3797 165.0868 13.6524 0.0000 11.9551 0.0000
# 3 36.5635 13.6524 95.8077 0.0000 -12.5178 0.0000
# 4 0.0000 0.0000 0.0000 29.6536 0.0000 -8.7336
# 5 -13.2831 11.9551 -12.5178 0.0000 28.8436 0.0000
# 6 0.0000 0.0000 0.0000 -8.7336 0.0000 39.3676
#
#
#
# Elastic Compliance Matrix: (Units=1/GPa)
#
#
# Indices 1 2 3 4 5 6 
#
# 1 0.009266 -0.002400 -0.002657 0.000000 0.004109 0.000000
# 2 -0.002400 0.007024 -0.000646 0.000000 -0.004297 0.000000
# 3 -0.002657 -0.000646 0.012105 0.000000 0.004298 0.000000
# 4 0.000000 0.000000 0.000000 0.036080 0.000000 0.008004
# 5 0.004109 -0.004297 0.004298 0.000000 0.040208 0.000000
# 6 0.000000 0.000000 0.000000 0.008004 0.000000 0.027177
#
#
# Mechanical properties :
#
#
# Convention : Reuss Voigt Hill
#
# Bulk Modulus (GPa) = 58.86826 64.34512 61.60669
# Shear Modulus (GPa) = 33.57277 39.86089 36.71683
#
# Velocity S-wave (km/s) = 3.98691 4.34427 4.16942
# Velocity P-wave (km/s) = 7.00471 7.45846 7.23514
#
# Compressibility (1/GPa) = 0.01698708
#
# Stress axis : x y z
#
# Youngs Moduli (GPa) = 107.92500 142.37542 82.60860
#
# Poissons Ratio (x) = 0.34174 0.21951
# Poissons Ratio (y) = 0.25905 0.05339
# Poissons Ratio (z) = 0.28678 0.09201
#
# Static dielectric constant tensor:
#      x y z
#    x 1.768800 0.000000 0.011460 
#    y 0.000000 1.791330 0.000000 
#    z 0.011460 0.000000 1.745750 
# 
# From -- ./inp_files/129490.got.cif
#   From: 2010.05.17/outbox.cif.g08.bks.cpg/sg12_65_cif.got.tgz:129490.got - 2010.06.03 13:09:07.
