data_PCOD9218483
_publ_section_title
;
Structure prediction by ZEFSAII (Michael W. Deem and Ramdas Pophale) SiO2 
 PCOD9218483
Probable space group: C 2/M
;
_chemical_formula_sum "Si O2"
_cell_formula_units_Z 56
_cell_length_a 17.598478
_cell_length_b 26.461320
_cell_length_c 6.546629
_cell_angle_alpha 90.000000
_cell_angle_beta 114.658571
_cell_angle_gamma 90.000000
_cell_volume 2770.623309
_symmetry_space_group_name_H-M "C 2/M"
_symmetry_group_IT_number 12
_symmetry_cell_setting 'monoclinic'
loop_
_space_group_symop_operation_xyz
x,y,z
-x,y,-z
-x,-y,-z
x,-y,z
1/2+x,1/2+y,z
1/2-x,1/2+y,-z
1/2-x,1/2-y,-z
1/2+x,1/2-y,z
loop_
_atom_site_type_symbol
_atom_site_label
_atom_site_fract_x
_atom_site_fract_y
_atom_site_fract_z
Si Si1 0.088753 0.058946 0.207288
Si Si2 0.266558 0.442228 0.973177
Si Si3 0.829636 0.130360 0.399364
Si Si4 0.920902 0.310801 0.054183
Si Si5 0.831882 0.240359 0.232410
Si Si6 0.591134 0.900599 0.639944
Si Si7 0.318732 0.174599 0.552512
O O1 0.101351 0.096099 0.412877
O O2 0.091715 0.000000 0.276375
O O3 0.163197 0.065353 0.123510
O O4 0.000000 0.067966 0.000000
O O5 0.273896 0.500000 0.053110
O O6 0.283320 0.404158 0.178759
O O7 0.172873 0.433523 0.780812
O O8 0.850869 0.182993 0.312537
O O9 0.769431 0.147572 0.518129
O O10 0.908406 0.264841 0.194074
O O11 0.920695 0.361699 0.185621
O O12 0.844942 0.312598 0.810744
O O13 0.000000 0.305454 0.000000
O O14 0.818351 0.275633 0.414912
O O15 0.750000 0.250000 0.000000
O O16 0.500000 0.924963 0.500000
O O17 0.617582 0.865000 0.479090
#
# Coordination Sequence:
#
# PCOD9218483 Si02
#       7
#     8   8   8   8   8   8   8
#     4  10  24  46  71  93 123 170 222 284 349 393
#     4  11  24  42  67 100 129 166 223 276 326 394
#     4  12  22  41  70  92 130 172 217 270 332 392
#     4  11  22  39  62  92 132 176 212 256 312 382
#     4  11  24  37  63  96 126 172 221 259 314 389
#     4  11  21  37  66  99 132 174 222 256 318 393
#     4  11  21  38  65  91 126 175 215 256 310 390
#
# _framework density 20.212060000000001
#
# number of rings (size 3 to 8) (size 9 to 14) (size 15 to 20)
#    0.000    1.000    5.714    1.714    0.000    0.857 
#    0.000    6.429    0.000    1.286    0.000    0.000 
#    0.000    0.000    0.000    0.000    0.000    0.000 
#
# Total GULP energy -156362.849543 kJ/mol
# GULP energy per Si atom -5584.387484 kJ/mol
# Density = 2.016606 g / cm^3
# Si number density = 20.212060 Si / 1000 Ang^3
#
#
#
# Elastic Constant Matrix: (Units=GPa)
#
#
# Indices 1 2 3 4 5 6 
#
# 1 91.5276 30.9480 17.2246 0.0000 2.4587 0.0000
# 2 30.9480 124.4609 49.2122 0.0000 0.8426 0.0000
# 3 17.2246 49.2122 86.2950 0.0000 6.5024 0.0000
# 4 0.0000 0.0000 0.0000 27.9256 0.0000 -0.2129
# 5 2.4587 0.8426 6.5024 0.0000 34.9538 0.0000
# 6 0.0000 0.0000 0.0000 -0.2129 0.0000 18.6734
#
#
#
# Elastic Compliance Matrix: (Units=1/GPa)
#
#
# Indices 1 2 3 4 5 6 
#
# 1 0.011995 -0.002647 -0.000838 0.000000 -0.000624 0.000000
# 2 -0.002647 0.010984 -0.005811 0.000000 0.001002 0.000000
# 3 -0.000838 -0.005811 0.015268 0.000000 -0.002641 0.000000
# 4 0.000000 0.000000 0.000000 0.035813 0.000000 0.000408
# 5 -0.000624 0.001002 -0.002641 0.000000 0.029120 0.000000
# 6 0.000000 0.000000 0.000000 0.000408 0.000000 0.053557
#
#
# Mechanical properties :
#
#
# Convention : Reuss Voigt Hill
#
# Bulk Modulus (GPa) = 50.87600 55.22813 53.05206
# Shear Modulus (GPa) = 27.49061 29.97047 28.73054
#
# Velocity S-wave (km/s) = 3.69197 3.85489 3.77431
# Velocity P-wave (km/s) = 6.58786 6.87003 6.73042
#
# Compressibility (1/GPa) = 0.01965563
#
# Stress axis : x y z
#
# Youngs Moduli (GPa) = 83.36694 91.04326 65.49553
#
# Poissons Ratio (x) = 0.24102 0.05485
# Poissons Ratio (y) = 0.22070 0.38059
# Poissons Ratio (z) = 0.06982 0.52905
#
# Static dielectric constant tensor:
#      x y z
#    x 1.789480 0.000000 0.065350 
#    y 0.000000 1.703500 0.000000 
#    z 0.065350 0.000000 1.742940 
# 
# From -- ./inp_files/18384.got.cif
#   From: 2010.05.17/outbox.cif.g08.bks.cpg/sg12_10_cif.got.tgz:18384.got - 2010.06.03 13:09:07.
