data_PCOD9218670
_publ_section_title
;
Structure prediction by ZEFSAII (Michael W. Deem and Ramdas Pophale) SiO2 
 PCOD9218670
Probable space group: C 2/M
;
_chemical_formula_sum "Si O2"
_cell_formula_units_Z 36
_cell_length_a 18.707204
_cell_length_b 17.509130
_cell_length_c 4.894623
_cell_angle_alpha 90.000000
_cell_angle_beta 112.357423
_cell_angle_gamma 90.000000
_cell_volume 1482.702823
_symmetry_space_group_name_H-M "C 2/M"
_symmetry_group_IT_number 12
_symmetry_cell_setting 'monoclinic'
loop_
_space_group_symop_operation_xyz
x,y,z
-x,y,-z
-x,-y,-z
x,-y,z
1/2+x,1/2+y,z
1/2-x,1/2+y,-z
1/2-x,1/2-y,-z
1/2+x,1/2-y,z
loop_
_atom_site_type_symbol
_atom_site_label
_atom_site_fract_x
_atom_site_fract_y
_atom_site_fract_z
Si Si1 0.439464 0.000000 0.160352
Si Si2 0.684979 0.126864 0.868919
Si Si3 0.258759 0.500000 0.619792
Si Si4 0.136649 0.000000 0.730376
Si Si5 0.188853 0.216978 0.617762
Si Si6 0.453874 0.363570 0.667654
O O1 0.500000 0.000000 0.500000
O O2 0.380705 0.073729 0.085063
O O3 0.500000 0.000000 0.000000
O O4 0.656730 0.210984 0.741304
O O5 0.764279 0.153562 0.139276
O O6 0.711784 0.074293 0.651069
O O7 0.336058 0.500000 0.919073
O O8 0.286674 0.500000 0.350456
O O9 0.083865 0.929826 0.567938
O O10 0.250000 0.250000 0.500000
O O11 0.119819 0.183009 0.342562
O O12 0.500000 0.318275 0.500000
O O13 0.500000 0.388193 0.000000
#
# Coordination Sequence:
#
# PCOD9218670 Si02
#       6
#     4   8   4   4   8   8
#     4  11  28  51  76 109 149 193 256 312 373 429
#     4  10  25  45  74 106 137 191 243 304 354 431
#     4  11  22  41  76 100 129 177 239 289 333 407
#     4  12  22  42  68  97 142 179 227 278 341 424
#     4  11  25  46  74 104 144 190 246 290 365 441
#     4  12  27  45  67 106 145 185 228 293 361 420
#
# _framework density 24.279983999999999
#
# number of rings (size 3 to 8) (size 9 to 14) (size 15 to 20)
#    0.000    0.889    2.222    3.333    9.333    2.667 
#    0.000    0.000    0.000    0.000    0.000    0.000 
#    0.000    0.000    0.000    0.000    0.000    0.000 
#
# Total GULP energy -100617.813623 kJ/mol
# GULP energy per Si atom -5589.878535 kJ/mol
# Density = 2.422472 g / cm^3
# Si number density = 24.279984 Si / 1000 Ang^3
#
#
#
# Elastic Constant Matrix: (Units=GPa)
#
#
# Indices 1 2 3 4 5 6 
#
# 1 134.9741 46.3120 12.8652 0.0000 -1.7374 0.0000
# 2 46.3120 143.6080 29.8507 0.0000 13.0730 0.0000
# 3 12.8652 29.8507 91.1528 0.0000 14.7885 0.0000
# 4 0.0000 0.0000 0.0000 22.1903 0.0000 1.2368
# 5 -1.7374 13.0730 14.7885 0.0000 47.1264 0.0000
# 6 0.0000 0.0000 0.0000 1.2368 0.0000 38.4727
#
#
#
# Elastic Compliance Matrix: (Units=1/GPa)
#
#
# Indices 1 2 3 4 5 6 
#
# 1 0.008404 -0.002719 -0.000494 0.000000 0.001219 0.000000
# 2 -0.002719 0.008437 -0.002090 0.000000 -0.001785 0.000000
# 3 -0.000494 -0.002090 0.012258 0.000000 -0.003285 0.000000
# 4 0.000000 0.000000 0.000000 0.045146 0.000000 -0.001451
# 5 0.001219 -0.001785 -0.003285 0.000000 0.022790 0.000000
# 6 0.000000 0.000000 0.000000 -0.001451 0.000000 0.026039
#
#
# Mechanical properties :
#
#
# Convention : Reuss Voigt Hill
#
# Bulk Modulus (GPa) = 54.06865 60.86562 57.46714
# Shear Modulus (GPa) = 35.75437 40.27168 38.01303
#
# Velocity S-wave (km/s) = 3.84159 4.07706 3.96107
# Velocity P-wave (km/s) = 6.48030 6.87647 6.68132
#
# Compressibility (1/GPa) = 0.01849501
#
# Stress axis : x y z
#
# Youngs Moduli (GPa) = 118.98542 118.52564 81.58252
#
# Poissons Ratio (x) = 0.32223 0.04027
# Poissons Ratio (y) = 0.32348 0.17048
# Poissons Ratio (z) = 0.05873 0.24768
#
# Static dielectric constant tensor:
#      x y z
#    x 2.018910 0.000000 -0.018090 
#    y 0.000000 2.023410 0.000000 
#    z -0.018090 0.000000 1.976230 
# 
# From -- ./inp_files/15093.got.cif
#   From: 2010.05.17/outbox.cif.g08.bks.cpg/sg12_8_cif.got.tgz:15093.got - 2010.06.03 13:09:07.
