data_PCOD9218037
_publ_section_title
;
Structure prediction by ZEFSAII (Michael W. Deem and Ramdas Pophale) SiO2 
 PCOD9218037
Probable space group: C 2/M
;
_chemical_formula_sum "Si O2"
_cell_formula_units_Z 64
_cell_length_a 19.998678
_cell_length_b 18.363839
_cell_length_c 11.379801
_cell_angle_alpha 90.000000
_cell_angle_beta 53.894772
_cell_angle_gamma 90.000000
_cell_volume 3376.575428
_symmetry_space_group_name_H-M "C 2/M"
_symmetry_group_IT_number 12
_symmetry_cell_setting 'monoclinic'
loop_
_space_group_symop_operation_xyz
x,y,z
-x,y,-z
-x,-y,-z
x,-y,z
1/2+x,1/2+y,z
1/2-x,1/2+y,-z
1/2-x,1/2-y,-z
1/2+x,1/2-y,z
loop_
_atom_site_type_symbol
_atom_site_label
_atom_site_fract_x
_atom_site_fract_y
_atom_site_fract_z
Si Si1 0.842844 0.692877 0.955435
Si Si2 0.502564 0.786713 0.633511
Si Si3 0.073509 0.418668 0.671374
Si Si4 0.744041 0.583808 0.624638
Si Si5 0.910784 0.686451 0.126391
Si Si6 0.111948 0.810019 0.676427
Si Si7 0.468237 0.583016 0.898111
Si Si8 0.215351 0.850651 0.909907
O O1 0.785011 0.639912 0.938591
O O2 0.917779 0.723797 0.795963
O O3 0.875453 0.656767 0.041322
O O4 0.798331 0.764020 0.057598
O O5 0.500000 0.768675 0.500000
O O6 0.519261 0.871680 0.638475
O O7 0.581625 0.743928 0.605607
O O8 0.042826 0.500000 0.718298
O O9 0.165376 0.419542 0.523246
O O10 0.076816 0.375877 0.790724
O O11 0.711895 0.500000 0.668769
O O12 0.687408 0.633678 0.598527
O O13 0.745289 0.621023 0.752084
O O14 0.868880 0.754684 0.235565
O O15 0.000000 0.718575 0.000000
O O16 0.031490 0.860790 0.775005
O O17 0.474056 0.500000 0.847773
O O18 0.500000 0.582056 0.000000
O O19 0.374251 0.611252 0.983009
#
# Coordination Sequence:
#
# PCOD9218037 Si02
#       8
#     8   8   8   8   8   8   8   8
#     4  11  21  38  59  89 125 155 197 262 298 349
#     4  11  23  41  62  87 118 159 205 249 304 363
#     4  10  24  41  60  87 121 159 205 251 299 361
#     4  11  22  39  59  90 127 158 201 253 302 359
#     4  11  19  39  65  89 119 153 205 251 298 359
#     4  11  20  36  63  91 119 153 202 252 297 361
#     4  11  19  32  58  90 120 154 196 247 301 355
#     4  11  21  35  58  89 126 159 199 250 304 352
#
# _framework density 18.954115999999999
#
# number of rings (size 3 to 8) (size 9 to 14) (size 15 to 20)
#    0.000    1.125    6.250    1.875    0.000    2.500 
#    4.500    2.500    0.000    3.000    0.000    0.000 
#    0.000    0.000    0.000    0.000    0.000    0.000 
#
# Total GULP energy -178310.351129 kJ/mol
# GULP energy per Si atom -5572.198473 kJ/mol
# Density = 1.891098 g / cm^3
# Si number density = 18.954116 Si / 1000 Ang^3
#
#
#
# Elastic Constant Matrix: (Units=GPa)
#
#
# Indices 1 2 3 4 5 6 
#
# 1 99.2857 8.9460 10.4904 0.0000 20.2699 0.0000
# 2 8.9460 88.7260 2.1386 0.0000 9.7314 0.0000
# 3 10.4904 2.1386 40.7545 0.0000 17.2501 0.0000
# 4 0.0000 0.0000 0.0000 33.4685 0.0000 26.7223
# 5 20.2699 9.7314 17.2501 0.0000 27.9023 0.0000
# 6 0.0000 0.0000 0.0000 26.7223 0.0000 51.6444
#
#
#
# Elastic Compliance Matrix: (Units=1/GPa)
#
#
# Indices 1 2 3 4 5 6 
#
# 1 0.011850 -0.000225 0.000775 0.000000 -0.009009 0.000000
# 2 -0.000225 0.011792 0.001504 0.000000 -0.004879 0.000000
# 3 0.000775 0.001504 0.033480 0.000000 -0.021786 0.000000
# 4 0.000000 0.000000 0.000000 0.050912 0.000000 -0.026344
# 5 -0.009009 -0.004879 -0.021786 0.000000 0.057554 0.000000
# 6 0.000000 0.000000 0.000000 -0.026344 0.000000 0.032994
#
#
# Mechanical properties :
#
#
# Convention : Reuss Voigt Hill
#
# Bulk Modulus (GPa) = 16.33199 30.21291 23.27245
# Shear Modulus (GPa) = 23.26825 36.41578 29.84202
#
# Velocity S-wave (km/s) = 3.50753 4.38797 3.97222
# Velocity P-wave (km/s) = 5.00389 6.45345 5.77434
#
# Compressibility (1/GPa) = 0.06122951
#
# Stress axis : x y z
#
# Youngs Moduli (GPa) = 84.39116 84.80146 29.86844
#
# Poissons Ratio (x) = 0.01911 -0.02314
# Poissons Ratio (y) = 0.01902 -0.04493
# Poissons Ratio (z) = -0.06538 -0.12757
#
# Static dielectric constant tensor:
#      x y z
#    x 1.726900 0.000000 -0.014650 
#    y 0.000000 1.712670 0.000000 
#    z -0.014650 0.000000 1.671810 
# 
# From -- ./inp_files/168774.got.cif
#   From: 2010.05.17/outbox.cif.g08.bks.cpg/sg12_85_cif.got.tgz:168774.got - 2010.06.03 13:09:07.
