data_PCOD9218808
_publ_section_title
;
Structure prediction by ZEFSAII (Michael W. Deem and Ramdas Pophale) SiO2 
 PCOD9218808
Probable space group: C 2/M
;
_chemical_formula_sum "Si O2"
_cell_formula_units_Z 36
_cell_length_a 16.834298
_cell_length_b 15.092865
_cell_length_c 11.618204
_cell_angle_alpha 90.000000
_cell_angle_beta 29.211657
_cell_angle_gamma 90.000000
_cell_volume 1440.650603
_symmetry_space_group_name_H-M "C 2/M"
_symmetry_group_IT_number 12
_symmetry_cell_setting 'monoclinic'
loop_
_space_group_symop_operation_xyz
x,y,z
-x,y,-z
-x,-y,-z
x,-y,z
1/2+x,1/2+y,z
1/2-x,1/2+y,-z
1/2-x,1/2-y,-z
1/2+x,1/2-y,z
loop_
_atom_site_type_symbol
_atom_site_label
_atom_site_fract_x
_atom_site_fract_y
_atom_site_fract_z
Si Si1 0.471306 0.904690 0.778676
Si Si2 0.500000 0.636605 0.000000
Si Si3 0.576705 0.709993 0.664465
Si Si4 0.178995 0.153264 0.308586
Si Si5 0.748896 0.852696 0.142473
O O1 0.574306 0.815181 0.653362
O O2 0.552443 0.000000 0.692023
O O3 0.328145 0.892726 0.055201
O O4 0.385204 0.901213 0.762146
O O5 0.813418 0.845099 0.561939
O O6 0.348940 0.597585 0.117348
O O7 0.312336 0.758413 0.732713
O O8 0.583029 0.691377 0.792167
O O9 0.107784 0.176124 0.127858
O O10 0.000000 0.119084 0.500000
#
# Coordination Sequence:
#
# PCOD9218808 Si02
#       5
#     8   4   8   8   8
#     4  11  21  34  54  85 117 138 171 234 284 311
#     4   8  18  34  56  76 104 150 190 218 254 320
#     4   9  18  35  54  79 103 145 189 219 255 320
#     4  11  16  32  60  80 102 140 196 223 251 321
#     4   9  18  34  52  78 109 142 187 216 263 323
#
# _framework density 24.988710000000001
#
# number of rings (size 3 to 8) (size 9 to 14) (size 15 to 20)
#    1.333    0.889    4.444    1.333    0.000    1.333 
#    0.000    3.333    0.000    0.000    0.000    0.000 
#    0.000    0.000    0.000    0.000    0.000    0.000 
#
# Total GULP energy -100341.423387 kJ/mol
# GULP energy per Si atom -5574.523522 kJ/mol
# Density = 2.493183 g / cm^3
# Si number density = 24.988710 Si / 1000 Ang^3
#
#
#
# Elastic Constant Matrix: (Units=GPa)
#
#
# Indices 1 2 3 4 5 6 
#
# 1 155.1217 24.3551 29.6136 -0.0001 29.6299 0.0000
# 2 24.3551 102.7586 -7.4158 -0.0003 16.4520 -0.0001
# 3 29.6136 -7.4158 76.0265 -0.0005 16.5244 -0.0001
# 4 -0.0001 -0.0003 -0.0005 1.5755 0.0001 -2.0065
# 5 29.6299 16.4520 16.5244 0.0001 40.1909 0.0000
# 6 0.0000 -0.0001 -0.0001 -2.0065 0.0000 -15.6343
#
#
#
# Elastic Compliance Matrix: (Units=1/GPa)
#
#
# Indices 1 2 3 4 5 6 
#
# 1 0.007923 -0.001344 -0.002270 0.000000 -0.004358 0.000000
# 2 -0.001344 0.010967 0.002585 0.000003 -0.004561 0.000000
# 3 -0.002270 0.002585 0.015545 0.000005 -0.005776 -0.000001
# 4 0.000000 0.000003 0.000005 0.545536 -0.000004 -0.070015
# 5 -0.004358 -0.004561 -0.005776 -0.000004 0.032336 0.000001
# 6 0.000000 0.000000 -0.000001 -0.070015 0.000001 -0.054976
#
#
# Mechanical properties :
#
#
# Convention : Reuss Voigt Hill
#
# Bulk Modulus (GPa) = 30.88720 47.44585 39.16652
# Shear Modulus (GPa) = 8.76913 24.38335 16.57624
#
# Velocity S-wave (km/s) = 1.87533 3.12713 2.57835
# Velocity P-wave (km/s) = 4.13236 5.66275 4.95697
#
# Compressibility (1/GPa) = 0.03237587
#
# Stress axis : x y z
#
# Youngs Moduli (GPa) = 126.20910 91.18372 64.32914
#
# Poissons Ratio (x) = 0.12256 0.14604
# Poissons Ratio (y) = 0.16964 -0.16627
# Poissons Ratio (z) = 0.28652 -0.23567
#
# Static dielectric constant tensor:
#      x y z
#    x 2.072850 0.000000 -0.040550 
#    y 0.000000 1.916460 0.000000 
#    z -0.040550 0.000000 2.052640 
# 
# From -- ./inp_files/234407.got.cif
#   From: 2010.05.17/outbox.cif.g08.bks.cpg/sg12_118_cif.got.tgz:234407.got - 2010.06.03 13:09:07.
