data_PCOD9218128
_publ_section_title
;
Structure prediction by ZEFSAII (Michael W. Deem and Ramdas Pophale) SiO2 
 PCOD9218128
Probable space group: C 2/M
;
_chemical_formula_sum "Si O2"
_cell_formula_units_Z 34
_cell_length_a 12.579798
_cell_length_b 26.741882
_cell_length_c 5.147100
_cell_angle_alpha 90.000000
_cell_angle_beta 130.103633
_cell_angle_gamma 90.000000
_cell_volume 1324.408206
_symmetry_space_group_name_H-M "C 2/M"
_symmetry_group_IT_number 12
_symmetry_cell_setting 'monoclinic'
loop_
_space_group_symop_operation_xyz
x,y,z
-x,y,-z
-x,-y,-z
x,-y,z
1/2+x,1/2+y,z
1/2-x,1/2+y,-z
1/2-x,1/2-y,-z
1/2+x,1/2-y,z
loop_
_atom_site_type_symbol
_atom_site_label
_atom_site_fract_x
_atom_site_fract_y
_atom_site_fract_z
Si Si1 0.850059 0.379552 0.881653
Si Si2 0.136624 0.927173 0.861814
Si Si3 0.000000 0.000000 0.000000
Si Si4 0.592122 0.225785 0.884678
Si Si5 0.844802 0.826648 0.856530
O O1 0.775388 0.426318 0.907494
O O2 0.753352 0.354277 0.506089
O O3 0.867630 0.332055 0.105425
O O4 0.000000 0.393164 0.000000
O O5 0.000000 0.947180 0.500000
O O6 0.115931 0.956490 0.096597
O O7 0.122780 0.868397 0.879820
O O8 0.500000 0.244629 0.500000
O O9 0.500000 0.217813 0.000000
O O10 0.698513 0.270432 0.131216
O O11 0.000000 0.817445 0.000000
#
# Coordination Sequence:
#
# PCOD9218128 Si02
#       5
#     8   8   2   8   8
#     4  11  26  44  69 110 153 206 246 316 386 451
#     4  12  24  46  78 103 148 186 258 319 383 464
#     4  12  26  48  78 120 134 192 256 332 392 456
#     4  10  24  42  67 107 160 211 264 310 370 452
#     4  11  22  43  70 109 144 206 261 309 368 448
#
# _framework density 25.671841000000001
#
# number of rings (size 3 to 8) (size 9 to 14) (size 15 to 20)
#    0.000    0.941    3.529    1.765    9.882    0.941 
#    0.000    0.588    0.000    5.647    0.000    0.000 
#    0.000    0.000    0.000    0.000    0.000    0.000 
#
# Total GULP energy -94650.990970 kJ/mol
# GULP energy per Si atom -5567.705351 kJ/mol
# Density = 2.561341 g / cm^3
# Si number density = 25.671841 Si / 1000 Ang^3
#
#
#
# Elastic Constant Matrix: (Units=GPa)
#
#
# Indices 1 2 3 4 5 6 
#
# 1 168.8721 83.9659 22.6289 0.0000 33.9378 0.0000
# 2 83.9659 121.1227 4.1467 0.0000 15.5400 0.0000
# 3 22.6289 4.1467 112.4326 0.0000 5.8457 0.0000
# 4 0.0000 0.0000 0.0000 26.2815 0.0000 -42.6987
# 5 33.9378 15.5400 5.8457 0.0000 43.2538 0.0000
# 6 0.0000 0.0000 0.0000 -42.6987 0.0000 103.8808
#
#
#
# Elastic Compliance Matrix: (Units=1/GPa)
#
#
# Indices 1 2 3 4 5 6 
#
# 1 0.010511 -0.006501 -0.001579 0.000000 -0.005698 0.000000
# 2 -0.006501 0.012679 0.000818 0.000000 0.000435 0.000000
# 3 -0.001579 0.000818 0.009197 0.000000 -0.000298 0.000000
# 4 0.000000 0.000000 0.000000 0.114536 0.000000 0.047078
# 5 -0.005698 0.000435 -0.000298 0.000000 0.027474 0.000000
# 6 0.000000 0.000000 0.000000 0.047078 0.000000 0.028977
#
#
# Mechanical properties :
#
#
# Convention : Reuss Voigt Hill
#
# Bulk Modulus (GPa) = 55.98371 69.32337 62.65354
# Shear Modulus (GPa) = 22.33600 54.12895 38.23247
#
# Velocity S-wave (km/s) = 2.95288 4.59682 3.86330
# Velocity P-wave (km/s) = 5.78625 7.43213 6.66023
#
# Compressibility (1/GPa) = 0.01786234
#
# Stress axis : x y z
#
# Youngs Moduli (GPa) = 95.13852 78.86928 108.72621
#
# Poissons Ratio (x) = 0.51276 0.17173
# Poissons Ratio (y) = 0.61854 -0.08897
# Poissons Ratio (z) = 0.15027 -0.06454
#
# Static dielectric constant tensor:
#      x y z
#    x 2.776130 0.000000 0.034510 
#    y 0.000000 2.015660 0.000000 
#    z 0.034510 0.000000 2.149770 
# 
# From -- ./inp_files/13287.got.cif
#   From: 2010.05.17/outbox.cif.g08.bks.cpg/sg12_7_cif.got.tgz:13287.got - 2010.06.03 13:09:07.
