data_PCOD9218641
_publ_section_title
;
Structure prediction by ZEFSAII (Michael W. Deem and Ramdas Pophale) SiO2 
 PCOD9218641
Probable space group: C 2/M
;
_chemical_formula_sum "Si O2"
_cell_formula_units_Z 28
_cell_length_a 9.447131
_cell_length_b 21.082020
_cell_length_c 12.527837
_cell_angle_alpha 90.000000
_cell_angle_beta 31.076635
_cell_angle_gamma 90.000000
_cell_volume 1287.931836
_symmetry_space_group_name_H-M "C 2/M"
_symmetry_group_IT_number 12
_symmetry_cell_setting 'monoclinic'
loop_
_space_group_symop_operation_xyz
x,y,z
-x,y,-z
-x,-y,-z
x,-y,z
1/2+x,1/2+y,z
1/2-x,1/2+y,-z
1/2-x,1/2-y,-z
1/2+x,1/2-y,z
loop_
_atom_site_type_symbol
_atom_site_label
_atom_site_fract_x
_atom_site_fract_y
_atom_site_fract_z
Si Si1 0.536343 0.779902 0.854457
Si Si2 0.862429 0.608145 0.374983
Si Si3 0.500000 0.819795 0.500000
Si Si4 0.367423 0.000000 0.908199
Si Si5 0.075463 0.000000 0.310280
O O1 0.635870 0.836305 0.713411
O O2 0.762027 0.724982 0.700181
O O3 0.500000 0.801933 0.000000
O O4 0.250000 0.750000 0.000000
O O5 0.599205 0.562411 0.549476
O O6 0.895910 0.638514 0.469069
O O7 0.110585 0.561705 0.179706
O O8 0.644174 0.000000 0.803481
O O9 0.131735 0.000000 0.147605
#
# Coordination Sequence:
#
# PCOD9218641 Si02
#       5
#     8   8   4   4   4
#     4  12  28  46  73 108 145 192 236 295 365 430
#     4  11  25  45  69 103 141 182 241 293 352 426
#     4  12  28  45  72 107 146 188 238 302 360 430
#     4  10  25  43  73 101 138 193 236 297 356 427
#     4  10  25  45  72 103 138 189 238 301 355 421
#
# _framework density 21.740279999999998
#
# number of rings (size 3 to 8) (size 9 to 14) (size 15 to 20)
#    0.000    0.857    2.857    2.571   12.000    2.286 
#    0.000    1.429    0.000    0.000    0.000    0.000 
#    0.000    0.000    0.000    0.000    0.000    0.000 
#
# Total GULP energy -78385.133017 kJ/mol
# GULP energy per Si atom -5598.938073 kJ/mol
# Density = 2.169080 g / cm^3
# Si number density = 21.740280 Si / 1000 Ang^3
#
#
#
# Elastic Constant Matrix: (Units=GPa)
#
#
# Indices 1 2 3 4 5 6 
#
# 1 95.3704 53.6494 41.4763 -0.0003 31.0823 0.0045
# 2 53.6494 136.4807 43.5957 0.0002 15.8857 0.0012
# 3 41.4763 43.5957 121.5757 0.0019 24.4711 0.0101
# 4 -0.0003 0.0002 0.0019 43.7418 0.0004 46.8580
# 5 31.0823 15.8857 24.4711 0.0004 59.2775 -0.0042
# 6 0.0045 0.0012 0.0101 46.8580 -0.0042 73.8801
#
#
#
# Elastic Compliance Matrix: (Units=1/GPa)
#
#
# Indices 1 2 3 4 5 6 
#
# 1 0.016387 -0.004893 -0.002585 0.000004 -0.006214 -0.000003
# 2 -0.004893 0.009800 -0.001999 -0.000002 0.000764 0.000001
# 3 -0.002585 -0.001999 0.010299 0.000003 -0.002360 -0.000003
# 4 0.000004 -0.000002 0.000003 0.071314 -0.000007 -0.045231
# 5 -0.006214 0.000764 -0.002360 -0.000007 0.020898 0.000006
# 6 -0.000003 0.000001 -0.000003 -0.045231 0.000006 0.042223
#
#
# Mechanical properties :
#
#
# Convention : Reuss Voigt Hill
#
# Bulk Modulus (GPa) = 57.03592 70.09663 63.56627
# Shear Modulus (GPa) = 25.54682 49.69358 37.62020
#
# Velocity S-wave (km/s) = 3.43168 4.78617 4.16437
# Velocity P-wave (km/s) = 6.48028 7.92818 7.24051
#
# Compressibility (1/GPa) = 0.01753281
#
# Stress axis : x y z
#
# Youngs Moduli (GPa) = 61.02250 102.04309 97.09468
#
# Poissons Ratio (x) = 0.49925 0.25103
# Poissons Ratio (y) = 0.29856 0.19407
# Poissons Ratio (z) = 0.15777 0.20397
#
# Static dielectric constant tensor:
#      x y z
#    x 1.912780 0.000000 0.014920 
#    y 0.000000 1.774330 0.000000 
#    z 0.014920 0.000000 1.802500 
# 
# From -- ./inp_files/119895.got.cif
#   From: 2010.05.17/outbox.cif.g08.bks.cpg/sg12_60_cif.got.tgz:119895.got - 2010.06.03 13:09:07.
