data_PCOD9218996
_publ_section_title
;
Structure prediction by ZEFSAII (Michael W. Deem and Ramdas Pophale) SiO2 
 PCOD9218996
Probable space group: C 2/M
;
_chemical_formula_sum "Si O2"
_cell_formula_units_Z 56
_cell_length_a 14.156531
_cell_length_b 24.518131
_cell_length_c 8.631482
_cell_angle_alpha 90.000000
_cell_angle_beta 71.324141
_cell_angle_gamma 90.000000
_cell_volume 2838.166507
_symmetry_space_group_name_H-M "C 2/M"
_symmetry_group_IT_number 12
_symmetry_cell_setting 'monoclinic'
loop_
_space_group_symop_operation_xyz
x,y,z
-x,y,-z
-x,-y,-z
x,-y,z
1/2+x,1/2+y,z
1/2-x,1/2+y,-z
1/2-x,1/2-y,-z
1/2+x,1/2-y,z
loop_
_atom_site_type_symbol
_atom_site_label
_atom_site_fract_x
_atom_site_fract_y
_atom_site_fract_z
Si Si1 0.109425 0.344829 0.998653
Si Si2 0.916548 0.230386 0.148489
Si Si3 0.894915 0.355504 0.630895
Si Si4 0.312524 0.361610 0.751070
Si Si5 0.185886 0.133593 0.622174
Si Si6 0.505336 0.561923 0.309257
Si Si7 0.064684 0.237454 0.337178
O O1 0.121647 0.281605 0.931883
O O2 0.203747 0.373784 0.872339
O O3 0.110659 0.355612 0.180567
O O4 0.000000 0.361714 0.000000
O O5 0.841322 0.188400 0.266595
O O6 0.983592 0.254728 0.252830
O O7 0.000000 0.200319 0.000000
O O8 0.796490 0.383470 0.615775
O O9 0.890925 0.289988 0.602082
O O10 0.000000 0.373914 0.500000
O O11 0.309259 0.358846 0.565889
O O12 0.395004 0.403322 0.771069
O O13 0.353218 0.301803 0.776546
O O14 0.093979 0.092376 0.697301
O O15 0.500000 0.560126 0.500000
O O16 0.511188 0.500000 0.249067
O O17 0.000000 0.204954 0.500000
#
# Coordination Sequence:
#
# PCOD9218996 Si02
#       7
#     8   8   8   8   8   8   8
#     4  11  23  38  52  80 115 159 196 231 276 337
#     4  11  21  34  52  79 119 156 196 231 277 335
#     4  11  24  37  54  79 116 158 195 234 277 334
#     4  11  21  35  59  83 114 151 192 235 285 340
#     4  11  22  35  57  85 113 152 190 238 286 334
#     4   9  19  39  64  91 116 143 185 236 292 346
#     4  11  19  34  53  79 116 155 194 232 277 334
#
# _framework density 19.731047
#
# number of rings (size 3 to 8) (size 9 to 14) (size 15 to 20)
#    0.000    1.286    5.714    2.143    4.000    2.286 
#    0.000    0.000    0.000    4.714    0.000    0.000 
#    0.000    0.000    0.000    0.000    0.000    0.000 
#
# Total GULP energy -156136.437227 kJ/mol
# GULP energy per Si atom -5576.301330 kJ/mol
# Density = 1.968614 g / cm^3
# Si number density = 19.731047 Si / 1000 Ang^3
#
#
#
# Elastic Constant Matrix: (Units=GPa)
#
#
# Indices 1 2 3 4 5 6 
#
# 1 171.8205 43.5196 59.0462 0.0000 -24.9675 0.0000
# 2 43.5196 38.7853 18.5671 0.0000 -6.7604 0.0000
# 3 59.0462 18.5671 106.3881 0.0000 -14.3146 0.0000
# 4 0.0000 0.0000 0.0000 6.8521 0.0000 -0.0169
# 5 -24.9675 -6.7604 -14.3146 0.0000 42.8856 0.0000
# 6 0.0000 0.0000 0.0000 -0.0169 0.0000 10.0770
#
#
#
# Elastic Compliance Matrix: (Units=1/GPa)
#
#
# Indices 1 2 3 4 5 6 
#
# 1 0.009633 -0.008629 -0.003423 0.000000 0.003106 0.000000
# 2 -0.008629 0.036219 -0.001507 0.000000 0.000183 0.000000
# 3 -0.003423 -0.001507 0.011792 0.000000 0.001706 0.000000
# 4 0.000000 0.000000 0.000000 0.145941 0.000000 0.000244
# 5 0.003106 0.000183 0.001706 0.000000 0.025724 0.000000
# 6 0.000000 0.000000 0.000000 0.000244 0.000000 0.099237
#
#
# Mechanical properties :
#
#
# Convention : Reuss Voigt Hill
#
# Bulk Modulus (GPa) = 32.75930 62.13995 47.44962
# Shear Modulus (GPa) = 13.66723 25.02033 19.34378
#
# Velocity S-wave (km/s) = 2.63473 3.56486 3.13449
# Velocity P-wave (km/s) = 5.08868 6.96464 6.09922
#
# Compressibility (1/GPa) = 0.03052568
#
# Stress axis : x y z
#
# Youngs Moduli (GPa) = 103.80812 27.60991 84.80573
#
# Poissons Ratio (x) = 0.23825 0.29026
# Poissons Ratio (y) = 0.89579 0.12781
# Poissons Ratio (z) = 0.35530 0.04161
#
# Static dielectric constant tensor:
#      x y z
#    x 1.737830 0.000000 -0.012030 
#    y 0.000000 1.698960 0.000000 
#    z -0.012030 0.000000 1.788950 
# 
# From -- ./inp_files/65285.got.cif
#   From: 2010.05.17/outbox.cif.g08.bks.cpg/sg12_33_cif.got.tgz:65285.got - 2010.06.03 13:09:07.
