data_PCOD9218825
_publ_section_title
;
Structure prediction by ZEFSAII (Michael W. Deem and Ramdas Pophale) SiO2 
 PCOD9218825
Probable space group: C 2/M
;
_chemical_formula_sum "Si O2"
_cell_formula_units_Z 52
_cell_length_a 12.590471
_cell_length_b 19.470065
_cell_length_c 16.877013
_cell_angle_alpha 90.000000
_cell_angle_beta 140.243602
_cell_angle_gamma 90.000000
_cell_volume 2645.832757
_symmetry_space_group_name_H-M "C 2/M"
_symmetry_group_IT_number 12
_symmetry_cell_setting 'monoclinic'
loop_
_space_group_symop_operation_xyz
x,y,z
-x,y,-z
-x,-y,-z
x,-y,z
1/2+x,1/2+y,z
1/2-x,1/2+y,-z
1/2-x,1/2-y,-z
1/2+x,1/2-y,z
loop_
_atom_site_type_symbol
_atom_site_label
_atom_site_fract_x
_atom_site_fract_y
_atom_site_fract_z
Si Si1 0.025174 0.000000 0.157316
Si Si2 0.261794 0.000000 0.139178
Si Si3 0.948267 0.191976 0.055464
Si Si4 0.359241 0.363259 0.693119
Si Si5 0.932115 0.772076 0.301750
Si Si6 0.500000 0.188688 0.500000
Si Si7 0.070686 0.660654 0.115310
Si Si8 0.602028 0.139722 0.832776
O O1 0.060045 0.935161 0.234151
O O2 0.155612 0.000000 0.158894
O O3 0.853913 0.000000 0.007606
O O4 0.367203 0.069919 0.197045
O O5 0.086593 0.181703 0.199972
O O6 0.945823 0.273294 0.044533
O O7 0.776086 0.156955 0.977009
O O8 0.000000 0.161568 0.000000
O O9 0.439615 0.326402 0.663012
O O10 0.161381 0.358442 0.577986
O O11 0.755779 0.810967 0.209351
O O12 0.921354 0.706785 0.235565
O O13 0.980149 0.738402 0.412747
O O14 0.040922 0.629462 0.184454
O O15 0.000000 0.618340 0.000000
#
# Coordination Sequence:
#
# PCOD9218825 Si02
#       8
#     4   4   8   8   8   4   8   8
#     4  11  24  41  59  91 128 158 196 240 308 366
#     4  11  24  34  60  91 131 164 191 236 294 374
#     4  11  17  32  57  87 118 150 192 241 297 352
#     4  12  24  40  62  89 123 162 198 253 302 355
#     4  12  23  40  64  89 121 157 206 257 301 348
#     4  12  24  41  62  89 114 152 216 264 300 343
#     4  11  21  33  59  92 121 156 197 246 299 362
#     4  12  21  37  58  90 126 161 197 240 303 361
#
# _framework density 19.653547
#
# number of rings (size 3 to 8) (size 9 to 14) (size 15 to 20)
#    0.000    0.462    7.692    3.692    0.000    0.308 
#    0.000    1.923    0.000    0.462    0.000    0.000 
#    0.000    0.000    0.000    0.000    0.000    0.000 
#
# Total GULP energy -145052.831324 kJ/mol
# GULP energy per Si atom -5578.955051 kJ/mol
# Density = 1.960882 g / cm^3
# Si number density = 19.653547 Si / 1000 Ang^3
#
#
#
# Elastic Constant Matrix: (Units=GPa)
#
#
# Indices 1 2 3 4 5 6 
#
# 1 105.6305 27.5107 20.9317 0.0007 6.9474 0.0005
# 2 27.5107 76.2883 1.4410 0.0009 5.0186 0.0008
# 3 20.9317 1.4410 65.6962 0.0019 -1.0775 0.0016
# 4 0.0007 0.0009 0.0019 -6.8769 0.0006 -18.1644
# 5 6.9474 5.0186 -1.0775 0.0006 25.6213 0.0005
# 6 0.0005 0.0008 0.0016 -18.1644 0.0005 1.5878
#
#
#
# Elastic Compliance Matrix: (Units=1/GPa)
#
#
# Indices 1 2 3 4 5 6 
#
# 1 0.011342 -0.003860 -0.003570 0.000000 -0.002469 0.000000
# 2 -0.003860 0.014600 0.000881 0.000001 -0.001776 0.000000
# 3 -0.003570 0.000881 0.016364 0.000002 0.001484 0.000001
# 4 0.000000 0.000001 0.000002 -0.004658 0.000001 -0.053289
# 5 -0.002469 -0.001776 0.001484 0.000001 0.040110 0.000001
# 6 0.000000 0.000000 0.000001 -0.053289 0.000001 0.020175
#
#
# Mechanical properties :
#
#
# Convention : Reuss Voigt Hill
#
# Bulk Modulus (GPa) = 34.23731 38.59798 36.41764
# Shear Modulus (GPa) = 41.40187 17.24855 29.32521
#
# Velocity S-wave (km/s) = 4.59473 2.96570 3.86697
# Velocity P-wave (km/s) = 6.75330 5.60437 6.20548
#
# Compressibility (1/GPa) = 0.02920790
#
# Stress axis : x y z
#
# Youngs Moduli (GPa) = 88.16710 68.49101 61.11003
#
# Poissons Ratio (x) = 0.26439 0.21814
# Poissons Ratio (y) = 0.34035 -0.05381
# Poissons Ratio (z) = 0.31472 -0.06031
#
# Static dielectric constant tensor:
#      x y z
#    x 1.800690 0.000000 -0.020040 
#    y 0.000000 1.728200 0.000000 
#    z -0.020040 0.000000 1.697750 
# 
# From -- ./inp_files/265155.got.cif
#   From: 2010.05.17/outbox.cif.g08.bks.cpg/sg12_133_cif.got.tgz:265155.got - 2010.06.03 13:09:07.
