data_PCOD9218865
_publ_section_title
;
Structure prediction by ZEFSAII (Michael W. Deem and Ramdas Pophale) SiO2 
 PCOD9218865
Probable space group: C 2/M
;
_chemical_formula_sum "Si O2"
_cell_formula_units_Z 56
_cell_length_a 18.260450
_cell_length_b 19.979219
_cell_length_c 9.493814
_cell_angle_alpha 90.000000
_cell_angle_beta 74.736244
_cell_angle_gamma 90.000000
_cell_volume 3341.441410
_symmetry_space_group_name_H-M "C 2/M"
_symmetry_group_IT_number 12
_symmetry_cell_setting 'monoclinic'
loop_
_space_group_symop_operation_xyz
x,y,z
-x,y,-z
-x,-y,-z
x,-y,z
1/2+x,1/2+y,z
1/2-x,1/2+y,-z
1/2-x,1/2-y,-z
1/2+x,1/2-y,z
loop_
_atom_site_type_symbol
_atom_site_label
_atom_site_fract_x
_atom_site_fract_y
_atom_site_fract_z
Si Si1 0.630677 0.922903 0.557625
Si Si2 0.431542 0.278450 0.137765
Si Si3 0.072976 0.194734 0.529573
Si Si4 0.481417 0.868288 0.158588
Si Si5 0.763311 0.229030 0.151843
Si Si6 0.759038 0.819602 0.583741
Si Si7 0.894787 0.671076 0.675360
O O1 0.568736 0.911748 0.710827
O O2 0.701270 0.874850 0.559805
O O3 0.598610 0.892843 0.428597
O O4 0.651466 0.000000 0.534887
O O5 0.441362 0.294873 0.297653
O O6 0.434713 0.197704 0.135216
O O7 0.347548 0.300427 0.132208
O O8 0.500000 0.301195 0.000000
O O9 0.153788 0.159411 0.473425
O O10 0.082563 0.264512 0.434194
O O11 0.000000 0.159990 0.500000
O O12 0.552076 0.839712 0.215490
O O13 0.500000 0.902384 0.000000
O O14 0.758190 0.295297 0.250772
O O15 0.692466 0.183283 0.235642
O O16 0.750000 0.250000 0.000000
O O17 0.750000 0.750000 0.500000
#
# Coordination Sequence:
#
# PCOD9218865 Si02
#       7
#     8   8   8   8   8   8   8
#     4  12  23  38  58  80 107 151 192 226 270 326
#     4  11  19  29  47  78 114 140 175 226 276 325
#     4  11  18  32  54  79 108 137 177 225 284 319
#     4  11  21  34  51  74 113 152 184 225 269 320
#     4  11  20  32  54  80 107 145 182 226 283 320
#     4  11  19  37  57  76 109 140 180 232 276 317
#     4  11  20  35  54  78 108 146 188 225 263 331
#
# _framework density 16.759235
#
# number of rings (size 3 to 8) (size 9 to 14) (size 15 to 20)
#    0.000    0.857    8.571    2.143    2.000    1.429 
#    0.000    0.000    0.000    0.429    0.000    0.000 
#    0.000    2.857    0.000    0.000    0.000    0.000 
#
# Total GULP energy -156148.794513 kJ/mol
# GULP energy per Si atom -5576.742661 kJ/mol
# Density = 1.672109 g / cm^3
# Si number density = 16.759235 Si / 1000 Ang^3
#
#
#
# Elastic Constant Matrix: (Units=GPa)
#
#
# Indices 1 2 3 4 5 6 
#
# 1 143.0444 18.1003 53.9086 0.0000 -6.0968 0.0000
# 2 18.1003 50.5606 14.0443 0.0000 3.8568 0.0000
# 3 53.9086 14.0443 146.9028 0.0000 4.1417 0.0000
# 4 0.0000 0.0000 0.0000 6.1721 0.0000 -1.6503
# 5 -6.0968 3.8568 4.1417 0.0000 34.2930 0.0000
# 6 0.0000 0.0000 0.0000 -1.6503 0.0000 11.9637
#
#
#
# Elastic Compliance Matrix: (Units=1/GPa)
#
#
# Indices 1 2 3 4 5 6 
#
# 1 0.008495 -0.002385 -0.002950 0.000000 0.002135 0.000000
# 2 -0.002385 0.021133 -0.001070 0.000000 -0.002671 0.000000
# 3 -0.002950 -0.001070 0.008031 0.000000 -0.001374 0.000000
# 4 0.000000 0.000000 0.000000 0.168223 0.000000 0.023205
# 5 0.002135 -0.002671 -0.001374 0.000000 0.030006 0.000000
# 6 0.000000 0.000000 0.000000 0.023205 0.000000 0.086787
#
#
# Mechanical properties :
#
#
# Convention : Reuss Voigt Hill
#
# Bulk Modulus (GPa) = 40.24115 56.95714 48.59914
# Shear Modulus (GPa) = 14.54470 27.44939 20.99704
#
# Velocity S-wave (km/s) = 2.94915 4.05145 3.54342
# Velocity P-wave (km/s) = 5.97160 7.47963 6.76775
#
# Compressibility (1/GPa) = 0.02485019
#
# Stress axis : x y z
#
# Youngs Moduli (GPa) = 117.71335 47.31944 124.52239
#
# Poissons Ratio (x) = 0.11284 0.36730
# Poissons Ratio (y) = 0.28071 0.13323
# Poissons Ratio (z) = 0.34722 0.05063
#
# Static dielectric constant tensor:
#      x y z
#    x 1.653410 0.000000 -0.001550 
#    y 0.000000 1.528220 0.000000 
#    z -0.001550 0.000000 1.627400 
# 
# From -- ./inp_files/76842.got.cif
#   From: 2010.05.17/outbox.cif.g08.bks.cpg/sg12_39_cif.got.tgz:76842.got - 2010.06.03 13:09:07.
