data_PCOD9218578
_publ_section_title
;
Structure prediction by ZEFSAII (Michael W. Deem and Ramdas Pophale) SiO2 
 PCOD9218578
Probable space group: C 2/M
;
_chemical_formula_sum "Si O2"
_cell_formula_units_Z 48
_cell_length_a 14.194769
_cell_length_b 11.799331
_cell_length_c 25.358861
_cell_angle_alpha 90.000000
_cell_angle_beta 148.900791
_cell_angle_gamma 90.000000
_cell_volume 2193.834525
_symmetry_space_group_name_H-M "C 2/M"
_symmetry_group_IT_number 12
_symmetry_cell_setting 'monoclinic'
loop_
_space_group_symop_operation_xyz
x,y,z
-x,y,-z
-x,-y,-z
x,-y,z
1/2+x,1/2+y,z
1/2-x,1/2+y,-z
1/2-x,1/2-y,-z
1/2+x,1/2-y,z
loop_
_atom_site_type_symbol
_atom_site_label
_atom_site_fract_x
_atom_site_fract_y
_atom_site_fract_z
Si Si1 0.438667 0.748480 0.700708
Si Si2 0.487372 0.221279 0.155302
Si Si3 0.519612 0.000000 0.423404
Si Si4 0.599802 0.370425 0.491422
Si Si5 0.865814 0.720376 0.302736
Si Si6 0.805558 0.000000 0.647237
Si Si7 0.871756 0.368561 0.989814
O O1 0.447622 0.826518 0.756905
O O2 0.269434 0.786888 0.583251
O O3 0.616597 0.756706 0.750384
O O4 0.411189 0.617605 0.703105
O O5 0.658299 0.298515 0.220026
O O6 0.464237 0.143511 0.092548
O O7 0.303633 0.287487 0.084395
O O8 0.482337 0.110755 0.372438
O O9 0.710708 0.000000 0.544541
O O10 0.361324 0.000000 0.391980
O O11 0.500000 0.369364 0.500000
O O12 0.653394 0.500000 0.505510
O O13 0.461212 0.321104 0.381548
O O14 0.818299 0.500000 0.956575
O O15 0.000000 0.339402 0.000000
#
# Coordination Sequence:
#
# PCOD9218578 Si02
#       7
#     8   8   4   8   8   4   8
#     4  12  25  40  65  98 135 181 230 267 327 383
#     4  11  24  45  69  99 134 162 210 276 333 391
#     4  11  22  40  64  91 135 183 232 278 312 371
#     4  11  23  41  60  89 140 188 225 270 324 381
#     4  12  25  40  63  99 134 181 228 269 323 384
#     4  11  22  40  66  91 133 185 238 274 310 369
#     4  10  24  48  77 101 125 163 212 270 341 414
#
# _framework density 21.879498999999999
#
# number of rings (size 3 to 8) (size 9 to 14) (size 15 to 20)
#    0.000    0.833    5.000    1.500    4.667    1.333 
#    0.000    0.000    0.000    3.000    0.000    0.000 
#    0.000    0.000    0.000    0.000    0.000    0.000 
#
# Total GULP energy -133967.612264 kJ/mol
# GULP energy per Si atom -5581.983844 kJ/mol
# Density = 2.182970 g / cm^3
# Si number density = 21.879499 Si / 1000 Ang^3
#
#
#
# Elastic Constant Matrix: (Units=GPa)
#
#
# Indices 1 2 3 4 5 6 
#
# 1 184.2950 24.0018 25.7245 0.0000 -0.0510 0.0000
# 2 24.0018 91.3063 6.2885 0.0000 2.8041 0.0000
# 3 25.7245 6.2885 54.9175 0.0001 -3.3173 0.0000
# 4 0.0000 0.0000 0.0001 18.5537 0.0000 1.9752
# 5 -0.0510 2.8041 -3.3173 0.0000 30.4325 0.0000
# 6 0.0000 0.0000 0.0000 1.9752 0.0000 30.4854
#
#
#
# Elastic Compliance Matrix: (Units=1/GPa)
#
#
# Indices 1 2 3 4 5 6 
#
# 1 0.005976 -0.001384 -0.002650 0.000000 -0.000151 0.000000
# 2 -0.001384 0.011401 -0.000726 0.000000 -0.001132 0.000000
# 3 -0.002650 -0.000726 0.019667 0.000000 0.002206 0.000000
# 4 0.000000 0.000000 0.000000 0.054272 0.000000 -0.003516
# 5 -0.000151 -0.001132 0.002206 0.000000 0.033204 0.000000
# 6 0.000000 0.000000 0.000000 -0.003516 0.000000 0.033030
#
#
# Mechanical properties :
#
#
# Convention : Reuss Voigt Hill
#
# Bulk Modulus (GPa) = 36.33104 49.17204 42.75154
# Shear Modulus (GPa) = 28.36979 34.19461 31.28220
#
# Velocity S-wave (km/s) = 3.60479 3.95759 3.78530
# Velocity P-wave (km/s) = 5.82813 6.58834 6.21986
#
# Compressibility (1/GPa) = 0.02752467
#
# Stress axis : x y z
#
# Youngs Moduli (GPa) = 167.33146 87.71432 50.84706
#
# Poissons Ratio (x) = 0.12138 0.13475
# Poissons Ratio (y) = 0.23155 0.03690
# Poissons Ratio (z) = 0.44344 0.06365
#
# Static dielectric constant tensor:
#      x y z
#    x 1.866080 0.000000 -0.024810 
#    y 0.000000 2.056020 0.000000 
#    z -0.024810 0.000000 1.873540 
# 
# From -- ./inp_files/361093.got.cif
#   From: 2010.05.17/outbox.cif.g08.bks.cpg/sg12_181_cif.got.tgz:361093.got - 2010.06.03 13:09:07.
