data_PCOD9218256
_publ_section_title
;
Structure prediction by ZEFSAII (Michael W. Deem and Ramdas Pophale) SiO2 
 PCOD9218256
Probable space group: C 2/M
;
_chemical_formula_sum "Si O2"
_cell_formula_units_Z 60
_cell_length_a 23.707773
_cell_length_b 9.612376
_cell_length_c 14.695832
_cell_angle_alpha 90.000000
_cell_angle_beta 64.393509
_cell_angle_gamma 90.000000
_cell_volume 3020.076943
_symmetry_space_group_name_H-M "C 2/M"
_symmetry_group_IT_number 12
_symmetry_cell_setting 'monoclinic'
loop_
_space_group_symop_operation_xyz
x,y,z
-x,y,-z
-x,-y,-z
x,-y,z
1/2+x,1/2+y,z
1/2-x,1/2+y,-z
1/2-x,1/2-y,-z
1/2+x,1/2-y,z
loop_
_atom_site_type_symbol
_atom_site_label
_atom_site_fract_x
_atom_site_fract_y
_atom_site_fract_z
Si Si1 0.909612 0.658553 0.348942
Si Si2 0.866494 0.342136 0.703358
Si Si3 0.201455 0.716844 0.437752
Si Si4 0.811522 0.660876 0.938854
Si Si5 0.222536 0.000000 0.522525
Si Si6 0.488166 0.339728 0.616511
Si Si7 0.434670 0.661096 0.165482
Si Si8 0.917588 0.161793 0.962469
O O1 0.931514 0.500000 0.322903
O O2 0.846962 0.657353 0.452573
O O3 0.902585 0.733046 0.256858
O O4 0.958583 0.752466 0.370256
O O5 0.891931 0.500000 0.675013
O O6 0.828414 0.305728 0.639542
O O7 0.824426 0.339129 0.822129
O O8 0.922476 0.234370 0.678248
O O9 0.210687 0.876870 0.454999
O O10 0.261949 0.622663 0.412213
O O11 0.805214 0.500000 0.972762
O O12 0.870379 0.734337 0.946693
O O13 0.750000 0.750000 0.000000
O O14 0.500000 0.337218 0.500000
O O15 0.488988 0.500000 0.646684
O O16 0.422013 0.500000 0.200118
O O17 0.510065 0.682587 0.117468
O O18 0.416174 0.679235 0.072980
O O19 0.901665 0.000000 0.953726
#
# Coordination Sequence:
#
# PCOD9218256 Si02
#       8
#     8   8   8   8   4   8   8   8
#     4  12  23  37  59  94 130 162 201 252 308 369
#     4  11  23  43  67  91 125 168 205 255 316 375
#     4  11  23  44  63  89 123 161 211 252 304 364
#     4  11  25  44  64  92 121 163 213 264 317 372
#     4  10  24  44  64  84 120 168 206 254 296 350
#     4  11  24  37  60  95 129 166 207 248 309 371
#     4   9  20  38  65  94 123 164 202 250 313 376
#     4   9  19  42  66  89 123 161 206 256 315 369
#
# _framework density 19.867045000000001
#
# number of rings (size 3 to 8) (size 9 to 14) (size 15 to 20)
#    0.000    1.467    2.667    2.800    2.800    4.800 
#    4.800    1.333    0.000    0.000    0.000    0.000 
#    0.000    0.000    0.000    0.000    0.000    0.000 
#
# Total GULP energy -167177.043859 kJ/mol
# GULP energy per Si atom -5572.568129 kJ/mol
# Density = 1.982183 g / cm^3
# Si number density = 19.867045 Si / 1000 Ang^3
#
#
#
# Elastic Constant Matrix: (Units=GPa)
#
#
# Indices 1 2 3 4 5 6 
#
# 1 49.8701 39.4948 18.4084 0.0000 5.5213 0.0000
# 2 39.4948 180.0948 37.7744 0.0000 2.4381 0.0000
# 3 18.4084 37.7744 56.6068 0.0000 7.2535 0.0000
# 4 0.0000 0.0000 0.0000 -22.5297 0.0000 116.3948
# 5 5.5213 2.4381 7.2535 0.0000 15.4701 0.0000
# 6 0.0000 0.0000 0.0000 116.3948 0.0000 -265.7065
#
#
#
# Elastic Compliance Matrix: (Units=1/GPa)
#
#
# Indices 1 2 3 4 5 6 
#
# 1 0.026166 -0.004697 -0.004546 0.000000 -0.006467 0.000000
# 2 -0.004697 0.007316 -0.003640 0.000000 0.002230 0.000000
# 3 -0.004546 -0.003640 0.022653 0.000000 -0.008425 0.000000
# 4 0.000000 0.000000 0.000000 0.035139 0.000000 0.015393
# 5 -0.006467 0.002230 -0.008425 0.000000 0.070548 0.000000
# 6 0.000000 0.000000 0.000000 0.015393 0.000000 0.002980
#
#
# Mechanical properties :
#
#
# Convention : Reuss Voigt Hill
#
# Bulk Modulus (GPa) = 32.92945 53.10299 43.01622
# Shear Modulus (GPa) = 24.91385 -41.82693 -8.45654
#
# Velocity S-wave (km/s) = 3.54507 -4.59338 -2.06538
# Velocity P-wave (km/s) = 5.77647 1.15972 4.00141
#
# Compressibility (1/GPa) = 0.03036795
#
# Stress axis : x y z
#
# Youngs Moduli (GPa) = 38.21747 136.68515 44.14438
#
# Poissons Ratio (x) = 0.64203 0.20068
# Poissons Ratio (y) = 0.17951 0.16070
# Poissons Ratio (z) = 0.17374 0.49759
#
# Static dielectric constant tensor:
#      x y z
#    x 1.717130 0.000000 -0.021690 
#    y 0.000000 1.690090 0.000000 
#    z -0.021690 0.000000 1.688540 
# 
# From -- ./inp_files/238497.got.cif
#   From: 2010.05.17/outbox.cif.g08.bks.cpg/sg12_120_cif.got.tgz:238497.got - 2010.06.03 13:09:07.
