data_PCOD9218255
_publ_section_title
;
Structure prediction by ZEFSAII (Michael W. Deem and Ramdas Pophale) SiO2 
 PCOD9218255
Probable space group: C 2/M
;
_chemical_formula_sum "Si O2"
_cell_formula_units_Z 42
_cell_length_a 15.677281
_cell_length_b 24.964246
_cell_length_c 4.967624
_cell_angle_alpha 90.000000
_cell_angle_beta 75.980095
_cell_angle_gamma 90.000000
_cell_volume 1886.272293
_symmetry_space_group_name_H-M "C 2/M"
_symmetry_group_IT_number 12
_symmetry_cell_setting 'monoclinic'
loop_
_space_group_symop_operation_xyz
x,y,z
-x,y,-z
-x,-y,-z
x,-y,z
1/2+x,1/2+y,z
1/2-x,1/2+y,-z
1/2-x,1/2-y,-z
1/2+x,1/2-y,z
loop_
_atom_site_type_symbol
_atom_site_label
_atom_site_fract_x
_atom_site_fract_y
_atom_site_fract_z
Si Si1 0.000000 0.414760 0.000000
Si Si2 0.840433 0.197690 0.209742
Si Si3 0.151466 0.267616 0.283356
Si Si4 0.237851 0.000000 0.883980
Si Si5 0.500000 0.500000 0.500000
Si Si6 0.407362 0.578194 0.213810
Si Si7 0.000000 0.657151 0.500000
Si Si8 0.642442 0.000000 0.710129
O O1 0.919725 0.450120 0.170786
O O2 0.027057 0.378426 0.227722
O O3 0.831217 0.220488 0.517030
O O4 0.740199 0.197966 0.171976
O O5 0.889447 0.141242 0.202348
O O6 0.882695 0.239889 0.965320
O O7 0.082075 0.304798 0.484941
O O8 0.175549 0.049972 0.861440
O O9 0.321853 0.000000 0.619756
O O10 0.274840 0.000000 0.154662
O O11 0.426413 0.547682 0.479572
O O12 0.500000 0.563352 0.000000
#
# Coordination Sequence:
#
# PCOD9218255 Si02
#       8
#     4   8   8   4   2   8   4   4
#     4  11  26  44  70 102 140 174 234 281 350 414
#     4  10  24  44  68  96 135 182 226 285 341 414
#     4  10  24  44  64 102 135 171 239 282 334 423
#     4  11  26  45  71 100 137 179 237 283 345 415
#     4  10  24  46  60 106 140 172 242 284 338 438
#     4  11  27  43  71 101 139 190 225 295 346 423
#     4  12  24  42  72 100 138 180 216 296 354 404
#     4  11  26  47  69 102 135 183 231 285 338 428
#
# _framework density 22.266138999999999
#
# number of rings (size 3 to 8) (size 9 to 14) (size 15 to 20)
#    0.000    1.333    0.000    3.429   16.000    1.524 
#    0.000    0.000    0.000    0.000    0.000    0.000 
#    0.000    0.000    0.000    0.000    0.000    0.000 
#
# Total GULP energy -117027.487403 kJ/mol
# GULP energy per Si atom -5572.737495 kJ/mol
# Density = 2.221546 g / cm^3
# Si number density = 22.266139 Si / 1000 Ang^3
#
#
#
# Elastic Constant Matrix: (Units=GPa)
#
#
# Indices 1 2 3 4 5 6 
#
# 1 58.7143 28.7857 -11.3800 0.0000 -4.6676 0.0000
# 2 28.7857 102.0792 11.1835 0.0000 -2.6180 0.0000
# 3 -11.3800 11.1835 79.2907 0.0000 -2.5772 0.0000
# 4 0.0000 0.0000 0.0000 -6.2753 0.0000 15.2930
# 5 -4.6676 -2.6180 -2.5772 0.0000 46.7323 0.0000
# 6 0.0000 0.0000 0.0000 15.2930 0.0000 55.9730
#
#
#
# Elastic Compliance Matrix: (Units=1/GPa)
#
#
# Indices 1 2 3 4 5 6 
#
# 1 0.021060 -0.006324 0.003979 0.000000 0.001969 0.000000
# 2 -0.006324 0.011860 -0.002584 0.000000 -0.000110 0.000000
# 3 0.003979 -0.002584 0.013580 0.000000 0.001002 0.000000
# 4 0.000000 0.000000 0.000000 -0.095661 0.000000 0.026136
# 5 0.001969 -0.000110 0.001002 0.000000 0.021644 0.000000
# 6 0.000000 0.000000 0.000000 0.026136 0.000000 0.010725
#
#
# Mechanical properties :
#
#
# Convention : Reuss Voigt Hill
#
# Bulk Modulus (GPa) = 27.29232 33.02917 30.16075
# Shear Modulus (GPa) = 946.91641 33.38568 490.15105
#
# Velocity S-wave (km/s) = 20.64449 3.87640 14.85297
# Velocity P-wave (km/s) = 24.09448 5.90773 17.54203
#
# Compressibility (1/GPa) = 0.03664034
#
# Stress axis : x y z
#
# Youngs Moduli (GPa) = 47.48402 84.31744 73.63863
#
# Poissons Ratio (x) = 0.53323 -0.29297
# Poissons Ratio (y) = 0.30029 0.19028
# Poissons Ratio (z) = -0.18892 0.21788
#
# Static dielectric constant tensor:
#      x y z
#    x 1.822700 0.000000 -0.012190 
#    y 0.000000 1.818370 0.000000 
#    z -0.012190 0.000000 1.918780 
# 
# From -- ./inp_files/11642.got.cif
#   From: 2010.05.17/outbox.cif.g08.bks.cpg/sg12_6_cif.got.tgz:11642.got - 2010.06.03 13:09:07.
