data_PCOD9218249
_publ_section_title
;
Structure prediction by ZEFSAII (Michael W. Deem and Ramdas Pophale) SiO2 
 PCOD9218249
Probable space group: C 2/M
;
_chemical_formula_sum "Si O2"
_cell_formula_units_Z 52
_cell_length_a 14.338407
_cell_length_b 14.460472
_cell_length_c 20.997644
_cell_angle_alpha 90.000000
_cell_angle_beta 40.235674
_cell_angle_gamma 90.000000
_cell_volume 2812.169522
_symmetry_space_group_name_H-M "C 2/M"
_symmetry_group_IT_number 12
_symmetry_cell_setting 'monoclinic'
loop_
_space_group_symop_operation_xyz
x,y,z
-x,y,-z
-x,-y,-z
x,-y,z
1/2+x,1/2+y,z
1/2-x,1/2+y,-z
1/2-x,1/2-y,-z
1/2+x,1/2-y,z
loop_
_atom_site_type_symbol
_atom_site_label
_atom_site_fract_x
_atom_site_fract_y
_atom_site_fract_z
Si Si1 0.519728 0.298605 0.174516
Si Si2 0.146068 0.000000 0.087242
Si Si3 0.333976 0.816587 0.794649
Si Si4 0.916377 0.305088 0.111567
Si Si5 0.342229 0.000000 0.112202
Si Si6 0.978224 0.392639 0.406595
Si Si7 0.239993 0.609322 0.371998
Si Si8 0.824915 0.000000 0.073799
O O1 0.564771 0.401639 0.129962
O O2 0.627861 0.252681 0.168315
O O3 0.515576 0.226630 0.118041
O O4 0.366664 0.320641 0.287920
O O5 0.237220 0.000000 0.105696
O O6 0.211149 0.000000 0.982591
O O7 0.213995 0.765966 0.815997
O O8 0.475972 0.837281 0.679500
O O9 0.254474 0.910288 0.856986
O O10 0.843938 0.406152 0.151493
O O11 0.000000 0.295900 0.000000
O O12 0.500000 0.000000 0.000000
O O13 0.960775 0.500000 0.398125
O O14 0.115166 0.387781 0.383350
O O15 0.838690 0.366098 0.520595
O O16 0.287437 0.500000 0.350398
O O17 0.000000 0.000000 0.000000
#
# Coordination Sequence:
#
# PCOD9218249 Si02
#       8
#     8   4   8   8   4   8   8   4
#     4  12  24  37  64  92 118 159 212 249 301 367
#     4  12  24  42  61  88 122 167 212 244 295 369
#     4  12  23  38  61  91 118 158 205 249 308 368
#     4  11  24  41  60  85 122 163 201 249 300 361
#     4  10  24  44  62  79 119 168 203 248 298 358
#     4   9  18  36  60  86 118 150 194 248 311 367
#     4   9  18  35  62  87 114 153 192 250 309 363
#     4  12  28  40  59  89 131 161 197 267 314 342
#
# _framework density 18.491060999999998
#
# number of rings (size 3 to 8) (size 9 to 14) (size 15 to 20)
#    0.000    1.231    4.615    3.231    4.308    1.846 
#    0.000    0.000    0.000    0.000    0.000    1.077 
#    0.000    0.000    0.000    0.000    0.000    0.000 
#
# Total GULP energy -144935.531012 kJ/mol
# GULP energy per Si atom -5574.443500 kJ/mol
# Density = 1.844897 g / cm^3
# Si number density = 18.491061 Si / 1000 Ang^3
#
#
#
# Elastic Constant Matrix: (Units=GPa)
#
#
# Indices 1 2 3 4 5 6 
#
# 1 31.6254 -2.6214 -5.7966 -0.0001 8.5444 0.0000
# 2 -2.6214 96.9343 30.8798 -0.0001 6.6051 0.0000
# 3 -5.7966 30.8798 74.2348 -0.0003 5.8057 0.0002
# 4 -0.0001 -0.0001 -0.0003 1.0857 0.0001 3.5955
# 5 8.5444 6.6051 5.8057 0.0001 23.1257 -0.0001
# 6 0.0000 0.0000 0.0002 3.5955 -0.0001 9.0414
#
#
#
# Elastic Compliance Matrix: (Units=1/GPa)
#
#
# Indices 1 2 3 4 5 6 
#
# 1 0.036285 0.000816 0.003632 -0.000021 -0.014551 0.000008
# 2 0.000816 0.012021 -0.004738 0.000001 -0.002545 0.000000
# 3 0.003632 -0.004738 0.016039 -0.000020 -0.004015 0.000008
# 4 -0.000021 0.000001 -0.000020 -2.906521 0.000034 1.155828
# 5 -0.014551 -0.002545 -0.004015 0.000034 0.050353 -0.000013
# 6 0.000008 0.000000 0.000008 1.155828 -0.000013 -0.349033
#
#
# Mechanical properties :
#
#
# Convention : Reuss Voigt Hill
#
# Bulk Modulus (GPa) = 15.68256 27.52425 21.60341
# Shear Modulus (GPa) = -1.60307 18.67275 8.53484
#
# Velocity S-wave (km/s) = -0.93211 3.18122 2.15074
# Velocity P-wave (km/s) = 2.70945 5.33020 4.22801
#
# Compressibility (1/GPa) = 0.06376508
#
# Stress axis : x y z
#
# Youngs Moduli (GPa) = 27.55975 83.18757 62.34733
#
# Poissons Ratio (x) = -0.06786 -0.22644
# Poissons Ratio (y) = -0.02248 0.29538
# Poissons Ratio (z) = -0.10010 0.39412
#
# Static dielectric constant tensor:
#      x y z
#    x 1.643120 0.000000 0.001860 
#    y 0.000000 1.709590 0.000000 
#    z 0.001860 0.000000 1.659120 
# 
# From -- ./inp_files/270615.got.cif
#   From: 2010.05.17/outbox.cif.g08.bks.cpg/sg12_136_cif.got.tgz:270615.got - 2010.06.03 13:09:07.
