data_PCOD9218254
_publ_section_title
;
Structure prediction by ZEFSAII (Michael W. Deem and Ramdas Pophale) SiO2 
 PCOD9218254
Probable space group: C 2/M
;
_chemical_formula_sum "Si O2"
_cell_formula_units_Z 22
_cell_length_a 5.301018
_cell_length_b 23.286601
_cell_length_c 8.741905
_cell_angle_alpha 90.000000
_cell_angle_beta 105.328266
_cell_angle_gamma 90.000000
_cell_volume 1040.736723
_symmetry_space_group_name_H-M "C 2/M"
_symmetry_group_IT_number 12
_symmetry_cell_setting 'monoclinic'
loop_
_space_group_symop_operation_xyz
x,y,z
-x,y,-z
-x,-y,-z
x,-y,z
1/2+x,1/2+y,z
1/2-x,1/2+y,-z
1/2-x,1/2-y,-z
1/2+x,1/2-y,z
loop_
_atom_site_type_symbol
_atom_site_label
_atom_site_fract_x
_atom_site_fract_y
_atom_site_fract_z
Si Si1 0.581975 0.907412 0.338642
Si Si2 0.000000 0.000000 0.500000
Si Si3 0.706068 0.000000 0.893820
Si Si4 0.407289 0.784729 0.808549
O O1 0.500000 0.896813 0.500000
O O2 0.354780 0.944207 0.219040
O O3 0.633047 0.848158 0.262528
O O4 0.826638 0.950077 0.385504
O O5 0.500000 0.000000 0.000000
O O6 0.000000 0.000000 0.000000
O O7 0.642192 0.751971 0.760773
O O8 0.500000 0.789251 0.000000
#
# Coordination Sequence:
#
# PCOD9218254 Si02
#       4
#     8   2   4   8
#     4  11  26  44  71 101 146 184 231 297 348 416
#     4  10  24  44  64 100 142 180 224 284 344 428
#     4  11  26  43  70 100 135 187 238 282 349 410
#     4  10  24  46  71 102 138 183 236 288 345 415
#
# _framework density 21.138871999999999
#
# number of rings (size 3 to 8) (size 9 to 14) (size 15 to 20)
#    0.000    1.455    0.000    3.273   15.273    5.818 
#    0.000    0.000    0.000    0.000    0.000    0.000 
#    0.000    0.000    0.000    0.000    0.000    0.000 
#
# Total GULP energy -61310.918776 kJ/mol
# GULP energy per Si atom -5573.719889 kJ/mol
# Density = 2.109076 g / cm^3
# Si number density = 21.138872 Si / 1000 Ang^3
#
#
#
# Elastic Constant Matrix: (Units=GPa)
#
#
# Indices 1 2 3 4 5 6 
#
# 1 144.4502 80.4042 51.8458 0.0000 33.3956 0.0000
# 2 80.4042 223.3052 42.0682 0.0000 34.0180 0.0000
# 3 51.8458 42.0682 63.1228 0.0000 29.1222 0.0000
# 4 0.0000 0.0000 0.0000 15.9191 0.0000 -7.4161
# 5 33.3956 34.0180 29.1222 0.0000 39.9105 0.0000
# 6 0.0000 0.0000 0.0000 -7.4161 0.0000 -28.5585
#
#
#
# Elastic Compliance Matrix: (Units=1/GPa)
#
#
# Indices 1 2 3 4 5 6 
#
# 1 0.011153 -0.002420 -0.006322 0.000000 -0.002657 0.000000
# 2 -0.002420 0.005867 -0.000828 0.000000 -0.002371 0.000000
# 3 -0.006322 -0.000828 0.028372 0.000000 -0.014706 0.000000
# 4 0.000000 0.000000 0.000000 0.056038 0.000000 -0.014552
# 5 -0.002657 -0.002371 -0.014706 0.000000 0.040031 0.000000
# 6 0.000000 0.000000 0.000000 -0.014552 0.000000 -0.031237
#
#
# Mechanical properties :
#
#
# Convention : Reuss Voigt Hill
#
# Bulk Modulus (GPa) = 38.09400 86.61271 62.35336
# Shear Modulus (GPa) = 36.20159 22.55824 29.37992
#
# Velocity S-wave (km/s) = 4.14280 3.27026 3.73212
# Velocity P-wave (km/s) = 6.39872 7.43785 6.93777
#
# Compressibility (1/GPa) = 0.02625085
#
# Stress axis : x y z
#
# Youngs Moduli (GPa) = 89.66027 170.44962 35.24635
#
# Poissons Ratio (x) = 0.41251 0.22283
# Poissons Ratio (y) = 0.21699 0.02919
# Poissons Ratio (z) = 0.56684 0.14116
#
# Static dielectric constant tensor:
#      x y z
#    x 1.772360 0.000000 -0.012550 
#    y 0.000000 1.678470 0.000000 
#    z -0.012550 0.000000 1.738860 
# 
# From -- ./inp_files/33260.got.cif
#   From: 2010.05.17/outbox.cif.g08.bks.cpg/sg12_17_cif.got.tgz:33260.got - 2010.06.03 13:09:07.
