data_PCOD9218267
_publ_section_title
;
Structure prediction by ZEFSAII (Michael W. Deem and Ramdas Pophale) SiO2 
 PCOD9218267
Probable space group: C 2/M
;
_chemical_formula_sum "Si O2"
_cell_formula_units_Z 56
_cell_length_a 24.918852
_cell_length_b 8.436941
_cell_length_c 12.344089
_cell_angle_alpha 90.000000
_cell_angle_beta 102.203411
_cell_angle_gamma 90.000000
_cell_volume 2536.564402
_symmetry_space_group_name_H-M "C 2/M"
_symmetry_group_IT_number 12
_symmetry_cell_setting 'monoclinic'
loop_
_space_group_symop_operation_xyz
x,y,z
-x,y,-z
-x,-y,-z
x,-y,z
1/2+x,1/2+y,z
1/2-x,1/2+y,-z
1/2-x,1/2-y,-z
1/2+x,1/2-y,z
loop_
_atom_site_type_symbol
_atom_site_label
_atom_site_fract_x
_atom_site_fract_y
_atom_site_fract_z
Si Si1 0.615530 0.313151 0.618114
Si Si2 0.805592 0.184014 0.072793
Si Si3 0.038337 0.810839 0.782796
Si Si4 0.934746 0.314449 0.608926
Si Si5 0.777042 0.684461 0.285763
Si Si6 0.406039 0.816659 0.991215
Si Si7 0.844952 0.310928 0.748865
O O1 0.626721 0.500000 0.625816
O O2 0.587698 0.264082 0.720810
O O3 0.571492 0.278428 0.505473
O O4 0.671660 0.218991 0.613381
O O5 0.795707 0.204727 0.194919
O O6 0.852860 0.292592 0.044407
O O7 0.816560 0.000000 0.050607
O O8 0.750000 0.250000 0.000000
O O9 0.048102 0.760601 0.911688
O O10 0.984447 0.738194 0.706561
O O11 0.035679 0.000000 0.778302
O O12 0.940532 0.500000 0.586959
O O13 0.879937 0.288842 0.656023
O O14 0.777912 0.500000 0.255387
O O15 0.714606 0.730461 0.285646
O O16 0.420525 0.000000 0.981564
O O17 0.383241 0.753088 0.866190
O O18 0.836185 0.500000 0.763447
#
# Coordination Sequence:
#
# PCOD9218267 Si02
#       7
#     8   8   8   8   8   8   8
#     4  11  24  43  67  94 128 165 209 267 324 377
#     4  12  22  35  57  91 130 167 207 258 316 375
#     4  11  24  42  66  95 128 165 209 266 326 376
#     4  11  25  45  67  91 124 168 219 267 316 377
#     4  12  24  38  64  97 128 166 211 260 316 381
#     4  11  22  38  64  94 127 166 211 260 314 376
#     4  10  24  44  64  91 131 173 210 259 318 378
#
# _framework density 22.077106000000001
#
# number of rings (size 3 to 8) (size 9 to 14) (size 15 to 20)
#    0.000    0.857    2.857    4.714    0.000    6.286 
#    0.000    2.857    0.000    0.000    0.000    0.000 
#    0.000    0.000    0.000    0.000    0.000    0.000 
#
# Total GULP energy -156452.628585 kJ/mol
# GULP energy per Si atom -5587.593878 kJ/mol
# Density = 2.202686 g / cm^3
# Si number density = 22.077106 Si / 1000 Ang^3
#
#
#
# Elastic Constant Matrix: (Units=GPa)
#
#
# Indices 1 2 3 4 5 6 
#
# 1 53.4197 16.6272 23.1319 0.0000 13.4169 0.0000
# 2 16.6272 53.2241 15.8134 0.0000 -5.5521 0.0000
# 3 23.1319 15.8134 74.8325 0.0000 13.2937 0.0000
# 4 0.0000 0.0000 0.0000 23.7837 0.0000 6.2995
# 5 13.4169 -5.5521 13.2937 0.0000 23.8362 0.0000
# 6 0.0000 0.0000 0.0000 6.2995 0.0000 27.5173
#
#
#
# Elastic Compliance Matrix: (Units=1/GPa)
#
#
# Indices 1 2 3 4 5 6 
#
# 1 0.026901 -0.008864 -0.003758 0.000000 -0.015111 0.000000
# 2 -0.008864 0.024367 -0.004777 0.000000 0.013329 0.000000
# 3 -0.003758 -0.004777 0.017045 0.000000 -0.008504 0.000000
# 4 0.000000 0.000000 0.000000 0.044760 0.000000 -0.010247
# 5 -0.015111 0.013329 -0.008504 0.000000 0.058306 0.000000
# 6 0.000000 0.000000 0.000000 -0.010247 0.000000 0.038687
#
#
# Mechanical properties :
#
#
# Convention : Reuss Voigt Hill
#
# Bulk Modulus (GPa) = 29.83703 32.51346 31.17524
# Shear Modulus (GPa) = 19.52859 23.42103 21.47481
#
# Velocity S-wave (km/s) = 2.97739 3.26064 3.12223
# Velocity P-wave (km/s) = 5.03627 5.37912 5.21051
#
# Compressibility (1/GPa) = 0.03351540
#
# Stress axis : x y z
#
# Youngs Moduli (GPa) = 37.17330 41.03869 58.66816
#
# Poissons Ratio (x) = 0.36375 0.22048
# Poissons Ratio (y) = 0.32949 0.28027
# Poissons Ratio (z) = 0.13970 0.19605
#
# Static dielectric constant tensor:
#      x y z
#    x 1.831130 0.000000 0.043590 
#    y 0.000000 1.771000 0.000000 
#    z 0.043590 0.000000 1.867370 
# 
# From -- ./inp_files/181070.got.cif
#   From: 2010.05.17/outbox.cif.g08.bks.cpg/sg12_91_cif.got.tgz:181070.got - 2010.06.03 13:09:07.
