data_PCOD9218499
_publ_section_title
;
Structure prediction by ZEFSAII (Michael W. Deem and Ramdas Pophale) SiO2 
 PCOD9218499
Probable space group: C 2/M
;
_chemical_formula_sum "Si O2"
_cell_formula_units_Z 42
_cell_length_a 11.696359
_cell_length_b 26.167355
_cell_length_c 5.999471
_cell_angle_alpha 90.000000
_cell_angle_beta 58.543502
_cell_angle_gamma 90.000000
_cell_volume 1566.358447
_symmetry_space_group_name_H-M "C 2/M"
_symmetry_group_IT_number 12
_symmetry_cell_setting 'monoclinic'
loop_
_space_group_symop_operation_xyz
x,y,z
-x,y,-z
-x,-y,-z
x,-y,z
1/2+x,1/2+y,z
1/2-x,1/2+y,-z
1/2-x,1/2-y,-z
1/2+x,1/2-y,z
loop_
_atom_site_type_symbol
_atom_site_label
_atom_site_fract_x
_atom_site_fract_y
_atom_site_fract_z
Si Si1 0.143096 0.291327 0.319921
Si Si2 0.088472 0.200812 0.712934
Si Si3 0.647810 0.862130 0.957564
Si Si4 0.899947 0.904823 0.428192
Si Si5 0.500000 0.000000 0.500000
Si Si6 0.294823 0.942039 0.715191
O O1 0.115970 0.238028 0.478359
O O2 0.269103 0.311778 0.324312
O O3 0.172026 0.304397 0.032617
O O4 0.000000 0.318558 0.500000
O O5 0.021747 0.146730 0.722608
O O6 0.000000 0.224947 0.000000
O O7 0.677923 0.898354 0.139114
O O8 0.500000 0.863152 0.000000
O O9 0.765384 0.882036 0.677014
O O10 0.842497 0.936107 0.277577
O O11 0.000000 0.931921 0.500000
O O12 0.422006 0.953585 0.430376
O O13 0.315124 0.000000 0.806245
#
# Coordination Sequence:
#
# PCOD9218499 Si02
#       6
#     8   8   8   8   2   8
#     4  11  25  44  71 108 146 189 255 314 362 443
#     4  11  25  47  75 103 151 204 247 306 383 442
#     4  12  26  45  78 111 148 196 256 315 381 436
#     4  12  26  45  75 112 151 205 250 303 378 460
#     4   8  20  44  76  98 150 184 232 316 364 430
#     4  10  24  46  74 109 152 191 247 310 373 446
#
# _framework density 26.813787999999999
#
# number of rings (size 3 to 8) (size 9 to 14) (size 15 to 20)
#    0.571    0.381    1.905    4.000    1.333    6.857 
#    0.000    0.952    0.000    0.000    0.000    0.000 
#    0.000    0.000    0.000    0.000    0.000    0.000 
#
# Total GULP energy -116933.354246 kJ/mol
# GULP energy per Si atom -5568.254964 kJ/mol
# Density = 2.675276 g / cm^3
# Si number density = 26.813788 Si / 1000 Ang^3
#
#
#
# Elastic Constant Matrix: (Units=GPa)
#
#
# Indices 1 2 3 4 5 6 
#
# 1 221.0024 35.7133 46.3046 0.0000 39.2951 0.0000
# 2 35.7133 124.7626 48.7600 0.0000 25.8531 0.0000
# 3 46.3046 48.7600 100.3786 0.0000 -5.5714 0.0000
# 4 0.0000 0.0000 0.0000 7.8584 0.0000 9.4909
# 5 39.2951 25.8531 -5.5714 0.0000 48.2726 0.0000
# 6 0.0000 0.0000 0.0000 9.4909 0.0000 56.2934
#
#
#
# Elastic Compliance Matrix: (Units=1/GPa)
#
#
# Indices 1 2 3 4 5 6 
#
# 1 0.006193 0.000862 -0.003604 0.000000 -0.005919 0.000000
# 2 0.000862 0.012015 -0.006673 0.000000 -0.007907 0.000000
# 3 -0.003604 -0.006673 0.015326 0.000000 0.008277 0.000000
# 4 0.000000 0.000000 0.000000 0.159789 0.000000 -0.026940
# 5 -0.005919 -0.007907 0.008277 0.000000 0.030724 0.000000
# 6 0.000000 0.000000 0.000000 -0.026940 0.000000 0.022306
#
#
# Mechanical properties :
#
#
# Convention : Reuss Voigt Hill
#
# Bulk Modulus (GPa) = 68.00923 78.63327 73.32125
# Shear Modulus (GPa) = 18.51275 43.50926 31.01101
#
# Velocity S-wave (km/s) = 2.63043 4.03258 3.40447
# Velocity P-wave (km/s) = 5.88593 7.14644 6.54659
#
# Compressibility (1/GPa) = 0.01470389
#
# Stress axis : x y z
#
# Youngs Moduli (GPa) = 161.46938 83.23077 65.24907
#
# Poissons Ratio (x) = -0.07178 0.23518
# Poissons Ratio (y) = -0.13926 0.43541
# Poissons Ratio (z) = 0.58200 0.55540
#
# Static dielectric constant tensor:
#      x y z
#    x 2.392080 0.000000 -0.220060 
#    y 0.000000 2.117460 0.000000 
#    z -0.220060 0.000000 2.387680 
# 
# From -- ./inp_files/8407.got.cif
#   From: 2010.05.17/outbox.cif.g08.bks.cpg/sg12_5_cif.got.tgz:8407.got - 2010.06.03 13:09:07.
