data_PCOD9218102
_publ_section_title
;
Structure prediction by ZEFSAII (Michael W. Deem and Ramdas Pophale) SiO2 
 PCOD9218102
Probable space group: C 2/M
;
_chemical_formula_sum "Si O2"
_cell_formula_units_Z 32
_cell_length_a 25.937545
_cell_length_b 7.744515
_cell_length_c 24.359605
_cell_angle_alpha 90.000000
_cell_angle_beta 19.853971
_cell_angle_gamma 90.000000
_cell_volume 1661.849822
_symmetry_space_group_name_H-M "C 2/M"
_symmetry_group_IT_number 12
_symmetry_cell_setting 'monoclinic'
loop_
_space_group_symop_operation_xyz
x,y,z
-x,y,-z
-x,-y,-z
x,-y,z
1/2+x,1/2+y,z
1/2-x,1/2+y,-z
1/2-x,1/2-y,-z
1/2+x,1/2-y,z
loop_
_atom_site_type_symbol
_atom_site_label
_atom_site_fract_x
_atom_site_fract_y
_atom_site_fract_z
Si Si1 0.070328 0.194307 0.061332
Si Si2 0.569346 0.000000 0.869930
Si Si3 0.427359 0.205384 0.318412
Si Si4 0.068423 0.295435 0.294899
Si Si5 0.568140 0.500000 0.492586
O O1 0.989349 0.333793 0.104499
O O2 0.002961 0.207848 0.190031
O O3 0.046244 0.000000 0.064673
O O4 0.250460 0.227908 0.883395
O O5 0.750519 0.000000 0.690918
O O6 0.500000 0.000000 0.000000
O O7 0.250000 0.250000 0.500000
O O8 0.508860 0.251501 0.293807
O O9 0.443249 0.000000 0.294978
O O10 0.035200 0.500000 0.337190
O O11 0.989519 0.169001 0.417061
O O12 0.500000 0.500000 0.500000
#
# Coordination Sequence:
#
# PCOD9218102 Si02
#       5
#     8   4   8   8   4
#     4  11  23  42  66  95 131 171 215 269 326 385
#     4  12  26  46  68  96 130 170 223 270 323 390
#     4  11  22  37  60  96 135 172 214 264 323 388
#     4  10  24  42  64  95 131 170 215 266 325 386
#     4  12  26  44  70  94 126 174 217 270 323 388
#
# _framework density 19.255652000000001
#
# number of rings (size 3 to 8) (size 9 to 14) (size 15 to 20)
#    0.000    1.000    1.250    5.250    3.500    4.000 
#    0.000    0.000    0.000    0.000    0.000    0.000 
#    0.000    0.000    0.000    0.000    0.000    0.000 
#
# Total GULP energy -89538.762107 kJ/mol
# GULP energy per Si atom -5596.172632 kJ/mol
# Density = 1.921182 g / cm^3
# Si number density = 19.255652 Si / 1000 Ang^3
#
#
#
# Elastic Constant Matrix: (Units=GPa)
#
#
# Indices 1 2 3 4 5 6 
#
# 1 170.1999 96.1051 89.9463 0.0005 -3.5602 0.0000
# 2 96.1051 119.0089 88.9467 -0.0005 -7.1576 0.0005
# 3 89.9463 88.9467 175.2331 0.0002 -0.4559 0.0000
# 4 0.0005 -0.0005 0.0002 29.7344 -0.0001 5.3405
# 5 -3.5602 -7.1576 -0.4559 -0.0001 39.7014 -0.0001
# 6 0.0000 0.0005 0.0000 5.3405 -0.0001 25.2304
#
#
#
# Elastic Compliance Matrix: (Units=1/GPa)
#
#
# Indices 1 2 3 4 5 6 
#
# 1 0.011170 -0.007667 -0.001843 0.000000 -0.000402 0.000000
# 2 -0.007667 0.019027 -0.005715 0.000001 0.002677 0.000000
# 3 -0.001843 -0.005715 0.009551 0.000000 -0.001086 0.000000
# 4 0.000000 0.000001 0.000000 0.034960 0.000000 -0.007400
# 5 -0.000402 0.002677 -0.001086 0.000000 0.025622 0.000000
# 6 0.000000 0.000000 0.000000 -0.007400 0.000000 0.041201
#
#
# Mechanical properties :
#
#
# Convention : Reuss Voigt Hill
#
# Bulk Modulus (GPa) = 107.56032 112.71532 110.13782
# Shear Modulus (GPa) = 28.55797 31.56283 30.06040
#
# Velocity S-wave (km/s) = 3.85528 4.05303 3.95539
# Velocity P-wave (km/s) = 8.70620 8.97586 8.84206
#
# Compressibility (1/GPa) = 0.00929711
#
# Stress axis : x y z
#
# Youngs Moduli (GPa) = 89.52186 52.55620 104.70253
#
# Poissons Ratio (x) = 0.40297 0.19295
# Poissons Ratio (y) = 0.68641 0.59842
# Poissons Ratio (z) = 0.16497 0.30038
#
# Static dielectric constant tensor:
#      x y z
#    x 1.633780 0.000000 -0.000490 
#    y 0.000000 1.661190 0.000000 
#    z -0.000490 0.000000 1.635970 
# 
# From -- ./inp_files/92344.got.cif
#   From: 2010.05.17/outbox.cif.g08.bks.cpg/sg12_47_cif.got.tgz:92344.got - 2010.06.03 13:09:07.
