data_PCOD9218041
_publ_section_title
;
Structure prediction by ZEFSAII (Michael W. Deem and Ramdas Pophale) SiO2 
 PCOD9218041
Probable space group: C 2/M
;
_chemical_formula_sum "Si O2"
_cell_formula_units_Z 52
_cell_length_a 15.229542
_cell_length_b 19.124412
_cell_length_c 11.547948
_cell_angle_alpha 90.000000
_cell_angle_beta 49.174330
_cell_angle_gamma 90.000000
_cell_volume 2545.099512
_symmetry_space_group_name_H-M "C 2/M"
_symmetry_group_IT_number 12
_symmetry_cell_setting 'monoclinic'
loop_
_space_group_symop_operation_xyz
x,y,z
-x,y,-z
-x,-y,-z
x,-y,z
1/2+x,1/2+y,z
1/2-x,1/2+y,-z
1/2-x,1/2-y,-z
1/2+x,1/2-y,z
loop_
_atom_site_type_symbol
_atom_site_label
_atom_site_fract_x
_atom_site_fract_y
_atom_site_fract_z
Si Si1 0.440081 0.220132 0.676721
Si Si2 0.181300 0.834939 0.897148
Si Si3 0.999930 0.000000 0.677133
Si Si4 0.170738 0.683557 0.601088
Si Si5 0.351036 0.372933 0.821155
Si Si6 0.812567 0.923014 0.333680
Si Si7 0.130577 0.674812 0.899241
O O1 0.500000 0.214151 0.500000
O O2 0.320927 0.176284 0.781364
O O3 0.536927 0.198368 0.686148
O O4 0.404188 0.299921 0.732156
O O5 0.150267 0.876320 0.807519
O O6 0.131138 0.756181 0.938264
O O7 0.140110 0.874913 0.047027
O O8 0.911477 0.938381 0.710445
O O9 0.084240 0.939871 0.665760
O O10 0.250000 0.750000 0.500000
O O11 0.215245 0.619022 0.486947
O O12 0.185486 0.672288 0.724183
O O13 0.214678 0.367874 0.909627
O O14 0.773038 0.000000 0.325993
O O15 0.000000 0.649157 0.000000
#
# Coordination Sequence:
#
# PCOD9218041 Si02
#       7
#     8   8   4   8   8   8   8
#     4  11  21  40  66  97 129 164 218 272 319 374
#     4  11  22  40  65  97 131 161 216 270 324 382
#     4  10  26  43  64  89 134 170 209 261 323 394
#     4  12  20  40  66  94 131 169 219 264 315 384
#     4  11  24  42  60  98 129 170 214 262 328 380
#     4  10  24  41  63 101 124 167 215 261 335 377
#     4  11  23  39  67  96 126 169 218 270 317 376
#
# _framework density 20.431421
#
# number of rings (size 3 to 8) (size 9 to 14) (size 15 to 20)
#    0.462    0.615    3.077    5.538    3.231    0.615 
#    1.385    3.077    3.385    0.000    0.000    0.000 
#    0.000    0.000    0.000    0.000    0.000    0.000 
#
# Total GULP energy -144829.464850 kJ/mol
# GULP energy per Si atom -5570.364033 kJ/mol
# Density = 2.038492 g / cm^3
# Si number density = 20.431421 Si / 1000 Ang^3
#
#
#
# Elastic Constant Matrix: (Units=GPa)
#
#
# Indices 1 2 3 4 5 6 
#
# 1 89.3619 10.3944 -10.0908 0.0000 -22.8789 0.0000
# 2 10.3944 63.4185 -18.3194 0.0000 -18.5307 0.0000
# 3 -10.0908 -18.3194 45.5506 0.0000 1.0315 0.0000
# 4 0.0000 0.0000 0.0000 6.1841 0.0000 -15.3319
# 5 -22.8789 -18.5307 1.0315 0.0000 40.7383 0.0000
# 6 0.0000 0.0000 0.0000 -15.3319 0.0000 46.6148
#
#
#
# Elastic Compliance Matrix: (Units=1/GPa)
#
#
# Indices 1 2 3 4 5 6 
#
# 1 0.013471 0.001050 0.003226 0.000000 0.007961 0.000000
# 2 0.001050 0.020919 0.008422 0.000000 0.009892 0.000000
# 3 0.003226 0.008422 0.025943 0.000000 0.004986 0.000000
# 4 0.000000 0.000000 0.000000 0.876138 0.000000 0.288168
# 5 0.007961 0.009892 0.004986 0.000000 0.033392 0.000000
# 6 0.000000 0.000000 0.000000 0.288168 0.000000 0.116233
#
#
# Mechanical properties :
#
#
# Convention : Reuss Voigt Hill
#
# Bulk Modulus (GPa) = 11.66448 18.03328 14.84888
# Shear Modulus (GPa) = 4.59021 33.13056 18.86039
#
# Velocity S-wave (km/s) = 1.50051 4.03122 3.04156
# Velocity P-wave (km/s) = 2.95356 5.52386 4.42925
#
# Compressibility (1/GPa) = 0.08573035
#
# Stress axis : x y z
#
# Youngs Moduli (GPa) = 74.23398 47.80243 38.54672
#
# Poissons Ratio (x) = -0.05021 -0.12437
# Poissons Ratio (y) = -0.07797 -0.32464
# Poissons Ratio (z) = -0.23950 -0.40259
#
# Static dielectric constant tensor:
#      x y z
#    x 1.766500 0.000000 0.012090 
#    y 0.000000 1.695690 0.000000 
#    z 0.012090 0.000000 1.751320 
# 
# From -- ./inp_files/147557.got.cif
#   From: 2010.05.17/outbox.cif.g08.bks.cpg/sg12_74_cif.got.tgz:147557.got - 2010.06.03 13:09:07.
