data_PCOD9218975
_publ_section_title
;
Structure prediction by ZEFSAII (Michael W. Deem and Ramdas Pophale) SiO2 
 PCOD9218975
Probable space group: C 2/M
;
_chemical_formula_sum "Si O2"
_cell_formula_units_Z 36
_cell_length_a 10.251174
_cell_length_b 20.560150
_cell_length_c 15.964746
_cell_angle_alpha 90.000000
_cell_angle_beta 36.399605
_cell_angle_gamma 90.000000
_cell_volume 1996.729345
_symmetry_space_group_name_H-M "C 2/M"
_symmetry_group_IT_number 12
_symmetry_cell_setting 'monoclinic'
loop_
_space_group_symop_operation_xyz
x,y,z
-x,y,-z
-x,-y,-z
x,-y,z
1/2+x,1/2+y,z
1/2-x,1/2+y,-z
1/2-x,1/2-y,-z
1/2+x,1/2-y,z
loop_
_atom_site_type_symbol
_atom_site_label
_atom_site_fract_x
_atom_site_fract_y
_atom_site_fract_z
Si Si1 0.748776 0.237581 0.600702
Si Si2 0.719524 0.500000 0.947739
Si Si3 0.355585 0.500000 0.490847
Si Si4 0.000163 0.608204 0.716485
Si Si5 0.231528 0.630706 0.332409
Si Si6 0.993063 0.000000 0.237440
O O1 0.750000 0.250000 0.500000
O O2 0.613791 0.173025 0.691421
O O3 0.660705 0.302552 0.691611
O O4 0.000000 0.228417 0.500000
O O5 0.864858 0.562727 0.848894
O O6 0.500000 0.500000 0.000000
O O7 0.672493 0.500000 0.071035
O O8 0.500000 0.500000 0.500000
O O9 0.512786 0.500000 0.328132
O O10 0.192001 0.562350 0.577386
O O11 0.830751 0.630313 0.732386
O O12 0.359137 0.565543 0.287407
O O13 0.000000 0.627929 0.500000
#
# Coordination Sequence:
#
# PCOD9218975 Si02
#       6
#     8   4   4   8   8   4
#     4  11  20  34  57  92 125 155 198 258 316 360
#     4  11  23  37  66  88 122 165 202 260 297 369
#     4  11  22  36  62  90 119 157 197 262 309 360
#     4  11  21  38  57  93 125 151 208 253 310 363
#     4  11  19  32  61  91 117 153 197 263 304 352
#     4  12  20  38  62  91 117 156 214 243 300 363
#
# _framework density 18.029482999999999
#
# number of rings (size 3 to 8) (size 9 to 14) (size 15 to 20)
#    0.000    0.889    8.889    1.667    0.000    0.000 
#    0.000    3.333    0.000    0.000    0.000    0.000 
#    0.000    0.000    0.000    0.000    0.000    0.000 
#
# Total GULP energy -100401.702111 kJ/mol
# GULP energy per Si atom -5577.872340 kJ/mol
# Density = 1.798845 g / cm^3
# Si number density = 18.029483 Si / 1000 Ang^3
#
#
#
# Elastic Constant Matrix: (Units=GPa)
#
#
# Indices 1 2 3 4 5 6 
#
# 1 115.4871 47.5257 30.2697 -0.0002 14.3171 0.0011
# 2 47.5257 189.2548 49.6147 0.0012 1.5470 0.0001
# 3 30.2697 49.6147 100.6257 0.0040 26.5822 -0.0002
# 4 -0.0002 0.0012 0.0040 27.3200 -0.0014 -7.2011
# 5 14.3171 1.5470 26.5822 -0.0014 23.4706 -0.0001
# 6 0.0011 0.0001 -0.0002 -7.2011 -0.0001 36.6705
#
#
#
# Elastic Compliance Matrix: (Units=1/GPa)
#
#
# Indices 1 2 3 4 5 6 
#
# 1 0.010505 -0.002484 -0.000408 0.000000 -0.005782 0.000000
# 2 -0.002484 0.006970 -0.004236 0.000001 0.005853 0.000000
# 3 -0.000408 -0.004236 0.017137 -0.000004 -0.018881 -0.000001
# 4 0.000000 0.000001 -0.000004 0.038601 0.000006 0.007580
# 5 -0.005782 0.005853 -0.018881 0.000006 0.067132 0.000002
# 6 0.000000 0.000000 -0.000001 0.007580 0.000002 0.028758
#
#
# Mechanical properties :
#
#
# Convention : Reuss Voigt Hill
#
# Bulk Modulus (GPa) = 49.12330 73.35419 61.23874
# Shear Modulus (GPa) = 26.29594 36.02273 31.15934
#
# Velocity S-wave (km/s) = 3.82317 4.47474 4.16172
# Velocity P-wave (km/s) = 6.84062 8.21412 7.55863
#
# Compressibility (1/GPa) = 0.02035694
#
# Stress axis : x y z
#
# Youngs Moduli (GPa) = 95.19405 143.46768 58.35451
#
# Poissons Ratio (x) = 0.35635 0.02380
# Poissons Ratio (y) = 0.23644 0.24718
# Poissons Ratio (z) = 0.03882 0.60770
#
# Static dielectric constant tensor:
#      x y z
#    x 1.633960 0.000000 0.010840 
#    y 0.000000 1.641980 0.000000 
#    z 0.010840 0.000000 1.624160 
# 
# From -- ./inp_files/47942.got.cif
#   From: 2010.05.17/outbox.cif.g08.bks.cpg/sg12_24_cif.got.tgz:47942.got - 2010.06.03 13:09:07.
