data_PCOD9218422
_publ_section_title
;
Structure prediction by ZEFSAII (Michael W. Deem and Ramdas Pophale) SiO2 
 PCOD9218422
Probable space group: C 2/M
;
_chemical_formula_sum "Si O2"
_cell_formula_units_Z 42
_cell_length_a 8.230188
_cell_length_b 31.161681
_cell_length_c 8.783574
_cell_angle_alpha 90.000000
_cell_angle_beta 58.728674
_cell_angle_gamma 90.000000
_cell_volume 1925.418380
_symmetry_space_group_name_H-M "C 2/M"
_symmetry_group_IT_number 12
_symmetry_cell_setting 'monoclinic'
loop_
_space_group_symop_operation_xyz
x,y,z
-x,y,-z
-x,-y,-z
x,-y,z
1/2+x,1/2+y,z
1/2-x,1/2+y,-z
1/2-x,1/2-y,-z
1/2+x,1/2-y,z
loop_
_atom_site_type_symbol
_atom_site_label
_atom_site_fract_x
_atom_site_fract_y
_atom_site_fract_z
Si Si1 0.565729 0.845473 0.319990
Si Si2 0.789966 0.701394 0.029699
Si Si3 0.193370 0.869341 0.308559
Si Si4 0.293119 0.450889 0.906136
Si Si5 0.762401 0.933208 0.263039
Si Si6 0.000000 0.500000 0.500000
O O1 0.500000 0.819238 0.500000
O O2 0.373719 0.858930 0.326498
O O3 0.688590 0.885567 0.317720
O O4 0.699476 0.822814 0.134972
O O5 0.668901 0.671610 0.205213
O O6 0.750000 0.750000 0.000000
O O7 0.000000 0.701016 0.000000
O O8 0.255308 0.911705 0.182020
O O9 0.000000 0.876385 0.500000
O O10 0.262647 0.500000 0.866457
O O11 0.515827 0.441764 0.827559
O O12 0.203063 0.447368 0.119539
O O13 0.661344 0.962871 0.433107
#
# Coordination Sequence:
#
# PCOD9218422 Si02
#       6
#     8   8   8   8   8   2
#     4  11  23  43  66  94 128 171 215 261 324 382
#     4  10  24  45  70  96 128 163 208 264 326 391
#     4  11  25  43  64  96 135 167 214 270 315 380
#     4  11  22  41  59  91 131 175 219 257 318 371
#     4  11  21  36  63  90 127 172 213 265 311 376
#     4  12  20  34  60 100 126 164 230 264 306 368
#
# _framework density 21.813441999999998
#
# number of rings (size 3 to 8) (size 9 to 14) (size 15 to 20)
#    0.000    1.143    4.762    1.714    0.000    4.190 
#    1.714    4.762    0.000    0.000    0.000    0.000 
#    0.000    0.000    0.000    0.000    0.000    0.000 
#
# Total GULP energy -116958.275072 kJ/mol
# GULP energy per Si atom -5569.441670 kJ/mol
# Density = 2.176379 g / cm^3
# Si number density = 21.813442 Si / 1000 Ang^3
#
#
#
# Elastic Constant Matrix: (Units=GPa)
#
#
# Indices 1 2 3 4 5 6 
#
# 1 26.7890 6.6359 1.7183 0.0000 5.6154 0.0000
# 2 6.6359 121.7172 29.0925 0.0000 20.5266 0.0000
# 3 1.7183 29.0925 56.2519 0.0000 17.6745 0.0000
# 4 0.0000 0.0000 0.0000 0.4865 0.0000 -8.3397
# 5 5.6154 20.5266 17.6745 0.0000 30.7271 0.0000
# 6 0.0000 0.0000 0.0000 -8.3397 0.0000 20.5815
#
#
#
# Elastic Compliance Matrix: (Units=1/GPa)
#
#
# Indices 1 2 3 4 5 6 
#
# 1 0.039069 -0.001328 0.001780 0.000000 -0.007276 0.000000
# 2 -0.001328 0.009895 -0.003755 0.000000 -0.004208 0.000000
# 3 0.001780 -0.003755 0.023166 0.000000 -0.011142 0.000000
# 4 0.000000 0.000000 0.000000 -0.345683 0.000000 -0.140072
# 5 -0.007276 -0.004208 -0.011142 0.000000 0.043094 0.000000
# 6 0.000000 0.000000 0.000000 -0.140072 0.000000 -0.008170
#
#
# Mechanical properties :
#
#
# Convention : Reuss Voigt Hill
#
# Bulk Modulus (GPa) = 15.26189 31.07239 23.16714
# Shear Modulus (GPa) = -23.78893 21.51310 -1.13792
#
# Velocity S-wave (km/s) = -3.30595 3.14384 -0.72304
# Velocity P-wave (km/s) = 2.74967 5.23964 3.15382
#
# Compressibility (1/GPa) = 0.06552268
#
# Stress axis : x y z
#
# Youngs Moduli (GPa) = 25.59584 101.05815 43.16732
#
# Poissons Ratio (x) = 0.13423 -0.07683
# Poissons Ratio (y) = 0.03400 0.16209
# Poissons Ratio (z) = -0.04555 0.37948
#
# Static dielectric constant tensor:
#      x y z
#    x 1.842460 0.000000 0.006110 
#    y 0.000000 1.781180 0.000000 
#    z 0.006110 0.000000 1.933480 
# 
# From -- ./inp_files/42052.got.cif
#   From: 2010.05.17/outbox.cif.g08.bks.cpg/sg12_22_cif.got.tgz:42052.got - 2010.06.03 13:09:07.
