data_PCOD9218351
_publ_section_title
;
Structure prediction by ZEFSAII (Michael W. Deem and Ramdas Pophale) SiO2 
 PCOD9218351
Probable space group: C 2/M
;
_chemical_formula_sum "Si O2"
_cell_formula_units_Z 30
_cell_length_a 8.297969
_cell_length_b 30.919088
_cell_length_c 9.223429
_cell_angle_alpha 90.000000
_cell_angle_beta 31.844975
_cell_angle_gamma 90.000000
_cell_volume 1248.574379
_symmetry_space_group_name_H-M "C 2/M"
_symmetry_group_IT_number 12
_symmetry_cell_setting 'monoclinic'
loop_
_space_group_symop_operation_xyz
x,y,z
-x,y,-z
-x,-y,-z
x,-y,z
1/2+x,1/2+y,z
1/2-x,1/2+y,-z
1/2-x,1/2-y,-z
1/2+x,1/2-y,z
loop_
_atom_site_type_symbol
_atom_site_label
_atom_site_fract_x
_atom_site_fract_y
_atom_site_fract_z
Si Si1 0.782023 0.703926 0.395719
Si Si2 0.353952 0.000000 0.768865
Si Si3 0.916437 0.160595 0.901374
Si Si4 0.268659 0.070127 0.063055
Si Si5 0.000000 0.000000 0.500000
O O1 0.500000 0.701162 0.500000
O O2 0.750000 0.750000 0.500000
O O3 0.701446 0.670081 0.581714
O O4 0.118791 0.689694 0.085019
O O5 0.500000 0.000000 0.500000
O O6 0.422878 0.960201 0.823038
O O7 0.000000 0.000000 0.000000
O O8 0.872239 0.109467 0.916398
O O9 0.000000 0.172952 0.000000
O O10 0.085358 0.037618 0.309363
O O11 0.500000 0.091576 0.000000
#
# Coordination Sequence:
#
# PCOD9218351 Si02
#       5
#     8   4   8   8   2
#     4  12  26  49  77 111 151 198 246 306 380 452
#     4  11  26  43  68  98 139 183 236 305 369 436
#     4  12  27  47  74 112 150 196 251 314 371 450
#     4  11  26  45  71 103 143 199 253 308 382 449
#     4  10  24  44  72 100 146 196 254 320 370 456
#
# _framework density 24.027404000000001
#
# number of rings (size 3 to 8) (size 9 to 14) (size 15 to 20)
#    0.000    0.533    0.000    8.000   13.067    2.133 
#    0.000    0.000    0.000    0.000    0.000    0.000 
#    0.000    0.000    0.000    0.000    0.000    0.000 
#
# Total GULP energy -83602.248946 kJ/mol
# GULP energy per Si atom -5573.483263 kJ/mol
# Density = 2.397272 g / cm^3
# Si number density = 24.027404 Si / 1000 Ang^3
#
#
#
# Elastic Constant Matrix: (Units=GPa)
#
#
# Indices 1 2 3 4 5 6 
#
# 1 137.8858 -18.0585 18.1273 0.0000 14.4062 0.0000
# 2 -18.0585 105.8613 1.2236 0.0000 1.2966 0.0000
# 3 18.1273 1.2236 137.4949 0.0000 16.3075 0.0000
# 4 0.0000 0.0000 0.0000 -150.1603 0.0000 123.3309
# 5 14.4062 1.2966 16.3075 0.0000 46.5455 0.0000
# 6 0.0000 0.0000 0.0000 123.3309 0.0000 -47.0766
#
#
#
# Elastic Compliance Matrix: (Units=1/GPa)
#
#
# Indices 1 2 3 4 5 6 
#
# 1 0.007759 0.001359 -0.000778 0.000000 -0.002167 0.000000
# 2 0.001359 0.009688 -0.000191 0.000000 -0.000623 0.000000
# 3 -0.000778 -0.000191 0.007667 0.000000 -0.002440 0.000000
# 4 0.000000 0.000000 0.000000 0.005782 0.000000 0.015148
# 5 -0.002167 -0.000623 -0.002440 0.000000 0.023027 0.000000
# 6 0.000000 0.000000 0.000000 0.015148 0.000000 0.018444
#
#
# Mechanical properties :
#
#
# Convention : Reuss Voigt Hill
#
# Bulk Modulus (GPa) = 38.62057 42.64743 40.63400
# Shear Modulus (GPa) = 62.32946 -4.80829 28.76059
#
# Velocity S-wave (km/s) = 5.09876 -1.41616 3.46351
# Velocity P-wave (km/s) = 7.12541 3.88767 5.73958
#
# Compressibility (1/GPa) = 0.02589294
#
# Stress axis : x y z
#
# Youngs Moduli (GPa) = 128.88180 103.22024 130.43484
#
# Poissons Ratio (x) = -0.14029 0.10149
# Poissons Ratio (y) = -0.17517 0.02497
# Poissons Ratio (z) = 0.10028 0.01976
#
# Static dielectric constant tensor:
#      x y z
#    x 2.029100 0.000000 -0.139100 
#    y 0.000000 1.810360 0.000000 
#    z -0.139100 0.000000 1.918380 
# 
# From -- ./inp_files/41274.got.cif
#   From: 2010.05.17/outbox.cif.g08.bks.cpg/sg12_21_cif.got.tgz:41274.got - 2010.06.03 13:09:07.
