data_PCOD9218120
_publ_section_title
;
Structure prediction by ZEFSAII (Michael W. Deem and Ramdas Pophale) SiO2 
 PCOD9218120
Probable space group: C 2/M
;
_chemical_formula_sum "Si O2"
_cell_formula_units_Z 36
_cell_length_a 8.463736
_cell_length_b 10.825174
_cell_length_c 18.587655
_cell_angle_alpha 90.000000
_cell_angle_beta 68.166395
_cell_angle_gamma 90.000000
_cell_volume 1580.865450
_symmetry_space_group_name_H-M "C 2/M"
_symmetry_group_IT_number 12
_symmetry_cell_setting 'monoclinic'
loop_
_space_group_symop_operation_xyz
x,y,z
-x,y,-z
-x,-y,-z
x,-y,z
1/2+x,1/2+y,z
1/2-x,1/2+y,-z
1/2-x,1/2-y,-z
1/2+x,1/2-y,z
loop_
_atom_site_type_symbol
_atom_site_label
_atom_site_fract_x
_atom_site_fract_y
_atom_site_fract_z
Si Si1 0.920731 0.184800 0.943220
Si Si2 0.000000 0.756610 0.500000
Si Si3 0.452242 0.138211 0.268918
Si Si4 0.669247 0.639317 0.609320
Si Si5 0.255469 0.304679 0.831077
O O1 0.866451 0.130456 0.874709
O O2 0.072301 0.277355 0.896746
O O3 0.750000 0.250000 0.000000
O O4 0.000000 0.120180 0.000000
O O5 0.866723 0.670759 0.564336
O O6 0.910316 0.841750 0.456119
O O7 0.405193 0.251699 0.328764
O O8 0.634539 0.180942 0.205044
O O9 0.301752 0.136430 0.234442
O O10 0.463981 0.000000 0.298107
O O11 0.640948 0.500000 0.640793
#
# Coordination Sequence:
#
# PCOD9218120 Si02
#       5
#     8   4   8   8   8
#     4   8  14  30  60  88 116 162 215 259 309 377
#     4  10  24  42  66  96 128 160 202 262 320 374
#     4  11  24  40  60  91 130 169 212 260 312 375
#     4  11  24  43  67  94 125 165 211 258 313 375
#     4   9  19  35  58  86 121 169 209 254 314 377
#
# _framework density 22.772335999999999
#
# number of rings (size 3 to 8) (size 9 to 14) (size 15 to 20)
#    0.000    2.222    0.000    2.000    0.000   10.667 
#    0.000    3.333    0.000   84.000    0.000    0.000 
#    0.000    0.000    0.000    0.000    0.000    0.000 
#
# Total GULP energy -100234.497679 kJ/mol
# GULP energy per Si atom -5568.583204 kJ/mol
# Density = 2.272051 g / cm^3
# Si number density = 22.772336 Si / 1000 Ang^3
#
#
#
# Elastic Constant Matrix: (Units=GPa)
#
#
# Indices 1 2 3 4 5 6 
#
# 1 119.6406 31.5940 18.9432 0.0000 -3.5679 0.0000
# 2 31.5940 176.5623 46.5003 0.0000 -7.2345 0.0000
# 3 18.9432 46.5003 73.2149 0.0000 -8.8799 0.0000
# 4 0.0000 0.0000 0.0000 125.2926 0.0000 -6.5743
# 5 -3.5679 -7.2345 -8.8799 0.0000 40.1733 0.0000
# 6 0.0000 0.0000 0.0000 -6.5743 0.0000 -12.2501
#
#
#
# Elastic Compliance Matrix: (Units=1/GPa)
#
#
# Indices 1 2 3 4 5 6 
#
# 1 0.008920 -0.001184 -0.001526 0.000000 0.000242 0.000000
# 2 -0.001184 0.006962 -0.004085 0.000000 0.000245 0.000000
# 3 -0.001526 -0.004085 0.016998 0.000000 0.002886 0.000000
# 4 0.000000 0.000000 0.000000 0.007763 0.000000 -0.004166
# 5 0.000242 0.000245 0.002886 0.000000 0.025596 0.000000
# 6 0.000000 0.000000 0.000000 -0.004166 0.000000 -0.079396
#
#
# Mechanical properties :
#
#
# Convention : Reuss Voigt Hill
#
# Bulk Modulus (GPa) = 51.84665 62.61031 57.22848
# Shear Modulus (GPa) = 728.54581 48.80184 388.67383
#
# Velocity S-wave (km/s) = 17.90587 4.63431 13.07855
# Velocity P-wave (km/s) = 21.22052 7.49597 15.91383
#
# Compressibility (1/GPa) = 0.01928765
#
# Stress axis : x y z
#
# Youngs Moduli (GPa) = 112.10777 143.64493 58.83022
#
# Poissons Ratio (x) = 0.17011 0.08980
# Poissons Ratio (y) = 0.13276 0.24034
# Poissons Ratio (z) = 0.17113 0.58683
#
# Static dielectric constant tensor:
#      x y z
#    x 1.864210 0.000000 0.041320 
#    y 0.000000 3.119680 0.000000 
#    z 0.041320 0.000000 1.914650 
# 
# From -- ./inp_files/254547.got.cif
#   From: 2010.05.17/outbox.cif.g08.bks.cpg/sg12_128_cif.got.tgz:254547.got - 2010.06.03 13:09:07.
