data_PCOD9218160
_publ_section_title
;
Structure prediction by ZEFSAII (Michael W. Deem and Ramdas Pophale) SiO2 
 PCOD9218160
Probable space group: C 2/M
;
_chemical_formula_sum "Si O2"
_cell_formula_units_Z 48
_cell_length_a 19.797569
_cell_length_b 14.912633
_cell_length_c 18.372080
_cell_angle_alpha 90.000000
_cell_angle_beta 152.706508
_cell_angle_gamma 90.000000
_cell_volume 2487.195430
_symmetry_space_group_name_H-M "C 2/M"
_symmetry_group_IT_number 12
_symmetry_cell_setting 'monoclinic'
loop_
_space_group_symop_operation_xyz
x,y,z
-x,y,-z
-x,-y,-z
x,-y,z
1/2+x,1/2+y,z
1/2-x,1/2+y,-z
1/2-x,1/2-y,-z
1/2+x,1/2-y,z
loop_
_atom_site_type_symbol
_atom_site_label
_atom_site_fract_x
_atom_site_fract_y
_atom_site_fract_z
Si Si1 0.880252 0.820866 0.696182
Si Si2 0.343135 0.325657 0.822504
Si Si3 0.531014 0.500000 0.783919
Si Si4 0.885846 0.203768 0.322973
Si Si5 0.033215 0.681733 0.334085
Si Si6 0.071063 0.000000 0.651803
Si Si7 0.830998 0.500000 0.316282
Si Si8 0.151818 0.500000 0.840539
O O1 0.872772 0.788905 0.771432
O O2 0.969025 0.746169 0.737206
O O3 0.708235 0.833540 0.511224
O O4 0.960841 0.913538 0.755520
O O5 0.262641 0.254151 0.796165
O O6 0.238563 0.411196 0.717299
O O7 0.500000 0.357926 0.000000
O O8 0.497279 0.500000 0.663722
O O9 0.705153 0.500000 0.970512
O O10 0.000000 0.207400 0.500000
O O11 0.963933 0.260167 0.333692
O O12 0.856956 0.099190 0.277742
O O13 0.945321 0.589433 0.241786
O O14 0.000000 0.000000 0.500000
O O15 0.805698 0.500000 0.204953
O O16 0.000000 0.500000 0.500000
#
# Coordination Sequence:
#
# PCOD9218160 Si02
#       8
#     8   8   4   8   8   4   4   4
#     4  11  24  41  64  95 127 171 215 274 317 377
#     4  12  24  39  62  95 131 167 211 268 325 383
#     4  12  24  42  64  98 142 165 213 270 336 376
#     4  11  21  44  68  94 124 171 224 263 319 390
#     4  11  23  42  66  92 132 169 221 259 323 386
#     4  10  24  42  73  96 119 171 230 269 308 386
#     4  12  22  39  67  91 130 175 221 263 314 392
#     4  12  25  39  64 102 132 178 207 267 327 397
#
# _framework density 19.298846000000001
#
# number of rings (size 3 to 8) (size 9 to 14) (size 15 to 20)
#    0.000    0.667    5.000    3.750    0.000    2.000 
#    0.000    1.250    0.000    0.000    0.000    0.000 
#    0.000    0.000    0.000    0.000    0.000    0.000 
#
# Total GULP energy -133897.942503 kJ/mol
# GULP energy per Si atom -5579.080938 kJ/mol
# Density = 1.925492 g / cm^3
# Si number density = 19.298846 Si / 1000 Ang^3
#
#
#
# Elastic Constant Matrix: (Units=GPa)
#
#
# Indices 1 2 3 4 5 6 
#
# 1 132.7687 61.0418 20.1214 0.0002 18.7347 0.0002
# 2 61.0418 162.9094 21.8433 -0.0007 16.6515 0.0001
# 3 20.1214 21.8433 50.3160 -0.0001 8.3548 0.0006
# 4 0.0002 -0.0007 -0.0001 -169.0502 -0.0006 -66.5556
# 5 18.7347 16.6515 8.3548 -0.0006 8.8120 0.0000
# 6 0.0002 0.0001 0.0006 -66.5556 0.0000 -11.8316
#
#
#
# Elastic Compliance Matrix: (Units=1/GPa)
#
#
# Indices 1 2 3 4 5 6 
#
# 1 0.011376 -0.002204 -0.000318 0.000000 -0.019719 0.000000
# 2 -0.002204 0.008085 -0.001032 0.000000 -0.009613 0.000000
# 3 -0.000318 -0.001032 0.023753 0.000000 -0.019894 -0.000001
# 4 0.000000 0.000000 0.000000 0.004870 0.000000 -0.027395
# 5 -0.019719 -0.009613 -0.019894 0.000000 0.192431 -0.000002
# 6 0.000000 0.000000 -0.000001 -0.027395 -0.000002 0.069582
#
#
# Mechanical properties :
#
#
# Convention : Reuss Voigt Hill
#
# Bulk Modulus (GPa) = 27.69701 61.33412 44.51556
# Shear Modulus (GPa) = 15.18641 -18.21477 -1.51418
#
# Velocity S-wave (km/s) = 2.80823 -3.07551 -0.88674
# Velocity P-wave (km/s) = 4.98976 4.38618 4.69767
#
# Compressibility (1/GPa) = 0.03610498
#
# Stress axis : x y z
#
# Youngs Moduli (GPa) = 87.90363 123.68044 42.09990
#
# Poissons Ratio (x) = 0.27264 0.01339
# Poissons Ratio (y) = 0.19378 0.04346
# Poissons Ratio (z) = 0.02796 0.12767
#
# Static dielectric constant tensor:
#      x y z
#    x 1.768170 0.000000 -0.225300 
#    y 0.000000 1.657390 0.000000 
#    z -0.225300 0.000000 2.050110 
# 
# From -- ./inp_files/86021.got.cif
#   From: 2010.05.17/outbox.cif.g08.bks.cpg/sg12_44_cif.got.tgz:86021.got - 2010.06.03 13:09:07.
