data_PCOD9218195
_publ_section_title
;
Structure prediction by ZEFSAII (Michael W. Deem and Ramdas Pophale) SiO2 
 PCOD9218195
Probable space group: C 2/M
;
_chemical_formula_sum "Si O2"
_cell_formula_units_Z 44
_cell_length_a 14.509149
_cell_length_b 26.951536
_cell_length_c 6.426109
_cell_angle_alpha 90.000000
_cell_angle_beta 51.238273
_cell_angle_gamma 90.000000
_cell_volume 1959.442272
_symmetry_space_group_name_H-M "C 2/M"
_symmetry_group_IT_number 12
_symmetry_cell_setting 'monoclinic'
loop_
_space_group_symop_operation_xyz
x,y,z
-x,y,-z
-x,-y,-z
x,-y,z
1/2+x,1/2+y,z
1/2-x,1/2+y,-z
1/2-x,1/2-y,-z
1/2+x,1/2-y,z
loop_
_atom_site_type_symbol
_atom_site_label
_atom_site_fract_x
_atom_site_fract_y
_atom_site_fract_z
Si Si1 0.887825 0.446558 0.805450
Si Si2 0.256102 0.444029 0.387883
Si Si3 0.000000 0.097732 0.000000
Si Si4 0.395505 0.329071 0.796267
Si Si5 0.683272 0.135773 0.814571
Si Si6 0.359230 0.249096 0.172953
O O1 0.879184 0.500000 0.925191
O O2 0.777233 0.440939 0.807387
O O3 0.000000 0.447895 0.500000
O O4 0.897806 0.400306 0.938089
O O5 0.218917 0.500000 0.503858
O O6 0.394224 0.436561 0.226184
O O7 0.202541 0.395990 0.578616
O O8 0.950990 0.132687 0.884243
O O9 0.500000 0.307970 0.500000
O O10 0.306329 0.356541 0.765401
O O11 0.329469 0.286478 0.024756
O O12 0.634301 0.190657 0.873363
O O13 0.250000 0.250000 0.500000
O O14 0.500000 0.263724 0.000000
#
# Coordination Sequence:
#
# PCOD9218195 Si02
#       6
#     8   8   4   8   8   8
#     4  10  24  43  65  95 135 181 227 286 355 421
#     4  11  24  43  69 103 141 180 235 297 358 429
#     4  12  21  44  70 102 144 182 233 294 368 432
#     4  12  24  46  71 102 145 189 235 298 370 433
#     4  12  25  42  70 100 135 183 237 290 353 436
#     4  12  28  48  74 106 148 193 246 306 370 435
#
# _framework density 22.455369999999998
#
# number of rings (size 3 to 8) (size 9 to 14) (size 15 to 20)
#    0.000    0.545    4.545    3.545    2.545    0.727 
#    0.000    3.636    0.000    0.000    0.000    0.000 
#    0.000    0.000    0.000    0.000    0.000    0.000 
#
# Total GULP energy -122720.326045 kJ/mol
# GULP energy per Si atom -5578.196638 kJ/mol
# Density = 2.240426 g / cm^3
# Si number density = 22.455370 Si / 1000 Ang^3
#
#
#
# Elastic Constant Matrix: (Units=GPa)
#
#
# Indices 1 2 3 4 5 6 
#
# 1 64.4750 1.6004 -6.0817 0.0000 -14.4456 0.0000
# 2 1.6004 144.1534 30.5772 0.0000 9.6796 0.0000
# 3 -6.0817 30.5772 101.6577 0.0000 -9.2259 0.0000
# 4 0.0000 0.0000 0.0000 46.1869 0.0000 5.7238
# 5 -14.4456 9.6796 -9.2259 0.0000 20.3744 0.0000
# 6 0.0000 0.0000 0.0000 5.7238 0.0000 29.0674
#
#
#
# Elastic Compliance Matrix: (Units=1/GPa)
#
#
# Indices 1 2 3 4 5 6 
#
# 1 0.019505 -0.001995 0.003241 0.000000 0.016244 0.000000
# 2 -0.001995 0.008077 -0.003155 0.000000 -0.006680 0.000000
# 3 0.003241 -0.003155 0.011810 0.000000 0.009145 0.000000
# 4 0.000000 0.000000 0.000000 0.022193 0.000000 -0.004370
# 5 0.016244 -0.006680 0.009145 0.000000 0.067913 0.000000
# 6 0.000000 0.000000 0.000000 -0.004370 0.000000 0.035263
#
#
# Mechanical properties :
#
#
# Convention : Reuss Voigt Hill
#
# Bulk Modulus (GPa) = 28.11044 40.27533 34.19289
# Shear Modulus (GPa) = 27.71060 38.07175 32.89117
#
# Velocity S-wave (km/s) = 3.51669 4.12204 3.83134
# Velocity P-wave (km/s) = 5.38841 6.37414 5.90189
#
# Compressibility (1/GPa) = 0.03557397
#
# Stress axis : x y z
#
# Youngs Moduli (GPa) = 51.26971 123.80810 84.67574
#
# Poissons Ratio (x) = 0.24698 -0.27445
# Poissons Ratio (y) = 0.10227 0.26716
# Poissons Ratio (z) = -0.16617 0.39062
#
# Static dielectric constant tensor:
#      x y z
#    x 1.934730 0.000000 -0.020850 
#    y 0.000000 1.785320 0.000000 
#    z -0.020850 0.000000 1.884590 
# 
# From -- ./inp_files/12323.got.cif
#   From: 2010.05.17/outbox.cif.g08.bks.cpg/sg12_7_cif.got.tgz:12323.got - 2010.06.03 13:09:07.
