data_PCOD9218577
_publ_section_title
;
Structure prediction by ZEFSAII (Michael W. Deem and Ramdas Pophale) SiO2 
 PCOD9218577
Probable space group: C 2/M
;
_chemical_formula_sum "Si O2"
_cell_formula_units_Z 22
_cell_length_a 5.352948
_cell_length_b 21.379175
_cell_length_c 8.485372
_cell_angle_alpha 90.000000
_cell_angle_beta 63.718080
_cell_angle_gamma 90.000000
_cell_volume 870.695456
_symmetry_space_group_name_H-M "C 2/M"
_symmetry_group_IT_number 12
_symmetry_cell_setting 'monoclinic'
loop_
_space_group_symop_operation_xyz
x,y,z
-x,y,-z
-x,-y,-z
x,-y,z
1/2+x,1/2+y,z
1/2-x,1/2+y,-z
1/2-x,1/2-y,-z
1/2+x,1/2-y,z
loop_
_atom_site_type_symbol
_atom_site_label
_atom_site_fract_x
_atom_site_fract_y
_atom_site_fract_z
Si Si1 0.571866 0.274462 0.699852
Si Si2 0.748852 0.396907 0.170031
Si Si3 0.000000 0.000000 0.000000
Si Si4 0.330426 0.000000 0.387262
O O1 0.750000 0.250000 0.500000
O O2 0.290102 0.233430 0.780400
O O3 0.463194 0.344765 0.711240
O O4 0.591618 0.445997 0.103230
O O5 0.891252 0.438415 0.267821
O O6 0.000000 0.367717 0.000000
O O7 0.500000 0.000000 0.500000
O O8 0.000000 0.000000 0.500000
#
# Coordination Sequence:
#
# PCOD9218577 Si02
#       4
#     8   8   2   4
#     4  10  25  49  75 111 155 210 264 327 398 470
#     4  11  27  49  80 115 166 210 271 334 400 489
#     4  10  24  48  76 116 158 212 260 324 416 470
#     4  11  28  47  78 118 155 215 267 333 405 474
#
# _framework density 25.267160000000001
#
# number of rings (size 3 to 8) (size 9 to 14) (size 15 to 20)
#    0.000    1.455    0.000    2.182   20.364    1.455 
#    0.000    0.000    0.000    0.000    0.000    0.000 
#    0.000    0.000    0.000    0.000    0.000    0.000 
#
# Total GULP energy -61361.079820 kJ/mol
# GULP energy per Si atom -5578.279984 kJ/mol
# Density = 2.520965 g / cm^3
# Si number density = 25.267160 Si / 1000 Ang^3
#
#
#
# Elastic Constant Matrix: (Units=GPa)
#
#
# Indices 1 2 3 4 5 6 
#
# 1 203.5024 64.8282 70.4742 0.0000 26.7940 0.0000
# 2 64.8282 186.8166 64.7952 0.0000 3.5247 0.0000
# 3 70.4742 64.7952 110.1892 0.0000 6.7287 0.0000
# 4 0.0000 0.0000 0.0000 31.6918 0.0000 18.3530
# 5 26.7940 3.5247 6.7287 0.0000 59.2023 0.0000
# 6 0.0000 0.0000 0.0000 18.3530 0.0000 -69.8483
#
#
#
# Elastic Compliance Matrix: (Units=1/GPa)
#
#
# Indices 1 2 3 4 5 6 
#
# 1 0.006845 -0.001084 -0.003580 0.000000 -0.002626 0.000000
# 2 -0.001084 0.006896 -0.003390 0.000000 0.000465 0.000000
# 3 -0.003580 -0.003390 0.013340 0.000000 0.000306 0.000000
# 4 0.000000 0.000000 0.000000 0.027387 0.000000 0.007196
# 5 -0.002626 0.000465 0.000306 0.000000 0.018017 0.000000
# 6 0.000000 0.000000 0.000000 0.007196 0.000000 -0.012426
#
#
# Mechanical properties :
#
#
# Convention : Reuss Voigt Hill
#
# Bulk Modulus (GPa) = 91.13842 100.07816 95.60829
# Shear Modulus (GPa) = 62.63708 24.23652 43.43680
#
# Velocity S-wave (km/s) = 4.98435 3.10047 4.15070
# Velocity P-wave (km/s) = 8.32305 7.24646 7.80335
#
# Compressibility (1/GPa) = 0.01097232
#
# Stress axis : x y z
#
# Youngs Moduli (GPa) = 146.09518 145.00911 74.96332
#
# Poissons Ratio (x) = 0.15720 0.26836
# Poissons Ratio (y) = 0.15837 0.25414
# Poissons Ratio (z) = 0.52301 0.49162
#
# Static dielectric constant tensor:
#      x y z
#    x 12.487500 0.000000 8.910060 
#    y 0.000000 1.942200 0.000000 
#    z 8.910060 0.000000 9.810550 
# 
# From -- ./inp_files/33465.got.cif
#   From: 2010.05.17/outbox.cif.g08.bks.cpg/sg12_17_cif.got.tgz:33465.got - 2010.06.03 13:09:07.
