data_PCOD9218814
_publ_section_title
;
Structure prediction by ZEFSAII (Michael W. Deem and Ramdas Pophale) SiO2 
 PCOD9218814
Probable space group: C 2/M
;
_chemical_formula_sum "Si O2"
_cell_formula_units_Z 44
_cell_length_a 12.713628
_cell_length_b 18.749673
_cell_length_c 10.865350
_cell_angle_alpha 90.000000
_cell_angle_beta 56.397877
_cell_angle_gamma 90.000000
_cell_volume 2157.248441
_symmetry_space_group_name_H-M "C 2/M"
_symmetry_group_IT_number 12
_symmetry_cell_setting 'monoclinic'
loop_
_space_group_symop_operation_xyz
x,y,z
-x,y,-z
-x,-y,-z
x,-y,z
1/2+x,1/2+y,z
1/2-x,1/2+y,-z
1/2-x,1/2-y,-z
1/2+x,1/2-y,z
loop_
_atom_site_type_symbol
_atom_site_label
_atom_site_fract_x
_atom_site_fract_y
_atom_site_fract_z
Si Si1 0.634697 0.915729 0.347847
Si Si2 0.853192 0.000000 0.559375
Si Si3 0.532601 0.500000 0.120097
Si Si4 0.867121 0.120366 0.352899
Si Si5 0.708677 0.000000 0.908649
Si Si6 0.333137 0.140842 0.946748
Si Si7 0.447115 0.705500 0.897787
O O1 0.500000 0.909175 0.500000
O O2 0.740087 0.874566 0.357298
O O3 0.634483 0.886633 0.210507
O O4 0.669653 0.000000 0.325317
O O5 0.833756 0.925925 0.496053
O O6 0.000000 0.000000 0.500000
O O7 0.769452 0.000000 0.735030
O O8 0.464007 0.566983 0.223416
O O9 0.677589 0.500000 0.063784
O O10 0.500000 0.500000 0.000000
O O11 0.950073 0.191491 0.278088
O O12 0.641607 0.074586 0.979170
O O13 0.411152 0.211461 0.925768
O O14 0.184741 0.164208 0.043731
O O15 0.500000 0.685012 0.000000
#
# Coordination Sequence:
#
# PCOD9218814 Si02
#       7
#     8   4   4   8   4   8   8
#     4  11  22  40  66  95 125 159 219 274 322 385
#     4  11  20  36  61 104 138 165 210 259 335 389
#     4  11  17  28  61 101 116 154 211 256 319 367
#     4  11  20  37  64  95 129 168 210 268 322 391
#     4  12  21  39  62  99 137 165 209 273 321 386
#     4  11  23  40  66  96 126 167 214 274 327 381
#     4  11  22  40  65  96 130 165 218 270 326 389
#
# _framework density 20.396352
#
# number of rings (size 3 to 8) (size 9 to 14) (size 15 to 20)
#    0.000    0.909    8.182    1.636    0.000    0.000 
#    3.273    5.909    0.000    0.000    0.000    0.000 
#    0.000    0.000    0.000    0.818    0.000    0.000 
#
# Total GULP energy -122795.629791 kJ/mol
# GULP energy per Si atom -5581.619536 kJ/mol
# Density = 2.034993 g / cm^3
# Si number density = 20.396352 Si / 1000 Ang^3
#
#
#
# Elastic Constant Matrix: (Units=GPa)
#
#
# Indices 1 2 3 4 5 6 
#
# 1 52.7326 22.0332 25.0229 0.0000 -3.8449 0.0000
# 2 22.0332 123.4225 49.9777 0.0000 -5.4142 0.0000
# 3 25.0229 49.9777 117.2004 0.0000 13.3136 0.0000
# 4 0.0000 0.0000 0.0000 14.9392 0.0000 -2.1210
# 5 -3.8449 -5.4142 13.3136 0.0000 32.7670 0.0000
# 6 0.0000 0.0000 0.0000 -2.1210 0.0000 19.3069
#
#
#
# Elastic Compliance Matrix: (Units=1/GPa)
#
#
# Indices 1 2 3 4 5 6 
#
# 1 0.022155 -0.002029 -0.004322 0.000000 0.004021 0.000000
# 2 -0.002029 0.010372 -0.004358 0.000000 0.003247 0.000000
# 3 -0.004322 -0.004358 0.012007 0.000000 -0.006106 0.000000
# 4 0.000000 0.000000 0.000000 0.067999 0.000000 0.007470
# 5 0.004021 0.003247 -0.006106 0.000000 0.034008 0.000000
# 6 0.000000 0.000000 0.000000 0.007470 0.000000 0.052616
#
#
# Mechanical properties :
#
#
# Convention : Reuss Voigt Hill
#
# Bulk Modulus (GPa) = 43.25970 54.15814 48.70892
# Shear Modulus (GPa) = 21.90295 26.49073 24.19684
#
# Velocity S-wave (km/s) = 3.28054 3.60779 3.44805
# Velocity P-wave (km/s) = 5.96698 6.63064 6.30755
#
# Compressibility (1/GPa) = 0.02311620
#
# Stress axis : x y z
#
# Youngs Moduli (GPa) = 45.13605 96.41605 83.28227
#
# Poissons Ratio (x) = 0.19560 0.35994
# Poissons Ratio (y) = 0.09157 0.36298
# Poissons Ratio (z) = 0.19507 0.42023
#
# Static dielectric constant tensor:
#      x y z
#    x 1.662110 0.000000 -0.083400 
#    y 0.000000 1.688090 0.000000 
#    z -0.083400 0.000000 1.590960 
# 
# From -- ./inp_files/145379.got.cif
#   From: 2010.05.17/outbox.cif.g08.bks.cpg/sg12_73_cif.got.tgz:145379.got - 2010.06.03 13:09:07.
