data_PCOD9218309
_publ_section_title
;
Structure prediction by ZEFSAII (Michael W. Deem and Ramdas Pophale) SiO2 
 PCOD9218309
Probable space group: C 2/M
;
_chemical_formula_sum "Si O2"
_cell_formula_units_Z 42
_cell_length_a 9.334967
_cell_length_b 15.300214
_cell_length_c 17.694057
_cell_angle_alpha 90.000000
_cell_angle_beta 120.179884
_cell_angle_gamma 90.000000
_cell_volume 2184.631911
_symmetry_space_group_name_H-M "C 2/M"
_symmetry_group_IT_number 12
_symmetry_cell_setting 'monoclinic'
loop_
_space_group_symop_operation_xyz
x,y,z
-x,y,-z
-x,-y,-z
x,-y,z
1/2+x,1/2+y,z
1/2-x,1/2+y,-z
1/2-x,1/2-y,-z
1/2+x,1/2-y,z
loop_
_atom_site_type_symbol
_atom_site_label
_atom_site_fract_x
_atom_site_fract_y
_atom_site_fract_z
Si Si1 0.172358 0.156603 0.501437
Si Si2 0.356921 0.181310 0.910610
Si Si3 0.506810 0.244120 0.797529
Si Si4 0.177972 0.097773 0.334469
Si Si5 0.503447 0.098121 0.331035
Si Si6 0.000000 0.500000 0.000000
O O1 0.250000 0.250000 0.500000
O O2 0.149482 0.107860 0.415938
O O3 0.311201 0.110743 0.589470
O O4 0.000000 0.165319 0.500000
O O5 0.398280 0.201048 0.834519
O O6 0.178134 0.221551 0.877746
O O7 0.377293 0.078865 0.934936
O O8 0.500000 0.224894 0.000000
O O9 0.417262 0.326180 0.734702
O O10 0.535664 0.170964 0.741393
O O11 0.372185 0.107746 0.364640
O O12 0.127943 0.000000 0.297050
O O13 0.483285 0.000000 0.294782
#
# Coordination Sequence:
#
# PCOD9218309 Si02
#       6
#     8   8   8   8   8   2
#     4  12  25  42  65  96 132 182 229 271 334 387
#     4  10  24  44  67  97 133 166 217 266 335 395
#     4  12  23  43  68 100 130 176 216 269 325 398
#     4  11  25  43  65  96 136 177 221 275 329 387
#     4  11  25  43  65  96 136 177 221 275 329 387
#     4   8  24  44  72 102 126 174 204 278 332 392
#
# _framework density 19.225207000000001
#
# number of rings (size 3 to 8) (size 9 to 14) (size 15 to 20)
#    0.571    0.381    3.810    2.857    5.333    3.048 
#    0.000    0.000    0.000    2.286    0.000    0.000 
#    0.000    0.000    0.000    0.000    0.000    0.000 
#
# Total GULP energy -116995.362030 kJ/mol
# GULP energy per Si atom -5571.207716 kJ/mol
# Density = 1.918145 g / cm^3
# Si number density = 19.225207 Si / 1000 Ang^3
#
#
#
# Elastic Constant Matrix: (Units=GPa)
#
#
# Indices 1 2 3 4 5 6 
#
# 1 102.4731 30.4028 8.3315 0.0000 5.8530 0.0000
# 2 30.4028 126.5769 24.9850 0.0000 10.4483 0.0000
# 3 8.3315 24.9850 60.4561 0.0000 13.7289 0.0000
# 4 0.0000 0.0000 0.0000 -7.9545 0.0000 -5.8383
# 5 5.8530 10.4483 13.7289 0.0000 38.0771 0.0000
# 6 0.0000 0.0000 0.0000 -5.8383 0.0000 17.9948
#
#
#
# Elastic Compliance Matrix: (Units=1/GPa)
#
#
# Indices 1 2 3 4 5 6 
#
# 1 0.010544 -0.002410 -0.000261 0.000000 -0.000866 0.000000
# 2 -0.002410 0.009201 -0.003247 0.000000 -0.000984 0.000000
# 3 -0.000261 -0.003247 0.019287 0.000000 -0.006023 0.000000
# 4 0.000000 0.000000 0.000000 -0.101536 0.000000 -0.032943
# 5 -0.000866 -0.000984 -0.006023 0.000000 0.028837 0.000000
# 6 0.000000 0.000000 0.000000 -0.032943 0.000000 0.044884
#
#
# Mechanical properties :
#
#
# Convention : Reuss Voigt Hill
#
# Bulk Modulus (GPa) = 36.76898 46.32719 41.54809
# Shear Modulus (GPa) = 155.67982 24.67593 90.17788
#
# Velocity S-wave (km/s) = 9.00848 3.58651 6.85623
# Velocity P-wave (km/s) = 11.28586 6.42652 9.18343
#
# Compressibility (1/GPa) = 0.02719684
#
# Stress axis : x y z
#
# Youngs Moduli (GPa) = 94.83849 108.68036 51.84968
#
# Poissons Ratio (x) = 0.26189 0.01352
# Poissons Ratio (y) = 0.22854 0.16837
# Poissons Ratio (z) = 0.02472 0.35291
#
# Static dielectric constant tensor:
#      x y z
#    x 1.679310 0.000000 -0.000120 
#    y 0.000000 1.669920 0.000000 
#    z -0.000120 0.000000 1.662750 
# 
# From -- ./inp_files/255683.got.cif
#   From: 2010.05.17/outbox.cif.g08.bks.cpg/sg12_128_cif.got.tgz:255683.got - 2010.06.03 13:09:07.
