data_PCOD9218803
_publ_section_title
;
Structure prediction by ZEFSAII (Michael W. Deem and Ramdas Pophale) SiO2 
 PCOD9218803
Probable space group: C 2/M
;
_chemical_formula_sum "Si O2"
_cell_formula_units_Z 28
_cell_length_a 12.041734
_cell_length_b 20.529623
_cell_length_c 5.254092
_cell_angle_alpha 90.000000
_cell_angle_beta 104.356013
_cell_angle_gamma 90.000000
_cell_volume 1258.316993
_symmetry_space_group_name_H-M "C 2/M"
_symmetry_group_IT_number 12
_symmetry_cell_setting 'monoclinic'
loop_
_space_group_symop_operation_xyz
x,y,z
-x,y,-z
-x,-y,-z
x,-y,z
1/2+x,1/2+y,z
1/2-x,1/2+y,-z
1/2-x,1/2-y,-z
1/2+x,1/2-y,z
loop_
_atom_site_type_symbol
_atom_site_label
_atom_site_fract_x
_atom_site_fract_y
_atom_site_fract_z
Si Si1 0.365440 0.000000 0.634100
Si Si2 0.000000 0.618174 0.500000
Si Si3 0.323337 0.765645 0.288318
Si Si4 0.000000 0.160211 0.500000
Si Si5 0.707039 0.500000 0.035194
Si Si6 0.500000 0.406627 0.000000
O O1 0.442112 0.065968 0.660617
O O2 0.292118 0.000000 0.847517
O O3 0.280918 0.000000 0.337901
O O4 0.897058 0.666810 0.347434
O O5 0.250000 0.750000 0.500000
O O6 0.413321 0.708104 0.318950
O O7 0.250000 0.750000 0.000000
O O8 0.049850 0.122590 0.289728
O O9 0.614899 0.441845 0.966077
#
# Coordination Sequence:
#
# PCOD9218803 Si02
#       6
#     4   4   8   4   4   4
#     4  11  26  47  76 103 147 194 229 310 354 421
#     4  10  28  49  72 113 144 182 258 284 358 448
#     4  11  26  45  73 104 141 188 233 298 363 424
#     4  11  24  42  70 104 136 185 232 300 356 429
#     4  11  26  43  72 105 139 195 232 295 361 409
#     4  11  24  44  68 108 144 177 252 288 344 451
#
# _framework density 22.251944999999999
#
# number of rings (size 3 to 8) (size 9 to 14) (size 15 to 20)
#    0.000    1.143    0.000    3.429   12.000   10.286 
#    0.000    0.000    0.000    0.000    0.000    0.000 
#    0.000    0.000    0.000    0.000    0.000    0.000 
#
# Total GULP energy -78018.454488 kJ/mol
# GULP energy per Si atom -5572.746749 kJ/mol
# Density = 2.220130 g / cm^3
# Si number density = 22.251945 Si / 1000 Ang^3
#
#
#
# Elastic Constant Matrix: (Units=GPa)
#
#
# Indices 1 2 3 4 5 6 
#
# 1 142.3274 60.2563 57.8330 0.0000 -14.2123 0.0000
# 2 60.2563 129.4590 53.3574 0.0000 -7.5082 0.0000
# 3 57.8330 53.3574 175.1033 0.0000 7.7048 0.0000
# 4 0.0000 0.0000 0.0000 -41.8652 0.0000 -129.2189
# 5 -14.2123 -7.5082 7.7048 0.0000 55.8394 0.0000
# 6 0.0000 0.0000 0.0000 -129.2189 0.0000 -296.6564
#
#
#
# Elastic Compliance Matrix: (Units=1/GPa)
#
#
# Indices 1 2 3 4 5 6 
#
# 1 0.009610 -0.003420 -0.002233 0.000000 0.002294 0.000000
# 2 -0.003420 0.010189 -0.002010 0.000000 0.000777 0.000000
# 3 -0.002233 -0.002010 0.007141 0.000000 -0.001824 0.000000
# 4 0.000000 0.000000 0.000000 0.069346 0.000000 -0.030206
# 5 0.002294 0.000777 -0.001824 0.000000 0.018849 0.000000
# 6 0.000000 0.000000 0.000000 -0.030206 0.000000 0.009786
#
#
# Mechanical properties :
#
#
# Convention : Reuss Voigt Hill
#
# Bulk Modulus (GPa) = 86.08698 87.75368 86.92033
# Shear Modulus (GPa) = 34.69380 -38.17357 -1.73988
#
# Velocity S-wave (km/s) = 3.95287 -4.14637 -0.88521
# Velocity P-wave (km/s) = 7.72043 4.07416 6.17267
#
# Compressibility (1/GPa) = 0.01161616
#
# Stress axis : x y z
#
# Youngs Moduli (GPa) = 104.05534 98.14029 140.03505
#
# Poissons Ratio (x) = 0.33561 0.31270
# Poissons Ratio (y) = 0.35583 0.28143
# Poissons Ratio (z) = 0.23235 0.19723
#
# Static dielectric constant tensor:
#      x y z
#    x 1.789850 0.000000 0.011400 
#    y 0.000000 1.548860 0.000000 
#    z 0.011400 0.000000 1.588260 
# 
# From -- ./inp_files/6031.got.cif
#   From: 2010.05.17/outbox.cif.g08.bks.cpg/sg12_4_cif.got.tgz:6031.got - 2010.06.03 13:09:07.
