data_PCOD9218138
_publ_section_title
;
Structure prediction by ZEFSAII (Michael W. Deem and Ramdas Pophale) SiO2 
 PCOD9218138
Probable space group: C 2/M
;
_chemical_formula_sum "Si O2"
_cell_formula_units_Z 28
_cell_length_a 10.159935
_cell_length_b 22.324682
_cell_length_c 9.602872
_cell_angle_alpha 90.000000
_cell_angle_beta 37.738763
_cell_angle_gamma 90.000000
_cell_volume 1333.131245
_symmetry_space_group_name_H-M "C 2/M"
_symmetry_group_IT_number 12
_symmetry_cell_setting 'monoclinic'
loop_
_space_group_symop_operation_xyz
x,y,z
-x,y,-z
-x,-y,-z
x,-y,z
1/2+x,1/2+y,z
1/2-x,1/2+y,-z
1/2-x,1/2-y,-z
1/2+x,1/2-y,z
loop_
_atom_site_type_symbol
_atom_site_label
_atom_site_fract_x
_atom_site_fract_y
_atom_site_fract_z
Si Si1 0.500000 0.729830 0.000000
Si Si2 0.550236 0.567691 0.123378
Si Si3 0.307912 0.851601 0.553502
Si Si4 0.096530 0.658588 0.057854
O O1 0.639729 0.691029 0.775729
O O2 0.338447 0.776491 0.058561
O O3 0.610628 0.500000 0.109352
O O4 0.325859 0.589528 0.375934
O O5 0.500000 0.569547 0.000000
O O6 0.728367 0.615990 0.019062
O O7 0.500000 0.865149 0.500000
O O8 0.415547 0.827276 0.323952
O O9 0.000000 0.627799 0.000000
#
# Coordination Sequence:
#
# PCOD9218138 Si02
#       4
#     4   8   8   8
#     4  10  24  42  68  98 140 170 222 266 332 398
#     4  11  24  45  69  97 131 174 229 271 323 398
#     4  12  22  42  69 100 134 176 221 266 330 396
#     4  10  25  44  67 102 136 171 217 276 335 385
#
# _framework density 21.003183
#
# number of rings (size 3 to 8) (size 9 to 14) (size 15 to 20)
#    0.857    0.286    4.286    0.857    0.000   10.286 
#    0.000    1.429    0.000    0.000    0.000    0.000 
#    0.000    0.000    0.000    0.000    0.000    0.000 
#
# Total GULP energy -78053.613530 kJ/mol
# GULP energy per Si atom -5575.258109 kJ/mol
# Density = 2.095538 g / cm^3
# Si number density = 21.003183 Si / 1000 Ang^3
#
#
#
# Elastic Constant Matrix: (Units=GPa)
#
#
# Indices 1 2 3 4 5 6 
#
# 1 118.8123 49.5622 42.5143 0.0000 -2.7218 0.0000
# 2 49.5622 130.2117 47.9976 0.0000 -15.5370 0.0000
# 3 42.5143 47.9976 97.9891 0.0000 9.8361 0.0000
# 4 0.0000 0.0000 0.0000 16.8894 0.0000 -2.4519
# 5 -2.7218 -15.5370 9.8361 0.0000 32.0267 0.0000
# 6 0.0000 0.0000 0.0000 -2.4519 0.0000 46.8365
#
#
#
# Elastic Compliance Matrix: (Units=1/GPa)
#
#
# Indices 1 2 3 4 5 6 
#
# 1 0.010806 -0.002796 -0.003379 0.000000 0.000600 0.000000
# 2 -0.002796 0.011435 -0.005078 0.000000 0.006870 0.000000
# 3 -0.003379 -0.005078 0.014894 0.000000 -0.007325 0.000000
# 4 0.000000 0.000000 0.000000 0.059662 0.000000 0.003123
# 5 0.000600 0.006870 -0.007325 0.000000 0.036857 0.000000
# 6 0.000000 0.000000 0.000000 0.003123 0.000000 0.021514
#
#
# Mechanical properties :
#
#
# Convention : Reuss Voigt Hill
#
# Bulk Modulus (GPa) = 68.35510 69.68460 69.01985
# Shear Modulus (GPa) = 27.38965 32.94645 30.16805
#
# Velocity S-wave (km/s) = 3.61511 3.96490 3.79404
# Velocity P-wave (km/s) = 7.07398 7.36280 7.21983
#
# Compressibility (1/GPa) = 0.01462949
#
# Stress axis : x y z
#
# Youngs Moduli (GPa) = 92.54321 87.44739 67.14206
#
# Poissons Ratio (x) = 0.24449 0.22687
# Poissons Ratio (y) = 0.25874 0.34094
# Poissons Ratio (z) = 0.31270 0.44405
#
# Static dielectric constant tensor:
#      x y z
#    x 1.830800 0.000000 0.003180 
#    y 0.000000 1.773310 0.000000 
#    z 0.003180 0.000000 1.769130 
# 
# From -- ./inp_files/40024.got.cif
#   From: 2010.05.17/outbox.cif.g08.bks.cpg/sg12_21_cif.got.tgz:40024.got - 2010.06.03 13:09:07.
