data_PCOD9218949
_publ_section_title
;
Structure prediction by ZEFSAII (Michael W. Deem and Ramdas Pophale) SiO2 
 PCOD9218949
Probable space group: C 2/M
;
_chemical_formula_sum "Si O2"
_cell_formula_units_Z 56
_cell_length_a 28.518843
_cell_length_b 13.906700
_cell_length_c 12.115996
_cell_angle_alpha 90.000000
_cell_angle_beta 32.429153
_cell_angle_gamma 90.000000
_cell_volume 2576.840536
_symmetry_space_group_name_H-M "C 2/M"
_symmetry_group_IT_number 12
_symmetry_cell_setting 'monoclinic'
loop_
_space_group_symop_operation_xyz
x,y,z
-x,y,-z
-x,-y,-z
x,-y,z
1/2+x,1/2+y,z
1/2-x,1/2+y,-z
1/2-x,1/2-y,-z
1/2+x,1/2-y,z
loop_
_atom_site_type_symbol
_atom_site_label
_atom_site_fract_x
_atom_site_fract_y
_atom_site_fract_z
Si Si1 0.373276 0.115624 0.698812
Si Si2 0.754221 0.616011 0.130708
Si Si3 0.903683 0.884604 0.706187
Si Si4 0.503733 0.116161 0.730658
Si Si5 0.099764 0.609280 0.755052
Si Si6 0.289740 0.610764 0.141927
Si Si7 0.331028 0.792018 0.179872
O O1 0.460509 0.144709 0.460337
O O2 0.293218 0.130471 0.772104
O O3 0.382755 0.000000 0.691961
O O4 0.335970 0.149369 0.890936
O O5 0.755207 0.500000 0.127248
O O6 0.667406 0.651689 0.240605
O O7 0.762584 0.651235 0.238526
O O8 0.000000 0.845513 0.500000
O O9 0.906360 0.000000 0.681749
O O10 0.869227 0.873801 0.898274
O O11 0.583877 0.129477 0.658236
O O12 0.483056 0.000000 0.773162
O O13 0.422716 0.175373 0.939671
O O14 0.131377 0.500000 0.705667
O O15 0.157535 0.677254 0.716676
O O16 0.000000 0.611640 0.000000
O O17 0.285145 0.500000 0.184821
O O18 0.306181 0.682156 0.209145
#
# Coordination Sequence:
#
# PCOD9218949 Si02
#       7
#     8   8   8   8   8   8   8
#     4   8  16  32  50  69 100 138 168 193 239 307
#     4   9  17  29  48  76 109 133 156 205 258 299
#     4   8  15  31  50  66  92 136 177 200 234 294
#     4   9  17  32  54  77 101 132 165 199 248 313
#     4   8  15  29  50  73 102 133 162 197 247 310
#     4   9  19  35  49  66  95 137 178 205 239 293
#     4  11  19  29  47  79 104 130 161 213 257 290
#
# _framework density 21.732039
#
# number of rings (size 3 to 8) (size 9 to 14) (size 15 to 20)
#    0.000    3.143    0.000    3.857    0.000    2.857 
#    5.143    2.857    0.000    3.857    0.000    0.000 
#    0.000    0.000    0.000    2.714    0.000    0.000 
#
# Total GULP energy -156338.419335 kJ/mol
# GULP energy per Si atom -5583.514976 kJ/mol
# Density = 2.168258 g / cm^3
# Si number density = 21.732039 Si / 1000 Ang^3
#
#
#
# Elastic Constant Matrix: (Units=GPa)
#
#
# Indices 1 2 3 4 5 6 
#
# 1 110.1957 46.9723 -1.2156 0.0000 9.0894 0.0000
# 2 46.9723 108.8352 -6.8604 0.0000 2.5065 0.0000
# 3 -1.2156 -6.8604 63.0678 0.0000 -2.6902 0.0000
# 4 0.0000 0.0000 0.0000 -195.5495 0.0000 21.8901
# 5 9.0894 2.5065 -2.6902 0.0000 20.7458 0.0000
# 6 0.0000 0.0000 0.0000 21.8901 0.0000 32.2611
#
#
#
# Elastic Compliance Matrix: (Units=1/GPa)
#
#
# Indices 1 2 3 4 5 6 
#
# 1 0.011533 -0.004905 -0.000504 0.000000 -0.004526 0.000000
# 2 -0.004905 0.011358 0.001181 0.000000 0.000930 0.000000
# 3 -0.000504 0.001181 0.016067 0.000000 0.002162 0.000000
# 4 0.000000 0.000000 0.000000 -0.004753 0.000000 0.003225
# 5 -0.004526 0.000930 0.002162 0.000000 0.050353 0.000000
# 6 0.000000 0.000000 0.000000 0.003225 0.000000 0.028809
#
#
# Mechanical properties :
#
#
# Convention : Reuss Voigt Hill
#
# Bulk Modulus (GPa) = 32.78618 39.98792 36.38705
# Shear Modulus (GPa) = 37.88077 -12.29503 12.79287
#
# Velocity S-wave (km/s) = 4.17956 -2.38114 2.42887
# Velocity P-wave (km/s) = 6.19765 3.29858 4.96445
#
# Compressibility (1/GPa) = 0.03050066
#
# Stress axis : x y z
#
# Youngs Moduli (GPa) = 86.70420 88.04143 62.23989
#
# Poissons Ratio (x) = 0.43187 0.03139
# Poissons Ratio (y) = 0.42531 -0.07348
# Poissons Ratio (z) = 0.04373 -0.10395
#
# Static dielectric constant tensor:
#      x y z
#    x 1.799180 0.000000 -0.011730 
#    y 0.000000 1.821520 0.000000 
#    z -0.011730 0.000000 1.829460 
# 
# From -- ./inp_files/183440.got.cif
#   From: 2010.05.17/outbox.cif.g08.bks.cpg/sg12_92_cif.got.tgz:183440.got - 2010.06.03 13:09:07.
