data_PCOD9218677
_publ_section_title
;
Structure prediction by ZEFSAII (Michael W. Deem and Ramdas Pophale) SiO2 
 PCOD9218677
Probable space group: C 2/M
;
_chemical_formula_sum "Si O2"
_cell_formula_units_Z 24
_cell_length_a 10.694623
_cell_length_b 7.972607
_cell_length_c 19.106556
_cell_angle_alpha 90.000000
_cell_angle_beta 43.760213
_cell_angle_gamma 90.000000
_cell_volume 1126.754975
_symmetry_space_group_name_H-M "C 2/M"
_symmetry_group_IT_number 12
_symmetry_cell_setting 'monoclinic'
loop_
_space_group_symop_operation_xyz
x,y,z
-x,y,-z
-x,-y,-z
x,-y,z
1/2+x,1/2+y,z
1/2-x,1/2+y,-z
1/2-x,1/2-y,-z
1/2+x,1/2-y,z
loop_
_atom_site_type_symbol
_atom_site_label
_atom_site_fract_x
_atom_site_fract_y
_atom_site_fract_z
Si Si1 0.048122 0.700936 0.559239
Si Si2 0.731391 0.813024 0.789144
Si Si3 0.215195 0.500000 0.923001
Si Si4 0.010649 0.000000 0.079334
O O1 0.034412 0.500000 0.565874
O O2 0.250000 0.750000 0.500000
O O3 0.000000 0.758805 0.500000
O O4 0.901510 0.771366 0.672619
O O5 0.589277 0.663461 0.849185
O O6 0.663174 0.000000 0.795711
O O7 0.785758 0.843159 0.848669
O O8 0.287995 0.500000 0.971036
O O9 0.000000 0.500000 0.000000
O O10 0.000000 0.000000 0.000000
#
# Coordination Sequence:
#
# PCOD9218677 Si02
#       4
#     8   8   4   4
#     4  11  25  45  72 105 144 185 238 291 350 426
#     4  10  25  46  69 108 143 185 235 294 350 428
#     4  10  26  50  70 108 146 176 246 296 345 442
#     4  12  26  48  78 101 142 196 234 295 367 412
#
# _framework density 21.300104999999999
#
# number of rings (size 3 to 8) (size 9 to 14) (size 15 to 20)
#    1.000    0.333    1.667    2.000    4.667    8.000 
#    3.000    0.000    0.000    0.000    0.000    0.000 
#    0.000    0.000    0.000    0.000    0.000    0.000 
#
# Total GULP energy -66971.995476 kJ/mol
# GULP energy per Si atom -5580.999623 kJ/mol
# Density = 2.125163 g / cm^3
# Si number density = 21.300105 Si / 1000 Ang^3
#
#
#
# Elastic Constant Matrix: (Units=GPa)
#
#
# Indices 1 2 3 4 5 6 
#
# 1 184.0065 38.1207 94.8485 0.0000 2.6444 0.0000
# 2 38.1207 135.2186 53.1926 0.0000 -11.4529 0.0000
# 3 94.8485 53.1926 191.8109 0.0000 2.7597 0.0000
# 4 0.0000 0.0000 0.0000 36.3698 0.0000 1.9099
# 5 2.6444 -11.4529 2.7597 0.0000 24.8366 0.0000
# 6 0.0000 0.0000 0.0000 1.9099 0.0000 21.2372
#
#
#
# Elastic Compliance Matrix: (Units=1/GPa)
#
#
# Indices 1 2 3 4 5 6 
#
# 1 0.007370 -0.000802 -0.003411 0.000000 -0.000775 0.000000
# 2 -0.000802 0.008825 -0.002114 0.000000 0.004390 0.000000
# 3 -0.003411 -0.002114 0.007507 0.000000 -0.001446 0.000000
# 4 0.000000 0.000000 0.000000 0.027626 0.000000 -0.002484
# 5 -0.000775 0.004390 -0.001446 0.000000 0.042530 0.000000
# 6 0.000000 0.000000 0.000000 -0.002484 0.000000 0.047311
#
#
# Mechanical properties :
#
#
# Convention : Reuss Voigt Hill
#
# Bulk Modulus (GPa) = 90.50708 98.15106 94.32907
# Shear Modulus (GPa) = 31.74499 38.14701 34.94600
#
# Velocity S-wave (km/s) = 3.86472 4.23653 4.05489
# Velocity P-wave (km/s) = 7.90559 8.37323 8.14277
#
# Compressibility (1/GPa) = 0.01104886
#
# Stress axis : x y z
#
# Youngs Moduli (GPa) = 135.68488 113.31631 133.20524
#
# Poissons Ratio (x) = 0.09084 0.45436
# Poissons Ratio (y) = 0.10877 0.28160
# Poissons Ratio (z) = 0.46281 0.23956
#
# Static dielectric constant tensor:
#      x y z
#    x 1.776010 0.000000 0.026150 
#    y 0.000000 1.821160 0.000000 
#    z 0.026150 0.000000 1.761720 
# 
# From -- ./inp_files/298637.got.cif
#   From: 2010.05.17/outbox.cif.g08.bks.cpg/sg12_150_cif.got.tgz:298637.got - 2010.06.03 13:09:07.
