data_PCOD9218824
_publ_section_title
;
Structure prediction by ZEFSAII (Michael W. Deem and Ramdas Pophale) SiO2 
 PCOD9218824
Probable space group: C 2/M
;
_chemical_formula_sum "Si O2"
_cell_formula_units_Z 48
_cell_length_a 28.236263
_cell_length_b 15.654847
_cell_length_c 19.655546
_cell_angle_alpha 90.000000
_cell_angle_beta 164.619297
_cell_angle_gamma 90.000000
_cell_volume 2304.443655
_symmetry_space_group_name_H-M "C 2/M"
_symmetry_group_IT_number 12
_symmetry_cell_setting 'monoclinic'
loop_
_space_group_symop_operation_xyz
x,y,z
-x,y,-z
-x,-y,-z
x,-y,z
1/2+x,1/2+y,z
1/2-x,1/2+y,-z
1/2-x,1/2-y,-z
1/2+x,1/2-y,z
loop_
_atom_site_type_symbol
_atom_site_label
_atom_site_fract_x
_atom_site_fract_y
_atom_site_fract_z
Si Si1 0.656014 0.681981 0.273190
Si Si2 0.239680 0.000000 0.382979
Si Si3 0.256486 0.500000 0.410074
Si Si4 0.376973 0.000000 0.931439
Si Si5 0.369984 0.654310 0.381743
Si Si6 0.329417 0.500000 0.867967
Si Si7 0.852099 0.183636 0.958910
Si Si8 0.435098 0.671297 0.625342
O O1 0.782304 0.599056 0.459220
O O2 0.538886 0.701564 0.177622
O O3 0.776115 0.760191 0.414170
O O4 0.500000 0.664015 0.000000
O O5 0.264213 0.000000 0.335108
O O6 0.037663 0.000000 0.134001
O O7 0.178095 0.500000 0.224723
O O8 0.371637 0.584655 0.574859
O O9 0.089793 0.500000 0.229695
O O10 0.288842 0.915019 0.838805
O O11 0.500000 0.634995 0.500000
O O12 0.459902 0.650618 0.580644
O O13 0.290276 0.748470 0.263488
O O14 0.296010 0.587234 0.862269
O O15 0.891357 0.198205 0.092622
#
# Coordination Sequence:
#
# PCOD9218824 Si02
#       8
#     8   4   4   4   8   4   8   8
#     4  11  17  32  54  82 114 143 175 224 290 349
#     4   9  14  28  52  75 107 149 172 206 266 345
#     4   9  19  34  58  89 117 139 172 233 296 349
#     4   9  19  36  61  83 112 145 185 229 286 344
#     4  11  23  40  59  78 110 156 199 238 274 321
#     4   9  15  30  52  77 105 140 176 218 272 332
#     4  11  21  35  57  84 113 147 188 232 285 343
#     4  11  22  35  56  86 115 146 185 234 289 341
#
# _framework density 20.829322000000001
#
# number of rings (size 3 to 8) (size 9 to 14) (size 15 to 20)
#    0.000    1.667    5.000    2.250    2.333    0.667 
#    0.000    1.250    0.000    0.000    0.000    0.000 
#    0.000    0.000    0.000    0.000    0.000    0.000 
#
# Total GULP energy -133940.877807 kJ/mol
# GULP energy per Si atom -5580.869909 kJ/mol
# Density = 2.078191 g / cm^3
# Si number density = 20.829322 Si / 1000 Ang^3
#
#
#
# Elastic Constant Matrix: (Units=GPa)
#
#
# Indices 1 2 3 4 5 6 
#
# 1 109.2782 13.5658 25.3718 0.0001 -0.6277 0.0005
# 2 13.5658 113.6214 8.6987 0.0005 8.5802 0.0007
# 3 25.3718 8.6987 17.1632 0.0006 -5.7779 0.0004
# 4 0.0001 0.0005 0.0006 0.8141 0.0004 0.3304
# 5 -0.6277 8.5802 -5.7779 0.0004 25.8758 0.0004
# 6 0.0005 0.0007 0.0004 0.3304 0.0004 3.6571
#
#
#
# Elastic Compliance Matrix: (Units=1/GPa)
#
#
# Indices 1 2 3 4 5 6 
#
# 1 0.014480 0.000433 -0.023306 0.000019 -0.004996 -0.000001
# 2 0.000433 0.009658 -0.007147 0.000003 -0.004788 -0.000001
# 3 -0.023306 -0.007147 0.104826 -0.000085 0.025211 -0.000001
# 4 0.000019 0.000003 -0.000085 1.275084 -0.000040 -0.115194
# 5 -0.004996 -0.004788 0.025211 -0.000040 0.045742 -0.000002
# 6 -0.000001 -0.000001 -0.000001 -0.115194 -0.000002 0.283845
#
#
# Mechanical properties :
#
#
# Convention : Reuss Voigt Hill
#
# Bulk Modulus (GPa) = 14.50870 37.25951 25.88410
# Shear Modulus (GPa) = 2.75232 18.89784 10.82508
#
# Velocity S-wave (km/s) = 1.15075 3.01536 2.28217
# Velocity P-wave (km/s) = 2.95741 5.48179 4.40433
#
# Compressibility (1/GPa) = 0.06892418
#
# Stress axis : x y z
#
# Youngs Moduli (GPa) = 69.06235 103.53923 9.53959
#
# Poissons Ratio (x) = -0.04481 0.22233
# Poissons Ratio (y) = -0.02989 0.06818
# Poissons Ratio (z) = 1.60958 0.73995
#
# Static dielectric constant tensor:
#      x y z
#    x 1.785060 0.000000 -0.058610 
#    y 0.000000 1.778020 0.000000 
#    z -0.058610 0.000000 1.744630 
# 
# From -- ./inp_files/290603.got.cif
#   From: 2010.05.17/outbox.cif.g08.bks.cpg/sg12_146_cif.got.tgz:290603.got - 2010.06.03 13:09:07.
