data_PCOD9218734
_publ_section_title
;
Structure prediction by ZEFSAII (Michael W. Deem and Ramdas Pophale) SiO2 
 PCOD9218734
Probable space group: C 2/M
;
_chemical_formula_sum "Si O2"
_cell_formula_units_Z 38
_cell_length_a 14.111372
_cell_length_b 27.766603
_cell_length_c 5.345720
_cell_angle_alpha 90.000000
_cell_angle_beta 67.185275
_cell_angle_gamma 90.000000
_cell_volume 1930.712996
_symmetry_space_group_name_H-M "C 2/M"
_symmetry_group_IT_number 12
_symmetry_cell_setting 'monoclinic'
loop_
_space_group_symop_operation_xyz
x,y,z
-x,y,-z
-x,-y,-z
x,-y,z
1/2+x,1/2+y,z
1/2-x,1/2+y,-z
1/2-x,1/2-y,-z
1/2+x,1/2-y,z
loop_
_atom_site_type_symbol
_atom_site_label
_atom_site_fract_x
_atom_site_fract_y
_atom_site_fract_z
Si Si1 0.000000 0.668673 0.000000
Si Si2 0.121271 0.834992 0.321680
Si Si3 0.000000 0.500000 0.000000
Si Si4 0.234433 0.859729 0.718011
Si Si5 0.916818 0.419496 0.390725
Si Si6 0.614115 0.776857 0.262552
O O1 0.038368 0.631382 0.751633
O O2 0.909077 0.702184 0.990286
O O3 0.179615 0.853082 0.508401
O O4 0.145861 0.778422 0.248392
O O5 0.000000 0.838892 0.500000
O O6 0.157858 0.861513 0.032118
O O7 0.917564 0.457370 0.167074
O O8 0.309897 0.905664 0.625841
O O9 0.305964 0.812863 0.693724
O O10 0.000000 0.440548 0.500000
O O11 0.500000 0.778832 0.500000
#
# Coordination Sequence:
#
# PCOD9218734 Si02
#       6
#     4   8   2   8   8   8
#     4  11  18  35  58  86 134 170 208 245 320 373
#     4  11  27  39  57  84 130 173 235 271 290 337
#     4  10  26  40  68  98 142 142 190 248 350 410
#     4  12  22  41  62  89 120 175 216 260 324 367
#     4  11  22  40  64  96 130 160 193 255 329 414
#     4  11  22  34  57  87 128 171 218 265 308 369
#
# _framework density 19.681847000000001
#
# number of rings (size 3 to 8) (size 9 to 14) (size 15 to 20)
#    0.000    0.842    4.211    3.474    8.842    0.000 
#    0.000    0.000    0.000    0.000    0.000    4.421 
#    0.000    0.000    0.000    0.000    0.000    0.000 
#
# Total GULP energy -105887.739698 kJ/mol
# GULP energy per Si atom -5573.038931 kJ/mol
# Density = 1.963705 g / cm^3
# Si number density = 19.681847 Si / 1000 Ang^3
#
#
#
# Elastic Constant Matrix: (Units=GPa)
#
#
# Indices 1 2 3 4 5 6 
#
# 1 75.0120 28.5342 20.9199 0.0000 6.1406 0.0000
# 2 28.5342 81.3125 38.6676 0.0000 -10.0126 0.0000
# 3 20.9199 38.6676 117.9352 0.0000 -13.9445 0.0000
# 4 0.0000 0.0000 0.0000 -117.7974 0.0000 -57.1359
# 5 6.1406 -10.0126 -13.9445 0.0000 39.3411 0.0000
# 6 0.0000 0.0000 0.0000 -57.1359 0.0000 -12.9205
#
#
#
# Elastic Compliance Matrix: (Units=1/GPa)
#
#
# Indices 1 2 3 4 5 6 
#
# 1 0.016236 -0.005484 -0.001614 0.000000 -0.004502 0.000000
# 2 -0.005484 0.016591 -0.004036 0.000000 0.003648 0.000000
# 3 -0.001614 -0.004036 0.010434 0.000000 0.002923 0.000000
# 4 0.000000 0.000000 0.000000 0.007415 0.000000 -0.032789
# 5 -0.004502 0.003648 0.002923 0.000000 0.028086 0.000000
# 6 0.000000 0.000000 0.000000 -0.032789 0.000000 0.067602
#
#
# Mechanical properties :
#
#
# Convention : Reuss Voigt Hill
#
# Bulk Modulus (GPa) = 47.63405 50.05589 48.84497
# Shear Modulus (GPa) = 28.46879 -5.86617 11.30131
#
# Velocity S-wave (km/s) = 3.80735 -1.72829 2.39885
# Velocity P-wave (km/s) = 6.60170 4.63736 5.70471
#
# Compressibility (1/GPa) = 0.02099339
#
# Stress axis : x y z
#
# Youngs Moduli (GPa) = 61.59087 60.27328 95.83719
#
# Poissons Ratio (x) = 0.33056 0.15470
# Poissons Ratio (y) = 0.33779 0.38676
# Poissons Ratio (z) = 0.09942 0.24324
#
# Static dielectric constant tensor:
#      x y z
#    x 1.729580 0.000000 0.021580 
#    y 0.000000 1.663360 0.000000 
#    z 0.021580 0.000000 1.822230 
# 
# From -- ./inp_files/12037.got.cif
#   From: 2010.05.17/outbox.cif.g08.bks.cpg/sg12_7_cif.got.tgz:12037.got - 2010.06.03 13:09:07.
