data_PCOD9218524
_publ_section_title
;
Structure prediction by ZEFSAII (Michael W. Deem and Ramdas Pophale) SiO2 
 PCOD9218524
Probable space group: C 2/M
;
_chemical_formula_sum "Si O2"
_cell_formula_units_Z 28
_cell_length_a 14.335535
_cell_length_b 15.164418
_cell_length_c 5.107204
_cell_angle_alpha 90.000000
_cell_angle_beta 104.345333
_cell_angle_gamma 90.000000
_cell_volume 1075.637547
_symmetry_space_group_name_H-M "C 2/M"
_symmetry_group_IT_number 12
_symmetry_cell_setting 'monoclinic'
loop_
_space_group_symop_operation_xyz
x,y,z
-x,y,-z
-x,-y,-z
x,-y,z
1/2+x,1/2+y,z
1/2-x,1/2+y,-z
1/2-x,1/2-y,-z
1/2+x,1/2-y,z
loop_
_atom_site_type_symbol
_atom_site_label
_atom_site_fract_x
_atom_site_fract_y
_atom_site_fract_z
Si Si1 0.224177 0.098840 0.531248
Si Si2 0.570321 0.000000 0.797141
Si Si3 0.841118 0.685633 0.997798
Si Si4 0.403617 0.637909 0.057272
O O1 0.312271 0.160733 0.679819
O O2 0.172046 0.122587 0.229224
O O3 0.261375 0.000000 0.545513
O O4 0.143970 0.102719 0.709234
O O5 0.500000 0.000000 0.500000
O O6 0.500000 0.000000 0.000000
O O7 0.633220 0.909239 0.859909
O O8 0.921715 0.757620 0.112973
O O9 0.750000 0.750000 0.000000
O O10 0.500000 0.598635 0.000000
#
# Coordination Sequence:
#
# PCOD9218524 Si02
#       4
#     8   4   8   8
#     4  11  23  42  67  95 132 182 233 279 345 430
#     4  12  28  48  78 116 149 190 253 316 368 434
#     4  10  24  47  72 102 143 192 240 291 368 440
#     4  11  24  40  66  97 136 176 226 289 352 413
#
# _framework density 26.031074
#
# number of rings (size 3 to 8) (size 9 to 14) (size 15 to 20)
#    0.000    1.143    1.429    3.429    0.000   17.143 
#    0.000    0.000    0.000    0.000    0.000    0.000 
#    0.000    0.000    0.000    0.000    0.000    0.000 
#
# Total GULP energy -78176.575308 kJ/mol
# GULP energy per Si atom -5584.041093 kJ/mol
# Density = 2.597183 g / cm^3
# Si number density = 26.031074 Si / 1000 Ang^3
#
#
#
# Elastic Constant Matrix: (Units=GPa)
#
#
# Indices 1 2 3 4 5 6 
#
# 1 103.9552 27.1932 28.6758 0.0000 -17.5556 0.0000
# 2 27.1932 208.5795 32.2487 0.0000 4.0369 0.0000
# 3 28.6758 32.2487 145.2808 0.0000 -13.9981 0.0000
# 4 0.0000 0.0000 0.0000 29.1182 0.0000 -3.6372
# 5 -17.5556 4.0369 -13.9981 0.0000 44.0932 0.0000
# 6 0.0000 0.0000 0.0000 -3.6372 0.0000 17.8596
#
#
#
# Elastic Compliance Matrix: (Units=1/GPa)
#
#
# Indices 1 2 3 4 5 6 
#
# 1 0.011054 -0.001286 -0.001507 0.000000 0.004040 0.000000
# 2 -0.001286 0.005144 -0.001014 0.000000 -0.001305 0.000000
# 3 -0.001507 -0.001014 0.007589 0.000000 0.001902 0.000000
# 4 0.000000 0.000000 0.000000 0.035239 0.000000 0.007177
# 5 0.004040 -0.001305 0.001902 0.000000 0.025011 0.000000
# 6 0.000000 0.000000 0.000000 0.007177 0.000000 0.057454
#
#
# Mechanical properties :
#
#
# Convention : Reuss Voigt Hill
#
# Bulk Modulus (GPa) = 61.83165 70.45008 66.14086
# Shear Modulus (GPa) = 32.36323 42.86074 37.61199
#
# Velocity S-wave (km/s) = 3.52981 4.06214 3.80529
# Velocity P-wave (km/s) = 6.35746 7.00884 6.69108
#
# Compressibility (1/GPa) = 0.01617295
#
# Stress axis : x y z
#
# Youngs Moduli (GPa) = 90.46445 194.40044 131.77047
#
# Poissons Ratio (x) = 0.25007 0.19858
# Poissons Ratio (y) = 0.11637 0.13357
# Poissons Ratio (z) = 0.13633 0.19706
#
# Static dielectric constant tensor:
#      x y z
#    x 2.308210 0.000000 -0.011970 
#    y 0.000000 2.135410 0.000000 
#    z -0.011970 0.000000 2.012610 
# 
# From -- ./inp_files/14282.got.cif
#   From: 2010.05.17/outbox.cif.g08.bks.cpg/sg12_8_cif.got.tgz:14282.got - 2010.06.03 13:09:07.
