data_PCOD9218508
_publ_section_title
;
Structure prediction by ZEFSAII (Michael W. Deem and Ramdas Pophale) SiO2 
 PCOD9218508
Probable space group: C 2/M
;
_chemical_formula_sum "Si O2"
_cell_formula_units_Z 34
_cell_length_a 12.691017
_cell_length_b 19.648657
_cell_length_c 13.011935
_cell_angle_alpha 90.000000
_cell_angle_beta 156.798912
_cell_angle_gamma 90.000000
_cell_volume 1278.270037
_symmetry_space_group_name_H-M "C 2/M"
_symmetry_group_IT_number 12
_symmetry_cell_setting 'monoclinic'
loop_
_space_group_symop_operation_xyz
x,y,z
-x,y,-z
-x,-y,-z
x,-y,z
1/2+x,1/2+y,z
1/2-x,1/2+y,-z
1/2-x,1/2-y,-z
1/2+x,1/2-y,z
loop_
_atom_site_type_symbol
_atom_site_label
_atom_site_fract_x
_atom_site_fract_y
_atom_site_fract_z
Si Si1 0.500000 0.000000 0.000000
Si Si2 0.500000 0.387132 0.000000
Si Si3 0.000000 0.229585 0.500000
Si Si4 0.636040 0.000000 0.748360
Si Si5 0.956409 0.000000 0.698037
Si Si6 0.789337 0.690034 0.115364
Si Si7 0.697192 0.888855 0.342276
O O1 0.569794 0.941032 0.148473
O O2 0.245325 0.435495 0.783606
O O3 0.484926 0.344874 0.092012
O O4 0.892261 0.276294 0.312359
O O5 0.792102 0.177800 0.366805
O O6 0.190824 0.000000 0.990384
O O7 0.327748 0.000000 0.498990
O O8 0.940510 0.067375 0.611928
O O9 0.992525 0.637061 0.245667
O O10 0.750000 0.750000 0.000000
#
# Coordination Sequence:
#
# PCOD9218508 Si02
#       7
#     2   4   4   4   4   8   8
#     4  10  24  46  78 102 148 192 276 324 414 458
#     4  11  26  45  78 109 150 209 262 326 400 483
#     4  12  28  45  72 113 158 220 270 324 402 502
#     4  11  26  47  76 115 152 199 263 337 402 474
#     4  11  26  47  79 109 154 201 255 344 401 466
#     4  12  26  46  72 107 158 212 262 331 396 486
#     4  11  25  46  73 111 153 206 265 335 400 481
#
# _framework density 26.598448000000001
#
# number of rings (size 3 to 8) (size 9 to 14) (size 15 to 20)
#    0.000    0.706    2.353    3.529    6.588    7.529 
#    0.000    0.000    0.000    0.000    0.000    0.000 
#    0.000    0.000    0.000    0.000    0.000    0.000 
#
# Total GULP energy -95214.914192 kJ/mol
# GULP energy per Si atom -5600.877305 kJ/mol
# Density = 2.653791 g / cm^3
# Si number density = 26.598448 Si / 1000 Ang^3
#
#
#
# Elastic Constant Matrix: (Units=GPa)
#
#
# Indices 1 2 3 4 5 6 
#
# 1 193.8760 69.4954 60.7403 -0.0003 -11.3362 -0.0011
# 2 69.4954 150.3168 42.1789 -0.0004 -22.0007 -0.0012
# 3 60.7403 42.1789 140.7663 0.0008 -43.3201 -0.0016
# 4 -0.0003 -0.0004 0.0008 10.3607 -0.0001 -38.7890
# 5 -11.3362 -22.0007 -43.3201 -0.0001 55.0771 -0.0010
# 6 -0.0011 -0.0012 -0.0016 -38.7890 -0.0010 59.1910
#
#
#
# Elastic Compliance Matrix: (Units=1/GPa)
#
#
# Indices 1 2 3 4 5 6 
#
# 1 0.006860 -0.002673 -0.002709 0.000000 -0.001787 0.000000
# 2 -0.002673 0.008409 -0.000662 -0.000001 0.002288 0.000000
# 3 -0.002709 -0.000662 0.010843 0.000000 0.007706 0.000000
# 4 0.000000 -0.000001 0.000000 -0.066408 -0.000001 -0.043518
# 5 -0.001787 0.002288 0.007706 -0.000001 0.024764 0.000000
# 6 0.000000 0.000000 0.000000 -0.043518 0.000000 -0.011624
#
#
# Mechanical properties :
#
#
# Convention : Reuss Voigt Hill
#
# Bulk Modulus (GPa) = 71.30699 92.19870 81.75284
# Shear Modulus (GPa) = -481.10700 45.76206 -217.67247
#
# Velocity S-wave (km/s) = -13.46367 4.15237 -9.05617
# Velocity P-wave (km/s) = 14.65698 7.59789 8.86282
#
# Compressibility (1/GPa) = 0.01402387
#
# Stress axis : x y z
#
# Youngs Moduli (GPa) = 145.76457 118.91850 92.22634
#
# Poissons Ratio (x) = 0.31787 0.24985
# Poissons Ratio (y) = 0.38964 0.06107
# Poissons Ratio (z) = 0.39489 0.07874
#
# Static dielectric constant tensor:
#      x y z
#    x 2.072160 0.000000 0.017820 
#    y 0.000000 2.109840 0.000000 
#    z 0.017820 0.000000 2.051920 
# 
# From -- ./inp_files/132849.got.cif
#   From: 2010.05.17/outbox.cif.g08.bks.cpg/sg12_67_cif.got.tgz:132849.got - 2010.06.03 13:09:07.
