data_PCOD9218992
_publ_section_title
;
Structure prediction by ZEFSAII (Michael W. Deem and Ramdas Pophale) SiO2 
 PCOD9218992
Probable space group: C 2/M
;
_chemical_formula_sum "Si O2"
_cell_formula_units_Z 58
_cell_length_a 29.471297
_cell_length_b 26.761769
_cell_length_c 5.138070
_cell_angle_alpha 90.000000
_cell_angle_beta 103.351299
_cell_angle_gamma 90.000000
_cell_volume 3942.889934
_symmetry_space_group_name_H-M "C 2/M"
_symmetry_group_IT_number 12
_symmetry_cell_setting 'monoclinic'
loop_
_space_group_symop_operation_xyz
x,y,z
-x,y,-z
-x,-y,-z
x,-y,z
1/2+x,1/2+y,z
1/2-x,1/2+y,-z
1/2-x,1/2-y,-z
1/2+x,1/2-y,z
loop_
_atom_site_type_symbol
_atom_site_label
_atom_site_fract_x
_atom_site_fract_y
_atom_site_fract_z
Si Si1 0.545170 0.925307 0.894671
Si Si2 0.824525 0.382762 0.230934
Si Si3 0.738559 0.683420 0.236760
Si Si4 0.608163 0.210582 0.551903
Si Si5 0.049644 0.307636 0.956591
Si Si6 0.806672 0.219444 0.325378
Si Si7 0.500000 0.000000 0.500000
Si Si8 0.852081 0.442664 0.768196
O O1 0.543157 0.865805 0.866841
O O2 0.538659 0.956032 0.623195
O O3 0.500000 0.942790 0.000000
O O4 0.592765 0.938855 0.100060
O O5 0.773073 0.362139 0.224525
O O6 0.859984 0.335868 0.306997
O O7 0.840220 0.422503 0.467541
O O8 0.828775 0.406522 0.951976
O O9 0.772690 0.731935 0.285891
O O10 0.711658 0.683529 0.472445
O O11 0.701797 0.693239 0.960053
O O12 0.569940 0.218469 0.726925
O O13 0.642183 0.257918 0.568253
O O14 0.585385 0.196383 0.245592
O O15 0.000000 0.289565 0.000000
O O16 0.837572 0.500000 0.781087
#
# Coordination Sequence:
#
# PCOD9218992 Si02
#       8
#     8   8   8   8   8   8   2   8
#     4  11  25  35  48  60  76 105 150 201 248 281
#     4  11  21  35  49  65  87 113 139 181 233 282
#     4   9  17  30  47  69  90 106 128 163 223 280
#     4  11  19  34  50  68  87 111 143 178 227 280
#     4  11  23  34  48  62  88 116 149 182 229 280
#     4   9  17  28  49  71  88 105 129 167 214 279
#     4  12  26  36  52  58  76 100 154 220 250 280
#     4  12  24  36  48  64  84 113 151 191 237 282
#
# _framework density 14.710024000000001
#
# number of rings (size 3 to 8) (size 9 to 14) (size 15 to 20)
#    0.000    1.379    3.448    2.690    5.793    4.414 
#    0.000    0.000    0.000    0.000    0.000    0.000 
#    0.000    0.000    0.000    0.000    0.000    0.000 
#
# Total GULP energy -161661.510167 kJ/mol
# GULP energy per Si atom -5574.534833 kJ/mol
# Density = 1.467654 g / cm^3
# Si number density = 14.710024 Si / 1000 Ang^3
#
#
#
# Elastic Constant Matrix: (Units=GPa)
#
#
# Indices 1 2 3 4 5 6 
#
# 1 63.4475 24.6030 11.0485 0.0000 -4.1729 0.0000
# 2 24.6030 23.5909 -1.3002 0.0000 6.0627 0.0000
# 3 11.0485 -1.3002 46.3550 0.0000 -2.8368 0.0000
# 4 0.0000 0.0000 0.0000 18.5667 0.0000 2.9183
# 5 -4.1729 6.0627 -2.8368 0.0000 23.0754 0.0000
# 6 0.0000 0.0000 0.0000 2.9183 0.0000 11.5651
#
#
#
# Elastic Compliance Matrix: (Units=1/GPa)
#
#
# Indices 1 2 3 4 5 6 
#
# 1 0.033389 -0.039212 -0.008119 0.000000 0.015342 0.000000
# 2 -0.039212 0.091522 0.010084 0.000000 -0.029897 0.000000
# 3 -0.008119 0.010084 0.023717 0.000000 -0.001202 0.000000
# 4 0.000000 0.000000 0.000000 0.056084 0.000000 -0.014152
# 5 0.015342 -0.029897 -0.001202 0.000000 0.053818 0.000000
# 6 0.000000 0.000000 0.000000 -0.014152 0.000000 0.090038
#
#
# Mechanical properties :
#
#
# Convention : Reuss Voigt Hill
#
# Bulk Modulus (GPa) = 13.48915 22.45513 17.97214
# Shear Modulus (GPa) = 11.16633 17.24426 14.20530
#
# Velocity S-wave (km/s) = 2.75816 3.42757 3.11092
# Velocity P-wave (km/s) = 4.39695 5.56441 5.01477
#
# Compressibility (1/GPa) = 0.07413364
#
# Stress axis : x y z
#
# Youngs Moduli (GPa) = 29.94988 10.92629 42.16364
#
# Poissons Ratio (x) = 0.42844 0.34233
# Poissons Ratio (y) = 1.17439 -0.42516
# Poissons Ratio (z) = 0.24317 -0.11018
#
# Static dielectric constant tensor:
#      x y z
#    x 1.511350 0.000000 -0.027180 
#    y 0.000000 1.474990 0.000000 
#    z -0.027180 0.000000 1.534210 
# 
# From -- ./inp_files/26437.got.cif
#   From: 2010.05.17/outbox.cif.g08.bks.cpg/sg12_14_cif.got.tgz:26437.got - 2010.06.03 13:09:07.
