data_PCOD9218321
_publ_section_title
;
Structure prediction by ZEFSAII (Michael W. Deem and Ramdas Pophale) SiO2 
 PCOD9218321
Probable space group: C 2/M
;
_chemical_formula_sum "Si O2"
_cell_formula_units_Z 64
_cell_length_a 17.840718
_cell_length_b 29.404513
_cell_length_c 8.849497
_cell_angle_alpha 90.000000
_cell_angle_beta 40.316958
_cell_angle_gamma 90.000000
_cell_volume 3003.720908
_symmetry_space_group_name_H-M "C 2/M"
_symmetry_group_IT_number 12
_symmetry_cell_setting 'monoclinic'
loop_
_space_group_symop_operation_xyz
x,y,z
-x,y,-z
-x,-y,-z
x,-y,z
1/2+x,1/2+y,z
1/2-x,1/2+y,-z
1/2-x,1/2-y,-z
1/2+x,1/2-y,z
loop_
_atom_site_type_symbol
_atom_site_label
_atom_site_fract_x
_atom_site_fract_y
_atom_site_fract_z
Si Si1 0.387753 0.709991 0.564421
Si Si2 0.376298 0.928223 0.109114
Si Si3 0.757650 0.881147 0.217081
Si Si4 0.850564 0.321517 0.098499
Si Si5 0.125499 0.451558 0.232167
Si Si6 0.840476 0.051992 0.355069
Si Si7 0.611381 0.803547 0.614303
Si Si8 0.507263 0.636080 0.812677
O O1 0.500000 0.712217 0.500000
O O2 0.260665 0.696387 0.821374
O O3 0.372252 0.757643 0.503380
O O4 0.415707 0.670446 0.399962
O O5 0.347167 0.875093 0.135362
O O6 0.271586 0.948665 0.365419
O O7 0.500000 0.932921 0.000000
O O8 0.384791 0.948928 0.930795
O O9 0.687150 0.907100 0.198687
O O10 0.799782 0.920209 0.269714
O O11 0.682873 0.844282 0.424547
O O12 0.874724 0.861642 0.964951
O O13 0.852818 0.299654 0.264100
O O14 0.973522 0.313040 0.830187
O O15 0.183251 0.500000 0.185407
O O16 0.000000 0.451617 0.500000
O O17 0.938883 0.085242 0.273776
O O18 0.877061 0.000000 0.271658
O O19 0.500000 0.649856 0.000000
#
# Coordination Sequence:
#
# PCOD9218321 Si02
#       8
#     8   8   8   8   8   8   8   8
#     4  12  28  44  68 102 140 177 230 282 349 410
#     4  12  22  42  67  96 129 176 228 277 342 405
#     4  11  23  44  68  97 139 174 226 279 344 399
#     4  11  22  44  72  95 136 174 225 284 338 403
#     4  11  25  40  62  97 136 175 216 277 345 405
#     4  11  22  41  70 103 134 176 235 279 332 411
#     4  11  24  43  72 104 127 185 231 282 338 411
#     4  10  24  44  68  95 136 184 223 278 335 405
#
# _framework density 21.306905
#
# number of rings (size 3 to 8) (size 9 to 14) (size 15 to 20)
#    0.000    0.875    3.750    3.375    5.250    6.750 
#    0.000    0.000    0.000    1.875    0.000    0.000 
#    0.000    0.000    0.000    0.000    0.000    0.000 
#
# Total GULP energy -178932.317559 kJ/mol
# GULP energy per Si atom -5591.634924 kJ/mol
# Density = 2.125841 g / cm^3
# Si number density = 21.306905 Si / 1000 Ang^3
#
#
#
# Elastic Constant Matrix: (Units=GPa)
#
#
# Indices 1 2 3 4 5 6 
#
# 1 76.2863 36.9102 29.2444 0.0000 -25.5681 0.0000
# 2 36.9102 130.6697 33.0964 0.0000 -13.2340 0.0000
# 3 29.2444 33.0964 91.6067 0.0000 -25.1347 0.0000
# 4 0.0000 0.0000 0.0000 28.2954 0.0000 10.9788
# 5 -25.5681 -13.2340 -25.1347 0.0000 34.0588 0.0000
# 6 0.0000 0.0000 0.0000 10.9788 0.0000 31.9227
#
#
#
# Elastic Compliance Matrix: (Units=1/GPa)
#
#
# Indices 1 2 3 4 5 6 
#
# 1 0.019655 -0.003939 -0.001534 0.000000 0.012093 0.000000
# 2 -0.003939 0.009258 -0.002397 0.000000 -0.001128 0.000000
# 3 -0.001534 -0.002397 0.014671 0.000000 0.008744 0.000000
# 4 0.000000 0.000000 0.000000 0.040784 0.000000 -0.014026
# 5 0.012093 -0.001128 0.008744 0.000000 0.044454 0.000000
# 6 0.000000 0.000000 0.000000 -0.014026 0.000000 0.036150
#
#
# Mechanical properties :
#
#
# Convention : Reuss Voigt Hill
#
# Bulk Modulus (GPa) = 35.91235 55.22941 45.57088
# Shear Modulus (GPa) = 26.31676 32.14282 29.22979
#
# Velocity S-wave (km/s) = 3.51825 3.88824 3.70786
# Velocity P-wave (km/s) = 5.77889 6.79228 6.30597
#
# Compressibility (1/GPa) = 0.02784557
#
# Stress axis : x y z
#
# Youngs Moduli (GPa) = 50.87684 108.01071 68.16130
#
# Poissons Ratio (x) = 0.42543 0.10453
# Poissons Ratio (y) = 0.20039 0.16339
# Poissons Ratio (z) = 0.07803 0.25892
#
# Static dielectric constant tensor:
#      x y z
#    x 1.793160 0.000000 -0.010260 
#    y 0.000000 1.780100 0.000000 
#    z -0.010260 0.000000 1.745330 
# 
# From -- ./inp_files/80683.got.cif
#   From: 2010.05.17/outbox.cif.g08.bks.cpg/sg12_41_cif.got.tgz:80683.got - 2010.06.03 13:09:07.
