data_PCOD9218688
_publ_section_title
;
Structure prediction by ZEFSAII (Michael W. Deem and Ramdas Pophale) SiO2 
 PCOD9218688
Probable space group: C 2/M
;
_chemical_formula_sum "Si O2"
_cell_formula_units_Z 32
_cell_length_a 5.077945
_cell_length_b 30.365844
_cell_length_c 9.778997
_cell_angle_alpha 90.000000
_cell_angle_beta 116.632898
_cell_angle_gamma 90.000000
_cell_volume 1347.892137
_symmetry_space_group_name_H-M "C 2/M"
_symmetry_group_IT_number 12
_symmetry_cell_setting 'monoclinic'
loop_
_space_group_symop_operation_xyz
x,y,z
-x,y,-z
-x,-y,-z
x,-y,z
1/2+x,1/2+y,z
1/2-x,1/2+y,-z
1/2-x,1/2-y,-z
1/2+x,1/2-y,z
loop_
_atom_site_type_symbol
_atom_site_label
_atom_site_fract_x
_atom_site_fract_y
_atom_site_fract_z
Si Si1 0.210733 0.773731 0.182667
Si Si2 0.364776 0.137154 0.323719
Si Si3 0.712836 0.952275 0.337188
Si Si4 0.329891 0.592045 0.103975
O O1 0.469277 0.737594 0.240733
O O2 0.373148 0.820488 0.229584
O O3 0.000000 0.773173 0.000000
O O4 0.500000 0.149578 0.500000
O O5 0.515824 0.090602 0.320061
O O6 0.019001 0.125618 0.238862
O O7 0.798552 0.949356 0.197473
O O8 0.000000 0.949252 0.500000
O O9 0.570490 0.000000 0.332005
O O10 0.500000 0.585360 0.000000
O O11 0.000000 0.608005 0.000000
#
# Coordination Sequence:
#
# PCOD9218688 Si02
#       4
#     8   8   8   8
#     4  10  25  46  74 108 147 192 241 305 383 452
#     4  12  26  46  78 110 153 199 256 308 377 445
#     4  11  26  48  75 110 156 205 254 307 377 449
#     4  12  26  46  73 108 147 197 251 314 373 434
#
# _framework density 23.740770000000001
#
# number of rings (size 3 to 8) (size 9 to 14) (size 15 to 20)
#    0.000    0.750    5.000    0.750    3.500    4.500 
#    0.000    0.000    0.000    0.000    0.000    0.000 
#    0.000    0.000    0.000    0.000    0.000    0.000 
#
# Total GULP energy -89342.325502 kJ/mol
# GULP energy per Si atom -5583.895344 kJ/mol
# Density = 2.368673 g / cm^3
# Si number density = 23.740770 Si / 1000 Ang^3
#
#
#
# Elastic Constant Matrix: (Units=GPa)
#
#
# Indices 1 2 3 4 5 6 
#
# 1 125.2402 42.7765 49.2769 0.0000 18.6406 0.0000
# 2 42.7765 137.4224 0.6692 0.0000 23.3164 0.0000
# 3 49.2769 0.6692 108.9771 0.0000 27.3593 0.0000
# 4 0.0000 0.0000 0.0000 98.6458 0.0000 70.2636
# 5 18.6406 23.3164 27.3593 0.0000 31.1690 0.0000
# 6 0.0000 0.0000 0.0000 70.2636 0.0000 85.3681
#
#
#
# Elastic Compliance Matrix: (Units=1/GPa)
#
#
# Indices 1 2 3 4 5 6 
#
# 1 0.011137 -0.003524 -0.005136 0.000000 0.000483 0.000000
# 2 -0.003524 0.009783 0.003645 0.000000 -0.008410 0.000000
# 3 -0.005136 0.003645 0.014609 0.000000 -0.012478 0.000000
# 4 0.000000 0.000000 0.000000 0.024501 0.000000 -0.020166
# 5 0.000483 -0.008410 -0.012478 0.000000 0.049038 0.000000
# 6 0.000000 0.000000 0.000000 -0.020166 0.000000 0.028312
#
#
# Mechanical properties :
#
#
# Convention : Reuss Voigt Hill
#
# Bulk Modulus (GPa) = 39.21680 61.89832 50.55756
# Shear Modulus (GPa) = 32.06998 61.63106 46.85052
#
# Velocity S-wave (km/s) = 3.67936 5.10062 4.44714
# Velocity P-wave (km/s) = 5.88259 7.79857 6.90734
#
# Compressibility (1/GPa) = 0.02549927
#
# Stress axis : x y z
#
# Youngs Moduli (GPa) = 89.79187 102.21988 68.45210
#
# Poissons Ratio (x) = 0.36019 0.35154
# Poissons Ratio (y) = 0.31640 -0.24948
# Poissons Ratio (z) = 0.46113 -0.37255
#
# Static dielectric constant tensor:
#      x y z
#    x 2.017230 0.000000 -0.040330 
#    y 0.000000 1.921990 0.000000 
#    z -0.040330 0.000000 1.906410 
# 
# From -- ./inp_files/115348.got.cif
#   From: 2010.05.17/outbox.cif.g08.bks.cpg/sg12_58_cif.got.tgz:115348.got - 2010.06.03 13:09:07.
