data_PCOD9218402
_publ_section_title
;
Structure prediction by ZEFSAII (Michael W. Deem and Ramdas Pophale) SiO2 
 PCOD9218402
Probable space group: C 2/M
;
_chemical_formula_sum "Si O2"
_cell_formula_units_Z 44
_cell_length_a 13.668102
_cell_length_b 9.903736
_cell_length_c 14.545433
_cell_angle_alpha 90.000000
_cell_angle_beta 61.375714
_cell_angle_gamma 90.000000
_cell_volume 1728.301864
_symmetry_space_group_name_H-M "C 2/M"
_symmetry_group_IT_number 12
_symmetry_cell_setting 'monoclinic'
loop_
_space_group_symop_operation_xyz
x,y,z
-x,y,-z
-x,-y,-z
x,-y,z
1/2+x,1/2+y,z
1/2-x,1/2+y,-z
1/2-x,1/2-y,-z
1/2+x,1/2-y,z
loop_
_atom_site_type_symbol
_atom_site_label
_atom_site_fract_x
_atom_site_fract_y
_atom_site_fract_z
Si Si1 0.020281 0.500000 0.384481
Si Si2 0.717325 0.829469 0.939175
Si Si3 0.938469 0.755465 0.737497
Si Si4 0.551507 0.500000 0.579182
Si Si5 0.876210 0.294058 0.209466
Si Si6 0.659786 0.500000 0.011271
Si Si7 0.404278 0.500000 0.172076
Si Si8 0.784977 0.500000 0.385267
O O1 0.898933 0.500000 0.391037
O O2 0.000000 0.500000 0.500000
O O3 0.081494 0.632799 0.322118
O O4 0.823849 0.814812 0.823700
O O5 0.623713 0.830548 0.898327
O O6 0.696661 0.671590 0.994592
O O7 0.721268 0.000000 0.968715
O O8 0.010369 0.868831 0.653463
O O9 0.002075 0.690149 0.797408
O O10 0.500000 0.500000 0.500000
O O11 0.682429 0.500000 0.499887
O O12 0.791645 0.375746 0.311364
O O13 0.855686 0.136331 0.232278
O O14 0.627900 0.500000 0.919133
O O15 0.539440 0.500000 0.118442
#
# Coordination Sequence:
#
# PCOD9218402 Si02
#       8
#     4   8   8   4   8   4   4   4
#     4  10  24  45  68  95 136 175 227 296 352 418
#     4  12  24  40  68 100 143 184 233 284 342 419
#     4  11  25  43  68 100 139 183 232 288 356 411
#     4  12  24  46  73 101 134 187 232 296 353 423
#     4  11  23  44  67 106 140 191 228 297 345 421
#     4  11  22  41  66 102 136 192 238 280 343 414
#     4  11  21  40  75  96 142 180 241 290 339 400
#     4  10  25  44  70 100 142 176 237 284 368 419
#
# _framework density 25.458514999999998
#
# number of rings (size 3 to 8) (size 9 to 14) (size 15 to 20)
#    0.000    0.909    3.636    3.273    0.000    6.545 
#    0.000    0.909    0.000    6.545    0.000    0.000 
#    0.000    0.000    0.000    0.000    0.000    0.000 
#
# Total GULP energy -123012.673113 kJ/mol
# GULP energy per Si atom -5591.485141 kJ/mol
# Density = 2.540057 g / cm^3
# Si number density = 25.458515 Si / 1000 Ang^3
#
#
#
# Elastic Constant Matrix: (Units=GPa)
#
#
# Indices 1 2 3 4 5 6 
#
# 1 122.7472 28.9940 46.5571 0.0000 35.2850 0.0000
# 2 28.9940 206.2880 71.7651 0.0000 10.6882 0.0000
# 3 46.5571 71.7651 116.8776 0.0000 10.0625 0.0000
# 4 0.0000 0.0000 0.0000 56.8319 0.0000 5.7488
# 5 35.2850 10.6882 10.0625 0.0000 67.3884 0.0000
# 6 0.0000 0.0000 0.0000 5.7488 0.0000 47.3094
#
#
#
# Elastic Compliance Matrix: (Units=1/GPa)
#
#
# Indices 1 2 3 4 5 6 
#
# 1 0.011176 0.000118 -0.004071 0.000000 -0.005263 0.000000
# 2 0.000118 0.006177 -0.003799 0.000000 -0.000474 0.000000
# 3 -0.004071 -0.003799 0.012435 0.000000 0.000878 0.000000
# 4 0.000000 0.000000 0.000000 0.017815 0.000000 -0.002165
# 5 -0.005263 -0.000474 0.000878 0.000000 0.017539 0.000000
# 6 0.000000 0.000000 0.000000 -0.002165 0.000000 0.021401
#
#
# Mechanical properties :
#
#
# Convention : Reuss Voigt Hill
#
# Bulk Modulus (GPa) = 70.01073 82.28279 76.14676
# Shear Modulus (GPa) = 46.81285 54.21236 50.51260
#
# Velocity S-wave (km/s) = 4.29276 4.61959 4.45917
# Velocity P-wave (km/s) = 7.22011 7.80030 7.51581
#
# Compressibility (1/GPa) = 0.01428352
#
# Stress axis : x y z
#
# Youngs Moduli (GPa) = 89.47814 161.88437 80.41826
#
# Poissons Ratio (x) = -0.01914 0.32741
# Poissons Ratio (y) = -0.01058 0.30553
# Poissons Ratio (z) = 0.36430 0.61503
#
# Static dielectric constant tensor:
#      x y z
#    x 2.154810 0.000000 0.034670 
#    y 0.000000 2.089760 0.000000 
#    z 0.034670 0.000000 1.866930 
# 
# From -- ./inp_files/274896.got.cif
#   From: 2010.05.17/outbox.cif.g08.bks.cpg/sg12_138_cif.got.tgz:274896.got - 2010.06.03 13:09:07.
