data_PCOD9218511
_publ_section_title
;
Structure prediction by ZEFSAII (Michael W. Deem and Ramdas Pophale) SiO2 
 PCOD9218511
Probable space group: C 2/M
;
_chemical_formula_sum "Si O2"
_cell_formula_units_Z 34
_cell_length_a 14.144030
_cell_length_b 21.390093
_cell_length_c 14.330535
_cell_angle_alpha 90.000000
_cell_angle_beta 159.388398
_cell_angle_gamma 90.000000
_cell_volume 1526.263033
_symmetry_space_group_name_H-M "C 2/M"
_symmetry_group_IT_number 12
_symmetry_cell_setting 'monoclinic'
loop_
_space_group_symop_operation_xyz
x,y,z
-x,y,-z
-x,-y,-z
x,-y,z
1/2+x,1/2+y,z
1/2-x,1/2+y,-z
1/2-x,1/2-y,-z
1/2+x,1/2-y,z
loop_
_atom_site_type_symbol
_atom_site_label
_atom_site_fract_x
_atom_site_fract_y
_atom_site_fract_z
Si Si1 0.865047 0.500000 0.517317
Si Si2 0.500000 0.892798 0.500000
Si Si3 0.538591 0.231439 0.226522
Si Si4 0.000000 0.191531 0.000000
Si Si5 0.441892 0.101214 0.844463
Si Si6 0.500000 0.500000 0.500000
Si Si7 0.209041 0.000000 0.926924
O O1 0.871144 0.438929 0.457816
O O2 0.123786 0.500000 0.822850
O O3 0.601213 0.500000 0.336467
O O4 0.734214 0.851551 0.762891
O O5 0.750000 0.250000 0.500000
O O6 0.584584 0.158108 0.250055
O O7 0.557044 0.267742 0.145039
O O8 0.250000 0.250000 0.000000
O O9 0.195885 0.054379 0.633806
O O10 0.691341 0.058676 0.041515
O O11 0.500000 0.128753 0.000000
#
# Coordination Sequence:
#
# PCOD9218511 Si02
#       7
#     4   4   8   4   8   2   4
#     4  11  26  47  69 112 145 201 240 325 361 458
#     4  11  26  47  76 103 154 195 256 300 392 429
#     4  12  30  50  79 113 153 208 256 311 388 470
#     4  12  26  51  76 111 150 200 252 322 368 460
#     4  11  27  49  74 112 154 198 252 322 399 457
#     4  10  24  46  84 108 146 212 244 340 406 448
#     4  11  26  41  79 106 146 193 253 315 381 449
#
# _framework density 22.276631999999999
#
# number of rings (size 3 to 8) (size 9 to 14) (size 15 to 20)
#    0.000    0.706    1.176    4.235   19.765    2.824 
#    0.000    0.000    0.000    0.000    0.000    0.000 
#    0.000    0.000    0.000    0.000    0.000    0.000 
#
# Total GULP energy -94955.895055 kJ/mol
# GULP energy per Si atom -5585.640886 kJ/mol
# Density = 2.222593 g / cm^3
# Si number density = 22.276632 Si / 1000 Ang^3
#
#
#
# Elastic Constant Matrix: (Units=GPa)
#
#
# Indices 1 2 3 4 5 6 
#
# 1 130.6998 64.5024 47.8045 -0.0008 3.0390 -0.0009
# 2 64.5024 169.0216 61.0848 -0.0013 8.2768 -0.0008
# 3 47.8045 61.0848 142.1108 -0.0043 0.0752 -0.0023
# 4 -0.0008 -0.0013 -0.0043 -3.7939 -0.0012 2.5794
# 5 3.0390 8.2768 0.0752 -0.0012 59.2846 -0.0011
# 6 -0.0009 -0.0008 -0.0023 2.5794 -0.0011 20.4111
#
#
#
# Elastic Compliance Matrix: (Units=1/GPa)
#
#
# Indices 1 2 3 4 5 6 
#
# 1 0.009893 -0.003041 -0.002021 0.000001 -0.000080 0.000000
# 2 -0.003041 0.007996 -0.002414 0.000001 -0.000957 0.000000
# 3 -0.002021 -0.002414 0.008754 -0.000008 0.000429 0.000002
# 4 0.000001 0.000001 -0.000008 -0.242725 -0.000005 0.030674
# 5 -0.000080 -0.000957 0.000429 -0.000005 0.017005 0.000001
# 6 0.000000 0.000000 0.000002 0.030674 0.000001 0.045117
#
#
# Mechanical properties :
#
#
# Convention : Reuss Voigt Hill
#
# Bulk Modulus (GPa) = 85.52794 87.62395 86.57594
# Shear Modulus (GPa) = -37.00602 33.07639 -1.96482
#
# Velocity S-wave (km/s) = -4.08021 3.85749 -0.94017
# Velocity P-wave (km/s) = 4.03478 7.69806 6.14572
#
# Compressibility (1/GPa) = 0.01169209
#
# Stress axis : x y z
#
# Youngs Moduli (GPa) = 101.08253 125.06059 114.23782
#
# Poissons Ratio (x) = 0.38033 0.23083
# Poissons Ratio (y) = 0.30741 0.27572
# Poissons Ratio (z) = 0.20425 0.30184
#
# Static dielectric constant tensor:
#      x y z
#    x 1.852170 0.000000 -0.088620 
#    y 0.000000 1.759420 0.000000 
#    z -0.088620 0.000000 1.864430 
# 
# From -- ./inp_files/217893.got.cif
#   From: 2010.05.17/outbox.cif.g08.bks.cpg/sg12_109_cif.got.tgz:217893.got - 2010.06.03 13:09:07.
