data_PCOD9218242
_publ_section_title
;
Structure prediction by ZEFSAII (Michael W. Deem and Ramdas Pophale) SiO2 
 PCOD9218242
Probable space group: C 2/M
;
_chemical_formula_sum "Si O2"
_cell_formula_units_Z 46
_cell_length_a 14.753546
_cell_length_b 28.158493
_cell_length_c 15.519438
_cell_angle_alpha 90.000000
_cell_angle_beta 160.334024
_cell_angle_gamma 90.000000
_cell_volume 2169.769016
_symmetry_space_group_name_H-M "C 2/M"
_symmetry_group_IT_number 12
_symmetry_cell_setting 'monoclinic'
loop_
_space_group_symop_operation_xyz
x,y,z
-x,y,-z
-x,-y,-z
x,-y,z
1/2+x,1/2+y,z
1/2-x,1/2+y,-z
1/2-x,1/2-y,-z
1/2+x,1/2-y,z
loop_
_atom_site_type_symbol
_atom_site_label
_atom_site_fract_x
_atom_site_fract_y
_atom_site_fract_z
Si Si1 0.706337 0.421848 0.616300
Si Si2 0.098572 0.414709 0.675169
Si Si3 0.128522 0.000000 0.419611
Si Si4 0.356611 0.298923 0.054972
Si Si5 0.814551 0.358214 0.556588
Si Si6 0.000000 0.500000 0.000000
Si Si7 0.000000 0.829664 0.000000
Si Si8 0.246656 0.000000 0.078626
O O1 0.500000 0.400883 0.500000
O O2 0.548865 0.455762 0.407944
O O3 0.817531 0.381872 0.653222
O O4 0.897565 0.458010 0.839294
O O5 0.253320 0.367052 0.784572
O O6 0.276524 0.452018 0.886982
O O7 0.000000 0.438834 0.500000
O O8 0.856813 0.398787 0.521840
O O9 0.447888 0.000000 0.686660
O O10 0.965276 0.000000 0.186720
O O11 0.558946 0.326669 0.300541
O O12 0.250000 0.250000 0.000000
O O13 0.497934 0.299166 0.086471
O O14 0.085119 0.328034 0.796412
#
# Coordination Sequence:
#
# PCOD9218242 Si02
#       8
#     8   8   4   8   8   2   4   4
#     4  11  26  42  69  96 142 189 243 283 349 410
#     4  11  23  42  65 100 141 185 231 272 337 403
#     4  11  26  42  63  98 133 197 236 282 331 395
#     4  11  25  49  74 102 137 173 227 290 365 423
#     4  11  25  44  73 102 137 178 228 291 340 423
#     4  10  24  44  64  98 144 202 232 290 340 418
#     4  10  24  43  73  98 134 182 221 273 352 430
#     4  12  27  38  66  96 146 184 236 286 322 396
#
# _framework density 21.200413000000001
#
# number of rings (size 3 to 8) (size 9 to 14) (size 15 to 20)
#    0.000    1.043    3.478    1.826   14.609    0.348 
#    3.130    0.000    0.000    0.000    0.000    0.000 
#    0.000    0.000    0.000    0.000    0.000    0.000 
#
# Total GULP energy -128236.377473 kJ/mol
# GULP energy per Si atom -5575.494673 kJ/mol
# Density = 2.115216 g / cm^3
# Si number density = 21.200413 Si / 1000 Ang^3
#
#
#
# Elastic Constant Matrix: (Units=GPa)
#
#
# Indices 1 2 3 4 5 6 
#
# 1 194.5177 52.1046 57.4212 -0.0204 -3.1872 -0.0052
# 2 52.1046 95.5629 29.3325 0.0064 -17.8637 0.0021
# 3 57.4212 29.3325 134.1799 0.0089 -16.1443 0.0108
# 4 -0.0204 0.0064 0.0089 3.3723 0.0000 -27.5842
# 5 -3.1872 -17.8637 -16.1443 0.0000 51.4915 0.0071
# 6 -0.0052 0.0021 0.0108 -27.5842 0.0071 30.3149
#
#
#
# Elastic Compliance Matrix: (Units=1/GPa)
#
#
# Indices 1 2 3 4 5 6 
#
# 1 0.006656 -0.003181 -0.002324 -0.000011 -0.001420 -0.000008
# 2 -0.003181 0.013285 -0.001052 0.000009 0.004082 0.000006
# 3 -0.002324 -0.001052 0.008954 0.000011 0.002299 0.000006
# 4 -0.000011 0.000009 0.000011 -0.046025 0.000012 -0.041879
# 5 -0.001420 0.004082 0.002299 0.000012 0.021470 0.000004
# 6 -0.000008 0.000006 0.000006 -0.041879 0.000004 -0.005120
#
#
# Mechanical properties :
#
#
# Convention : Reuss Voigt Hill
#
# Bulk Modulus (GPa) = 63.36751 77.99746 70.68248
# Shear Modulus (GPa) = 284.22561 36.06256 160.14408
#
# Velocity S-wave (km/s) = 11.59125 4.12883 8.70070
# Velocity P-wave (km/s) = 14.46020 7.72011 11.59089
#
# Compressibility (1/GPa) = 0.01578096
#
# Stress axis : x y z
#
# Youngs Moduli (GPa) = 150.24631 75.27468 111.68773
#
# Poissons Ratio (x) = 0.23946 0.25953
# Poissons Ratio (y) = 0.47796 0.11745
# Poissons Ratio (z) = 0.34913 0.07916
#
# Static dielectric constant tensor:
#      x y z
#    x 1.893160 0.000020 0.069530 
#    y 0.000020 1.663900 0.000010 
#    z 0.069530 0.000010 1.797400 
# 
# From -- ./inp_files/219649.got.cif
#   From: 2010.05.17/outbox.cif.g08.bks.cpg/sg12_110_cif.got.tgz:219649.got - 2010.06.03 13:09:07.
