data_PCOD9218558
_publ_section_title
;
Structure prediction by ZEFSAII (Michael W. Deem and Ramdas Pophale) SiO2 
 PCOD9218558
Probable space group: C 2/M
;
_chemical_formula_sum "Si O2"
_cell_formula_units_Z 38
_cell_length_a 22.295991
_cell_length_b 18.167191
_cell_length_c 11.463881
_cell_angle_alpha 90.000000
_cell_angle_beta 22.005407
_cell_angle_gamma 90.000000
_cell_volume 1739.895140
_symmetry_space_group_name_H-M "C 2/M"
_symmetry_group_IT_number 12
_symmetry_cell_setting 'monoclinic'
loop_
_space_group_symop_operation_xyz
x,y,z
-x,y,-z
-x,-y,-z
x,-y,z
1/2+x,1/2+y,z
1/2-x,1/2+y,-z
1/2-x,1/2-y,-z
1/2+x,1/2-y,z
loop_
_atom_site_type_symbol
_atom_site_label
_atom_site_fract_x
_atom_site_fract_y
_atom_site_fract_z
Si Si1 0.500000 0.000000 0.500000
Si Si2 0.264035 0.393245 0.119274
Si Si3 0.944286 0.704183 0.228339
Si Si4 0.674807 0.582906 0.727448
Si Si5 0.500000 0.370868 0.500000
Si Si6 0.772490 0.776542 0.743794
O O1 0.600635 0.935466 0.389284
O O2 0.332578 0.417221 0.119437
O O3 0.247756 0.304465 0.161740
O O4 0.382741 0.412143 0.799554
O O5 0.820741 0.637188 0.435203
O O6 0.854222 0.763918 0.470297
O O7 0.000000 0.728247 0.000000
O O8 0.101321 0.687361 0.023352
O O9 0.705058 0.500000 0.629268
O O10 0.500000 0.606308 0.000000
O O11 0.384334 0.322846 0.626243
#
# Coordination Sequence:
#
# PCOD9218558 Si02
#       6
#     2   8   8   8   4   8
#     4  12  26  46  70  96 140 180 236 280 340 400
#     4  11  25  43  71  99 136 185 224 283 340 409
#     4  11  25  41  72 103 137 180 227 287 344 413
#     4  10  24  48  71  98 139 185 230 284 346 400
#     4  12  25  41  68 103 139 182 224 282 334 419
#     4  11  24  44  67 104 142 175 224 285 352 401
#
# _framework density 21.840395999999998
#
# number of rings (size 3 to 8) (size 9 to 14) (size 15 to 20)
#    0.000    1.053    3.158    1.895    8.842    4.211 
#    0.000    0.000   11.579    0.000    0.000    0.000 
#    0.000    0.000    0.000    0.000    0.000    0.000 
#
# Total GULP energy -105987.670052 kJ/mol
# GULP energy per Si atom -5578.298424 kJ/mol
# Density = 2.179069 g / cm^3
# Si number density = 21.840396 Si / 1000 Ang^3
#
#
#
# Elastic Constant Matrix: (Units=GPa)
#
#
# Indices 1 2 3 4 5 6 
#
# 1 156.9874 51.2765 69.2033 -0.0042 -34.6170 0.0039
# 2 51.2765 101.3841 39.2887 -0.0045 -23.6186 0.0057
# 3 69.2033 39.2887 100.9853 -0.0001 -5.5851 0.0015
# 4 -0.0042 -0.0045 -0.0001 12.6633 0.0027 -21.4513
# 5 -34.6170 -23.6186 -5.5851 0.0027 69.1702 -0.0031
# 6 0.0039 0.0057 0.0015 -21.4513 -0.0031 16.4016
#
#
#
# Elastic Compliance Matrix: (Units=1/GPa)
#
#
# Indices 1 2 3 4 5 6 
#
# 1 0.010747 -0.001998 -0.006356 -0.000001 0.004183 -0.000002
# 2 -0.001998 0.012963 -0.003500 0.000002 0.003144 -0.000001
# 3 -0.006356 -0.003500 0.015447 0.000001 -0.003129 0.000002
# 4 -0.000001 0.000002 0.000001 -0.064967 -0.000001 -0.084969
# 5 0.004183 0.003144 -0.003129 -0.000001 0.017371 0.000000
# 6 -0.000002 -0.000001 0.000002 -0.084969 0.000000 -0.050159
#
#
# Mechanical properties :
#
#
# Convention : Reuss Voigt Hill
#
# Bulk Modulus (GPa) = 64.73237 75.43264 70.08251
# Shear Modulus (GPa) = -168.11413 32.95292 -67.58061
#
# Velocity S-wave (km/s) = -8.78300 3.88855 -5.56867
# Velocity P-wave (km/s) = 8.55287 7.40096 3.03128
#
# Compressibility (1/GPa) = 0.01544822
#
# Stress axis : x y z
#
# Youngs Moduli (GPa) = 93.05236 77.14445 64.73850
#
# Poissons Ratio (x) = 0.15412 0.41147
# Poissons Ratio (y) = 0.18590 0.22660
# Poissons Ratio (z) = 0.59143 0.27003
#
# Static dielectric constant tensor:
#      x y z
#    x 1.763400 0.000000 0.012470 
#    y 0.000000 1.777730 0.000000 
#    z 0.012470 0.000000 1.838600 
# 
# From -- ./inp_files/177857.got.cif
#   From: 2010.05.17/outbox.cif.g08.bks.cpg/sg12_89_cif.got.tgz:177857.got - 2010.06.03 13:09:07.
