data_PCOD9218980
_publ_section_title
;
Structure prediction by ZEFSAII (Michael W. Deem and Ramdas Pophale) SiO2 
 PCOD9218980
Probable space group: C 2/M
;
_chemical_formula_sum "Si O2"
_cell_formula_units_Z 56
_cell_length_a 12.806376
_cell_length_b 22.236788
_cell_length_c 11.467013
_cell_angle_alpha 90.000000
_cell_angle_beta 128.613276
_cell_angle_gamma 90.000000
_cell_volume 2551.576638
_symmetry_space_group_name_H-M "C 2/M"
_symmetry_group_IT_number 12
_symmetry_cell_setting 'monoclinic'
loop_
_space_group_symop_operation_xyz
x,y,z
-x,y,-z
-x,-y,-z
x,-y,z
1/2+x,1/2+y,z
1/2-x,1/2+y,-z
1/2-x,1/2-y,-z
1/2+x,1/2-y,z
loop_
_atom_site_type_symbol
_atom_site_label
_atom_site_fract_x
_atom_site_fract_y
_atom_site_fract_z
Si Si1 0.806862 0.721762 0.884042
Si Si2 0.080618 0.067945 0.679310
Si Si3 0.403186 0.866020 0.154843
Si Si4 0.645033 0.352822 0.378235
Si Si5 0.507666 0.243736 0.644138
Si Si6 0.672474 0.879153 0.274906
Si Si7 0.150665 0.861326 0.114947
O O1 0.647589 0.725840 0.776063
O O2 0.845547 0.687610 0.792249
O O3 0.854702 0.790449 0.924486
O O4 0.858467 0.680287 0.023387
O O5 0.229402 0.088921 0.749507
O O6 0.000000 0.069631 0.500000
O O7 0.993597 0.110502 0.701149
O O8 0.081346 0.000000 0.723482
O O9 0.477411 0.824269 0.303013
O O10 0.524378 0.905667 0.189217
O O11 0.267549 0.890510 0.118119
O O12 0.608149 0.283840 0.380840
O O13 0.746751 0.375793 0.547720
O O14 0.692741 0.360853 0.279921
O O15 0.500000 0.247303 0.500000
O O16 0.000000 0.885640 0.000000
#
# Coordination Sequence:
#
# PCOD9218980 Si02
#       7
#     8   8   8   8   8   8   8
#     4  11  20  37  52  80 118 156 195 227 271 331
#     4   9  19  38  63  89 109 138 188 245 294 333
#     4  11  25  34  52  81 121 161 188 221 276 343
#     4  11  20  35  57  84 113 144 194 234 281 331
#     4  11  19  33  54  80 115 152 195 233 267 322
#     4  11  21  34  59  83 111 143 184 245 284 329
#     4  11  23  36  53  79 116 163 194 221 267 343
#
# _framework density 21.947215
#
# number of rings (size 3 to 8) (size 9 to 14) (size 15 to 20)
#    0.000    1.286    2.857    6.000    4.000    1.143 
#    0.000    0.000    0.000    3.000    0.000    4.000 
#    0.000    0.000    0.000    0.000    0.000    0.000 
#
# Total GULP energy -156481.245306 kJ/mol
# GULP energy per Si atom -5588.615904 kJ/mol
# Density = 2.189726 g / cm^3
# Si number density = 21.947215 Si / 1000 Ang^3
#
#
#
# Elastic Constant Matrix: (Units=GPa)
#
#
# Indices 1 2 3 4 5 6 
#
# 1 163.6043 19.3593 37.0281 0.0000 23.1872 0.0000
# 2 19.3593 25.0909 -5.0143 0.0000 7.2426 0.0000
# 3 37.0281 -5.0143 69.3501 0.0000 -4.0559 0.0000
# 4 0.0000 0.0000 0.0000 6.6792 0.0000 1.0968
# 5 23.1872 7.2426 -4.0559 0.0000 43.3578 0.0000
# 6 0.0000 0.0000 0.0000 1.0968 0.0000 9.8066
#
#
#
# Elastic Compliance Matrix: (Units=1/GPa)
#
#
# Indices 1 2 3 4 5 6 
#
# 1 0.008675 -0.006596 -0.005345 0.000000 -0.004037 0.000000
# 2 -0.006596 0.047373 0.006727 0.000000 -0.003757 0.000000
# 3 -0.005345 0.006727 0.017959 0.000000 0.003415 0.000000
# 4 0.000000 0.000000 0.000000 0.152518 0.000000 -0.017058
# 5 -0.004037 -0.003757 0.003415 0.000000 0.026170 0.000000
# 6 0.000000 0.000000 0.000000 -0.017058 0.000000 0.103880
#
#
# Mechanical properties :
#
#
# Convention : Reuss Voigt Hill
#
# Bulk Modulus (GPa) = 15.72808 40.08795 27.90802
# Shear Modulus (GPa) = 12.88011 25.74686 19.31349
#
# Velocity S-wave (km/s) = 2.42516 3.42881 2.96969
# Velocity P-wave (km/s) = 3.87605 5.82932 4.94998
#
# Compressibility (1/GPa) = 0.06358053
#
# Stress axis : x y z
#
# Youngs Moduli (GPa) = 115.27871 21.10909 55.68119
#
# Poissons Ratio (x) = 0.13923 0.29760
# Poissons Ratio (y) = 0.76035 -0.37458
# Poissons Ratio (z) = 0.61613 -0.14201
#
# Static dielectric constant tensor:
#      x y z
#    x 1.890140 0.000000 0.016070 
#    y 0.000000 1.785580 0.000000 
#    z 0.016070 0.000000 1.830760 
# 
# From -- ./inp_files/135468.got.cif
#   From: 2010.05.17/outbox.cif.g08.bks.cpg/sg12_68_cif.got.tgz:135468.got - 2010.06.03 13:09:07.
