data_PCOD9218238
_publ_section_title
;
Structure prediction by ZEFSAII (Michael W. Deem and Ramdas Pophale) SiO2 
 PCOD9218238
Probable space group: C 2/M
;
_chemical_formula_sum "Si O2"
_cell_formula_units_Z 36
_cell_length_a 10.175537
_cell_length_b 22.967142
_cell_length_c 7.486305
_cell_angle_alpha 90.000000
_cell_angle_beta 124.499475
_cell_angle_gamma 90.000000
_cell_volume 1441.877152
_symmetry_space_group_name_H-M "C 2/M"
_symmetry_group_IT_number 12
_symmetry_cell_setting 'monoclinic'
loop_
_space_group_symop_operation_xyz
x,y,z
-x,y,-z
-x,-y,-z
x,-y,z
1/2+x,1/2+y,z
1/2-x,1/2+y,-z
1/2-x,1/2-y,-z
1/2+x,1/2-y,z
loop_
_atom_site_type_symbol
_atom_site_label
_atom_site_fract_x
_atom_site_fract_y
_atom_site_fract_z
Si Si1 0.500000 0.200051 0.000000
Si Si2 0.522332 0.000000 0.234710
Si Si3 0.704801 0.710099 0.298149
Si Si4 0.625413 0.122035 0.816266
Si Si5 0.396956 0.500000 0.604889
Si Si6 0.534200 0.380875 0.738114
O O1 0.346984 0.241773 0.886616
O O2 0.496329 0.158728 0.827233
O O3 0.440808 0.057319 0.254475
O O4 0.710738 0.000000 0.417952
O O5 0.500000 0.000000 0.000000
O O6 0.750000 0.750000 0.500000
O O7 0.550988 0.673426 0.238065
O O8 0.823379 0.661705 0.311236
O O9 0.782068 0.117181 0.064141
O O10 0.500000 0.500000 0.500000
O O11 0.449379 0.440385 0.738415
O O12 0.500000 0.376481 0.500000
#
# Coordination Sequence:
#
# PCOD9218238 Si02
#       6
#     4   4   8   8   4   8
#     4  12  26  47  74 111 156 196 268 310 406 464
#     4  12  24  47  78 121 154 205 260 335 402 459
#     4  12  28  46  74 111 154 209 262 324 394 470
#     4  12  26  48  77 114 158 204 264 327 391 479
#     4  10  24  43  72 109 151 198 260 314 395 474
#     4  11  23  46  73 106 149 209 259 322 394 465
#
# _framework density 24.967452000000002
#
# number of rings (size 3 to 8) (size 9 to 14) (size 15 to 20)
#    0.000    0.444    3.333    5.333    6.222    0.889 
#    0.000    3.333    0.000    0.000    0.000    0.000 
#    0.000    0.000    0.000    0.000    0.000    0.000 
#
# Total GULP energy -100883.072888 kJ/mol
# GULP energy per Si atom -5604.615160 kJ/mol
# Density = 2.491063 g / cm^3
# Si number density = 24.967452 Si / 1000 Ang^3
#
#
#
# Elastic Constant Matrix: (Units=GPa)
#
#
# Indices 1 2 3 4 5 6 
#
# 1 109.6644 71.2773 49.1388 0.0000 2.6499 0.0000
# 2 71.2773 236.7211 63.7681 0.0000 5.5129 0.0000
# 3 49.1388 63.7681 130.9741 0.0000 6.6702 0.0000
# 4 0.0000 0.0000 0.0000 -27.3174 0.0000 3.1190
# 5 2.6499 5.5129 6.6702 0.0000 47.8670 0.0000
# 6 0.0000 0.0000 0.0000 3.1190 0.0000 53.8710
#
#
#
# Elastic Compliance Matrix: (Units=1/GPa)
#
#
# Indices 1 2 3 4 5 6 
#
# 1 0.012450 -0.002867 -0.003280 0.000000 0.000098 0.000000
# 2 -0.002867 0.005525 -0.001601 0.000000 -0.000254 0.000000
# 3 -0.003280 -0.001601 0.009695 0.000000 -0.000985 0.000000
# 4 0.000000 0.000000 0.000000 -0.036366 0.000000 0.002106
# 5 0.000098 -0.000254 -0.000985 0.000000 0.021052 0.000000
# 6 0.000000 0.000000 0.000000 0.002106 0.000000 0.018441
#
#
# Mechanical properties :
#
#
# Convention : Reuss Voigt Hill
#
# Bulk Modulus (GPa) = 82.14763 93.96976 88.05870
# Shear Modulus (GPa) = 99.30133 34.42914 66.86523
#
# Velocity S-wave (km/s) = 6.31337 3.71746 5.18065
# Velocity P-wave (km/s) = 9.27999 7.49297 8.43394
#
# Compressibility (1/GPa) = 0.01217321
#
# Stress axis : x y z
#
# Youngs Moduli (GPa) = 80.32346 180.99434 103.14185
#
# Poissons Ratio (x) = 0.51898 0.33828
# Poissons Ratio (y) = 0.23032 0.16516
# Poissons Ratio (z) = 0.26344 0.28982
#
# Static dielectric constant tensor:
#      x y z
#    x 2.142920 0.000000 -0.191260 
#    y 0.000000 1.967090 0.000000 
#    z -0.191260 0.000000 2.134810 
# 
# From -- ./inp_files/147867.got.cif
#   From: 2010.05.17/outbox.cif.g08.bks.cpg/sg12_74_cif.got.tgz:147867.got - 2010.06.03 13:09:07.
