data_PCOD9218754
_publ_section_title
;
Structure prediction by ZEFSAII (Michael W. Deem and Ramdas Pophale) SiO2 
 PCOD9218754
Probable space group: C 2/M
;
_chemical_formula_sum "Si O2"
_cell_formula_units_Z 44
_cell_length_a 11.621505
_cell_length_b 26.364688
_cell_length_c 8.435092
_cell_angle_alpha 90.000000
_cell_angle_beta 128.469283
_cell_angle_gamma 90.000000
_cell_volume 2023.505101
_symmetry_space_group_name_H-M "C 2/M"
_symmetry_group_IT_number 12
_symmetry_cell_setting 'monoclinic'
loop_
_space_group_symop_operation_xyz
x,y,z
-x,y,-z
-x,-y,-z
x,-y,z
1/2+x,1/2+y,z
1/2-x,1/2+y,-z
1/2-x,1/2-y,-z
1/2+x,1/2-y,z
loop_
_atom_site_type_symbol
_atom_site_label
_atom_site_fract_x
_atom_site_fract_y
_atom_site_fract_z
Si Si1 0.981974 0.810839 0.178823
Si Si2 0.977084 0.407621 0.813437
Si Si3 0.748807 0.500000 0.648399
Si Si4 0.456179 0.500000 0.211360
Si Si5 0.000000 0.739557 0.500000
Si Si6 0.788939 0.906647 0.954828
Si Si7 0.292433 0.152131 0.416233
O O1 0.967571 0.769483 0.306637
O O2 0.136829 0.836166 0.359661
O O3 0.000000 0.798289 0.000000
O O4 0.855459 0.853786 0.079461
O O5 0.857313 0.451922 0.730416
O O6 0.916615 0.368333 0.636941
O O7 0.138141 0.426086 0.902879
O O8 0.000000 0.380831 0.000000
O O9 0.626355 0.500000 0.405560
O O10 0.647536 0.500000 0.719183
O O11 0.409546 0.449676 0.078717
O O12 0.141599 0.703507 0.598608
O O13 0.742852 0.891453 0.739604
#
# Coordination Sequence:
#
# PCOD9218754 Si02
#       7
#     8   8   4   4   4   8   8
#     4  10  26  45  71 102 141 184 238 293 354 415
#     4  12  23  41  69  98 141 180 233 284 348 412
#     4  11  24  40  65 106 141 180 235 285 344 418
#     4  11  23  43  70 104 141 185 231 280 350 424
#     4  12  24  46  74 100 140 188 240 292 356 416
#     4  11  23  45  69 101 140 181 230 286 346 419
#     4  11  25  48  64 104 139 180 234 295 348 421
#
# _framework density 21.744447000000001
#
# number of rings (size 3 to 8) (size 9 to 14) (size 15 to 20)
#    0.000    0.909    3.636    2.455    2.545    5.818 
#    0.000    6.818    0.000    0.000    0.000    0.000 
#    0.000    0.000    0.000    0.000    0.000    0.000 
#
# Total GULP energy -122812.112939 kJ/mol
# GULP energy per Si atom -5582.368770 kJ/mol
# Density = 2.169496 g / cm^3
# Si number density = 21.744447 Si / 1000 Ang^3
#
#
#
# Elastic Constant Matrix: (Units=GPa)
#
#
# Indices 1 2 3 4 5 6 
#
# 1 94.4464 38.8142 38.9472 0.0000 20.7263 0.0000
# 2 38.8142 91.9141 72.5686 0.0000 -19.4852 0.0000
# 3 38.9472 72.5686 153.5394 0.0000 4.9007 0.0000
# 4 0.0000 0.0000 0.0000 42.0926 0.0000 6.6223
# 5 20.7263 -19.4852 4.9007 0.0000 40.6156 0.0000
# 6 0.0000 0.0000 0.0000 6.6223 0.0000 -11.6210
#
#
#
# Elastic Compliance Matrix: (Units=1/GPa)
#
#
# Indices 1 2 3 4 5 6 
#
# 1 0.018395 -0.012394 0.001688 0.000000 -0.015537 0.000000
# 2 -0.012394 0.030153 -0.011817 0.000000 0.022216 0.000000
# 3 0.001688 -0.011817 0.011924 0.000000 -0.007969 0.000000
# 4 0.000000 0.000000 0.000000 0.021802 0.000000 0.012424
# 5 -0.015537 0.022216 -0.007969 0.000000 0.044169 0.000000
# 6 0.000000 0.000000 0.000000 0.012424 0.000000 -0.078971
#
#
# Mechanical properties :
#
#
# Convention : Reuss Voigt Hill
#
# Bulk Modulus (GPa) = 64.82532 71.17335 67.99933
# Shear Modulus (GPa) = 51.19713 26.85543 39.02628
#
# Velocity S-wave (km/s) = 4.85758 3.51814 4.24107
# Velocity P-wave (km/s) = 7.83189 7.02181 7.43789
#
# Compressibility (1/GPa) = 0.01542607
#
# Stress axis : x y z
#
# Youngs Moduli (GPa) = 54.36175 33.16427 83.86326
#
# Poissons Ratio (x) = 0.41105 -0.14154
# Poissons Ratio (y) = 0.67378 0.99097
# Poissons Ratio (z) = -0.09175 0.39189
#
# Static dielectric constant tensor:
#      x y z
#    x 1.891350 0.000000 -0.049660 
#    y 0.000000 1.768620 0.000000 
#    z -0.049660 0.000000 1.788560 
# 
# From -- ./inp_files/53439.got.cif
#   From: 2010.05.17/outbox.cif.g08.bks.cpg/sg12_27_cif.got.tgz:53439.got - 2010.06.03 13:09:07.
