data_PCOD9218403
_publ_section_title
;
Structure prediction by ZEFSAII (Michael W. Deem and Ramdas Pophale) SiO2 
 PCOD9218403
Probable space group: C 2/M
;
_chemical_formula_sum "Si O2"
_cell_formula_units_Z 52
_cell_length_a 14.336282
_cell_length_b 19.123793
_cell_length_c 18.925714
_cell_angle_alpha 90.000000
_cell_angle_beta 156.063015
_cell_angle_gamma 90.000000
_cell_volume 2105.240628
_symmetry_space_group_name_H-M "C 2/M"
_symmetry_group_IT_number 12
_symmetry_cell_setting 'monoclinic'
loop_
_space_group_symop_operation_xyz
x,y,z
-x,y,-z
-x,-y,-z
x,-y,z
1/2+x,1/2+y,z
1/2-x,1/2+y,-z
1/2-x,1/2-y,-z
1/2+x,1/2-y,z
loop_
_atom_site_type_symbol
_atom_site_label
_atom_site_fract_x
_atom_site_fract_y
_atom_site_fract_z
Si Si1 0.278052 0.000000 0.045352
Si Si2 0.480283 0.406056 0.245503
Si Si3 0.493122 0.737744 0.796688
Si Si4 0.846269 0.390559 0.688550
Si Si5 0.723659 0.715851 0.205021
Si Si6 0.006644 0.576146 0.590643
Si Si7 0.834837 0.120276 0.286238
O O1 0.452341 0.060305 0.197374
O O2 0.124685 0.060308 0.897274
O O3 0.500520 0.322975 0.254469
O O4 0.309794 0.416720 0.193503
O O5 0.744613 0.427762 0.435888
O O6 0.394619 0.810631 0.703373
O O7 0.350802 0.710912 0.764907
O O8 0.750000 0.750000 0.000000
O O9 0.835291 0.397496 0.767090
O O10 0.588749 0.404264 0.485196
O O11 0.876627 0.646707 0.298896
O O12 0.824270 0.794935 0.271468
O O13 0.500000 0.714076 0.000000
O O14 0.122096 0.500000 0.685992
O O15 0.000000 0.581712 0.500000
#
# Coordination Sequence:
#
# PCOD9218403 Si02
#       7
#     4   8   8   8   8   8   8
#     4  12  26  44  69 103 135 184 230 279 353 408
#     4  12  24  43  71 103 132 183 234 282 337 411
#     4  11  21  40  67  97 132 174 228 284 333 397
#     4  10  24  45  68  97 141 180 221 287 349 417
#     4  11  24  42  69 101 133 180 230 282 341 411
#     4  11  24  45  68  95 140 184 224 282 348 406
#     4  10  25  44  70 101 135 178 229 285 352 406
#
# _framework density 24.700265000000002
#
# number of rings (size 3 to 8) (size 9 to 14) (size 15 to 20)
#    0.000    1.077    3.846    1.846    4.308    7.077 
#    0.000    0.000    0.000    0.000    0.000    0.000 
#    0.000    0.000    0.000    0.000    0.000    0.000 
#
# Total GULP energy -144947.511800 kJ/mol
# GULP energy per Si atom -5574.904300 kJ/mol
# Density = 2.464405 g / cm^3
# Si number density = 24.700265 Si / 1000 Ang^3
#
#
#
# Elastic Constant Matrix: (Units=GPa)
#
#
# Indices 1 2 3 4 5 6 
#
# 1 89.2729 16.7332 -19.6094 0.0029 2.7877 0.0570
# 2 16.7332 76.1983 16.0429 0.0705 -1.4225 -0.1192
# 3 -19.6094 16.0429 88.6119 0.1566 -3.3875 -0.1575
# 4 0.0029 0.0705 0.1566 46.6787 -0.0204 -36.7596
# 5 2.7877 -1.4225 -3.3875 -0.0204 17.0819 0.0434
# 6 0.0570 -0.1192 -0.1575 -36.7596 0.0434 -20.5021
#
#
#
# Elastic Compliance Matrix: (Units=1/GPa)
#
#
# Indices 1 2 3 4 5 6 
#
# 1 0.012655 -0.003521 0.003373 0.000005 -0.001690 0.000016
# 2 -0.003521 0.014630 -0.003385 -0.000026 0.001122 -0.000020
# 3 0.003373 -0.003385 0.012709 -0.000037 0.001688 0.000001
# 4 0.000005 -0.000026 -0.000037 0.008882 0.000041 -0.015925
# 5 -0.001690 0.001122 0.001688 0.000041 0.059245 0.000028
# 6 0.000016 -0.000020 0.000001 -0.015925 0.000028 -0.020222
#
#
# Mechanical properties :
#
#
# Convention : Reuss Voigt Hill
#
# Bulk Modulus (GPa) = 30.36754 31.15738 30.76246
# Shear Modulus (GPa) = 47.19572 24.71280 35.95426
#
# Velocity S-wave (km/s) = 4.37594 3.16651 3.81940
# Velocity P-wave (km/s) = 6.15247 5.10006 5.65082
#
# Compressibility (1/GPa) = 0.03292990
#
# Stress axis : x y z
#
# Youngs Moduli (GPa) = 79.01829 68.35049 78.68351
#
# Poissons Ratio (x) = 0.24065 -0.26543
# Poissons Ratio (y) = 0.27821 0.26635
# Poissons Ratio (z) = -0.26656 0.23137
#
# Static dielectric constant tensor:
#      x y z
#    x 2.041170 -0.000040 -0.031980 
#    y -0.000040 1.857460 0.000020 
#    z -0.031980 0.000020 1.923810 
# 
# From -- ./inp_files/344712.got.cif
#   From: 2010.05.17/outbox.cif.g08.bks.cpg/sg12_173_cif.got.tgz:344712.got - 2010.06.03 13:09:07.
