data_PCOD9218886
_publ_section_title
;
Structure prediction by ZEFSAII (Michael W. Deem and Ramdas Pophale) SiO2 
 PCOD9218886
Probable space group: C 2/M
;
_chemical_formula_sum "Si O2"
_cell_formula_units_Z 64
_cell_length_a 15.588937
_cell_length_b 29.389976
_cell_length_c 13.382353
_cell_angle_alpha 90.000000
_cell_angle_beta 35.407475
_cell_angle_gamma 90.000000
_cell_volume 3552.363057
_symmetry_space_group_name_H-M "C 2/M"
_symmetry_group_IT_number 12
_symmetry_cell_setting 'monoclinic'
loop_
_space_group_symop_operation_xyz
x,y,z
-x,y,-z
-x,-y,-z
x,-y,z
1/2+x,1/2+y,z
1/2-x,1/2+y,-z
1/2-x,1/2-y,-z
1/2+x,1/2-y,z
loop_
_atom_site_type_symbol
_atom_site_label
_atom_site_fract_x
_atom_site_fract_y
_atom_site_fract_z
Si Si1 0.608939 0.793212 0.323243
Si Si2 0.919300 0.199358 0.971735
Si Si3 0.754470 0.950193 0.783638
Si Si4 0.719701 0.293156 0.349496
Si Si5 0.003392 0.286008 0.205075
Si Si6 0.483799 0.648787 0.308736
Si Si7 0.419564 0.449407 0.421909
Si Si8 0.816581 0.355986 0.077812
O O1 0.500000 0.819868 0.500000
O O2 0.659339 0.749084 0.341079
O O3 0.521414 0.780706 0.305663
O O4 0.756156 0.819187 0.149210
O O5 0.894042 0.248442 0.945338
O O6 0.015097 0.172323 0.800139
O O7 0.000000 0.204776 0.000000
O O8 0.800349 0.945106 0.624320
O O9 0.661806 0.908167 0.912279
O O10 0.915973 0.949459 0.684578
O O11 0.688348 0.000000 0.863170
O O12 0.599638 0.322322 0.525855
O O13 0.801066 0.326294 0.193271
O O14 0.841198 0.277493 0.314895
O O15 0.062691 0.334271 0.109633
O O16 0.418014 0.597932 0.364268
O O17 0.655558 0.647345 0.178607
O O18 0.400732 0.500000 0.393479
#
# Coordination Sequence:
#
# PCOD9218886 Si02
#       8
#     8   8   8   8   8   8   8   8
#     4  12  25  40  55  74 105 146 188 225 268 318
#     4  12  23  39  54  76 111 140 183 234 266 310
#     4   8  14  25  48  79 109 138 172 215 264 322
#     4  12  23  36  55  79 108 146 186 223 264 326
#     4  12  24  39  54  74 112 151 184 227 270 311
#     4  11  22  34  57  84 105 143 185 220 270 325
#     4   8  14  28  49  79 111 136 169 217 270 323
#     4  11  18  34  54  78 111 144 181 218 267 320
#
# _framework density 18.016176000000002
#
# number of rings (size 3 to 8) (size 9 to 14) (size 15 to 20)
#    0.000    1.250    5.000    4.125    1.750    1.000 
#    0.000    0.000    0.000    2.625    0.000    0.000 
#    0.000    1.000    0.000    0.000    0.000    0.000 
#
# Total GULP energy -178607.404350 kJ/mol
# GULP energy per Si atom -5581.481386 kJ/mol
# Density = 1.797517 g / cm^3
# Si number density = 18.016176 Si / 1000 Ang^3
#
#
#
# Elastic Constant Matrix: (Units=GPa)
#
#
# Indices 1 2 3 4 5 6 
#
# 1 91.8472 6.5814 24.2931 0.0000 16.8164 0.0000
# 2 6.5814 104.8693 38.0597 0.0000 15.2975 0.0000
# 3 24.2931 38.0597 65.2211 0.0000 21.5446 0.0000
# 4 0.0000 0.0000 0.0000 23.6482 0.0000 4.3684
# 5 16.8164 15.2975 21.5446 0.0000 28.8155 0.0000
# 6 0.0000 0.0000 0.0000 4.3684 0.0000 7.4446
#
#
#
# Elastic Compliance Matrix: (Units=1/GPa)
#
#
# Indices 1 2 3 4 5 6 
#
# 1 0.012769 0.001349 -0.003778 0.000000 -0.005343 0.000000
# 2 0.001349 0.012291 -0.006984 0.000000 -0.002090 0.000000
# 3 -0.003778 -0.006984 0.025049 0.000000 -0.012816 0.000000
# 4 0.000000 0.000000 0.000000 0.047427 0.000000 -0.027830
# 5 -0.005343 -0.002090 -0.012816 0.000000 0.048513 0.000000
# 6 0.000000 0.000000 0.000000 -0.027830 0.000000 0.150656
#
#
# Mechanical properties :
#
#
# Convention : Reuss Voigt Hill
#
# Bulk Modulus (GPa) = 31.96790 44.42290 38.19540
# Shear Modulus (GPa) = 15.33936 24.84853 20.09395
#
# Velocity S-wave (km/s) = 2.92108 3.71783 3.34328
# Velocity P-wave (km/s) = 5.39995 6.56814 6.01248
#
# Compressibility (1/GPa) = 0.03128138
#
# Stress axis : x y z
#
# Youngs Moduli (GPa) = 78.31723 81.36233 39.92190
#
# Poissons Ratio (x) = -0.10978 0.15084
# Poissons Ratio (y) = -0.10568 0.27883
# Poissons Ratio (z) = 0.29592 0.56826
#
# Static dielectric constant tensor:
#      x y z
#    x 1.638090 0.000000 -0.032640 
#    y 0.000000 1.644380 0.000000 
#    z -0.032640 0.000000 1.648740 
# 
# From -- ./inp_files/150270.got.cif
#   From: 2010.05.17/outbox.cif.g08.bks.cpg/sg12_76_cif.got.tgz:150270.got - 2010.06.03 13:09:07.
