data_PCOD9218859
_publ_section_title
;
Structure prediction by ZEFSAII (Michael W. Deem and Ramdas Pophale) SiO2 
 PCOD9218859
Probable space group: C 2/M
;
_chemical_formula_sum "Si O2"
_cell_formula_units_Z 56
_cell_length_a 26.477303
_cell_length_b 21.925504
_cell_length_c 17.435732
_cell_angle_alpha 90.000000
_cell_angle_beta 19.828447
_cell_angle_gamma 90.000000
_cell_volume 3433.410939
_symmetry_space_group_name_H-M "C 2/M"
_symmetry_group_IT_number 12
_symmetry_cell_setting 'monoclinic'
loop_
_space_group_symop_operation_xyz
x,y,z
-x,y,-z
-x,-y,-z
x,-y,z
1/2+x,1/2+y,z
1/2-x,1/2+y,-z
1/2-x,1/2-y,-z
1/2+x,1/2-y,z
loop_
_atom_site_type_symbol
_atom_site_label
_atom_site_fract_x
_atom_site_fract_y
_atom_site_fract_z
Si Si1 0.373090 0.217540 0.616848
Si Si2 0.093835 0.240020 0.795307
Si Si3 0.674697 0.068693 0.767481
Si Si4 0.665762 0.678387 0.036181
Si Si5 0.651662 0.170290 0.926443
Si Si6 0.608561 0.180275 0.158766
Si Si7 0.158913 0.165759 0.555539
O O1 0.500000 0.227935 0.500000
O O2 0.288157 0.281441 0.726311
O O3 0.455874 0.188501 0.425227
O O4 0.253618 0.174140 0.830127
O O5 0.129787 0.187147 0.684026
O O6 0.238613 0.276869 0.617618
O O7 0.000000 0.216103 0.000000
O O8 0.990834 0.291326 0.901082
O O9 0.689734 0.113187 0.818858
O O10 0.751537 0.104417 0.587683
O O11 0.730911 0.000000 0.698187
O O12 0.500000 0.065988 0.000000
O O13 0.653392 0.750437 0.072439
O O14 0.496847 0.658587 0.266009
O O15 0.767332 0.653617 0.960233
O O16 0.612642 0.150357 0.069177
#
# Coordination Sequence:
#
# PCOD9218859 Si02
#       7
#     8   8   8   8   8   8   8
#     4   9  17  28  45  74 111 139 159 198 262 322
#     4  11  21  31  48  81 105 128 157 215 275 306
#     4  11  23  39  53  69 101 146 183 202 238 305
#     4   9  17  28  43  72 101 136 165 199 257 316
#     4  11  18  32  48  76 101 134 170 215 246 305
#     4   9  17  27  45  69 104 136 163 199 256 313
#     4  11  19  33  52  72 107 133 167 212 258 306
#
# _framework density 16.310310999999999
#
# number of rings (size 3 to 8) (size 9 to 14) (size 15 to 20)
#    0.000    1.857    5.714    1.714    0.000    0.000 
#    0.000    0.000    0.000    4.286    0.000    1.000 
#    0.000    3.429    0.000    0.000    0.000    0.000 
#
# Total GULP energy -155925.233575 kJ/mol
# GULP energy per Si atom -5568.758342 kJ/mol
# Density = 1.627319 g / cm^3
# Si number density = 16.310311 Si / 1000 Ang^3
#
#
#
# Elastic Constant Matrix: (Units=GPa)
#
#
# Indices 1 2 3 4 5 6 
#
# 1 67.1036 32.9436 40.4015 0.0025 18.8243 -0.0020
# 2 32.9436 69.6333 27.3145 -0.0005 9.6505 -0.0002
# 3 40.4015 27.3145 107.4951 0.0003 9.6644 -0.0022
# 4 0.0025 -0.0005 0.0003 8.3451 -0.0025 -1.3457
# 5 18.8243 9.6505 9.6644 -0.0025 40.1267 0.0016
# 6 -0.0020 -0.0002 -0.0022 -1.3457 0.0016 8.0423
#
#
#
# Elastic Compliance Matrix: (Units=1/GPa)
#
#
# Indices 1 2 3 4 5 6 
#
# 1 0.025258 -0.008187 -0.006669 -0.000010 -0.008274 0.000004
# 2 -0.008187 0.018947 -0.001710 0.000003 -0.000304 -0.000001
# 3 -0.006669 -0.001710 0.012189 0.000002 0.000604 0.000002
# 4 -0.000010 0.000003 0.000002 0.123155 0.000010 0.020608
# 5 -0.008274 -0.000304 0.000604 0.000010 0.028730 -0.000006
# 6 0.000004 -0.000001 0.000002 0.020608 -0.000006 0.127791
#
#
# Mechanical properties :
#
#
# Convention : Reuss Voigt Hill
#
# Bulk Modulus (GPa) = 42.98734 49.50569 46.24651
# Shear Modulus (GPa) = 13.26416 20.87429 17.06923
#
# Velocity S-wave (km/s) = 2.85483 3.58134 3.23852
# Velocity P-wave (km/s) = 6.10572 6.89345 6.51151
#
# Compressibility (1/GPa) = 0.02326266
#
# Stress axis : x y z
#
# Youngs Moduli (GPa) = 39.59182 52.77838 82.03817
#
# Poissons Ratio (x) = 0.43209 0.54710
# Poissons Ratio (y) = 0.32413 0.14030
# Poissons Ratio (z) = 0.26403 0.09026
#
# Static dielectric constant tensor:
#      x y z
#    x 1.622500 0.000000 0.001290 
#    y 0.000000 1.497410 0.000000 
#    z 0.001290 0.000000 1.619110 
# 
# From -- ./inp_files/294229.got.cif
#   From: 2010.05.17/outbox.cif.g08.bks.cpg/sg12_148_cif.got.tgz:294229.got - 2010.06.03 13:09:07.
