data_PCOD9218701
_publ_section_title
;
Structure prediction by ZEFSAII (Michael W. Deem and Ramdas Pophale) SiO2 
 PCOD9218701
Probable space group: C 2/M
;
_chemical_formula_sum "Si O2"
_cell_formula_units_Z 64
_cell_length_a 19.126259
_cell_length_b 14.488768
_cell_length_c 14.529817
_cell_angle_alpha 90.000000
_cell_angle_beta 131.147525
_cell_angle_gamma 90.000000
_cell_volume 3031.984056
_symmetry_space_group_name_H-M "C 2/M"
_symmetry_group_IT_number 12
_symmetry_cell_setting 'monoclinic'
loop_
_space_group_symop_operation_xyz
x,y,z
-x,y,-z
-x,-y,-z
x,-y,z
1/2+x,1/2+y,z
1/2-x,1/2+y,-z
1/2-x,1/2-y,-z
1/2+x,1/2-y,z
loop_
_atom_site_type_symbol
_atom_site_label
_atom_site_fract_x
_atom_site_fract_y
_atom_site_fract_z
Si Si1 0.925064 0.797730 0.248558
Si Si2 0.213784 0.389162 0.404886
Si Si3 0.099811 0.155714 0.101143
Si Si4 0.589507 0.898547 0.809912
Si Si5 0.810235 0.100601 0.998212
Si Si6 0.915164 0.363760 0.986119
Si Si7 0.878241 0.193630 0.664633
Si Si8 0.786936 0.103040 0.263454
O O1 0.936047 0.688648 0.272525
O O2 0.864843 0.837093 0.280410
O O3 0.027530 0.831274 0.308708
O O4 0.862045 0.822817 0.104021
O O5 0.188148 0.500000 0.387301
O O6 0.139775 0.305305 0.354609
O O7 0.293844 0.362674 0.546560
O O8 0.256836 0.371301 0.340559
O O9 0.171740 0.108565 0.095044
O O10 0.092163 0.257444 0.049906
O O11 0.116813 0.166177 0.223646
O O12 0.000000 0.109865 0.000000
O O13 0.700859 0.895572 0.915761
O O14 0.560631 0.000000 0.753401
O O15 0.556264 0.880263 0.884732
O O16 0.844263 0.000000 0.060839
O O17 0.811078 0.398444 0.876465
O O18 0.000000 0.402341 0.000000
O O19 0.824814 0.000000 0.299011
#
# Coordination Sequence:
#
# PCOD9218701 Si02
#       8
#     8   8   8   8   8   8   8   8
#     4  12  22  40  62  91 132 170 211 269 325 385
#     4  10  25  47  69  96 125 166 226 278 324 386
#     4  11  20  37  60  93 126 165 208 256 322 389
#     4  11  23  36  55  89 130 175 212 253 322 389
#     4  11  22  35  54  88 130 170 211 251 314 392
#     4  11  20  35  58  90 131 172 211 262 320 387
#     4  11  24  44  69  94 127 170 215 269 336 384
#     4  11  23  39  64  94 126 168 216 271 323 378
#
# _framework density 21.108291000000001
#
# number of rings (size 3 to 8) (size 9 to 14) (size 15 to 20)
#    0.000    1.000    5.000    2.625    0.000    3.750 
#    0.000    1.250    0.000    0.375    0.000    2.625 
#    0.000    0.000    0.000    0.000    0.000    0.000 
#
# Total GULP energy -178596.902939 kJ/mol
# GULP energy per Si atom -5581.153217 kJ/mol
# Density = 2.106025 g / cm^3
# Si number density = 21.108291 Si / 1000 Ang^3
#
#
#
# Elastic Constant Matrix: (Units=GPa)
#
#
# Indices 1 2 3 4 5 6 
#
# 1 122.3953 28.4477 9.1261 0.0000 8.8513 0.0000
# 2 28.4477 82.8936 0.0837 0.0000 -6.2054 0.0000
# 3 9.1261 0.0837 45.7195 0.0000 0.3980 0.0000
# 4 0.0000 0.0000 0.0000 83.6149 0.0000 212.4374
# 5 8.8513 -6.2054 0.3980 0.0000 16.7342 0.0000
# 6 0.0000 0.0000 0.0000 212.4374 0.0000 652.0346
#
#
#
# Elastic Compliance Matrix: (Units=1/GPa)
#
#
# Indices 1 2 3 4 5 6 
#
# 1 0.009660 -0.003798 -0.001865 0.000000 -0.006474 0.000000
# 2 -0.003798 0.013901 0.000670 0.000000 0.007148 0.000000
# 3 -0.001865 0.000670 0.022237 0.000000 0.000706 0.000000
# 4 0.000000 0.000000 0.000000 0.069438 0.000000 -0.022623
# 5 -0.006474 0.007148 0.000706 0.000000 0.065816 0.000000
# 6 0.000000 0.000000 0.000000 -0.022623 0.000000 0.008905
#
#
# Mechanical properties :
#
#
# Convention : Reuss Voigt Hill
#
# Bulk Modulus (GPa) = 27.92197 36.25817 32.09007
# Shear Modulus (GPa) = 23.59822 164.70013 94.14917
#
# Velocity S-wave (km/s) = 3.34722 8.84283 6.68579
# Velocity P-wave (km/s) = 5.30991 11.02159 8.65074
#
# Compressibility (1/GPa) = 0.03581409
#
# Stress axis : x y z
#
# Youngs Moduli (GPa) = 103.51751 71.93484 44.96928
#
# Poissons Ratio (x) = 0.27321 0.08387
# Poissons Ratio (y) = 0.39316 -0.03015
# Poissons Ratio (z) = 0.19306 -0.04823
#
# Static dielectric constant tensor:
#      x y z
#    x 1.801330 0.000000 0.015110 
#    y 0.000000 1.839600 0.000000 
#    z 0.015110 0.000000 1.740790 
# 
# From -- ./inp_files/225742.got.cif
#   From: 2010.05.17/outbox.cif.g08.bks.cpg/sg12_113_cif.got.tgz:225742.got - 2010.06.03 13:09:07.
