data_PCOD9218656
_publ_section_title
;
Structure prediction by ZEFSAII (Michael W. Deem and Ramdas Pophale) SiO2 
 PCOD9218656
Probable space group: C 2/M
;
_chemical_formula_sum "Si O2"
_cell_formula_units_Z 44
_cell_length_a 16.639928
_cell_length_b 20.297110
_cell_length_c 5.769444
_cell_angle_alpha 90.000000
_cell_angle_beta 74.923208
_cell_angle_gamma 90.000000
_cell_volume 1881.512051
_symmetry_space_group_name_H-M "C 2/M"
_symmetry_group_IT_number 12
_symmetry_cell_setting 'monoclinic'
loop_
_space_group_symop_operation_xyz
x,y,z
-x,y,-z
-x,-y,-z
x,-y,z
1/2+x,1/2+y,z
1/2-x,1/2+y,-z
1/2-x,1/2-y,-z
1/2+x,1/2-y,z
loop_
_atom_site_type_symbol
_atom_site_label
_atom_site_fract_x
_atom_site_fract_y
_atom_site_fract_z
Si Si1 0.173813 0.114880 0.511467
Si Si2 0.725523 0.177294 0.931984
Si Si3 0.953524 0.000000 0.287468
Si Si4 0.036551 0.801386 0.722339
Si Si5 0.337078 0.925128 0.644503
Si Si6 0.562072 0.845908 0.764861
O O1 0.103433 0.064082 0.641330
O O2 0.134862 0.181169 0.650096
O O3 0.257473 0.080443 0.535182
O O4 0.195282 0.138535 0.235479
O O5 0.686309 0.130130 0.153126
O O6 0.750000 0.250000 0.000000
O O7 0.651286 0.177659 0.800190
O O8 0.000000 0.000000 0.500000
O O9 0.000000 0.000000 0.000000
O O10 0.020731 0.723197 0.726141
O O11 0.000000 0.827064 0.500000
O O12 0.000000 0.824089 0.000000
O O13 0.415811 0.898356 0.446104
O O14 0.345511 0.000000 0.723041
O O15 0.500000 0.876065 0.000000
#
# Coordination Sequence:
#
# PCOD9218656 Si02
#       6
#     8   8   4   8   8   8
#     4  11  25  43  69 101 149 190 248 301 372 446
#     4  11  25  43  74 104 142 195 253 311 378 448
#     4  12  28  46  72 108 151 200 247 302 374 460
#     4  11  25  42  72 107 145 190 242 307 375 436
#     4  11  25  44  71 101 142 196 248 303 379 445
#     4  10  25  44  69 101 144 181 246 312 377 435
#
# _framework density 23.385446999999999
#
# number of rings (size 3 to 8) (size 9 to 14) (size 15 to 20)
#    0.000    1.091    0.909    3.273   16.545    4.000 
#    0.000    0.909    0.000    0.000    0.000    0.000 
#    0.000    0.000    0.000    0.000    0.000    0.000 
#
# Total GULP energy -122710.775666 kJ/mol
# GULP energy per Si atom -5577.762530 kJ/mol
# Density = 2.333222 g / cm^3
# Si number density = 23.385447 Si / 1000 Ang^3
#
#
#
# Elastic Constant Matrix: (Units=GPa)
#
#
# Indices 1 2 3 4 5 6 
#
# 1 67.4297 17.5648 47.0305 0.0000 -11.7400 0.0000
# 2 17.5648 140.4090 67.0353 0.0000 -5.5417 0.0000
# 3 47.0305 67.0353 179.4353 0.0000 -32.3019 0.0000
# 4 0.0000 0.0000 0.0000 30.7360 0.0000 -17.5151
# 5 -11.7400 -5.5417 -32.3019 0.0000 44.4130 0.0000
# 6 0.0000 0.0000 0.0000 -17.5151 0.0000 15.3806
#
#
#
# Elastic Compliance Matrix: (Units=1/GPa)
#
#
# Indices 1 2 3 4 5 6 
#
# 1 0.018241 -0.000088 -0.004467 0.000000 0.001562 0.000000
# 2 -0.000088 0.008752 -0.003515 0.000000 -0.001487 0.000000
# 3 -0.004467 -0.003515 0.008935 0.000000 0.004879 0.000000
# 4 0.000000 0.000000 0.000000 0.092677 0.000000 0.105538
# 5 0.001562 -0.001487 0.004879 0.000000 0.026292 0.000000
# 6 0.000000 0.000000 0.000000 0.105538 0.000000 0.185202
#
#
# Mechanical properties :
#
#
# Convention : Reuss Voigt Hill
#
# Bulk Modulus (GPa) = 50.53084 72.28171 61.40628
# Shear Modulus (GPa) = 13.78042 35.14879 24.46461
#
# Velocity S-wave (km/s) = 2.43013 3.88109 3.23793
# Velocity P-wave (km/s) = 5.43404 7.14561 6.34777
#
# Compressibility (1/GPa) = 0.01978989
#
# Stress axis : x y z
#
# Youngs Moduli (GPa) = 54.82258 114.25639 111.91628
#
# Poissons Ratio (x) = 0.01000 0.49994
# Poissons Ratio (y) = 0.00480 0.39334
# Poissons Ratio (z) = 0.24490 0.40156
#
# Static dielectric constant tensor:
#      x y z
#    x 1.916920 0.000000 -0.044650 
#    y 0.000000 1.930990 0.000000 
#    z -0.044650 0.000000 1.737230 
# 
# From -- ./inp_files/16014.got.cif
#   From: 2010.05.17/outbox.cif.g08.bks.cpg/sg12_9_cif.got.tgz:16014.got - 2010.06.03 13:09:07.
