data_PCOD9218561
_publ_section_title
;
Structure prediction by ZEFSAII (Michael W. Deem and Ramdas Pophale) SiO2 
 PCOD9218561
Probable space group: C 2/M
;
_chemical_formula_sum "Si O2"
_cell_formula_units_Z 30
_cell_length_a 7.513402
_cell_length_b 22.136707
_cell_length_c 10.877311
_cell_angle_alpha 90.000000
_cell_angle_beta 138.780908
_cell_angle_gamma 90.000000
_cell_volume 1192.112259
_symmetry_space_group_name_H-M "C 2/M"
_symmetry_group_IT_number 12
_symmetry_cell_setting 'monoclinic'
loop_
_space_group_symop_operation_xyz
x,y,z
-x,y,-z
-x,-y,-z
x,-y,z
1/2+x,1/2+y,z
1/2-x,1/2+y,-z
1/2-x,1/2-y,-z
1/2+x,1/2-y,z
loop_
_atom_site_type_symbol
_atom_site_label
_atom_site_fract_x
_atom_site_fract_y
_atom_site_fract_z
Si Si1 0.765992 0.604513 0.556184
Si Si2 0.174792 0.430009 0.964925
Si Si3 0.000000 0.257516 0.000000
Si Si4 0.500000 0.000000 0.500000
Si Si5 0.535127 0.669390 0.221887
O O1 0.500000 0.590564 0.500000
O O2 0.696013 0.660884 0.431560
O O3 0.006375 0.608042 0.778733
O O4 0.857126 0.551977 0.512630
O O5 0.206909 0.500000 0.942702
O O6 0.460036 0.397722 0.135074
O O7 0.000000 0.431093 0.000000
O O8 0.240684 0.301100 0.086472
O O9 0.141857 0.213622 0.173331
#
# Coordination Sequence:
#
# PCOD9218561 Si02
#       5
#     8   8   4   2   8
#     4  12  25  48  71 105 155 189 232 303 371 428
#     4  11  23  41  75 109 137 192 245 280 382 454
#     4  10  24  48  72 108 138 192 272 282 360 442
#     4  12  30  40  72 120 144 190 254 278 364 490
#     4  11  24  47  76 101 148 194 239 318 354 424
#
# _framework density 25.165416
#
# number of rings (size 3 to 8) (size 9 to 14) (size 15 to 20)
#    0.000    0.800    5.333    0.400    5.600    0.000 
#    0.000   16.667    0.000    0.000    0.000    0.000 
#    0.000    0.000    0.000    0.000    0.000    0.000 
#
# Total GULP energy -83704.700070 kJ/mol
# GULP energy per Si atom -5580.313338 kJ/mol
# Density = 2.510814 g / cm^3
# Si number density = 25.165416 Si / 1000 Ang^3
#
#
#
# Elastic Constant Matrix: (Units=GPa)
#
#
# Indices 1 2 3 4 5 6 
#
# 1 110.2585 35.7040 14.6050 0.0000 -15.2856 0.0000
# 2 35.7040 102.5765 55.4881 0.0000 -19.2207 0.0000
# 3 14.6050 55.4881 178.1728 0.0000 -29.4909 0.0000
# 4 0.0000 0.0000 0.0000 2.6335 0.0000 -12.8218
# 5 -15.2856 -19.2207 -29.4909 0.0000 29.0199 0.0000
# 6 0.0000 0.0000 0.0000 -12.8218 0.0000 32.6970
#
#
#
# Elastic Compliance Matrix: (Units=1/GPa)
#
#
# Indices 1 2 3 4 5 6 
#
# 1 0.010639 -0.003384 0.000888 0.000000 0.004265 0.000000
# 2 -0.003384 0.013404 -0.003273 0.000000 0.003769 0.000000
# 3 0.000888 -0.003273 0.007547 0.000000 0.005969 0.000000
# 4 0.000000 0.000000 0.000000 -0.417636 0.000000 -0.163772
# 5 0.004265 0.003769 0.005969 0.000000 0.045268 0.000000
# 6 0.000000 0.000000 0.000000 -0.163772 0.000000 -0.033638
#
#
# Mechanical properties :
#
#
# Convention : Reuss Voigt Hill
#
# Bulk Modulus (GPa) = 49.87396 66.95580 58.41488
# Shear Modulus (GPa) = -14.03731 31.88415 8.92342
#
# Velocity S-wave (km/s) = -2.36434 3.56333 1.88510
# Velocity P-wave (km/s) = 3.52250 6.60256 5.29159
#
# Compressibility (1/GPa) = 0.02005054
#
# Stress axis : x y z
#
# Youngs Moduli (GPa) = 93.99266 74.60734 132.50091
#
# Poissons Ratio (x) = 0.25249 -0.11763
# Poissons Ratio (y) = 0.31810 0.43368
# Poissons Ratio (z) = -0.08344 0.24419
#
# Static dielectric constant tensor:
#      x y z
#    x 2.280490 0.000000 -0.176290 
#    y 0.000000 1.915290 0.000000 
#    z -0.176290 0.000000 2.065930 
# 
# From -- ./inp_files/122292.got.cif
#   From: 2010.05.17/outbox.cif.g08.bks.cpg/sg12_62_cif.got.tgz:122292.got - 2010.06.03 13:09:07.
