data_PCOD9218904
_publ_section_title
;
Structure prediction by ZEFSAII (Michael W. Deem and Ramdas Pophale) SiO2 
 PCOD9218904
Probable space group: C 2/M
;
_chemical_formula_sum "Si O2"
_cell_formula_units_Z 64
_cell_length_a 12.126340
_cell_length_b 16.292552
_cell_length_c 20.423028
_cell_angle_alpha 90.000000
_cell_angle_beta 44.884419
_cell_angle_gamma 90.000000
_cell_volume 2847.384608
_symmetry_space_group_name_H-M "C 2/M"
_symmetry_group_IT_number 12
_symmetry_cell_setting 'monoclinic'
loop_
_space_group_symop_operation_xyz
x,y,z
-x,y,-z
-x,-y,-z
x,-y,z
1/2+x,1/2+y,z
1/2-x,1/2+y,-z
1/2-x,1/2-y,-z
1/2+x,1/2-y,z
loop_
_atom_site_type_symbol
_atom_site_label
_atom_site_fract_x
_atom_site_fract_y
_atom_site_fract_z
Si Si1 0.118784 0.404014 0.043444
Si Si2 0.827275 0.849666 0.584045
Si Si3 0.789378 0.404323 0.147505
Si Si4 0.525864 0.125809 0.635555
Si Si5 0.805356 0.091336 0.257578
Si Si6 0.054667 0.183472 0.326698
Si Si7 0.057789 0.100989 0.046983
Si Si8 0.220305 0.338232 0.434183
O O1 0.104230 0.500000 0.068613
O O2 0.943950 0.370302 0.119088
O O3 0.171460 0.403127 0.945485
O O4 0.265497 0.367810 0.019326
O O5 0.671699 0.893090 0.622020
O O6 0.833518 0.835278 0.659240
O O7 0.823811 0.758460 0.551869
O O8 0.000000 0.887091 0.500000
O O9 0.764568 0.500000 0.176112
O O10 0.639216 0.352555 0.228177
O O11 0.357954 0.084852 0.713370
O O12 0.481480 0.221014 0.664130
O O13 0.589860 0.118365 0.533718
O O14 0.939428 0.127547 0.154406
O O15 0.758187 0.136377 0.344235
O O16 0.858150 0.000000 0.254477
O O17 0.881898 0.145803 0.404689
O O18 0.059525 0.000000 0.049262
O O19 0.000000 0.125068 0.000000
#
# Coordination Sequence:
#
# PCOD9218904 Si02
#       8
#     8   8   8   8   8   8   8   8
#     4   8  15  32  55  80 112 146 185 230 289 353
#     4  11  18  36  57  79 105 150 199 232 271 342
#     4   9  18  32  55  86 114 146 189 239 288 338
#     4  11  22  36  57  83 115 156 196 234 290 345
#     4  11  23  38  59  89 119 147 196 250 290 340
#     4  11  20  33  59  85 115 151 196 240 283 344
#     4   9  18  33  55  78 108 150 186 225 282 348
#     4  11  20  35  59  84 111 150 201 243 280 335
#
# _framework density 22.476766999999999
#
# number of rings (size 3 to 8) (size 9 to 14) (size 15 to 20)
#    0.000    1.875    3.750    2.625    0.000    3.500 
#    0.000    1.875    2.750    1.500    0.000    0.000 
#    0.000    0.000    0.000    0.000    0.000    0.000 
#
# Total GULP energy -178510.851250 kJ/mol
# GULP energy per Si atom -5578.464102 kJ/mol
# Density = 2.242561 g / cm^3
# Si number density = 22.476767 Si / 1000 Ang^3
#
#
#
# Elastic Constant Matrix: (Units=GPa)
#
#
# Indices 1 2 3 4 5 6 
#
# 1 126.0271 -1.9696 6.7743 0.0000 -16.2590 0.0000
# 2 -1.9696 16.9467 17.4862 0.0000 1.2376 0.0000
# 3 6.7743 17.4862 75.5658 0.0000 -12.3926 0.0000
# 4 0.0000 0.0000 0.0000 20.5368 0.0000 -1.6600
# 5 -16.2590 1.2376 -12.3926 0.0000 25.7678 0.0000
# 6 0.0000 0.0000 0.0000 -1.6600 0.0000 8.0319
#
#
#
# Elastic Compliance Matrix: (Units=1/GPa)
#
#
# Indices 1 2 3 4 5 6 
#
# 1 0.008644 0.000650 -0.000039 0.000000 0.005404 0.000000
# 2 0.000650 0.082081 -0.021312 0.000000 -0.013782 0.000000
# 3 -0.000039 -0.021312 0.019902 0.000000 0.010571 0.000000
# 4 0.000000 0.000000 0.000000 0.049520 0.000000 0.010234
# 5 0.005404 -0.013782 0.010571 0.000000 0.047964 0.000000
# 6 0.000000 0.000000 0.000000 0.010234 0.000000 0.126618
#
#
# Mechanical properties :
#
#
# Convention : Reuss Voigt Hill
#
# Bulk Modulus (GPa) = 14.44553 29.23572 21.84063
# Shear Modulus (GPa) = 12.52481 23.95055 18.23768
#
# Velocity S-wave (km/s) = 2.36314 3.26785 2.85160
# Velocity P-wave (km/s) = 3.72649 5.22243 4.53655
#
# Compressibility (1/GPa) = 0.06922558
#
# Stress axis : x y z
#
# Youngs Moduli (GPa) = 115.68331 12.18305 50.24532
#
# Poissons Ratio (x) = -0.00792 0.00197
# Poissons Ratio (y) = -0.07524 1.07085
# Poissons Ratio (z) = 0.00453 0.25965
#
# Static dielectric constant tensor:
#      x y z
#    x 1.917040 0.000000 -0.024150 
#    y 0.000000 1.830750 0.000000 
#    z -0.024150 0.000000 1.849090 
# 
# From -- ./inp_files/306793.got.cif
#   From: 2010.05.17/outbox.cif.g08.bks.cpg/sg12_154_cif.got.tgz:306793.got - 2010.06.03 13:09:07.
