data_PCOD9218869
_publ_section_title
;
Structure prediction by ZEFSAII (Michael W. Deem and Ramdas Pophale) SiO2 
 PCOD9218869
Probable space group: C 2/M
;
_chemical_formula_sum "Si O2"
_cell_formula_units_Z 56
_cell_length_a 22.224629
_cell_length_b 17.205728
_cell_length_c 20.321361
_cell_angle_alpha 90.000000
_cell_angle_beta 22.176179
_cell_angle_gamma 90.000000
_cell_volume 2933.097427
_symmetry_space_group_name_H-M "C 2/M"
_symmetry_group_IT_number 12
_symmetry_cell_setting 'monoclinic'
loop_
_space_group_symop_operation_xyz
x,y,z
-x,y,-z
-x,-y,-z
x,-y,z
1/2+x,1/2+y,z
1/2-x,1/2+y,-z
1/2-x,1/2-y,-z
1/2+x,1/2-y,z
loop_
_atom_site_type_symbol
_atom_site_label
_atom_site_fract_x
_atom_site_fract_y
_atom_site_fract_z
Si Si1 0.535840 0.676666 0.887038
Si Si2 0.770322 0.409079 0.866983
Si Si3 0.752210 0.913257 0.505393
Si Si4 0.005732 0.328732 0.836675
Si Si5 0.512516 0.285347 0.710633
Si Si6 0.615780 0.147716 0.519419
Si Si7 0.227450 0.911966 0.068837
O O1 0.390501 0.631625 0.997156
O O2 0.500000 0.669832 0.000000
O O3 0.525302 0.766823 0.874325
O O4 0.717579 0.646193 0.689128
O O5 0.767995 0.500000 0.851508
O O6 0.938218 0.371180 0.672170
O O7 0.767343 0.404423 0.950141
O O8 0.664344 0.875018 0.656165
O O9 0.884063 0.849370 0.355814
O O10 0.637539 0.911492 0.558581
O O11 0.809257 0.000000 0.458844
O O12 0.957873 0.274623 0.821805
O O13 0.873982 0.395434 0.968787
O O14 0.604030 0.232291 0.565744
O O15 0.388085 0.339830 0.800539
O O16 0.168353 0.000000 0.137902
#
# Coordination Sequence:
#
# PCOD9218869 Si02
#       7
#     8   8   8   8   8   8   8
#     4  12  26  43  61  84 121 172 220 245 281 347
#     4  11  23  39  62  92 125 158 197 249 308 364
#     4  11  19  31  57  90 121 147 183 245 319 372
#     4  11  19  36  55  86 119 154 195 243 302 360
#     4  11  18  32  57  88 121 151 187 247 316 363
#     4  11  21  39  62  89 119 158 200 252 305 360
#     4  11  20  32  58  95 126 149 185 251 322 371
#
# _framework density 19.092444
#
# number of rings (size 3 to 8) (size 9 to 14) (size 15 to 20)
#    0.000    0.857    7.143    3.429    0.000    3.143 
#    0.000    0.714    0.000    1.714    0.000    1.000 
#    0.000    0.000    0.000    0.000    0.000    0.000 
#
# Total GULP energy -155976.938884 kJ/mol
# GULP energy per Si atom -5570.604960 kJ/mol
# Density = 1.904899 g / cm^3
# Si number density = 19.092444 Si / 1000 Ang^3
#
#
#
# Elastic Constant Matrix: (Units=GPa)
#
#
# Indices 1 2 3 4 5 6 
#
# 1 36.7163 20.8826 36.9165 -0.0001 -1.9445 0.0006
# 2 20.8826 133.3045 46.9733 0.0017 -4.3325 0.0002
# 3 36.9165 46.9733 117.2077 -0.0008 -12.2499 0.0004
# 4 -0.0001 0.0017 -0.0008 35.3022 0.0006 -16.1340
# 5 -1.9445 -4.3325 -12.2499 0.0006 22.2404 -0.0005
# 6 0.0006 0.0002 0.0004 -16.1340 -0.0005 17.8161
#
#
#
# Elastic Compliance Matrix: (Units=1/GPa)
#
#
# Indices 1 2 3 4 5 6 
#
# 1 0.040657 -0.002144 -0.012328 -0.000001 -0.003653 -0.000002
# 2 -0.002144 0.008849 -0.002876 -0.000001 -0.000048 -0.000001
# 3 -0.012328 -0.002876 0.014215 0.000001 0.006191 0.000001
# 4 -0.000001 -0.000001 0.000001 0.048329 0.000000 0.043767
# 5 -0.003653 -0.000048 0.006191 0.000000 0.048045 0.000001
# 6 -0.000002 -0.000001 0.000001 0.043767 0.000001 0.095764
#
#
# Mechanical properties :
#
#
# Convention : Reuss Voigt Hill
#
# Bulk Modulus (GPa) = 34.45362 55.19703 44.82533
# Shear Modulus (GPa) = 16.65388 27.23549 21.94468
#
# Velocity S-wave (km/s) = 2.95664 3.78101 3.39394
# Velocity P-wave (km/s) = 5.45348 6.93070 6.23598
#
# Compressibility (1/GPa) = 0.02902452
#
# Stress axis : x y z
#
# Youngs Moduli (GPa) = 24.59595 113.00132 70.34949
#
# Poissons Ratio (x) = 0.24223 0.86729
# Poissons Ratio (y) = 0.05272 0.20236
# Poissons Ratio (z) = 0.30323 0.32504
#
# Static dielectric constant tensor:
#      x y z
#    x 1.684930 0.000000 -0.088050 
#    y 0.000000 1.652480 0.000000 
#    z -0.088050 0.000000 1.798330 
# 
# From -- ./inp_files/326000.got.cif
#   From: 2010.05.17/outbox.cif.g08.bks.cpg/sg12_163_cif.got.tgz:326000.got - 2010.06.03 13:09:07.
