data_PCOD9218289
_publ_section_title
;
Structure prediction by ZEFSAII (Michael W. Deem and Ramdas Pophale) SiO2 
 PCOD9218289
Probable space group: C 2/M
;
_chemical_formula_sum "Si O2"
_cell_formula_units_Z 40
_cell_length_a 8.893156
_cell_length_b 19.216220
_cell_length_c 10.485611
_cell_angle_alpha 90.000000
_cell_angle_beta 85.930527
_cell_angle_gamma 90.000000
_cell_volume 1787.397971
_symmetry_space_group_name_H-M "C 2/M"
_symmetry_group_IT_number 12
_symmetry_cell_setting 'monoclinic'
loop_
_space_group_symop_operation_xyz
x,y,z
-x,y,-z
-x,-y,-z
x,-y,z
1/2+x,1/2+y,z
1/2-x,1/2+y,-z
1/2-x,1/2-y,-z
1/2+x,1/2-y,z
loop_
_atom_site_type_symbol
_atom_site_label
_atom_site_fract_x
_atom_site_fract_y
_atom_site_fract_z
Si Si1 0.409515 0.000000 0.135037
Si Si2 0.082572 0.875728 0.860138
Si Si3 0.318563 0.000000 0.483710
Si Si4 0.000000 0.266338 0.500000
Si Si5 0.787793 0.108068 0.720226
Si Si6 0.761540 0.771862 0.320425
Si Si7 0.721659 0.000000 0.226457
O O1 0.310302 0.068407 0.166148
O O2 0.542610 0.000000 0.229786
O O3 0.500000 0.000000 0.000000
O O4 0.169670 0.807657 0.806769
O O5 0.207981 0.934802 0.849922
O O6 0.958047 0.897016 0.761532
O O7 0.000000 0.867978 0.000000
O O8 0.500000 0.000000 0.500000
O O9 0.260057 0.066060 0.404077
O O10 0.240543 0.000000 0.626480
O O11 0.115920 0.221308 0.574806
O O12 0.106092 0.303220 0.388077
O O13 0.758347 0.189863 0.704040
#
# Coordination Sequence:
#
# PCOD9218289 Si02
#       7
#     4   8   4   4   8   8   4
#     4  11  24  43  70 100 138 189 239 291 354 422
#     4  12  28  49  70 104 147 198 244 290 355 428
#     4  11  25  45  74 108 140 176 238 299 370 430
#     4  10  24  44  66 104 142 174 228 292 366 418
#     4  11  25  46  68 103 146 185 235 298 359 428
#     4  11  25  43  76 103 144 186 236 293 365 421
#     4  12  26  43  76 102 136 192 238 306 355 420
#
# _framework density 22.378898
#
# number of rings (size 3 to 8) (size 9 to 14) (size 15 to 20)
#    0.000    0.800    4.000    2.700    9.800    3.200 
#    0.000    0.000    0.000    0.000    0.000    0.000 
#    0.000    0.000    0.000    0.000    0.000    0.000 
#
# Total GULP energy -111767.567728 kJ/mol
# GULP energy per Si atom -5588.378386 kJ/mol
# Density = 2.232796 g / cm^3
# Si number density = 22.378898 Si / 1000 Ang^3
#
#
#
# Elastic Constant Matrix: (Units=GPa)
#
#
# Indices 1 2 3 4 5 6 
#
# 1 124.2977 23.8578 12.5556 0.0000 -10.1358 0.0000
# 2 23.8578 104.2511 18.5836 0.0000 -9.3008 0.0000
# 3 12.5556 18.5836 130.9688 0.0000 -32.4424 0.0000
# 4 0.0000 0.0000 0.0000 5158.4829 0.0000 2264.2474
# 5 -10.1358 -9.3008 -32.4424 0.0000 47.3271 0.0000
# 6 0.0000 0.0000 0.0000 2264.2474 0.0000 1031.7368
#
#
#
# Elastic Compliance Matrix: (Units=1/GPa)
#
#
# Indices 1 2 3 4 5 6 
#
# 1 0.008520 -0.001790 -0.000238 0.000000 0.001309 0.000000
# 2 -0.001790 0.010272 -0.001061 0.000000 0.000908 0.000000
# 3 -0.000238 -0.001061 0.009329 0.000000 0.006135 0.000000
# 4 0.000000 0.000000 0.000000 0.005281 0.000000 -0.011589
# 5 0.001309 0.000908 0.006135 0.000000 0.025794 0.000000
# 6 0.000000 0.000000 0.000000 -0.011589 0.000000 0.026402
#
#
# Mechanical properties :
#
#
# Convention : Reuss Voigt Hill
#
# Bulk Modulus (GPa) = 45.57724 52.16795 48.87260
# Shear Modulus (GPa) = 50.45898 1267.81073 659.13486
#
# Velocity S-wave (km/s) = 4.75358 23.82752 17.18061
# Velocity P-wave (km/s) = 7.10908 27.93497 20.38261
#
# Compressibility (1/GPa) = 0.02194077
#
# Stress axis : x y z
#
# Youngs Moduli (GPa) = 117.37501 97.35114 107.19797
#
# Poissons Ratio (x) = 0.17430 0.02555
# Poissons Ratio (y) = 0.21015 0.11374
# Poissons Ratio (z) = 0.02798 0.10329
#
# Static dielectric constant tensor:
#      x y z
#    x 1.833630 0.000000 0.021940 
#    y 0.000000 1.837730 0.000000 
#    z 0.021940 0.000000 1.888960 
# 
# From -- ./inp_files/120224.got.cif
#   From: 2010.05.17/outbox.cif.g08.bks.cpg/sg12_61_cif.got.tgz:120224.got - 2010.06.03 13:09:07.
