data_PCOD9218757
_publ_section_title
;
Structure prediction by ZEFSAII (Michael W. Deem and Ramdas Pophale) SiO2 
 PCOD9218757
Probable space group: C 2/M
;
_chemical_formula_sum "Si O2"
_cell_formula_units_Z 24
_cell_length_a 7.103932
_cell_length_b 14.048828
_cell_length_c 10.416385
_cell_angle_alpha 90.000000
_cell_angle_beta 119.409140
_cell_angle_gamma 90.000000
_cell_volume 905.610859
_symmetry_space_group_name_H-M "C 2/M"
_symmetry_group_IT_number 12
_symmetry_cell_setting 'monoclinic'
loop_
_space_group_symop_operation_xyz
x,y,z
-x,y,-z
-x,-y,-z
x,-y,z
1/2+x,1/2+y,z
1/2-x,1/2+y,-z
1/2-x,1/2-y,-z
1/2+x,1/2-y,z
loop_
_atom_site_type_symbol
_atom_site_label
_atom_site_fract_x
_atom_site_fract_y
_atom_site_fract_z
Si Si1 0.626242 0.000000 0.904849
Si Si2 0.500000 0.169508 0.500000
Si Si3 0.000000 0.844787 0.000000
Si Si4 0.959504 0.174843 0.707119
Si Si5 0.182443 0.000000 0.671269
O O1 0.788384 0.911287 0.942937
O O2 0.438514 0.000000 0.733226
O O3 0.500000 0.000000 0.000000
O O4 0.730293 0.122962 0.601104
O O5 0.524409 0.238696 0.385218
O O6 0.975304 0.790674 0.858171
O O7 0.135590 0.095654 0.735072
O O8 0.000000 0.000000 0.500000
#
# Coordination Sequence:
#
# PCOD9218757 Si02
#       5
#     4   4   4   8   4
#     4  11  22  43  66 109 148 165 230 300 344 411
#     4  10  26  46  64  98 152 182 234 286 336 432
#     4  11  24  42  72 104 138 187 226 288 352 407
#     4  11  24  45  68 102 139 188 232 286 350 406
#     4  12  24  41  75 102 131 184 230 286 349 401
#
# _framework density 26.501448
#
# number of rings (size 3 to 8) (size 9 to 14) (size 15 to 20)
#    0.000    1.000    5.000    1.000    4.667    2.000 
#    0.000    0.000    0.000    0.000    0.000    0.000 
#    0.000    0.000    0.000    0.000    0.000    0.000 
#
# Total GULP energy -67257.225381 kJ/mol
# GULP energy per Si atom -5604.768782 kJ/mol
# Density = 2.644113 g / cm^3
# Si number density = 26.501448 Si / 1000 Ang^3
#
#
#
# Elastic Constant Matrix: (Units=GPa)
#
#
# Indices 1 2 3 4 5 6 
#
# 1 148.2013 35.0631 67.6271 0.0000 17.2853 0.0000
# 2 35.0631 52.0006 21.7791 0.0000 -4.4174 0.0000
# 3 67.6271 21.7791 205.9242 0.0000 -13.3644 0.0000
# 4 0.0000 0.0000 0.0000 27.6960 0.0000 11.2990
# 5 17.2853 -4.4174 -13.3644 0.0000 87.9578 0.0000
# 6 0.0000 0.0000 0.0000 11.2990 0.0000 28.1023
#
#
#
# Elastic Compliance Matrix: (Units=1/GPa)
#
#
# Indices 1 2 3 4 5 6 
#
# 1 0.009612 -0.005554 -0.002737 0.000000 -0.002584 0.000000
# 2 -0.005554 0.023374 -0.000506 0.000000 0.002189 0.000000
# 3 -0.002737 -0.000506 0.005900 0.000000 0.001409 0.000000
# 4 0.000000 0.000000 0.000000 0.043191 0.000000 -0.017366
# 5 -0.002584 0.002189 0.001409 0.000000 0.012201 0.000000
# 6 0.000000 0.000000 0.000000 -0.017366 0.000000 0.042566
#
#
# Mechanical properties :
#
#
# Convention : Reuss Voigt Hill
#
# Bulk Modulus (GPa) = 46.96801 72.78497 59.87649
# Shear Modulus (GPa) = 30.95308 47.52835 39.24072
#
# Velocity S-wave (km/s) = 3.42128 4.23948 3.85216
# Velocity P-wave (km/s) = 5.77651 7.17554 6.51370
#
# Compressibility (1/GPa) = 0.02129109
#
# Stress axis : x y z
#
# Youngs Moduli (GPa) = 104.03737 42.78333 169.49425
#
# Poissons Ratio (x) = 0.23763 0.46388
# Poissons Ratio (y) = 0.57786 0.08575
# Poissons Ratio (z) = 0.28474 0.02165
#
# Static dielectric constant tensor:
#      x y z
#    x 2.124070 0.000000 0.002320 
#    y 0.000000 1.991700 0.000000 
#    z 0.002320 0.000000 2.121700 
# 
# From -- ./inp_files/118368.got.cif
#   From: 2010.05.17/outbox.cif.g08.bks.cpg/sg12_60_cif.got.tgz:118368.got - 2010.06.03 13:09:07.
