data_PCOD9218605
_publ_section_title
;
Structure prediction by ZEFSAII (Michael W. Deem and Ramdas Pophale) SiO2 
 PCOD9218605
Probable space group: C 2/M
;
_chemical_formula_sum "Si O2"
_cell_formula_units_Z 52
_cell_length_a 12.973905
_cell_length_b 21.024527
_cell_length_c 11.367992
_cell_angle_alpha 90.000000
_cell_angle_beta 126.583564
_cell_angle_gamma 90.000000
_cell_volume 2489.946523
_symmetry_space_group_name_H-M "C 2/M"
_symmetry_group_IT_number 12
_symmetry_cell_setting 'monoclinic'
loop_
_space_group_symop_operation_xyz
x,y,z
-x,y,-z
-x,-y,-z
x,-y,z
1/2+x,1/2+y,z
1/2-x,1/2+y,-z
1/2-x,1/2-y,-z
1/2+x,1/2-y,z
loop_
_atom_site_type_symbol
_atom_site_label
_atom_site_fract_x
_atom_site_fract_y
_atom_site_fract_z
Si Si1 0.261077 0.427593 0.195590
Si Si2 0.637455 0.301098 0.151561
Si Si3 0.198009 0.861270 0.444143
Si Si4 0.103277 0.500000 0.734030
Si Si5 0.183225 0.368100 0.909556
Si Si6 0.806247 0.500000 0.475345
Si Si7 0.000000 0.885603 0.500000
Si Si8 0.396966 0.833080 0.761927
O O1 0.227257 0.500000 0.144943
O O2 0.396186 0.424366 0.354462
O O3 0.156203 0.395816 0.209618
O O4 0.263916 0.385561 0.080079
O O5 0.660528 0.336733 0.290801
O O6 0.742692 0.323554 0.130244
O O7 0.642899 0.226958 0.187457
O O8 0.500000 0.315709 0.000000
O O9 0.228339 0.936714 0.456025
O O10 0.326228 0.830470 0.587493
O O11 0.085987 0.848381 0.463078
O O12 0.150845 0.435613 0.827012
O O13 0.159481 0.500000 0.639935
O O14 0.948014 0.500000 0.629402
O O15 0.048677 0.336684 0.853313
#
# Coordination Sequence:
#
# PCOD9218605 Si02
#       8
#     8   8   8   4   8   4   4   8
#     4  11  24  41  66 102 138 178 231 287 348 411
#     4  12  27  48  67  99 143 186 231 276 339 418
#     4  11  24  44  69 103 137 181 233 286 341 413
#     4  11  22  42  70 110 134 177 222 295 358 393
#     4  12  24  44  74 103 135 179 230 290 349 402
#     4  11  22  41  71 104 141 169 234 292 349 405
#     4  10  25  40  64  96 138 186 217 266 352 413
#     4  11  27  44  70 101 135 182 231 288 344 404
#
# _framework density 20.883980999999999
#
# number of rings (size 3 to 8) (size 9 to 14) (size 15 to 20)
#    0.000    0.769    3.846    3.000    6.462    6.154 
#    0.000    0.769    0.000    0.000    0.000    0.000 
#    0.000    0.000    0.000    0.000    0.000    0.000 
#
# Total GULP energy -145480.438253 kJ/mol
# GULP energy per Si atom -5595.401471 kJ/mol
# Density = 2.083645 g / cm^3
# Si number density = 20.883981 Si / 1000 Ang^3
#
#
#
# Elastic Constant Matrix: (Units=GPa)
#
#
# Indices 1 2 3 4 5 6 
#
# 1 110.9283 51.4850 52.8357 0.0000 -4.5168 0.0000
# 2 51.4850 106.0616 48.0287 0.0000 0.0526 0.0000
# 3 52.8357 48.0287 149.2108 0.0000 -16.9791 0.0000
# 4 0.0000 0.0000 0.0000 15.7116 0.0000 -2.0730
# 5 -4.5168 0.0526 -16.9791 0.0000 32.8896 0.0000
# 6 0.0000 0.0000 0.0000 -2.0730 0.0000 16.1825
#
#
#
# Elastic Compliance Matrix: (Units=1/GPa)
#
#
# Indices 1 2 3 4 5 6 
#
# 1 0.012644 -0.004827 -0.002895 0.000000 0.000250 0.000000
# 2 -0.004827 0.013001 -0.002713 0.000000 -0.002084 0.000000
# 3 -0.002895 -0.002713 0.009090 0.000000 0.004299 0.000000
# 4 0.000000 0.000000 0.000000 0.064742 0.000000 0.008293
# 5 0.000250 -0.002084 0.004299 0.000000 0.032662 0.000000
# 6 0.000000 0.000000 0.000000 0.008293 0.000000 0.062857
#
#
# Mechanical properties :
#
#
# Convention : Reuss Voigt Hill
#
# Bulk Modulus (GPa) = 72.12395 74.54440 73.33418
# Shear Modulus (GPa) = 22.67704 27.21349 24.94526
#
# Velocity S-wave (km/s) = 3.29881 3.61374 3.45986
# Velocity P-wave (km/s) = 7.00857 7.29275 7.15207
#
# Compressibility (1/GPa) = 0.01386502
#
# Stress axis : x y z
#
# Youngs Moduli (GPa) = 79.08681 76.91666 110.01621
#
# Poissons Ratio (x) = 0.37127 0.31853
# Poissons Ratio (y) = 0.38175 0.29845
# Poissons Ratio (z) = 0.22898 0.20866
#
# Static dielectric constant tensor:
#      x y z
#    x 1.718490 0.000000 -0.013170 
#    y 0.000000 1.722350 0.000000 
#    z -0.013170 0.000000 1.759860 
# 
# From -- ./inp_files/136053.got.cif
#   From: 2010.05.17/outbox.cif.g08.bks.cpg/sg12_69_cif.got.tgz:136053.got - 2010.06.03 13:09:07.
