data_PCOD9218969
_publ_section_title
;
Structure prediction by ZEFSAII (Michael W. Deem and Ramdas Pophale) SiO2 
 PCOD9218969
Probable space group: C 2/M
;
_chemical_formula_sum "Si O2"
_cell_formula_units_Z 40
_cell_length_a 26.830806
_cell_length_b 7.460677
_cell_length_c 17.017602
_cell_angle_alpha 90.000000
_cell_angle_beta 142.015701
_cell_angle_gamma 90.000000
_cell_volume 2096.524431
_symmetry_space_group_name_H-M "C 2/M"
_symmetry_group_IT_number 12
_symmetry_cell_setting 'monoclinic'
loop_
_space_group_symop_operation_xyz
x,y,z
-x,y,-z
-x,-y,-z
x,-y,z
1/2+x,1/2+y,z
1/2-x,1/2+y,-z
1/2-x,1/2-y,-z
1/2+x,1/2-y,z
loop_
_atom_site_type_symbol
_atom_site_label
_atom_site_fract_x
_atom_site_fract_y
_atom_site_fract_z
Si Si1 0.323304 0.786406 0.033024
Si Si2 0.013800 0.500000 0.150566
Si Si3 0.566053 0.719356 0.516987
Si Si4 0.244467 0.793774 0.778483
Si Si5 0.634519 0.000000 0.157558
Si Si6 0.003414 0.796854 0.270121
O O1 0.406874 0.701643 0.164022
O O2 0.339023 0.000000 0.048620
O O3 0.250000 0.750000 0.000000
O O4 0.294512 0.714806 0.912555
O O5 0.086689 0.500000 0.178781
O O6 0.016738 0.670692 0.211708
O O7 0.931592 0.500000 0.995562
O O8 0.500000 0.775088 0.500000
O O9 0.565389 0.500000 0.515311
O O10 0.656837 0.782203 0.650489
O O11 0.542706 0.773072 0.399618
O O12 0.305725 0.830221 0.782401
O O13 0.226659 0.000000 0.783430
O O14 0.031609 0.000000 0.290593
#
# Coordination Sequence:
#
# PCOD9218969 Si02
#       6
#     8   4   8   8   4   8
#     4  11  19  32  54  83 115 149 185 227 275 332
#     4  11  20  40  61  84 110 143 196 241 293 325
#     4   9  17  30  53  82 116 153 186 221 278 346
#     4   8  15  32  53  77 106 150 190 220 276 337
#     4   9  18  36  65  76 106 159 182 241 293 331
#     4  11  21  36  58  85 115 148 187 238 278 334
#
# _framework density 19.079196
#
# number of rings (size 3 to 8) (size 9 to 14) (size 15 to 20)
#    0.600    1.600    3.000    1.800    0.000    3.200 
#    0.000    3.500    4.400    0.000    0.000    0.000 
#    0.000    0.000    0.000    0.000    0.000    0.000 
#
# Total GULP energy -111453.092235 kJ/mol
# GULP energy per Si atom -5572.654612 kJ/mol
# Density = 1.903577 g / cm^3
# Si number density = 19.079196 Si / 1000 Ang^3
#
#
#
# Elastic Constant Matrix: (Units=GPa)
#
#
# Indices 1 2 3 4 5 6 
#
# 1 100.9106 8.2954 -5.1969 0.0000 5.1259 0.0000
# 2 8.2954 72.9197 2.7920 0.0000 -8.7219 0.0000
# 3 -5.1969 2.7920 70.8643 0.0000 12.0767 0.0000
# 4 0.0000 0.0000 0.0000 3.7872 0.0000 -6.8693
# 5 5.1259 -8.7219 12.0767 0.0000 31.1100 0.0000
# 6 0.0000 0.0000 0.0000 -6.8693 0.0000 16.5476
#
#
#
# Elastic Compliance Matrix: (Units=1/GPa)
#
#
# Indices 1 2 3 4 5 6 
#
# 1 0.010232 -0.001523 0.001253 0.000000 -0.002599 0.000000
# 2 -0.001523 0.014533 -0.001522 0.000000 0.004916 0.000000
# 3 0.001253 -0.001522 0.015389 0.000000 -0.006607 0.000000
# 4 0.000000 0.000000 0.000000 1.068853 0.000000 0.443709
# 5 -0.002599 0.004916 -0.006607 0.000000 0.036516 0.000000
# 6 0.000000 0.000000 0.000000 0.443709 0.000000 0.244627
#
#
# Mechanical properties :
#
#
# Convention : Reuss Voigt Hill
#
# Bulk Modulus (GPa) = 27.34416 28.49730 27.92073
# Shear Modulus (GPa) = 3.55638 26.20923 14.88281
#
# Velocity S-wave (km/s) = 1.36677 3.71038 2.79597
# Velocity P-wave (km/s) = 4.10534 5.77275 5.00891
#
# Compressibility (1/GPa) = 0.03657088
#
# Stress axis : x y z
#
# Youngs Moduli (GPa) = 97.73717 68.80767 64.97992
#
# Poissons Ratio (x) = 0.10478 -0.08144
# Poissons Ratio (y) = 0.14884 0.09891
# Poissons Ratio (z) = -0.12249 0.10473
#
# Static dielectric constant tensor:
#      x y z
#    x 1.642920 0.000000 0.012890 
#    y 0.000000 1.729800 0.000000 
#    z 0.012890 0.000000 1.672190 
# 
# From -- ./inp_files/243390.got.cif
#   From: 2010.05.17/outbox.cif.g08.bks.cpg/sg12_122_cif.got.tgz:243390.got - 2010.06.03 13:09:07.
