data_PCOD9218075
_publ_section_title
;
Structure prediction by ZEFSAII (Michael W. Deem and Ramdas Pophale) SiO2 
 PCOD9218075
Probable space group: C 2/M
;
_chemical_formula_sum "Si O2"
_cell_formula_units_Z 64
_cell_length_a 13.066999
_cell_length_b 18.164405
_cell_length_c 12.746174
_cell_angle_alpha 90.000000
_cell_angle_beta 54.695577
_cell_angle_gamma 90.000000
_cell_volume 2468.974014
_symmetry_space_group_name_H-M "C 2/M"
_symmetry_group_IT_number 12
_symmetry_cell_setting 'monoclinic'
loop_
_space_group_symop_operation_xyz
x,y,z
-x,y,-z
-x,-y,-z
x,-y,z
1/2+x,1/2+y,z
1/2-x,1/2+y,-z
1/2-x,1/2-y,-z
1/2+x,1/2-y,z
loop_
_atom_site_type_symbol
_atom_site_label
_atom_site_fract_x
_atom_site_fract_y
_atom_site_fract_z
Si Si1 0.151965 0.914616 0.345331
Si Si2 0.781506 0.788140 0.110734
Si Si3 0.888184 0.854722 0.415632
Si Si4 0.895986 0.082923 0.188479
Si Si5 0.700611 0.416257 0.019376
Si Si6 0.393542 0.858769 0.125298
Si Si7 0.992190 0.287528 0.627123
Si Si8 0.480159 0.082300 0.755077
O O1 0.026320 0.884389 0.367578
O O2 0.262523 0.899905 0.198896
O O3 0.184737 0.873077 0.434347
O O4 0.138341 0.000000 0.377090
O O5 0.838585 0.855407 0.147729
O O6 0.788972 0.824318 0.989431
O O7 0.868376 0.719516 0.088946
O O8 0.642978 0.772291 0.239529
O O9 0.905788 0.768225 0.384474
O O10 0.852399 0.897556 0.332274
O O11 0.855995 0.000000 0.181196
O O12 0.047457 0.083427 0.095115
O O13 0.708106 0.500000 0.063604
O O14 0.834206 0.421251 0.874153
O O15 0.450763 0.862454 0.206046
O O16 0.500000 0.901726 0.000000
O O17 0.004685 0.375053 0.633042
O O18 0.000000 0.268708 0.500000
O O19 0.532562 0.000000 0.729594
#
# Coordination Sequence:
#
# PCOD9218075 Si02
#       8
#     8   8   8   8   8   8   8   8
#     4  11  23  41  64  88 126 165 203 258 307 365
#     4  11  22  40  60  92 128 163 209 262 317 365
#     4  11  21  42  64  93 120 158 210 259 314 364
#     4  11  22  36  63  95 123 162 213 262 313 370
#     4   9  20  39  62  87 125 168 211 261 310 366
#     4  12  25  41  63  96 131 170 208 253 317 382
#     4  11  22  43  69  89 122 167 212 260 314 374
#     4  10  24  42  61  91 128 168 211 256 310 376
#
# _framework density 25.921699
#
# number of rings (size 3 to 8) (size 9 to 14) (size 15 to 20)
#    0.000    1.250    2.500    4.125    1.750    3.750 
#    0.000    6.875    0.000    0.000    0.000    0.000 
#    0.000    0.000    0.000    0.000    0.000    0.000 
#
# Total GULP energy -178466.788544 kJ/mol
# GULP energy per Si atom -5577.087142 kJ/mol
# Density = 2.586270 g / cm^3
# Si number density = 25.921699 Si / 1000 Ang^3
#
#
#
# Elastic Constant Matrix: (Units=GPa)
#
#
# Indices 1 2 3 4 5 6 
#
# 1 72.5171 37.0842 14.9874 0.0000 -0.8534 0.0000
# 2 37.0842 160.2826 29.0554 0.0000 -0.7116 0.0000
# 3 14.9874 29.0554 71.3013 0.0000 -10.6270 0.0000
# 4 0.0000 0.0000 0.0000 31.0184 0.0000 5.5441
# 5 -0.8534 -0.7116 -10.6270 0.0000 38.8826 0.0000
# 6 0.0000 0.0000 0.0000 5.5441 0.0000 19.5428
#
#
#
# Elastic Compliance Matrix: (Units=1/GPa)
#
#
# Indices 1 2 3 4 5 6 
#
# 1 0.015900 -0.003312 -0.002033 0.000000 -0.000267 0.000000
# 2 -0.003312 0.007442 -0.002426 0.000000 -0.000600 0.000000
# 3 -0.002033 -0.002426 0.016083 0.000000 0.004307 0.000000
# 4 0.000000 0.000000 0.000000 0.033961 0.000000 -0.009634
# 5 -0.000267 -0.000600 0.004307 0.000000 0.026879 0.000000
# 6 0.000000 0.000000 0.000000 -0.009634 0.000000 0.053903
#
#
# Mechanical properties :
#
#
# Convention : Reuss Voigt Hill
#
# Bulk Modulus (GPa) = 41.86727 51.81721 46.84224
# Shear Modulus (GPa) = 28.14212 32.75370 30.44791
#
# Velocity S-wave (km/s) = 3.29851 3.55852 3.43098
# Velocity P-wave (km/s) = 5.54016 6.07597 5.81424
#
# Compressibility (1/GPa) = 0.02388501
#
# Stress axis : x y z
#
# Youngs Moduli (GPa) = 62.89205 134.36739 62.17864
#
# Poissons Ratio (x) = 0.44496 0.12638
# Poissons Ratio (y) = 0.20827 0.15085
# Poissons Ratio (z) = 0.12783 0.32598
#
# Static dielectric constant tensor:
#      x y z
#    x 2.409880 0.000000 0.245670 
#    y 0.000000 2.069750 0.000000 
#    z 0.245670 0.000000 2.189210 
# 
# From -- ./inp_files/216765.got.cif
#   From: 2010.05.17/outbox.cif.g08.bks.cpg/sg12_109_cif.got.tgz:216765.got - 2010.06.03 13:09:07.
