data_PCOD9218607
_publ_section_title
;
Structure prediction by ZEFSAII (Michael W. Deem and Ramdas Pophale) SiO2 
 PCOD9218607
Probable space group: C 2/M
;
_chemical_formula_sum "Si O2"
_cell_formula_units_Z 28
_cell_length_a 5.339549
_cell_length_b 27.655438
_cell_length_c 9.518944
_cell_angle_alpha 90.000000
_cell_angle_beta 104.532379
_cell_angle_gamma 90.000000
_cell_volume 1360.667258
_symmetry_space_group_name_H-M "C 2/M"
_symmetry_group_IT_number 12
_symmetry_cell_setting 'monoclinic'
loop_
_space_group_symop_operation_xyz
x,y,z
-x,y,-z
-x,-y,-z
x,-y,z
1/2+x,1/2+y,z
1/2-x,1/2+y,-z
1/2-x,1/2-y,-z
1/2+x,1/2-y,z
loop_
_atom_site_type_symbol
_atom_site_label
_atom_site_fract_x
_atom_site_fract_y
_atom_site_fract_z
Si Si1 0.500000 0.282118 0.500000
Si Si2 0.585239 0.156894 0.347247
Si Si3 0.223154 0.694730 0.938896
Si Si4 0.205910 0.446736 0.401215
O O1 0.250000 0.250000 0.500000
O O2 0.633978 0.317949 0.630330
O O3 0.500000 0.156215 0.500000
O O4 0.380883 0.188824 0.232564
O O5 0.617632 0.101261 0.306732
O O6 0.500000 0.671722 0.000000
O O7 0.250000 0.750000 0.000000
O O8 0.000000 0.671331 0.000000
O O9 0.500000 0.438946 0.500000
O O10 0.203277 0.500000 0.331684
O O11 0.000000 0.449272 0.500000
#
# Coordination Sequence:
#
# PCOD9218607 Si02
#       4
#     4   8   8   8
#     4  12  26  34  55  90 125 150 200 260 290 344
#     4  11  24  41  66  91 120 161 214 249 303 364
#     4  10  25  41  57  79 121 164 201 246 300 355
#     4   9  18  34  58  92 123 146 188 257 316 354
#
# _framework density 20.578139
#
# number of rings (size 3 to 8) (size 9 to 14) (size 15 to 20)
#    0.000    1.714    2.857    0.000   12.000    0.000 
#    0.000    0.000    0.000    1.714    0.000    0.000 
#    0.000    0.000    0.000    0.000    0.000    0.000 
#
# Total GULP energy -77953.914953 kJ/mol
# GULP energy per Si atom -5568.136782 kJ/mol
# Density = 2.053130 g / cm^3
# Si number density = 20.578139 Si / 1000 Ang^3
#
#
#
# Elastic Constant Matrix: (Units=GPa)
#
#
# Indices 1 2 3 4 5 6 
#
# 1 166.1064 15.3092 37.6640 0.0000 28.1179 0.0000
# 2 15.3092 160.5129 32.8893 0.0000 14.0473 0.0000
# 3 37.6640 32.8893 107.5798 0.0000 21.5200 0.0000
# 4 0.0000 0.0000 0.0000 17.9178 0.0000 -1.1528
# 5 28.1179 14.0473 21.5200 0.0000 35.4324 0.0000
# 6 0.0000 0.0000 0.0000 -1.1528 0.0000 19.6088
#
#
#
# Elastic Compliance Matrix: (Units=1/GPa)
#
#
# Indices 1 2 3 4 5 6 
#
# 1 0.007179 0.000055 -0.001578 0.000000 -0.004760 0.000000
# 2 0.000055 0.006727 -0.001746 0.000000 -0.001650 0.000000
# 3 -0.001578 -0.001746 0.011375 0.000000 -0.004964 0.000000
# 4 0.000000 0.000000 0.000000 0.056022 0.000000 0.003293
# 5 -0.004760 -0.001650 -0.004964 0.000000 0.035670 0.000000
# 6 0.000000 0.000000 0.000000 0.003293 0.000000 0.051191
#
#
# Mechanical properties :
#
#
# Convention : Reuss Voigt Hill
#
# Bulk Modulus (GPa) = 53.35224 67.32492 60.33858
# Shear Modulus (GPa) = 27.63226 37.81425 32.72325
#
# Velocity S-wave (km/s) = 3.66839 4.29137 3.99205
# Velocity P-wave (km/s) = 6.62765 7.57246 7.11576
#
# Compressibility (1/GPa) = 0.01874335
#
# Stress axis : x y z
#
# Youngs Moduli (GPa) = 139.29996 148.65680 87.91538
#
# Poissons Ratio (x) = -0.00821 0.13873
# Poissons Ratio (y) = -0.00769 0.15348
# Poissons Ratio (z) = 0.21981 0.25952
#
# Static dielectric constant tensor:
#      x y z
#    x 1.824040 0.000000 -0.059590 
#    y 0.000000 1.819080 0.000000 
#    z -0.059590 0.000000 1.781100 
# 
# From -- ./inp_files/33975.got.cif
#   From: 2010.05.17/outbox.cif.g08.bks.cpg/sg12_17_cif.got.tgz:33975.got - 2010.06.03 13:09:07.
