data_PCOD9218819
_publ_section_title
;
Structure prediction by ZEFSAII (Michael W. Deem and Ramdas Pophale) SiO2 
 PCOD9218819
Probable space group: C 2/M
;
_chemical_formula_sum "Si O2"
_cell_formula_units_Z 48
_cell_length_a 17.232125
_cell_length_b 21.068067
_cell_length_c 23.379058
_cell_angle_alpha 90.000000
_cell_angle_beta 159.335506
_cell_angle_gamma 90.000000
_cell_volume 2995.271157
_symmetry_space_group_name_H-M "C 2/M"
_symmetry_group_IT_number 12
_symmetry_cell_setting 'monoclinic'
loop_
_space_group_symop_operation_xyz
x,y,z
-x,y,-z
-x,-y,-z
x,-y,z
1/2+x,1/2+y,z
1/2-x,1/2+y,-z
1/2-x,1/2-y,-z
1/2+x,1/2-y,z
loop_
_atom_site_type_symbol
_atom_site_label
_atom_site_fract_x
_atom_site_fract_y
_atom_site_fract_z
Si Si1 0.189773 0.385960 0.676152
Si Si2 0.186533 0.767555 0.674673
Si Si3 0.260768 0.882393 0.164743
Si Si4 0.261109 0.735736 0.164819
Si Si5 0.680682 0.570804 0.988288
Si Si6 0.326274 0.810153 0.015114
O O1 0.225443 0.309119 0.701465
O O2 0.130081 0.403740 0.700479
O O3 0.419753 0.417461 0.817493
O O4 0.000000 0.400381 0.500000
O O5 0.124073 0.784455 0.697014
O O6 0.413671 0.801307 0.815298
O O7 0.000000 0.781390 0.500000
O O8 0.319656 0.809057 0.193084
O O9 0.287531 0.920737 0.125052
O O10 0.000000 0.883538 0.000000
O O11 0.288361 0.695761 0.126192
O O12 0.000000 0.735250 0.000000
O O13 0.719777 0.500000 0.993850
O O14 0.767439 0.625669 0.006883
O O15 0.250000 0.750000 0.000000
#
# Coordination Sequence:
#
# PCOD9218819 Si02
#       6
#     8   8   8   8   8   8
#     4   9  17  30  48  72 100 128 156 186 231 290
#     4   9  17  31  52  76  96 119 157 200 239 281
#     4   8  14  27  45  67  93 126 162 184 222 286
#     4   8  14  27  49  70  92 123 155 192 236 282
#     4  11  21  31  46  70  98 130 163 194 229 278
#     4  11  17  31  52  71  96 126 157 198 239 272
#
# _framework density 16.025259999999999
#
# number of rings (size 3 to 8) (size 9 to 14) (size 15 to 20)
#    0.000    2.667    3.333    2.000    0.000    3.333 
#    0.000    2.500    0.000    5.000    0.000    0.000 
#    0.000    0.000    0.000    0.000    0.000    0.000 
#
# Total GULP energy -133671.086536 kJ/mol
# GULP energy per Si atom -5569.628606 kJ/mol
# Density = 1.598879 g / cm^3
# Si number density = 16.025260 Si / 1000 Ang^3
#
#
#
# Elastic Constant Matrix: (Units=GPa)
#
#
# Indices 1 2 3 4 5 6 
#
# 1 96.9744 54.3493 39.8514 0.0094 -29.9041 0.0018
# 2 54.3493 87.8223 22.4298 0.0082 -9.4430 -0.0089
# 3 39.8514 22.4298 70.2821 -0.0100 -33.4155 0.0000
# 4 0.0094 0.0082 -0.0100 7.2603 -0.0083 0.5356
# 5 -29.9041 -9.4430 -33.4155 -0.0083 31.1737 -0.0002
# 6 0.0018 -0.0089 0.0000 0.5356 -0.0002 16.1109
#
#
#
# Elastic Compliance Matrix: (Units=1/GPa)
#
#
# Indices 1 2 3 4 5 6 
#
# 1 0.022677 -0.011964 -0.000858 0.000003 0.017210 -0.000009
# 2 -0.011964 0.018724 -0.003980 -0.000023 -0.010071 0.000012
# 3 -0.000858 -0.003980 0.030632 0.000083 0.030806 -0.000005
# 4 0.000003 -0.000023 0.000083 0.138074 0.000122 -0.004590
# 5 0.017210 -0.010071 0.030806 0.000122 0.078558 -0.000011
# 6 -0.000009 0.000012 -0.000005 -0.004590 -0.000011 0.062222
#
#
# Mechanical properties :
#
#
# Convention : Reuss Voigt Hill
#
# Bulk Modulus (GPa) = 26.02213 54.25999 40.14106
# Shear Modulus (GPa) = 12.58495 20.13887 16.36191
#
# Velocity S-wave (km/s) = 2.80540 3.54884 3.19879
# Velocity P-wave (km/s) = 5.17369 7.12214 6.22463
#
# Compressibility (1/GPa) = 0.03842883
#
# Stress axis : x y z
#
# Youngs Moduli (GPa) = 44.09806 53.40649 32.64611
#
# Poissons Ratio (x) = 0.63896 0.02800
# Poissons Ratio (y) = 0.52759 0.12994
# Poissons Ratio (z) = 0.03782 0.21257
#
# Static dielectric constant tensor:
#      x y z
#    x 1.558140 -0.000010 -0.035910 
#    y -0.000010 1.526370 -0.000020 
#    z -0.035910 -0.000020 1.553420 
# 
# From -- ./inp_files/74607.got.cif
#   From: 2010.05.17/outbox.cif.g08.bks.cpg/sg12_38_cif.got.tgz:74607.got - 2010.06.03 13:09:07.
