data_PCOD9218601
_publ_section_title
;
Structure prediction by ZEFSAII (Michael W. Deem and Ramdas Pophale) SiO2 
 PCOD9218601
Probable space group: C 2/M
;
_chemical_formula_sum "Si O2"
_cell_formula_units_Z 50
_cell_length_a 14.306542
_cell_length_b 9.217769
_cell_length_c 22.843444
_cell_angle_alpha 90.000000
_cell_angle_beta 124.233556
_cell_angle_gamma 90.000000
_cell_volume 2490.559555
_symmetry_space_group_name_H-M "C 2/M"
_symmetry_group_IT_number 12
_symmetry_cell_setting 'monoclinic'
loop_
_space_group_symop_operation_xyz
x,y,z
-x,y,-z
-x,-y,-z
x,-y,z
1/2+x,1/2+y,z
1/2-x,1/2+y,-z
1/2-x,1/2-y,-z
1/2+x,1/2-y,z
loop_
_atom_site_type_symbol
_atom_site_label
_atom_site_fract_x
_atom_site_fract_y
_atom_site_fract_z
Si Si1 0.737536 0.163246 0.639492
Si Si2 0.643114 0.824838 0.990880
Si Si3 0.375152 0.769824 0.516373
Si Si4 0.455704 0.165675 0.669327
Si Si5 0.605484 0.175190 0.113357
Si Si6 0.000000 0.000000 0.500000
Si Si7 0.319317 0.325565 0.265173
O O1 0.652276 0.154527 0.554743
O O2 0.853826 0.236356 0.658017
O O3 0.690843 0.271716 0.671914
O O4 0.755215 0.000000 0.668514
O O5 0.635670 0.787020 0.057128
O O6 0.651702 0.000000 0.989553
O O7 0.750000 0.750000 0.000000
O O8 0.523202 0.777316 0.920423
O O9 0.250000 0.750000 0.500000
O O10 0.442781 0.838692 0.594035
O O11 0.437383 0.624696 0.518331
O O12 0.573556 0.243884 0.724506
O O13 0.448861 0.000000 0.688838
O O14 0.703746 0.219763 0.191958
O O15 0.602648 0.000000 0.114367
O O16 0.332721 0.500000 0.267359
#
# Coordination Sequence:
#
# PCOD9218601 Si02
#       7
#     8   8   8   8   8   2   8
#     4  11  24  41  62  87 120 159 207 261 316 371
#     4   9  17  35  62  88 116 149 195 237 290 348
#     4  10  25  38  67  89 125 155 221 265 331 382
#     4  11  24  41  62  87 120 159 207 261 316 371
#     4   8  18  37  58  83 118 160 192 236 288 358
#     4  12  24  40  66  94 120 172 194 262 352 382
#     4  11  23  39  60  86 123 162 204 244 304 371
#
# _framework density 20.075807999999999
#
# number of rings (size 3 to 8) (size 9 to 14) (size 15 to 20)
#    0.000    1.920    0.000    3.840   13.440    1.280 
#    0.000   10.400    0.000    0.000    0.000    0.000 
#    0.000    0.000    0.000    0.000    0.000    0.000 
#
# Total GULP energy -139252.424737 kJ/mol
# GULP energy per Si atom -5570.096989 kJ/mol
# Density = 2.003011 g / cm^3
# Si number density = 20.075808 Si / 1000 Ang^3
#
#
#
# Elastic Constant Matrix: (Units=GPa)
#
#
# Indices 1 2 3 4 5 6 
#
# 1 85.4424 23.9975 14.5538 0.0000 28.4970 0.0000
# 2 23.9975 100.7412 10.7724 0.0000 16.0502 0.0000
# 3 14.5538 10.7724 82.1309 0.0000 28.8994 0.0000
# 4 0.0000 0.0000 0.0000 65.1985 0.0000 41.3019
# 5 28.4970 16.0502 28.8994 0.0000 25.5308 0.0000
# 6 0.0000 0.0000 0.0000 41.3019 0.0000 58.2807
#
#
#
# Elastic Compliance Matrix: (Units=1/GPa)
#
#
# Indices 1 2 3 4 5 6 
#
# 1 0.021204 -0.000813 0.007474 0.000000 -0.031616 0.000000
# 2 -0.000813 0.011199 0.001385 0.000000 -0.007700 0.000000
# 3 0.007474 0.001385 0.023120 0.000000 -0.035383 0.000000
# 4 0.000000 0.000000 0.000000 0.027833 0.000000 -0.019724
# 5 -0.031616 -0.007700 -0.035383 0.000000 0.119351 0.000000
# 6 0.000000 0.000000 0.000000 -0.019724 0.000000 0.031136
#
#
# Mechanical properties :
#
#
# Convention : Reuss Voigt Hill
#
# Bulk Modulus (GPa) = 13.96369 40.77354 27.36862
# Shear Modulus (GPa) = 20.69344 44.40138 32.54741
#
# Velocity S-wave (km/s) = 3.21404 4.70796 4.03081
# Velocity P-wave (km/s) = 4.55455 7.06449 5.94353
#
# Compressibility (1/GPa) = 0.07161430
#
# Stress axis : x y z
#
# Youngs Moduli (GPa) = 47.16132 89.29505 43.25255
#
# Poissons Ratio (x) = 0.07260 -0.32328
# Poissons Ratio (y) = 0.03834 -0.05989
# Poissons Ratio (z) = -0.35249 -0.12364
#
# Static dielectric constant tensor:
#      x y z
#    x 1.716580 0.000000 0.011820 
#    y 0.000000 1.706240 0.000000 
#    z 0.011820 0.000000 1.753740 
# 
# From -- ./inp_files/360056.got.cif
#   From: 2010.05.17/outbox.cif.g08.bks.cpg/sg12_181_cif.got.tgz:360056.got - 2010.06.03 13:09:07.
