data_PCOD9218921
_publ_section_title
;
Structure prediction by ZEFSAII (Michael W. Deem and Ramdas Pophale) SiO2 
 PCOD9218921
Probable space group: C 2/M
;
_chemical_formula_sum "Si O2"
_cell_formula_units_Z 64
_cell_length_a 21.807806
_cell_length_b 16.825028
_cell_length_c 24.203822
_cell_angle_alpha 90.000000
_cell_angle_beta 21.532986
_cell_angle_gamma 90.000000
_cell_volume 3259.577831
_symmetry_space_group_name_H-M "C 2/M"
_symmetry_group_IT_number 12
_symmetry_cell_setting 'monoclinic'
loop_
_space_group_symop_operation_xyz
x,y,z
-x,y,-z
-x,-y,-z
x,-y,z
1/2+x,1/2+y,z
1/2-x,1/2+y,-z
1/2-x,1/2-y,-z
1/2+x,1/2-y,z
loop_
_atom_site_type_symbol
_atom_site_label
_atom_site_fract_x
_atom_site_fract_y
_atom_site_fract_z
Si Si1 0.389160 0.788508 0.145337
Si Si2 0.890413 0.914620 0.646996
Si Si3 0.757419 0.405363 0.551445
Si Si4 0.432294 0.161242 0.299549
Si Si5 0.570024 0.692325 0.562556
Si Si6 0.425582 0.091941 0.924268
Si Si7 0.083582 0.817048 0.198048
Si Si8 0.146932 0.676916 0.414857
O O1 0.245387 0.846194 0.242127
O O2 0.489295 0.845862 0.104269
O O3 0.300836 0.715035 0.251344
O O4 0.500000 0.763281 0.000000
O O5 0.000000 0.914825 0.500000
O O6 0.022351 0.896157 0.584460
O O7 0.808554 0.000000 0.722723
O O8 0.750071 0.500000 0.554361
O O9 0.894997 0.373830 0.391539
O O10 0.579874 0.367397 0.682415
O O11 0.797951 0.377479 0.579920
O O12 0.255293 0.199640 0.430558
O O13 0.474598 0.097722 0.217214
O O14 0.567987 0.232115 0.180751
O O15 0.441749 0.711786 0.717722
O O16 0.562377 0.747077 0.515677
O O17 0.422595 0.000000 0.945985
O O18 0.242566 0.126585 0.064120
O O19 0.000000 0.641211 0.500000
#
# Coordination Sequence:
#
# PCOD9218921 Si02
#       8
#     8   8   8   8   8   8   8   8
#     4  12  24  38  58  85 126 169 208 247 293 358
#     4  11  21  34  55  83 118 159 198 243 298 353
#     4  11  23  41  67  95 122 152 202 266 319 357
#     4  11  21  40  65  91 119 159 203 251 307 367
#     4  11  18  37  62  86 111 154 205 248 294 362
#     4  12  25  38  56  90 131 163 201 245 304 365
#     4  11  22  38  63  86 120 163 199 242 305 371
#     4  12  22  42  65  87 119 158 211 256 303 366
#
# _framework density 19.634444999999999
#
# number of rings (size 3 to 8) (size 9 to 14) (size 15 to 20)
#    0.000    0.625    6.250    3.000    0.000    6.250 
#    0.000    0.000    0.000    0.375    0.000    0.000 
#    0.000    0.000    0.000    0.000    0.000    0.000 
#
# Total GULP energy -178545.184648 kJ/mol
# GULP energy per Si atom -5579.537020 kJ/mol
# Density = 1.958976 g / cm^3
# Si number density = 19.634445 Si / 1000 Ang^3
#
#
#
# Elastic Constant Matrix: (Units=GPa)
#
#
# Indices 1 2 3 4 5 6 
#
# 1 99.2287 29.3215 34.2895 -0.0006 4.0598 0.0032
# 2 29.3215 90.0147 23.6979 -0.0033 -3.1284 0.0009
# 3 34.2895 23.6979 76.7229 -0.0033 3.1287 0.0041
# 4 -0.0006 -0.0033 -0.0033 15.9348 0.0028 -8.3972
# 5 4.0598 -3.1284 3.1287 0.0028 31.3930 -0.0069
# 6 0.0032 0.0009 0.0041 -8.3972 -0.0069 -0.7968
#
#
#
# Elastic Compliance Matrix: (Units=1/GPa)
#
#
# Indices 1 2 3 4 5 6 
#
# 1 0.012619 -0.002930 -0.004675 0.000003 -0.001458 0.000007
# 2 -0.002930 0.012852 -0.002739 -0.000002 0.001933 -0.000007
# 3 -0.004675 -0.002739 0.016021 0.000006 -0.001265 0.000006
# 4 0.000003 -0.000002 0.000006 0.009576 -0.000024 -0.100917
# 5 -0.001458 0.001933 -0.001265 -0.000024 0.032361 -0.000035
# 6 0.000007 -0.000007 0.000006 -0.100917 -0.000035 -0.191504
#
#
# Mechanical properties :
#
#
# Convention : Reuss Voigt Hill
#
# Bulk Modulus (GPa) = 48.06965 48.95378 48.51171
# Shear Modulus (GPa) = -62.14903 21.21670 -20.46617
#
# Velocity S-wave (km/s) = -5.63221 3.29079 -3.23206
# Velocity P-wave (km/s) = 4.21429 6.27900 3.29132
#
# Compressibility (1/GPa) = 0.02080315
#
# Stress axis : x y z
#
# Youngs Moduli (GPa) = 79.24683 77.80864 62.41845
#
# Poissons Ratio (x) = 0.22800 0.29181
# Poissons Ratio (y) = 0.23222 0.17096
# Poissons Ratio (z) = 0.37049 0.21311
#
# Static dielectric constant tensor:
#      x y z
#    x 1.752090 0.000000 0.008000 
#    y 0.000000 1.708020 0.000010 
#    z 0.008000 0.000010 1.701380 
# 
# From -- ./inp_files/347864.got.cif
#   From: 2010.05.17/outbox.cif.g08.bks.cpg/sg12_174_cif.got.tgz:347864.got - 2010.06.03 13:09:07.
