data_PCOD9218539
_publ_section_title
;
Structure prediction by ZEFSAII (Michael W. Deem and Ramdas Pophale) SiO2 
 PCOD9218539
Probable space group: C 2/M
;
_chemical_formula_sum "Si O2"
_cell_formula_units_Z 36
_cell_length_a 14.873786
_cell_length_b 26.399017
_cell_length_c 9.121740
_cell_angle_alpha 90.000000
_cell_angle_beta 28.786659
_cell_angle_gamma 90.000000
_cell_volume 1724.757397
_symmetry_space_group_name_H-M "C 2/M"
_symmetry_group_IT_number 12
_symmetry_cell_setting 'monoclinic'
loop_
_space_group_symop_operation_xyz
x,y,z
-x,y,-z
-x,-y,-z
x,-y,z
1/2+x,1/2+y,z
1/2-x,1/2+y,-z
1/2-x,1/2-y,-z
1/2+x,1/2-y,z
loop_
_atom_site_type_symbol
_atom_site_label
_atom_site_fract_x
_atom_site_fract_y
_atom_site_fract_z
Si Si1 0.707186 0.223802 0.404484
Si Si2 0.377374 0.131066 0.319130
Si Si3 0.939056 0.147522 0.878424
Si Si4 0.674883 0.942224 0.359792
Si Si5 0.000000 0.804107 0.500000
O O1 0.750000 0.250000 0.500000
O O2 0.571095 0.177643 0.645984
O O3 0.628540 0.266854 0.411591
O O4 0.861920 0.194095 0.086947
O O5 0.390612 0.079348 0.390035
O O6 0.159358 0.139715 0.589886
O O7 0.500000 0.132620 0.000000
O O8 0.903370 0.161204 0.760454
O O9 0.831119 0.097229 0.082047
O O10 0.500000 0.939955 0.500000
O O11 0.741454 0.000000 0.272724
#
# Coordination Sequence:
#
# PCOD9218539 Si02
#       5
#     8   8   8   8   4
#     4  11  24  41  66  94 140 184 228 272 332 399
#     4  11  26  42  69 100 136 179 228 279 330 411
#     4  11  26  46  65 102 136 182 231 276 339 404
#     4  10  24  47  74  99 132 172 221 287 352 406
#     4  12  26  38  69  98 143 182 226 278 330 400
#
# _framework density 20.872502000000001
#
# number of rings (size 3 to 8) (size 9 to 14) (size 15 to 20)
#    0.000    1.111    2.222    3.333   12.444    2.222 
#    0.000    0.556    0.000    0.000    0.000    0.000 
#    0.000    0.000    0.000    0.000    0.000    0.000 
#
# Total GULP energy -100631.843961 kJ/mol
# GULP energy per Si atom -5590.657998 kJ/mol
# Density = 2.082500 g / cm^3
# Si number density = 20.872502 Si / 1000 Ang^3
#
#
#
# Elastic Constant Matrix: (Units=GPa)
#
#
# Indices 1 2 3 4 5 6 
#
# 1 93.9887 20.8485 32.5713 -0.0001 31.6842 0.0001
# 2 20.8485 122.5038 36.7302 0.0005 13.2831 0.0000
# 3 32.5713 36.7302 130.1203 -0.0010 32.4367 0.0000
# 4 -0.0001 0.0005 -0.0010 15.7058 0.0004 3.7511
# 5 31.6842 13.2831 32.4367 0.0004 43.2210 0.0000
# 6 0.0001 0.0000 0.0000 3.7511 0.0000 31.7103
#
#
#
# Elastic Compliance Matrix: (Units=1/GPa)
#
#
# Indices 1 2 3 4 5 6 
#
# 1 0.014425 -0.001148 -0.000909 0.000000 -0.009540 0.000000
# 2 -0.001148 0.009048 -0.002194 0.000000 -0.000293 0.000000
# 3 -0.000909 -0.002194 0.010084 0.000001 -0.006228 0.000000
# 4 0.000000 0.000000 0.000001 0.065522 -0.000001 -0.007751
# 5 -0.009540 -0.000293 -0.006228 -0.000001 0.034894 0.000000
# 6 0.000000 0.000000 0.000000 -0.007751 0.000000 0.032452
#
#
# Mechanical properties :
#
#
# Convention : Reuss Voigt Hill
#
# Bulk Modulus (GPa) = 39.90977 58.54585 49.22781
# Shear Modulus (GPa) = 27.28087 35.22494 31.25291
#
# Velocity S-wave (km/s) = 3.61920 4.11253 3.87373
# Velocity P-wave (km/s) = 6.05203 7.11763 6.60635
#
# Compressibility (1/GPa) = 0.02505652
#
# Stress axis : x y z
#
# Youngs Moduli (GPa) = 69.32367 110.52330 99.16342
#
# Poissons Ratio (x) = 0.12689 0.09010
# Poissons Ratio (y) = 0.07959 0.21753
# Poissons Ratio (z) = 0.06299 0.24245
#
# Static dielectric constant tensor:
#      x y z
#    x 1.789200 0.000000 -0.035490 
#    y 0.000000 1.749070 0.000000 
#    z -0.035490 0.000000 1.787940 
# 
# From -- ./inp_files/67252.got.cif
#   From: 2010.05.17/outbox.cif.g08.bks.cpg/sg12_34_cif.got.tgz:67252.got - 2010.06.03 13:09:07.
