data_PCOD9218782
_publ_section_title
;
Structure prediction by ZEFSAII (Michael W. Deem and Ramdas Pophale) SiO2 
 PCOD9218782
Probable space group: C 2/M
;
_chemical_formula_sum "Si O2"
_cell_formula_units_Z 44
_cell_length_a 8.478656
_cell_length_b 18.249362
_cell_length_c 16.488412
_cell_angle_alpha 90.000000
_cell_angle_beta 51.327552
_cell_angle_gamma 90.000000
_cell_volume 1991.842270
_symmetry_space_group_name_H-M "C 2/M"
_symmetry_group_IT_number 12
_symmetry_cell_setting 'monoclinic'
loop_
_space_group_symop_operation_xyz
x,y,z
-x,y,-z
-x,-y,-z
x,-y,z
1/2+x,1/2+y,z
1/2-x,1/2+y,-z
1/2-x,1/2-y,-z
1/2+x,1/2-y,z
loop_
_atom_site_type_symbol
_atom_site_label
_atom_site_fract_x
_atom_site_fract_y
_atom_site_fract_z
Si Si1 0.157898 0.144319 0.883977
Si Si2 0.610883 0.724862 0.149921
Si Si3 0.480201 0.000000 0.874763
Si Si4 0.693962 0.500000 0.803412
Si Si5 0.000000 0.258694 0.500000
Si Si6 0.577165 0.336575 0.625998
Si Si7 0.041969 0.000000 0.290188
Si Si8 0.500000 0.124424 0.000000
O O1 0.337006 0.189670 0.865483
O O2 0.220862 0.087797 0.794044
O O3 0.030852 0.206607 0.879428
O O4 0.000000 0.110263 0.000000
O O5 0.508112 0.700418 0.265702
O O6 0.805214 0.673655 0.077003
O O7 0.317094 0.000000 0.854929
O O8 0.453321 0.070135 0.940495
O O9 0.716348 0.000000 0.773771
O O10 0.517683 0.500000 0.787322
O O11 0.809706 0.311243 0.544764
O O12 0.032573 0.203798 0.413784
O O13 0.544932 0.424248 0.643727
#
# Coordination Sequence:
#
# PCOD9218782 Si02
#       8
#     8   8   4   4   4   8   4   4
#     4  12  25  40  62  99 144 195 241 286 338 416
#     4  12  24  41  70 100 147 184 241 291 348 423
#     4  11  24  42  70 101 157 202 239 282 355 429
#     4  12  26  43  64 103 141 204 242 290 350 422
#     4  10  26  50  78 104 132 186 238 306 382 432
#     4  11  24  49  77 105 142 181 238 305 369 434
#     4  12  25  49  73 110 148 188 235 309 354 439
#     4  11  22  42  66 107 148 202 234 289 348 430
#
# _framework density 22.090104
#
# number of rings (size 3 to 8) (size 9 to 14) (size 15 to 20)
#    0.000    0.545    4.545    3.000    2.545    4.364 
#    3.273    0.000    0.000    0.000    0.000    0.000 
#    0.000    0.000    0.000    0.000    0.000    0.000 
#
# Total GULP energy -122591.410709 kJ/mol
# GULP energy per Si atom -5572.336850 kJ/mol
# Density = 2.203983 g / cm^3
# Si number density = 22.090104 Si / 1000 Ang^3
#
#
#
# Elastic Constant Matrix: (Units=GPa)
#
#
# Indices 1 2 3 4 5 6 
#
# 1 60.2819 3.9167 -1.2989 0.0000 17.7959 0.0000
# 2 3.9167 138.7061 14.9958 0.0000 -8.2677 0.0000
# 3 -1.2989 14.9958 57.1165 0.0000 5.3118 0.0000
# 4 0.0000 0.0000 0.0000 32.2276 0.0000 13.9953
# 5 17.7959 -8.2677 5.3118 0.0000 23.4404 0.0000
# 6 0.0000 0.0000 0.0000 13.9953 0.0000 38.3934
#
#
#
# Elastic Compliance Matrix: (Units=1/GPa)
#
#
# Indices 1 2 3 4 5 6 
#
# 1 0.022125 -0.001998 0.002713 0.000000 -0.018117 0.000000
# 2 -0.001998 0.007831 -0.002553 0.000000 0.004858 0.000000
# 3 0.002713 -0.002553 0.018914 0.000000 -0.007246 0.000000
# 4 0.000000 0.000000 0.000000 0.036865 0.000000 -0.013438
# 5 -0.018117 0.004858 -0.007246 0.000000 0.059771 0.000000
# 6 0.000000 0.000000 0.000000 -0.013438 0.000000 0.030945
#
#
# Mechanical properties :
#
#
# Convention : Reuss Voigt Hill
#
# Bulk Modulus (GPa) = 22.12710 32.37018 27.24864
# Shear Modulus (GPa) = 25.61562 34.71168 30.16365
#
# Velocity S-wave (km/s) = 3.40898 3.96835 3.69925
# Velocity P-wave (km/s) = 5.05305 5.97349 5.53245
#
# Compressibility (1/GPa) = 0.04519345
#
# Stress axis : x y z
#
# Youngs Moduli (GPa) = 45.19715 127.68956 52.87089
#
# Poissons Ratio (x) = 0.25511 -0.14341
# Poissons Ratio (y) = 0.09030 0.13500
# Poissons Ratio (z) = -0.12260 0.32603
#
# Static dielectric constant tensor:
#      x y z
#    x 2.139090 0.000000 -0.201910 
#    y 0.000000 1.876370 0.000000 
#    z -0.201910 0.000000 1.957940 
# 
# From -- ./inp_files/195556.got.cif
#   From: 2010.05.17/outbox.cif.g08.bks.cpg/sg12_98_cif.got.tgz:195556.got - 2010.06.03 13:09:07.
