data_PCOD9218667
_publ_section_title
;
Structure prediction by ZEFSAII (Michael W. Deem and Ramdas Pophale) SiO2 
 PCOD9218667
Probable space group: C 2/M
;
_chemical_formula_sum "Si O2"
_cell_formula_units_Z 56
_cell_length_a 18.584913
_cell_length_b 22.321233
_cell_length_c 7.506345
_cell_angle_alpha 90.000000
_cell_angle_beta 128.186019
_cell_angle_gamma 90.000000
_cell_volume 2447.564097
_symmetry_space_group_name_H-M "C 2/M"
_symmetry_group_IT_number 12
_symmetry_cell_setting 'monoclinic'
loop_
_space_group_symop_operation_xyz
x,y,z
-x,y,-z
-x,-y,-z
x,-y,z
1/2+x,1/2+y,z
1/2-x,1/2+y,-z
1/2-x,1/2-y,-z
1/2+x,1/2-y,z
loop_
_atom_site_type_symbol
_atom_site_label
_atom_site_fract_x
_atom_site_fract_y
_atom_site_fract_z
Si Si1 0.903167 0.698378 0.703183
Si Si2 0.225409 0.568910 0.903609
Si Si3 0.441607 0.565130 0.232411
Si Si4 0.583032 0.841078 0.870447
Si Si5 0.279575 0.343971 0.707042
Si Si6 0.350959 0.721859 0.153881
Si Si7 0.079077 0.168264 0.369903
O O1 0.804177 0.699626 0.463717
O O2 0.941581 0.765680 0.741552
O O3 0.973591 0.650693 0.722930
O O4 0.890236 0.678829 0.887890
O O5 0.197317 0.500000 0.866238
O O6 0.153915 0.609615 0.905952
O O7 0.232730 0.597331 0.718184
O O8 0.334039 0.571984 0.119893
O O9 0.500000 0.559562 0.500000
O O10 0.446358 0.500000 0.143100
O O11 0.497428 0.620168 0.229784
O O12 0.590732 0.782073 0.762225
O O13 0.337367 0.355890 0.620150
O O14 0.342194 0.314452 0.955783
O O15 0.387134 0.683118 0.376019
O O16 0.250000 0.750000 0.000000
#
# Coordination Sequence:
#
# PCOD9218667 Si02
#       7
#     8   8   8   8   8   8   8
#     4  11  25  42  69 113 142 177 234 297 367 426
#     4  11  26  49  73  97 138 194 244 290 350 420
#     4  10  25  45  69 104 139 188 244 284 341 425
#     4  11  25  45  70 103 145 180 235 299 352 428
#     4  12  25  43  68 104 145 180 234 290 346 425
#     4  12  22  41  68 102 142 186 225 287 354 414
#     4  12  25  40  73 106 147 190 230 287 366 419
#
# _framework density 22.87989
#
# number of rings (size 3 to 8) (size 9 to 14) (size 15 to 20)
#    0.000    0.714    4.286    2.143    6.000    2.857 
#    0.000    5.000    0.000    0.000    0.000    0.000 
#    0.000    0.000    0.000    0.000    0.000    0.000 
#
# Total GULP energy -156295.442879 kJ/mol
# GULP energy per Si atom -5581.980103 kJ/mol
# Density = 2.282781 g / cm^3
# Si number density = 22.879890 Si / 1000 Ang^3
#
#
#
# Elastic Constant Matrix: (Units=GPa)
#
#
# Indices 1 2 3 4 5 6 
#
# 1 174.5567 98.3718 53.0677 0.0000 11.8006 0.0000
# 2 98.3718 185.3853 41.9854 0.0000 11.3884 0.0000
# 3 53.0677 41.9854 106.5215 0.0000 8.5683 0.0000
# 4 0.0000 0.0000 0.0000 17.0606 0.0000 7.6303
# 5 11.8006 11.3884 8.5683 0.0000 30.3268 0.0000
# 6 0.0000 0.0000 0.0000 7.6303 0.0000 33.3126
#
#
#
# Elastic Compliance Matrix: (Units=1/GPa)
#
#
# Indices 1 2 3 4 5 6 
#
# 1 0.008922 -0.004037 -0.002759 0.000000 -0.001176 0.000000
# 2 -0.004037 0.007827 -0.000986 0.000000 -0.001090 0.000000
# 3 -0.002759 -0.000986 0.011291 0.000000 -0.001746 0.000000
# 4 0.000000 0.000000 0.000000 0.065304 0.000000 -0.014958
# 5 -0.001176 -0.001090 -0.001746 0.000000 0.034334 0.000000
# 6 0.000000 0.000000 0.000000 -0.014958 0.000000 0.033445
#
#
# Mechanical properties :
#
#
# Convention : Reuss Voigt Hill
#
# Bulk Modulus (GPa) = 80.15524 94.81259 87.48391
# Shear Modulus (GPa) = 27.64763 34.34259 30.99511
#
# Velocity S-wave (km/s) = 3.47995 3.87847 3.68460
# Velocity P-wave (km/s) = 7.15932 7.84767 7.51138
#
# Compressibility (1/GPa) = 0.01247579
#
# Stress axis : x y z
#
# Youngs Moduli (GPa) = 112.07743 127.76652 88.56317
#
# Poissons Ratio (x) = 0.51585 0.24435
# Poissons Ratio (y) = 0.45250 0.08731
# Poissons Ratio (z) = 0.30923 0.12596
#
# Static dielectric constant tensor:
#      x y z
#    x 2.204060 0.000000 0.164090 
#    y 0.000000 1.933180 0.000000 
#    z 0.164090 0.000000 2.004310 
# 
# From -- ./inp_files/79152.got.cif
#   From: 2010.05.17/outbox.cif.g08.bks.cpg/sg12_40_cif.got.tgz:79152.got - 2010.06.03 13:09:07.
