data_PCOD9218306
_publ_section_title
;
Structure prediction by ZEFSAII (Michael W. Deem and Ramdas Pophale) SiO2 
 PCOD9218306
Probable space group: C 2/M
;
_chemical_formula_sum "Si O2"
_cell_formula_units_Z 56
_cell_length_a 26.954607
_cell_length_b 8.798394
_cell_length_c 20.088474
_cell_angle_alpha 90.000000
_cell_angle_beta 35.845013
_cell_angle_gamma 90.000000
_cell_volume 2789.847633
_symmetry_space_group_name_H-M "C 2/M"
_symmetry_group_IT_number 12
_symmetry_cell_setting 'monoclinic'
loop_
_space_group_symop_operation_xyz
x,y,z
-x,y,-z
-x,-y,-z
x,-y,z
1/2+x,1/2+y,z
1/2-x,1/2+y,-z
1/2-x,1/2-y,-z
1/2+x,1/2-y,z
loop_
_atom_site_type_symbol
_atom_site_label
_atom_site_fract_x
_atom_site_fract_y
_atom_site_fract_z
Si Si1 0.998272 0.682384 0.185502
Si Si2 0.198479 0.682410 0.617230
Si Si3 0.285782 0.819782 0.892837
Si Si4 0.929830 0.317938 0.520755
Si Si5 0.964626 0.181414 0.710304
Si Si6 0.140234 0.820035 0.940628
Si Si7 0.750615 0.682348 0.290213
O O1 0.006029 0.500000 0.181354
O O2 0.900419 0.723187 0.279965
O O3 0.026901 0.755361 0.224189
O O4 0.057688 0.744492 0.062387
O O5 0.204034 0.500000 0.607722
O O6 0.250000 0.750000 0.500000
O O7 0.235629 0.729460 0.648130
O O8 0.374515 0.739627 0.780813
O O9 0.215997 0.797997 0.911819
O O10 0.300188 0.000000 0.885343
O O11 0.250000 0.750000 0.000000
O O12 0.925140 0.500000 0.520959
O O13 0.838054 0.252069 0.637634
O O14 0.000000 0.279121 0.500000
O O15 0.962165 0.248127 0.416175
O O16 0.967648 0.000000 0.707584
O O17 0.172921 0.743734 0.837747
O O18 0.127662 0.000000 0.945603
O O19 0.747394 0.500000 0.289964
#
# Coordination Sequence:
#
# PCOD9218306 Si02
#       7
#     8   8   8   8   8   8   8
#     4  11  23  41  65  91 123 163 209 258 313 369
#     4  10  24  44  67  95 123 159 206 259 314 373
#     4  11  22  37  59  88 126 167 210 256 308 366
#     4  11  24  42  63  90 125 164 209 257 308 370
#     4  12  24  38  60  92 127 163 209 260 314 375
#     4  11  24  41  62  93 129 165 210 257 309 374
#     4  11  24  43  66  93 127 165 207 257 315 375
#
# _framework density 20.072780000000002
#
# number of rings (size 3 to 8) (size 9 to 14) (size 15 to 20)
#    0.000    1.000    1.429    5.143    0.000   11.429 
#    0.000    2.857    0.000    0.000    0.000    0.000 
#    0.000    0.000    0.000    0.000    0.000    0.000 
#
# Total GULP energy -156738.517695 kJ/mol
# GULP energy per Si atom -5597.804203 kJ/mol
# Density = 2.002709 g / cm^3
# Si number density = 20.072780 Si / 1000 Ang^3
#
#
#
# Elastic Constant Matrix: (Units=GPa)
#
#
# Indices 1 2 3 4 5 6 
#
# 1 88.4584 51.3879 55.2553 -0.0013 1.3981 0.0013
# 2 51.3879 81.9031 52.2325 -0.0025 -1.7517 0.0041
# 3 55.2553 52.2325 171.3218 -0.0001 5.0878 0.0003
# 4 -0.0013 -0.0025 -0.0001 35.6235 0.0005 4.2742
# 5 1.3981 -1.7517 5.0878 0.0005 38.5211 -0.0005
# 6 0.0013 0.0041 0.0003 4.2742 -0.0005 19.0791
#
#
#
# Elastic Compliance Matrix: (Units=1/GPa)
#
#
# Indices 1 2 3 4 5 6 
#
# 1 0.019049 -0.010010 -0.003070 0.000000 -0.000741 0.000001
# 2 -0.010010 0.020482 -0.003067 0.000001 0.001700 -0.000004
# 3 -0.003070 -0.003067 0.007793 0.000000 -0.001057 0.000001
# 4 0.000000 0.000001 0.000000 0.028847 0.000000 -0.006462
# 5 -0.000741 0.001700 -0.001057 0.000000 0.026204 0.000001
# 6 0.000001 -0.000004 0.000001 -0.006462 0.000001 0.053861
#
#
# Mechanical properties :
#
#
# Convention : Reuss Voigt Hill
#
# Bulk Modulus (GPa) = 66.52616 73.27051 69.89833
# Shear Modulus (GPa) = 25.83452 30.83192 28.33322
#
# Velocity S-wave (km/s) = 3.59143 3.92344 3.76110
# Velocity P-wave (km/s) = 7.10016 7.55687 7.33207
#
# Compressibility (1/GPa) = 0.01503168
#
# Stress axis : x y z
#
# Youngs Moduli (GPa) = 52.49585 48.82342 128.31284
#
# Poissons Ratio (x) = 0.48872 0.39392
# Poissons Ratio (y) = 0.52548 0.39348
# Poissons Ratio (z) = 0.16116 0.14972
#
# Static dielectric constant tensor:
#      x y z
#    x 1.706280 0.000000 -0.002380 
#    y 0.000000 1.667660 0.000000 
#    z -0.002380 0.000000 1.700390 
# 
# From -- ./inp_files/329539.got.cif
#   From: 2010.05.17/outbox.cif.g08.bks.cpg/sg12_165_cif.got.tgz:329539.got - 2010.06.03 13:09:07.
