data_PCOD9218491
_publ_section_title
;
Structure prediction by ZEFSAII (Michael W. Deem and Ramdas Pophale) SiO2 
 PCOD9218491
Probable space group: C 2/M
;
_chemical_formula_sum "Si O2"
_cell_formula_units_Z 36
_cell_length_a 8.518652
_cell_length_b 29.909525
_cell_length_c 11.105136
_cell_angle_alpha 90.000000
_cell_angle_beta 143.146181
_cell_angle_gamma 90.000000
_cell_volume 1697.043516
_symmetry_space_group_name_H-M "C 2/M"
_symmetry_group_IT_number 12
_symmetry_cell_setting 'monoclinic'
loop_
_space_group_symop_operation_xyz
x,y,z
-x,y,-z
-x,-y,-z
x,-y,z
1/2+x,1/2+y,z
1/2-x,1/2+y,-z
1/2-x,1/2-y,-z
1/2+x,1/2-y,z
loop_
_atom_site_type_symbol
_atom_site_label
_atom_site_fract_x
_atom_site_fract_y
_atom_site_fract_z
Si Si1 0.892276 0.120836 0.065520
Si Si2 0.929137 0.449396 0.790828
Si Si3 0.442064 0.549950 0.667081
Si Si4 0.576726 0.284378 0.810460
Si Si5 0.000000 0.747298 0.500000
O O1 0.834678 0.166117 0.101215
O O2 0.095659 0.089341 0.261806
O O3 0.639673 0.089187 0.906446
O O4 0.000000 0.132028 0.000000
O O5 0.038855 0.500000 0.863496
O O6 0.754764 0.447360 0.564173
O O7 0.727788 0.444752 0.778841
O O8 0.418109 0.500000 0.704592
O O9 0.578248 0.274581 0.668512
O O10 0.265250 0.280556 0.644430
O O11 0.750000 0.250000 0.000000
#
# Coordination Sequence:
#
# PCOD9218491 Si02
#       5
#     8   8   8   8   4
#     4  12  25  37  58  91 127 161 200 253 314 373
#     4   9  20  40  63  87 119 162 211 260 309 366
#     4   9  20  39  61  86 119 161 210 258 305 368
#     4  11  25  46  68  96 129 164 210 264 317 381
#     4  10  24  46  72  92 124 170 208 256 324 380
#
# _framework density 21.213363000000001
#
# number of rings (size 3 to 8) (size 9 to 14) (size 15 to 20)
#    0.000    1.778    0.000    4.667    0.000   15.111 
#    0.000    2.222    0.000    0.000    0.000    0.000 
#    0.000    0.000    0.000    0.000    0.000    0.000 
#
# Total GULP energy -100520.275453 kJ/mol
# GULP energy per Si atom -5584.459747 kJ/mol
# Density = 2.116508 g / cm^3
# Si number density = 21.213363 Si / 1000 Ang^3
#
#
#
# Elastic Constant Matrix: (Units=GPa)
#
#
# Indices 1 2 3 4 5 6 
#
# 1 35.0747 12.3627 19.1553 0.0000 -5.1549 0.0000
# 2 12.3627 125.2365 44.1647 0.0000 1.5222 0.0000
# 3 19.1553 44.1647 120.2489 0.0000 -7.5398 0.0000
# 4 0.0000 0.0000 0.0000 -18.9717 0.0000 -11.8211
# 5 -5.1549 1.5222 -7.5398 0.0000 37.7807 0.0000
# 6 0.0000 0.0000 0.0000 -11.8211 0.0000 -1.9277
#
#
#
# Elastic Compliance Matrix: (Units=1/GPa)
#
#
# Indices 1 2 3 4 5 6 
#
# 1 0.031953 -0.001702 -0.004240 0.000000 0.003582 0.000000
# 2 -0.001702 0.009305 -0.003225 0.000000 -0.001251 0.000000
# 3 -0.004240 -0.003225 0.010276 0.000000 0.001602 0.000000
# 4 0.000000 0.000000 0.000000 0.018685 0.000000 -0.114583
# 5 0.003582 -0.001251 0.001602 0.000000 0.027327 0.000000
# 6 0.000000 0.000000 0.000000 -0.114583 0.000000 0.183894
#
#
# Mechanical properties :
#
#
# Convention : Reuss Voigt Hill
#
# Bulk Modulus (GPa) = 30.12081 47.99173 39.05627
# Shear Modulus (GPa) = 16.08529 17.03476 16.56002
#
# Velocity S-wave (km/s) = 2.75664 2.83684 2.79703
# Velocity P-wave (km/s) = 4.93578 5.77950 5.37422
#
# Compressibility (1/GPa) = 0.03319964
#
# Stress axis : x y z
#
# Youngs Moduli (GPa) = 31.29623 107.46430 97.31025
#
# Poissons Ratio (x) = 0.18295 0.41260
# Poissons Ratio (y) = 0.05328 0.31382
# Poissons Ratio (z) = 0.13270 0.34656
#
# Static dielectric constant tensor:
#      x y z
#    x 1.803460 0.000000 -0.000200 
#    y 0.000000 1.711340 0.000000 
#    z -0.000200 0.000000 1.811150 
# 
# From -- ./inp_files/124011.got.cif
#   From: 2010.05.17/outbox.cif.g08.bks.cpg/sg12_63_cif.got.tgz:124011.got - 2010.06.03 13:09:07.
