data_PCOD9218217
_publ_section_title
;
Structure prediction by ZEFSAII (Michael W. Deem and Ramdas Pophale) SiO2 
 PCOD9218217
Probable space group: C 2/M
;
_chemical_formula_sum "Si O2"
_cell_formula_units_Z 36
_cell_length_a 12.617019
_cell_length_b 15.992077
_cell_length_c 8.249631
_cell_angle_alpha 90.000000
_cell_angle_beta 107.236038
_cell_angle_gamma 90.000000
_cell_volume 1589.796150
_symmetry_space_group_name_H-M "C 2/M"
_symmetry_group_IT_number 12
_symmetry_cell_setting 'monoclinic'
loop_
_space_group_symop_operation_xyz
x,y,z
-x,y,-z
-x,-y,-z
x,-y,z
1/2+x,1/2+y,z
1/2-x,1/2+y,-z
1/2-x,1/2-y,-z
1/2+x,1/2-y,z
loop_
_atom_site_type_symbol
_atom_site_label
_atom_site_fract_x
_atom_site_fract_y
_atom_site_fract_z
Si Si1 0.406348 0.718291 0.245715
Si Si2 0.500000 0.823165 0.000000
Si Si3 0.209075 0.405918 0.248815
Si Si4 0.928534 0.903139 0.801074
Si Si5 0.287090 0.169190 0.413252
O O1 0.429462 0.764090 0.086957
O O2 0.298498 0.659536 0.216835
O O3 0.508883 0.654019 0.303353
O O4 0.390516 0.794954 0.361892
O O5 0.588282 0.878855 0.134204
O O6 0.238270 0.500000 0.212111
O O7 0.203979 0.398725 0.441639
O O8 0.806624 0.862598 0.754307
O O9 0.921309 0.000000 0.749756
O O10 0.000000 0.900882 0.000000
O O11 0.250000 0.250000 0.500000
#
# Coordination Sequence:
#
# PCOD9218217 Si02
#       5
#     8   4   8   8   8
#     4  11  23  44  68 100 128 180 218 273 332 401
#     4  12  25  42  67 100 134 176 226 270 327 408
#     4  11  25  45  66  96 134 175 222 277 333 390
#     4  11  24  41  67 104 137 169 219 280 337 391
#     4  10  24  43  67  96 132 177 223 271 328 396
#
# _framework density 22.644413
#
# number of rings (size 3 to 8) (size 9 to 14) (size 15 to 20)
#    0.000    1.111    1.111    5.000    3.111    8.000 
#    0.000   10.000    0.000    0.000    0.000    0.000 
#    0.000    0.000    0.000    0.000    0.000    0.000 
#
# Total GULP energy -100560.995306 kJ/mol
# GULP energy per Si atom -5586.721961 kJ/mol
# Density = 2.259287 g / cm^3
# Si number density = 22.644413 Si / 1000 Ang^3
#
#
#
# Elastic Constant Matrix: (Units=GPa)
#
#
# Indices 1 2 3 4 5 6 
#
# 1 112.5879 45.9667 52.7334 0.0000 -0.4624 0.0000
# 2 45.9667 92.2862 33.6311 0.0000 7.9153 0.0000
# 3 52.7334 33.6311 92.4352 0.0000 2.1304 0.0000
# 4 0.0000 0.0000 0.0000 7.9596 0.0000 0.4208
# 5 -0.4624 7.9153 2.1304 0.0000 47.3093 0.0000
# 6 0.0000 0.0000 0.0000 0.4208 0.0000 17.4101
#
#
#
# Elastic Compliance Matrix: (Units=1/GPa)
#
#
# Indices 1 2 3 4 5 6 
#
# 1 0.013663 -0.004677 -0.006120 0.000000 0.001192 0.000000
# 2 -0.004677 0.014264 -0.002468 0.000000 -0.002321 0.000000
# 3 -0.006120 -0.002468 0.015216 0.000000 -0.000332 0.000000
# 4 0.000000 0.000000 0.000000 0.125795 0.000000 -0.003040
# 5 0.001192 -0.002321 -0.000332 0.000000 0.021552 0.000000
# 6 0.000000 0.000000 0.000000 -0.003040 0.000000 0.057511
#
#
# Mechanical properties :
#
#
# Convention : Reuss Voigt Hill
#
# Bulk Modulus (GPa) = 60.19902 62.44130 61.32016
# Shear Modulus (GPa) = 17.85272 25.53434 21.69353
#
# Velocity S-wave (km/s) = 2.81088 3.36165 3.09853
# Velocity P-wave (km/s) = 6.09729 6.53469 6.31977
#
# Compressibility (1/GPa) = 0.01661157
#
# Stress axis : x y z
#
# Youngs Moduli (GPa) = 73.18993 70.10679 65.72213
#
# Poissons Ratio (x) = 0.32791 0.40225
# Poissons Ratio (y) = 0.34233 0.16220
# Poissons Ratio (z) = 0.44795 0.17302
#
# Static dielectric constant tensor:
#      x y z
#    x 1.830710 0.000000 -0.013420 
#    y 0.000000 1.819720 0.000000 
#    z -0.013420 0.000000 1.889630 
# 
# From -- ./inp_files/47238.got.cif
#   From: 2010.05.17/outbox.cif.g08.bks.cpg/sg12_24_cif.got.tgz:47238.got - 2010.06.03 13:09:07.
