data_PCOD9218054
_publ_section_title
;
Structure prediction by ZEFSAII (Michael W. Deem and Ramdas Pophale) SiO2 
 PCOD9218054
Probable space group: C 2/M
;
_chemical_formula_sum "Si O2"
_cell_formula_units_Z 44
_cell_length_a 26.153580
_cell_length_b 7.685722
_cell_length_c 13.487912
_cell_angle_alpha 90.000000
_cell_angle_beta 58.179974
_cell_angle_gamma 90.000000
_cell_volume 2303.724190
_symmetry_space_group_name_H-M "C 2/M"
_symmetry_group_IT_number 12
_symmetry_cell_setting 'monoclinic'
loop_
_space_group_symop_operation_xyz
x,y,z
-x,y,-z
-x,-y,-z
x,-y,z
1/2+x,1/2+y,z
1/2-x,1/2+y,-z
1/2-x,1/2-y,-z
1/2+x,1/2-y,z
loop_
_atom_site_type_symbol
_atom_site_label
_atom_site_fract_x
_atom_site_fract_y
_atom_site_fract_z
Si Si1 0.888443 0.300679 0.289137
Si Si2 0.020824 0.000000 0.865287
Si Si3 0.690769 0.801167 0.998438
Si Si4 0.070770 0.000000 0.406902
Si Si5 0.219828 0.209094 0.743994
Si Si6 0.857781 0.706111 0.550637
Si Si7 0.401999 0.500000 0.853439
O O1 0.909120 0.500000 0.259805
O O2 0.828313 0.277413 0.285622
O O3 0.873092 0.264615 0.419618
O O4 0.938066 0.167141 0.199801
O O5 0.962614 0.000000 0.855063
O O6 0.000000 0.000000 0.000000
O O7 0.638105 0.667845 0.078895
O O8 0.674604 0.000000 0.037913
O O9 0.750000 0.750000 0.000000
O O10 0.706117 0.782839 0.866631
O O11 0.101276 0.169289 0.425070
O O12 0.083223 0.000000 0.277498
O O13 0.000000 0.000000 0.500000
O O14 0.287939 0.249176 0.642440
O O15 0.213761 0.000000 0.755151
O O16 0.866372 0.500000 0.563216
#
# Coordination Sequence:
#
# PCOD9218054 Si02
#       7
#     8   4   8   4   8   8   4
#     4  11  23  42  66  97 132 172 218 272 330 389
#     4  12  26  46  68  92 136 178 223 276 321 394
#     4  12  24  42  65  96 135 171 216 271 328 391
#     4  12  26  44  68  94 128 177 223 270 331 388
#     4  11  21  39  66  99 135 171 213 267 331 394
#     4  10  24  41  65  98 133 169 216 270 329 394
#     4  12  26  44  68  98 130 177 224 270 328 390
#
# _framework density 19.099508
#
# number of rings (size 3 to 8) (size 9 to 14) (size 15 to 20)
#    0.000    0.727    2.727    4.909    2.545    3.636 
#    0.000    0.000    0.000    0.000    0.000    0.000 
#    0.000    0.000    0.000    0.000    0.000    0.000 
#
# Total GULP energy -123148.006249 kJ/mol
# GULP energy per Si atom -5597.636648 kJ/mol
# Density = 1.905604 g / cm^3
# Si number density = 19.099508 Si / 1000 Ang^3
#
#
#
# Elastic Constant Matrix: (Units=GPa)
#
#
# Indices 1 2 3 4 5 6 
#
# 1 181.9199 87.1610 97.2884 0.0000 0.7201 0.0000
# 2 87.1610 150.6345 96.3554 0.0000 -11.4917 0.0000
# 3 97.2884 96.3554 179.1846 0.0000 2.4990 0.0000
# 4 0.0000 0.0000 0.0000 17.8929 0.0000 -6.3315
# 5 0.7201 -11.4917 2.4990 0.0000 41.0882 0.0000
# 6 0.0000 0.0000 0.0000 -6.3315 0.0000 32.0463
#
#
#
# Elastic Compliance Matrix: (Units=1/GPa)
#
#
# Indices 1 2 3 4 5 6 
#
# 1 0.008589 -0.003139 -0.002964 0.000000 -0.000848 0.000000
# 2 -0.003139 0.011695 -0.004635 0.000000 0.003608 0.000000
# 3 -0.002964 -0.004635 0.009708 0.000000 -0.001835 0.000000
# 4 0.000000 0.000000 0.000000 0.060089 0.000000 0.011872
# 5 -0.000848 0.003608 -0.001835 0.000000 0.025473 0.000000
# 6 0.000000 0.000000 0.000000 0.011872 0.000000 0.033550
#
#
# Mechanical properties :
#
#
# Convention : Reuss Voigt Hill
#
# Bulk Modulus (GPa) = 117.41263 119.26099 118.33681
# Shear Modulus (GPa) = 28.83193 33.60109 31.21651
#
# Velocity S-wave (km/s) = 3.88953 4.19891 4.04717
# Velocity P-wave (km/s) = 9.04316 9.27821 9.16144
#
# Compressibility (1/GPa) = 0.00851697
#
# Stress axis : x y z
#
# Youngs Moduli (GPa) = 116.42651 85.50834 103.00761
#
# Poissons Ratio (x) = 0.26839 0.30529
# Poissons Ratio (y) = 0.36543 0.47743
# Poissons Ratio (z) = 0.34506 0.39632
#
# Static dielectric constant tensor:
#      x y z
#    x 1.619700 0.000000 0.005440 
#    y 0.000000 1.663240 0.000000 
#    z 0.005440 0.000000 1.629930 
# 
# From -- ./inp_files/172842.got.cif
#   From: 2010.05.17/outbox.cif.g08.bks.cpg/sg12_87_cif.got.tgz:172842.got - 2010.06.03 13:09:07.
