data_PCOD9218579
_publ_section_title
;
Structure prediction by ZEFSAII (Michael W. Deem and Ramdas Pophale) SiO2 
 PCOD9218579
Probable space group: C 2/M
;
_chemical_formula_sum "Si O2"
_cell_formula_units_Z 30
_cell_length_a 19.754501
_cell_length_b 5.308522
_cell_length_c 13.363016
_cell_angle_alpha 90.000000
_cell_angle_beta 120.941887
_cell_angle_gamma 90.000000
_cell_volume 1201.916058
_symmetry_space_group_name_H-M "C 2/M"
_symmetry_group_IT_number 12
_symmetry_cell_setting 'monoclinic'
loop_
_space_group_symop_operation_xyz
x,y,z
-x,y,-z
-x,-y,-z
x,-y,z
1/2+x,1/2+y,z
1/2-x,1/2+y,-z
1/2-x,1/2-y,-z
1/2+x,1/2-y,z
loop_
_atom_site_type_symbol
_atom_site_label
_atom_site_fract_x
_atom_site_fract_y
_atom_site_fract_z
Si Si1 0.865082 0.500000 0.743447
Si Si2 0.911094 0.000000 0.308948
Si Si3 0.701496 0.500000 0.222085
Si Si4 0.415207 0.500000 0.549771
Si Si5 0.500000 0.500000 0.000000
Si Si6 0.317915 0.000000 0.502336
Si Si7 0.956620 0.500000 0.096295
Si Si8 0.831353 0.500000 0.168760
O O1 0.849645 0.751854 0.795307
O O2 0.796553 0.500000 0.604622
O O3 0.957039 0.500000 0.780456
O O4 0.866027 0.248293 0.243814
O O5 0.919720 0.000000 0.434048
O O6 0.999552 0.000000 0.335117
O O7 0.764517 0.500000 0.362736
O O8 0.741845 0.500000 0.143501
O O9 0.369508 0.249988 0.541164
O O10 0.536940 0.268268 0.956248
O O11 0.873072 0.500000 0.092206
#
# Coordination Sequence:
#
# PCOD9218579 Si02
#       8
#     4   4   4   4   2   4   4   4
#     4  12  25  41  65  95 135 178 232 261 317 376
#     4  11  20  33  52  85 125 169 214 278 317 355
#     4  12  24  41  60  93 143 187 217 268 302 368
#     4  11  20  32  53  79 121 172 231 277 311 336
#     4  10  24  48  78 102 130 150 206 274 364 404
#     4  12  22  39  56  86 134 196 231 257 298 371
#     4  11  24  46  76 104 123 165 209 277 331 415
#     4  12  23  41  66  94 130 168 223 263 328 379
#
# _framework density 24.960144
#
# number of rings (size 3 to 8) (size 9 to 14) (size 15 to 20)
#    0.000    0.533    2.667    7.200    0.000    2.133 
#    0.000    0.000    0.000   16.000    0.000    0.000 
#    0.000    0.000    0.000    0.000    0.000    0.000 
#
# Total GULP energy -83576.969290 kJ/mol
# GULP energy per Si atom -5571.797953 kJ/mol
# Density = 2.490333 g / cm^3
# Si number density = 24.960144 Si / 1000 Ang^3
#
#
#
# Elastic Constant Matrix: (Units=GPa)
#
#
# Indices 1 2 3 4 5 6 
#
# 1 113.7606 34.4995 22.8538 0.0000 -20.9506 0.0000
# 2 34.4995 250.4731 9.2194 -0.0001 -9.4597 -0.0001
# 3 22.8538 9.2194 69.8987 0.0000 -1.1083 0.0000
# 4 0.0000 -0.0001 0.0000 -78.0649 0.0000 -52.1891
# 5 -20.9506 -9.4597 -1.1083 0.0000 46.0362 0.0000
# 6 0.0000 -0.0001 0.0000 -52.1891 0.0000 37.3864
#
#
#
# Elastic Compliance Matrix: (Units=1/GPa)
#
#
# Indices 1 2 3 4 5 6 
#
# 1 0.010631 -0.001174 -0.003250 0.000000 0.004519 0.000000
# 2 -0.001174 0.004172 -0.000161 0.000000 0.000319 0.000000
# 3 -0.003250 -0.000161 0.015372 0.000000 -0.001142 0.000000
# 4 0.000000 0.000000 0.000000 -0.006626 0.000000 -0.009250
# 5 0.004519 0.000319 -0.001142 0.000000 0.023817 0.000000
# 6 0.000000 0.000000 0.000000 -0.009250 0.000000 0.013836
#
#
# Mechanical properties :
#
#
# Convention : Reuss Voigt Hill
#
# Bulk Modulus (GPa) = 47.60602 63.03086 55.31844
# Shear Modulus (GPa) = 64.62148 25.57551 45.09850
#
# Velocity S-wave (km/s) = 5.09373 3.20449 4.25528
# Velocity P-wave (km/s) = 7.32864 6.24493 6.80838
#
# Compressibility (1/GPa) = 0.02100575
#
# Stress axis : x y z
#
# Youngs Moduli (GPa) = 94.06059 239.68456 65.05315
#
# Poissons Ratio (x) = 0.28141 0.21139
# Poissons Ratio (y) = 0.11043 0.01050
# Poissons Ratio (z) = 0.30565 0.03868
#
# Static dielectric constant tensor:
#      x y z
#    x 2.085800 0.000000 -0.022480 
#    y 0.000000 1.832020 0.000000 
#    z -0.022480 0.000000 2.052500 
# 
# From -- ./inp_files/228715.got.cif
#   From: 2010.05.17/outbox.cif.g08.bks.cpg/sg12_115_cif.got.tgz:228715.got - 2010.06.03 13:09:07.
