data_PCOD9218284
_publ_section_title
;
Structure prediction by ZEFSAII (Michael W. Deem and Ramdas Pophale) SiO2 
 PCOD9218284
Probable space group: C 2/M
;
_chemical_formula_sum "Si O2"
_cell_formula_units_Z 36
_cell_length_a 9.424712
_cell_length_b 9.392150
_cell_length_c 19.679123
_cell_angle_alpha 90.000000
_cell_angle_beta 64.847074
_cell_angle_gamma 90.000000
_cell_volume 1576.783802
_symmetry_space_group_name_H-M "C 2/M"
_symmetry_group_IT_number 12
_symmetry_cell_setting 'monoclinic'
loop_
_space_group_symop_operation_xyz
x,y,z
-x,y,-z
-x,-y,-z
x,-y,z
1/2+x,1/2+y,z
1/2-x,1/2+y,-z
1/2-x,1/2-y,-z
1/2+x,1/2-y,z
loop_
_atom_site_type_symbol
_atom_site_label
_atom_site_fract_x
_atom_site_fract_y
_atom_site_fract_z
Si Si1 0.615997 0.832984 0.568034
Si Si2 0.449955 0.268117 0.901596
Si Si3 0.794857 0.664466 0.800947
Si Si4 0.311862 0.000000 0.001308
Si Si5 0.688388 0.666511 0.341642
O O1 0.750000 0.750000 0.500000
O O2 0.452983 0.751634 0.593866
O O3 0.664579 0.825340 0.637684
O O4 0.608772 0.000000 0.550769
O O5 0.624784 0.328877 0.871954
O O6 0.416370 0.227455 0.830027
O O7 0.430669 0.123722 0.947362
O O8 0.317808 0.378125 0.950809
O O9 0.830885 0.500000 0.777655
O O10 0.786286 0.758606 0.735382
O O11 0.647854 0.500000 0.341451
#
# Coordination Sequence:
#
# PCOD9218284 Si02
#       5
#     8   8   8   4   8
#     4  11  24  44  70 102 137 174 219 269 321 382
#     4  11  25  43  70  94 130 173 220 274 334 395
#     4  12  26  45  65  97 134 172 220 272 328 392
#     4  10  24  44  66 100 126 170 220 276 334 396
#     4  11  26  43  67  99 135 175 222 268 321 390
#
# _framework density 22.831282999999999
#
# number of rings (size 3 to 8) (size 9 to 14) (size 15 to 20)
#    0.000    0.889    2.222    3.333    3.111   15.111 
#    0.000    0.000    0.000    0.000    0.000    0.000 
#    0.000    0.000    0.000    0.000    0.000    0.000 
#
# Total GULP energy -100350.466976 kJ/mol
# GULP energy per Si atom -5575.025943 kJ/mol
# Density = 2.277932 g / cm^3
# Si number density = 22.831283 Si / 1000 Ang^3
#
#
#
# Elastic Constant Matrix: (Units=GPa)
#
#
# Indices 1 2 3 4 5 6 
#
# 1 76.7142 13.1367 1.8978 0.0000 1.8643 0.0000
# 2 13.1367 198.1280 25.1684 0.0000 10.1892 0.0000
# 3 1.8978 25.1684 66.0297 0.0000 3.9485 0.0000
# 4 0.0000 0.0000 0.0000 37.7351 0.0000 -25.7216
# 5 1.8643 10.1892 3.9485 0.0000 45.8021 0.0000
# 6 0.0000 0.0000 0.0000 -25.7216 0.0000 -10.8708
#
#
#
# Elastic Compliance Matrix: (Units=1/GPa)
#
#
# Indices 1 2 3 4 5 6 
#
# 1 0.013191 -0.000853 -0.000034 0.000000 -0.000344 0.000000
# 2 -0.000853 0.005406 -0.001976 0.000000 -0.000998 0.000000
# 3 -0.000034 -0.001976 0.015955 0.000000 -0.000934 0.000000
# 4 0.000000 0.000000 0.000000 0.010142 0.000000 -0.023998
# 5 -0.000344 -0.000998 -0.000934 0.000000 0.022150 0.000000
# 6 0.000000 0.000000 0.000000 -0.023998 0.000000 -0.035207
#
#
# Mechanical properties :
#
#
# Convention : Reuss Voigt Hill
#
# Bulk Modulus (GPa) = 34.69047 46.80864 40.74955
# Shear Modulus (GPa) = 106.44887 34.57787 70.51337
#
# Velocity S-wave (km/s) = 6.83559 3.89587 5.56342
# Velocity P-wave (km/s) = 8.80498 6.38620 7.69127
#
# Compressibility (1/GPa) = 0.02882636
#
# Stress axis : x y z
#
# Youngs Moduli (GPa) = 75.81156 184.97440 62.67665
#
# Poissons Ratio (x) = 0.15771 0.00210
# Poissons Ratio (y) = 0.06464 0.12388
# Poissons Ratio (z) = 0.00254 0.36560
#
# Static dielectric constant tensor:
#      x y z
#    x 1.879880 0.000000 0.036360 
#    y 0.000000 1.769860 0.000000 
#    z 0.036360 0.000000 1.873220 
# 
# From -- ./inp_files/303394.got.cif
#   From: 2010.05.17/outbox.cif.g08.bks.cpg/sg12_152_cif.got.tgz:303394.got - 2010.06.03 13:09:07.
