data_PCOD9218976
_publ_section_title
;
Structure prediction by ZEFSAII (Michael W. Deem and Ramdas Pophale) SiO2 
 PCOD9218976
Probable space group: C 2/M
;
_chemical_formula_sum "Si O2"
_cell_formula_units_Z 50
_cell_length_a 12.131907
_cell_length_b 14.817232
_cell_length_c 16.772117
_cell_angle_alpha 90.000000
_cell_angle_beta 108.801414
_cell_angle_gamma 90.000000
_cell_volume 2854.101985
_symmetry_space_group_name_H-M "C 2/M"
_symmetry_group_IT_number 12
_symmetry_cell_setting 'monoclinic'
loop_
_space_group_symop_operation_xyz
x,y,z
-x,y,-z
-x,-y,-z
x,-y,z
1/2+x,1/2+y,z
1/2-x,1/2+y,-z
1/2-x,1/2-y,-z
1/2+x,1/2-y,z
loop_
_atom_site_type_symbol
_atom_site_label
_atom_site_fract_x
_atom_site_fract_y
_atom_site_fract_z
Si Si1 0.471259 0.598682 0.400338
Si Si2 0.139807 0.349720 0.536516
Si Si3 0.555297 0.402416 0.173828
Si Si4 0.500000 0.500000 0.000000
Si Si5 0.011704 0.249210 0.282690
Si Si6 0.175375 0.401011 0.720889
Si Si7 0.739115 0.838953 0.392655
O O1 0.500000 0.610017 0.500000
O O2 0.515571 0.500000 0.387285
O O3 0.519474 0.679746 0.358949
O O4 0.331100 0.603075 0.365141
O O5 0.178643 0.399918 0.625467
O O6 0.187635 0.249084 0.563051
O O7 0.190836 0.381430 0.463619
O O8 0.000000 0.351447 0.500000
O O9 0.525400 0.500000 0.207139
O O10 0.522273 0.422238 0.075006
O O11 0.499536 0.316468 0.204119
O O12 0.694196 0.390480 0.216119
O O13 0.907102 0.319218 0.271444
O O14 0.131131 0.305373 0.314853
O O15 0.130963 0.500000 0.736187
#
# Coordination Sequence:
#
# PCOD9218976 Si02
#       7
#     8   8   8   2   8   8   8
#     4  11  23  34  48  76 113 153 205 247 277 324
#     4  11  19  33  49  74 111 164 209 237 268 309
#     4   9  20  40  66  87 113 141 182 242 298 356
#     4   8  20  44  72  92 110 130 192 236 300 376
#     4  12  20  37  58  83 114 158 192 236 295 333
#     4  11  23  36  55  84 119 152 197 247 277 339
#     4  11  20  32  52  72 113 163 202 240 274 320
#
# _framework density 17.518646
#
# number of rings (size 3 to 8) (size 9 to 14) (size 15 to 20)
#    0.480    0.800    4.800    2.880    0.000    1.600 
#    0.000    0.800    0.000    0.000    0.000    0.560 
#    0.000    0.000    0.000    0.000    0.000    0.000 
#
# Total GULP energy -139179.416350 kJ/mol
# GULP energy per Si atom -5567.176654 kJ/mol
# Density = 1.747877 g / cm^3
# Si number density = 17.518646 Si / 1000 Ang^3
#
#
#
# Elastic Constant Matrix: (Units=GPa)
#
#
# Indices 1 2 3 4 5 6 
#
# 1 34.2122 14.9434 14.5918 0.0000 0.8469 0.0000
# 2 14.9434 105.9528 27.8663 0.0000 -5.8150 0.0000
# 3 14.5918 27.8663 102.3389 0.0000 -18.4647 0.0000
# 4 0.0000 0.0000 0.0000 31.9471 0.0000 -14.9212
# 5 0.8469 -5.8150 -18.4647 0.0000 8.4196 0.0000
# 6 0.0000 0.0000 0.0000 -14.9212 0.0000 9.8396
#
#
#
# Elastic Compliance Matrix: (Units=1/GPa)
#
#
# Indices 1 2 3 4 5 6 
#
# 1 0.035206 -0.004124 -0.008356 0.000000 -0.024715 0.000000
# 2 -0.004124 0.010662 -0.001509 0.000000 0.004470 0.000000
# 3 -0.008356 -0.001509 0.018761 0.000000 0.040942 0.000000
# 4 0.000000 0.000000 0.000000 0.107298 0.000000 0.162711
# 5 -0.024715 0.004470 0.040942 0.000000 0.214132 0.000000
# 6 0.000000 0.000000 0.000000 0.162711 0.000000 0.348374
#
#
# Mechanical properties :
#
#
# Convention : Reuss Voigt Hill
#
# Bulk Modulus (GPa) = 27.28424 39.70077 33.49251
# Shear Modulus (GPa) = 6.45472 22.38142 14.41807
#
# Velocity S-wave (km/s) = 1.92158 3.57820 2.87193
# Velocity P-wave (km/s) = 4.53117 6.30734 5.49154
#
# Compressibility (1/GPa) = 0.03665119
#
# Stress axis : x y z
#
# Youngs Moduli (GPa) = 28.40388 93.79160 53.30287
#
# Poissons Ratio (x) = 0.38681 0.44540
# Poissons Ratio (y) = 0.11714 0.08042
# Poissons Ratio (z) = 0.23735 0.14150
#
# Static dielectric constant tensor:
#      x y z
#    x 1.637340 0.000000 -0.001940 
#    y 0.000000 1.662300 0.000000 
#    z -0.001940 0.000000 1.573150 
# 
# From -- ./inp_files/263048.got.cif
#   From: 2010.05.17/outbox.cif.g08.bks.cpg/sg12_132_cif.got.tgz:263048.got - 2010.06.03 13:09:07.
