data_PCOD9218000
_publ_section_title
;
Structure prediction by ZEFSAII (Michael W. Deem and Ramdas Pophale) SiO2 
 PCOD9218000
Probable space group: C 2/M
;
_chemical_formula_sum "Si O2"
_cell_formula_units_Z 40
_cell_length_a 12.987390
_cell_length_b 26.941095
_cell_length_c 5.118866
_cell_angle_alpha 90.000000
_cell_angle_beta 101.248498
_cell_angle_gamma 90.000000
_cell_volume 1756.657484
_symmetry_space_group_name_H-M "C 2/M"
_symmetry_group_IT_number 12
_symmetry_cell_setting 'monoclinic'
loop_
_space_group_symop_operation_xyz
x,y,z
-x,y,-z
-x,-y,-z
x,-y,z
1/2+x,1/2+y,z
1/2-x,1/2+y,-z
1/2-x,1/2-y,-z
1/2+x,1/2-y,z
loop_
_atom_site_type_symbol
_atom_site_label
_atom_site_fract_x
_atom_site_fract_y
_atom_site_fract_z
Si Si1 0.202468 0.442864 0.985714
Si Si2 0.883771 0.392484 0.554094
Si Si3 0.394548 0.301374 0.114477
Si Si4 0.806203 0.288665 0.339763
Si Si5 0.068740 0.090984 0.769356
O O1 0.169565 0.500000 0.976366
O O2 0.135160 0.411872 0.163768
O O3 0.323273 0.437112 0.128952
O O4 0.189541 0.421558 0.688226
O O5 0.855656 0.334627 0.513289
O O6 0.000000 0.400601 0.500000
O O7 0.388715 0.247055 0.238005
O O8 0.400737 0.351578 0.287524
O O9 0.500000 0.302052 0.000000
O O10 0.285895 0.306772 0.899924
O O11 0.750000 0.250000 0.500000
O O12 0.000000 0.070344 0.500000
O O13 0.000000 0.091085 0.000000
#
# Coordination Sequence:
#
# PCOD9218000 Si02
#       5
#     8   8   8   8   8
#     4  12  27  50  74 103 138 180 239 299 354 415
#     4  12  28  47  73 103 141 186 235 295 351 411
#     4  10  24  40  66 100 138 188 221 277 338 418
#     4  11  25  42  66 102 143 180 235 274 342 412
#     4  11  24  43  72 105 144 183 227 282 353 425
#
# _framework density 22.770517999999999
#
# number of rings (size 3 to 8) (size 9 to 14) (size 15 to 20)
#    0.000    0.800    2.000    3.600   14.000    3.200 
#    0.000    0.000    0.000    0.000    0.000    0.000 
#    0.000    0.000    0.000    0.000    0.000    0.000 
#
# Total GULP energy -111987.540696 kJ/mol
# GULP energy per Si atom -5599.377035 kJ/mol
# Density = 2.271869 g / cm^3
# Si number density = 22.770518 Si / 1000 Ang^3
#
#
#
# Elastic Constant Matrix: (Units=GPa)
#
#
# Indices 1 2 3 4 5 6 
#
# 1 61.7368 -14.3502 -11.4683 0.0000 -5.1975 0.0000
# 2 -14.3502 95.2064 -7.6535 0.0000 -9.3185 0.0000
# 3 -11.4683 -7.6535 61.9794 0.0000 5.7706 0.0000
# 4 0.0000 0.0000 0.0000 24.6735 0.0000 10.3113
# 5 -5.1975 -9.3185 5.7706 0.0000 36.9874 0.0000
# 6 0.0000 0.0000 0.0000 10.3113 0.0000 27.9864
#
#
#
# Elastic Compliance Matrix: (Units=1/GPa)
#
#
# Indices 1 2 3 4 5 6 
#
# 1 0.017823 0.003235 0.003438 0.000000 0.002783 0.000000
# 2 0.003235 0.011430 0.001725 0.000000 0.003065 0.000000
# 3 0.003438 0.001725 0.017147 0.000000 -0.001758 0.000000
# 4 0.000000 0.000000 0.000000 0.047906 0.000000 -0.017650
# 5 0.002783 0.003065 -0.001758 0.000000 0.028474 0.000000
# 6 0.000000 0.000000 0.000000 -0.017650 0.000000 0.042235
#
#
# Mechanical properties :
#
#
# Convention : Reuss Voigt Hill
#
# Bulk Modulus (GPa) = 15.82385 16.88651 16.35518
# Shear Modulus (GPa) = 29.53634 34.75578 32.14606
#
# Velocity S-wave (km/s) = 3.60548 3.91109 3.76139
# Velocity P-wave (km/s) = 4.92920 5.27518 5.10512
#
# Compressibility (1/GPa) = 0.06319574
#
# Stress axis : x y z
#
# Youngs Moduli (GPa) = 56.10799 87.49086 58.31863
#
# Poissons Ratio (x) = -0.28305 -0.20051
# Poissons Ratio (y) = -0.18152 -0.10058
# Poissons Ratio (z) = -0.19291 -0.15089
#
# Static dielectric constant tensor:
#      x y z
#    x 1.693260 0.000000 0.129240 
#    y 0.000000 1.886580 0.000000 
#    z 0.129240 0.000000 1.739850 
# 
# From -- ./inp_files/7579.got.cif
#   From: 2010.05.17/outbox.cif.g08.bks.cpg/sg12_4_cif.got.tgz:7579.got - 2010.06.03 13:09:07.
