data_PCOD9218518
_publ_section_title
;
Structure prediction by ZEFSAII (Michael W. Deem and Ramdas Pophale) SiO2 
 PCOD9218518
Probable space group: C 2/M
;
_chemical_formula_sum "Si O2"
_cell_formula_units_Z 60
_cell_length_a 13.842861
_cell_length_b 30.160011
_cell_length_c 12.948791
_cell_angle_alpha 90.000000
_cell_angle_beta 148.142563
_cell_angle_gamma 90.000000
_cell_volume 2853.396649
_symmetry_space_group_name_H-M "C 2/M"
_symmetry_group_IT_number 12
_symmetry_cell_setting 'monoclinic'
loop_
_space_group_symop_operation_xyz
x,y,z
-x,y,-z
-x,-y,-z
x,-y,z
1/2+x,1/2+y,z
1/2-x,1/2+y,-z
1/2-x,1/2-y,-z
1/2+x,1/2-y,z
loop_
_atom_site_type_symbol
_atom_site_label
_atom_site_fract_x
_atom_site_fract_y
_atom_site_fract_z
Si Si1 0.173411 0.566348 0.090425
Si Si2 0.527893 0.049671 0.734211
Si Si3 0.151805 0.670688 0.053945
Si Si4 0.095343 0.946291 0.976714
Si Si5 0.987026 0.767782 0.603676
Si Si6 0.844807 0.102556 0.581621
Si Si7 0.500000 0.421346 0.500000
Si Si8 0.643219 0.187005 0.375514
O O1 0.351138 0.549263 0.307381
O O2 0.128909 0.550819 0.936610
O O3 0.203373 0.619952 0.125138
O O4 0.000000 0.555237 0.000000
O O5 0.336555 0.073196 0.573349
O O6 0.489976 0.000000 0.664808
O O7 0.692999 0.068382 0.815766
O O8 0.029630 0.666332 0.839878
O O9 0.331692 0.702018 0.209083
O O10 0.000000 0.686459 0.000000
O O11 0.997093 0.918508 0.795573
O O12 0.090324 0.000000 0.950237
O O13 0.000000 0.939439 0.000000
O O14 0.000000 0.750222 0.500000
O O15 0.797901 0.795220 0.437400
O O16 0.945592 0.727537 0.643049
O O17 0.905088 0.103175 0.514303
O O18 0.767519 0.150601 0.546495
#
# Coordination Sequence:
#
# PCOD9218518 Si02
#       8
#     8   8   8   8   8   8   4   8
#     4  11  21  36  58  96 129 170 212 253 318 386
#     4  11  23  41  64  95 132 164 212 269 316 376
#     4  11  20  37  66  88 123 169 212 255 310 388
#     4  10  24  47  70  94 129 176 227 269 314 382
#     4  11  24  41  64  91 127 169 214 270 322 379
#     4  12  23  42  68 100 129 172 218 264 331 392
#     4  12  22  36  65  96 132 168 214 254 318 404
#     4  11  24  41  64  94 127 168 213 268 321 383
#
# _framework density 21.027570999999998
#
# number of rings (size 3 to 8) (size 9 to 14) (size 15 to 20)
#    0.000    0.933    5.333    2.400    1.867    0.800 
#    2.400    3.667    0.000    0.000    0.000    0.000 
#    0.000    0.000    0.000    0.000    0.000    0.000 
#
# Total GULP energy -167238.391673 kJ/mol
# GULP energy per Si atom -5574.613056 kJ/mol
# Density = 2.097971 g / cm^3
# Si number density = 21.027571 Si / 1000 Ang^3
#
#
#
# Elastic Constant Matrix: (Units=GPa)
#
#
# Indices 1 2 3 4 5 6 
#
# 1 99.5875 22.7837 12.6579 0.0000 31.4263 0.0000
# 2 22.7837 75.5095 26.9952 0.0000 16.3549 0.0000
# 3 12.6579 26.9952 91.2125 0.0000 30.2333 0.0000
# 4 0.0000 0.0000 0.0000 12.1134 0.0000 -3.3391
# 5 31.4263 16.3549 30.2333 0.0000 37.3686 0.0000
# 6 0.0000 0.0000 0.0000 -3.3391 0.0000 -19.4698
#
#
#
# Elastic Compliance Matrix: (Units=1/GPa)
#
#
# Indices 1 2 3 4 5 6 
#
# 1 0.014569 -0.002593 0.003321 0.000000 -0.013804 0.000000
# 2 -0.002593 0.015726 -0.003738 0.000000 -0.001677 0.000000
# 3 0.003321 -0.003738 0.016387 0.000000 -0.014415 0.000000
# 4 0.000000 0.000000 0.000000 0.078827 0.000000 -0.013519
# 5 -0.013804 -0.001677 -0.014415 0.000000 0.050766 0.000000
# 6 0.000000 0.000000 0.000000 -0.013519 0.000000 -0.049043
#
#
# Mechanical properties :
#
#
# Convention : Reuss Voigt Hill
#
# Bulk Modulus (GPa) = 24.59410 43.46479 34.02945
# Shear Modulus (GPa) = 34.05884 19.59397 26.82640
#
# Velocity S-wave (km/s) = 4.02894 3.05589 3.57567
# Velocity P-wave (km/s) = 5.77622 5.75904 5.76764
#
# Compressibility (1/GPa) = 0.04066015
#
# Stress axis : x y z
#
# Youngs Moduli (GPa) = 68.64060 63.59063 61.02447
#
# Poissons Ratio (x) = 0.16491 -0.20268
# Poissons Ratio (y) = 0.17801 0.22813
# Poissons Ratio (z) = -0.22797 0.23773
#
# Static dielectric constant tensor:
#      x y z
#    x 1.826290 0.000000 0.037700 
#    y 0.000000 1.784910 0.000000 
#    z 0.037700 0.000000 1.793090 
# 
# From -- ./inp_files/219468.got.cif
#   From: 2010.05.17/outbox.cif.g08.bks.cpg/sg12_110_cif.got.tgz:219468.got - 2010.06.03 13:09:07.
