data_PCOD9218206
_publ_section_title
;
Structure prediction by ZEFSAII (Michael W. Deem and Ramdas Pophale) SiO2 
 PCOD9218206
Probable space group: C 2/M
;
_chemical_formula_sum "Si O2"
_cell_formula_units_Z 64
_cell_length_a 18.742070
_cell_length_b 29.759599
_cell_length_c 9.654870
_cell_angle_alpha 90.000000
_cell_angle_beta 34.448733
_cell_angle_gamma 90.000000
_cell_volume 3046.162962
_symmetry_space_group_name_H-M "C 2/M"
_symmetry_group_IT_number 12
_symmetry_cell_setting 'monoclinic'
loop_
_space_group_symop_operation_xyz
x,y,z
-x,y,-z
-x,-y,-z
x,-y,z
1/2+x,1/2+y,z
1/2-x,1/2+y,-z
1/2-x,1/2-y,-z
1/2+x,1/2-y,z
loop_
_atom_site_type_symbol
_atom_site_label
_atom_site_fract_x
_atom_site_fract_y
_atom_site_fract_z
Si Si1 0.889672 0.319392 0.281880
Si Si2 0.886568 0.572700 0.288590
Si Si3 0.889249 0.284592 0.592053
Si Si4 0.797751 0.804240 0.649999
Si Si5 0.988121 0.872578 0.680580
Si Si6 0.060024 0.548185 0.254116
Si Si7 0.211415 0.638956 0.048628
Si Si8 0.590607 0.448698 0.719275
O O1 0.884270 0.373302 0.296951
O O2 0.913985 0.300996 0.396202
O O3 0.763905 0.304431 0.402655
O O4 0.000000 0.305886 0.000000
O O5 0.742451 0.556911 0.497136
O O6 0.942477 0.554721 0.341123
O O7 0.000000 0.560022 0.000000
O O8 0.788810 0.245048 0.730647
O O9 0.861777 0.326760 0.734841
O O10 0.000000 0.260534 0.500000
O O11 0.937383 0.825881 0.413986
O O12 0.733215 0.837338 0.865074
O O13 0.047786 0.910824 0.679901
O O14 0.000000 0.884671 0.500000
O O15 0.838959 0.868099 0.932198
O O16 0.123535 0.500000 0.120798
O O17 0.148284 0.591660 0.112737
O O18 0.000000 0.546494 0.500000
O O19 0.569193 0.500000 0.705629
O O20 0.500000 0.442764 0.000000
#
# Coordination Sequence:
#
# PCOD9218206 Si02
#       8
#     8   8   8   8   8   8   8   8
#     4  11  23  40  68  96 136 177 228 289 344 416
#     4  11  23  45  71 101 138 184 233 291 351 416
#     4  12  24  41  68 101 132 177 229 283 356 419
#     4  11  23  45  63  98 136 174 229 288 346 423
#     4  10  24  43  66  94 133 180 227 285 350 416
#     4  11  25  42  66 101 137 175 231 293 352 419
#     4  11  23  42  69  97 133 183 224 283 362 415
#     4  11  26  45  68 100 139 186 236 285 353 431
#
# _framework density 21.010038000000002
#
# number of rings (size 3 to 8) (size 9 to 14) (size 15 to 20)
#    0.000    1.000    1.250    6.375    5.250    2.750 
#    0.000    0.625    0.000    0.000    0.000    0.000 
#    0.000    0.000    0.000    0.000    0.000    0.000 
#
# Total GULP energy -178632.398638 kJ/mol
# GULP energy per Si atom -5582.262457 kJ/mol
# Density = 2.096222 g / cm^3
# Si number density = 21.010038 Si / 1000 Ang^3
#
#
#
# Elastic Constant Matrix: (Units=GPa)
#
#
# Indices 1 2 3 4 5 6 
#
# 1 138.9220 26.0196 26.5815 0.0000 2.2744 0.0000
# 2 26.0196 106.2645 12.7489 0.0000 -6.4257 0.0000
# 3 26.5815 12.7489 43.1375 0.0000 -14.9353 0.0001
# 4 0.0000 0.0000 0.0000 -1.8051 0.0000 -15.9328
# 5 2.2744 -6.4257 -14.9353 0.0000 31.8622 0.0000
# 6 0.0000 0.0000 0.0001 -15.9328 0.0000 6.2212
#
#
#
# Elastic Compliance Matrix: (Units=1/GPa)
#
#
# Indices 1 2 3 4 5 6 
#
# 1 0.008767 -0.001630 -0.006268 0.000000 -0.003893 0.000000
# 2 -0.001630 0.010074 -0.001467 0.000000 0.001460 0.000000
# 3 -0.006268 -0.001467 0.032864 0.000000 0.015556 0.000000
# 4 0.000000 0.000000 0.000000 -0.023469 0.000000 -0.060105
# 5 -0.003893 0.001460 0.015556 0.000000 0.039249 0.000000
# 6 0.000000 0.000000 0.000000 -0.060105 0.000000 0.006809
#
#
# Mechanical properties :
#
#
# Convention : Reuss Voigt Hill
#
# Bulk Modulus (GPa) = 30.32727 46.55824 38.44275
# Shear Modulus (GPa) = 48.06940 22.12059 35.09500
#
# Velocity S-wave (km/s) = 4.78842 3.24830 4.09148
# Velocity P-wave (km/s) = 6.71103 6.02301 6.37631
#
# Compressibility (1/GPa) = 0.03297362
#
# Stress axis : x y z
#
# Youngs Moduli (GPa) = 114.06879 99.26618 30.42866
#
# Poissons Ratio (x) = 0.16180 0.19073
# Poissons Ratio (y) = 0.18593 0.04465
# Poissons Ratio (z) = 0.71499 0.14566
#
# Static dielectric constant tensor:
#      x y z
#    x 1.741090 0.000000 -0.068630 
#    y 0.000000 1.772160 0.000000 
#    z -0.068630 0.000000 1.830280 
# 
# From -- ./inp_files/80708.got.cif
#   From: 2010.05.17/outbox.cif.g08.bks.cpg/sg12_41_cif.got.tgz:80708.got - 2010.06.03 13:09:07.
