data_PCOD9218903
_publ_section_title
;
Structure prediction by ZEFSAII (Michael W. Deem and Ramdas Pophale) SiO2 
 PCOD9218903
Probable space group: C 2/M
;
_chemical_formula_sum "Si O2"
_cell_formula_units_Z 48
_cell_length_a 17.589544
_cell_length_b 12.312872
_cell_length_c 10.852108
_cell_angle_alpha 90.000000
_cell_angle_beta 102.110846
_cell_angle_gamma 90.000000
_cell_volume 2298.015784
_symmetry_space_group_name_H-M "C 2/M"
_symmetry_group_IT_number 12
_symmetry_cell_setting 'monoclinic'
loop_
_space_group_symop_operation_xyz
x,y,z
-x,y,-z
-x,-y,-z
x,-y,z
1/2+x,1/2+y,z
1/2-x,1/2+y,-z
1/2-x,1/2-y,-z
1/2+x,1/2-y,z
loop_
_atom_site_type_symbol
_atom_site_label
_atom_site_fract_x
_atom_site_fract_y
_atom_site_fract_z
Si Si1 0.127011 0.127017 0.595179
Si Si2 0.938435 0.500000 0.140935
Si Si3 0.539712 0.626345 0.322237
Si Si4 0.619908 0.000000 0.156340
Si Si5 0.326952 0.625436 0.983445
Si Si6 0.033961 0.724502 0.882587
Si Si7 0.735027 0.190233 0.195169
O O1 0.104017 0.152433 0.446947
O O2 0.195790 0.192271 0.682572
O O3 0.045671 0.134925 0.642131
O O4 0.149802 0.000000 0.609425
O O5 0.925474 0.625324 0.177984
O O6 0.032676 0.500000 0.177321
O O7 0.892285 0.500000 0.995717
O O8 0.548749 0.500000 0.287170
O O9 0.533265 0.713227 0.212601
O O10 0.667589 0.893200 0.210527
O O11 0.340184 0.500000 0.961546
O O12 0.294763 0.692405 0.856761
O O13 0.403916 0.685706 0.057125
O O14 0.268867 0.638325 0.079568
O O15 0.000000 0.679409 0.000000
#
# Coordination Sequence:
#
# PCOD9218903 Si02
#       7
#     8   4   8   4   8   8   8
#     4   9  16  32  55  81 110 141 188 233 266 323
#     4  11  22  38  54  81 106 151 196 222 263 334
#     4   9  19  32  52  83 114 143 180 229 280 324
#     4  11  18  36  56  79 103 140 195 229 265 309
#     4  11  22  32  49  86 117 142 175 224 291 334
#     4  12  21  36  56  80 115 149 185 226 276 337
#     4  11  19  32  57  81 109 142 184 234 276 320
#
# _framework density 20.887585000000001
#
# number of rings (size 3 to 8) (size 9 to 14) (size 15 to 20)
#    0.000    1.500    6.667    1.500    0.000    1.333 
#    0.000    0.000    1.833    5.000    0.000    0.000 
#    0.000    0.000    0.000    0.000    0.000    0.000 
#
# Total GULP energy -133946.501420 kJ/mol
# GULP energy per Si atom -5581.104226 kJ/mol
# Density = 2.084004 g / cm^3
# Si number density = 20.887585 Si / 1000 Ang^3
#
#
#
# Elastic Constant Matrix: (Units=GPa)
#
#
# Indices 1 2 3 4 5 6 
#
# 1 51.6289 28.9069 19.1722 0.0000 25.9080 0.0000
# 2 28.9069 175.0893 64.7621 0.0000 31.5161 0.0000
# 3 19.1722 64.7621 107.6020 0.0000 37.7502 0.0000
# 4 0.0000 0.0000 0.0000 15.6868 0.0000 7.6125
# 5 25.9080 31.5161 37.7502 0.0000 35.1823 0.0000
# 6 0.0000 0.0000 0.0000 7.6125 0.0000 26.0510
#
#
#
# Elastic Compliance Matrix: (Units=1/GPa)
#
#
# Indices 1 2 3 4 5 6 
#
# 1 0.032536 -0.002375 0.005279 0.000000 -0.027496 0.000000
# 2 -0.002375 0.007716 -0.003864 0.000000 -0.001017 0.000000
# 3 0.005279 -0.003864 0.017365 0.000000 -0.019058 0.000000
# 4 0.000000 0.000000 0.000000 0.074281 0.000000 -0.021706
# 5 -0.027496 -0.001017 -0.019058 0.000000 0.070031 0.000000
# 6 0.000000 0.000000 0.000000 -0.021706 0.000000 0.044729
#
#
# Mechanical properties :
#
#
# Convention : Reuss Voigt Hill
#
# Bulk Modulus (GPa) = 17.95448 62.22253 40.08850
# Shear Modulus (GPa) = 18.71651 30.14930 24.43291
#
# Velocity S-wave (km/s) = 2.99667 3.80334 3.42385
# Velocity P-wave (km/s) = 4.53738 7.01007 5.90461
#
# Compressibility (1/GPa) = 0.05569640
#
# Stress axis : x y z
#
# Youngs Moduli (GPa) = 30.73492 129.60622 57.58805
#
# Poissons Ratio (x) = 0.30779 -0.30399
# Poissons Ratio (y) = 0.07299 0.22252
# Poissons Ratio (z) = -0.16224 0.50079
#
# Static dielectric constant tensor:
#      x y z
#    x 1.814290 0.000000 -0.036250 
#    y 0.000000 1.796370 0.000000 
#    z -0.036250 0.000000 1.764470 
# 
# From -- ./inp_files/154321.got.cif
#   From: 2010.05.17/outbox.cif.g08.bks.cpg/sg12_78_cif.got.tgz:154321.got - 2010.06.03 13:09:07.
