data_PCOD9218314
_publ_section_title
;
Structure prediction by ZEFSAII (Michael W. Deem and Ramdas Pophale) SiO2 
 PCOD9218314
Probable space group: C 2/M
;
_chemical_formula_sum "Si O2"
_cell_formula_units_Z 28
_cell_length_a 17.955734
_cell_length_b 15.338303
_cell_length_c 7.992610
_cell_angle_alpha 90.000000
_cell_angle_beta 34.470365
_cell_angle_gamma 90.000000
_cell_volume 1245.862477
_symmetry_space_group_name_H-M "C 2/M"
_symmetry_group_IT_number 12
_symmetry_cell_setting 'monoclinic'
loop_
_space_group_symop_operation_xyz
x,y,z
-x,y,-z
-x,-y,-z
x,-y,z
1/2+x,1/2+y,z
1/2-x,1/2+y,-z
1/2-x,1/2-y,-z
1/2+x,1/2-y,z
loop_
_atom_site_type_symbol
_atom_site_label
_atom_site_fract_x
_atom_site_fract_y
_atom_site_fract_z
Si Si1 0.861665 0.824504 0.662512
Si Si2 0.992731 0.500000 0.217915
Si Si3 0.288143 0.500000 0.651105
Si Si4 0.294343 0.857036 0.720372
Si Si5 0.136533 0.000000 0.841511
O O1 0.868462 0.914702 0.551878
O O2 0.822513 0.742893 0.618210
O O3 0.000000 0.805663 0.500000
O O4 0.745204 0.842710 0.012859
O O5 0.916827 0.416702 0.437812
O O6 0.000000 0.500000 0.000000
O O7 0.143678 0.500000 0.998166
O O8 0.264893 0.500000 0.497147
O O9 0.171439 0.912732 0.877643
O O10 0.000000 0.000000 0.000000
#
# Coordination Sequence:
#
# PCOD9218314 Si02
#       5
#     8   4   4   8   4
#     4  11  25  44  68 103 139 181 234 288 344 406
#     4  11  23  47  68 100 144 180 232 282 347 419
#     4  12  24  41  72 102 138 186 229 285 348 407
#     4  10  24  44  68 101 139 184 232 281 346 409
#     4  11  22  45  69 101 137 180 228 284 345 412
#
# _framework density 22.474392000000002
#
# number of rings (size 3 to 8) (size 9 to 14) (size 15 to 20)
#    0.000    1.143    2.857    3.857    8.000    2.286 
#    0.000    0.000    0.000    0.000    0.000    0.000 
#    0.000    0.000    0.000    0.000    0.000    0.000 
#
# Total GULP energy -78088.281847 kJ/mol
# GULP energy per Si atom -5577.734418 kJ/mol
# Density = 2.242324 g / cm^3
# Si number density = 22.474392 Si / 1000 Ang^3
#
#
#
# Elastic Constant Matrix: (Units=GPa)
#
#
# Indices 1 2 3 4 5 6 
#
# 1 64.9526 72.8785 16.3592 0.0000 -23.0068 0.0000
# 2 72.8785 243.9396 35.3092 0.0000 -6.1938 0.0000
# 3 16.3592 35.3092 126.9184 0.0000 -17.4190 0.0000
# 4 0.0000 0.0000 0.0000 -7.0336 0.0000 -17.7047
# 5 -23.0068 -6.1938 -17.4190 0.0000 49.0673 0.0000
# 6 0.0000 0.0000 0.0000 -17.7047 0.0000 -53.3322
#
#
#
# Elastic Compliance Matrix: (Units=1/GPa)
#
#
# Indices 1 2 3 4 5 6 
#
# 1 0.029400 -0.008507 0.000338 0.000000 0.012832 0.000000
# 2 -0.008507 0.006733 -0.001269 0.000000 -0.003589 0.000000
# 3 0.000338 -0.001269 0.008608 0.000000 0.003054 0.000000
# 4 0.000000 0.000000 0.000000 -0.864956 0.000000 0.287140
# 5 0.012832 -0.003589 0.003054 0.000000 0.027028 0.000000
# 6 0.000000 0.000000 0.000000 0.287140 0.000000 -0.114073
#
#
# Mechanical properties :
#
#
# Convention : Reuss Voigt Hill
#
# Bulk Modulus (GPa) = 38.66130 76.10048 57.38089
# Shear Modulus (GPa) = -5.68336 18.49121 6.40393
#
# Velocity S-wave (km/s) = -1.59195 2.87151 1.68986
# Velocity P-wave (km/s) = 3.72299 6.70288 5.42168
#
# Compressibility (1/GPa) = 0.02586566
#
# Stress axis : x y z
#
# Youngs Moduli (GPa) = 34.01307 148.51302 116.17349
#
# Poissons Ratio (x) = 1.26336 -0.03928
# Poissons Ratio (y) = 0.28934 0.14747
# Poissons Ratio (z) = -0.01150 0.18852
#
# Static dielectric constant tensor:
#      x y z
#    x 1.816330 0.000000 -0.025240 
#    y 0.000000 1.899170 0.000000 
#    z -0.025240 0.000000 1.941450 
# 
# From -- ./inp_files/72730.got.cif
#   From: 2010.05.17/outbox.cif.g08.bks.cpg/sg12_37_cif.got.tgz:72730.got - 2010.06.03 13:09:07.
