data_PCOD9218091
_publ_section_title
;
Structure prediction by ZEFSAII (Michael W. Deem and Ramdas Pophale) SiO2 
 PCOD9218091
Probable space group: C 2/M
;
_chemical_formula_sum "Si O2"
_cell_formula_units_Z 50
_cell_length_a 19.988516
_cell_length_b 7.994051
_cell_length_c 17.149029
_cell_angle_alpha 90.000000
_cell_angle_beta 121.232806
_cell_angle_gamma 90.000000
_cell_volume 2343.081566
_symmetry_space_group_name_H-M "C 2/M"
_symmetry_group_IT_number 12
_symmetry_cell_setting 'monoclinic'
loop_
_space_group_symop_operation_xyz
x,y,z
-x,y,-z
-x,-y,-z
x,-y,z
1/2+x,1/2+y,z
1/2-x,1/2+y,-z
1/2-x,1/2-y,-z
1/2+x,1/2-y,z
loop_
_atom_site_type_symbol
_atom_site_label
_atom_site_fract_x
_atom_site_fract_y
_atom_site_fract_z
Si Si1 0.756397 0.801743 0.914275
Si Si2 0.396854 0.305093 0.888540
Si Si3 0.545468 0.202256 0.366759
Si Si4 0.831697 0.304726 0.691650
Si Si5 0.000000 0.500000 0.000000
Si Si6 0.662306 0.191718 0.568024
Si Si7 0.627432 0.689520 0.714654
O O1 0.841137 0.762499 0.928599
O O2 0.689794 0.721387 0.820281
O O3 0.746352 0.000000 0.902352
O O4 0.750000 0.750000 0.000000
O O5 0.423544 0.500000 0.910746
O O6 0.343365 0.293323 0.779114
O O7 0.458778 0.153454 0.922817
O O8 0.602525 0.247420 0.330265
O O9 0.590418 0.256125 0.472716
O O10 0.460065 0.279601 0.308693
O O11 0.536209 0.000000 0.362395
O O12 0.841775 0.500000 0.714402
O O13 0.744967 0.280283 0.605976
O O14 0.642266 0.200277 0.647216
O O15 0.673815 0.000000 0.550840
O O16 0.636890 0.500000 0.692844
#
# Coordination Sequence:
#
# PCOD9218091 Si02
#       7
#     8   8   8   8   2   8   8
#     4  11  25  45  72  99 131 173 225 278 337 409
#     4  11  25  46  71 104 136 180 227 277 343 412
#     4  10  24  42  63  97 137 178 226 278 340 399
#     4  11  22  41  68  97 137 182 225 274 340 406
#     4  12  26  44  76  98 140 178 224 282 340 406
#     4  11  22  40  67  96 133 181 227 278 336 406
#     4  12  25  41  66  96 134 176 224 282 336 398
#
# _framework density 21.339417999999998
#
# number of rings (size 3 to 8) (size 9 to 14) (size 15 to 20)
#    0.000    0.960    2.400    4.080    2.240    5.760 
#    0.000    0.000    0.000    0.000    0.000    0.000 
#    0.000    0.000    0.000    0.000    0.000    0.000 
#
# Total GULP energy -139515.977639 kJ/mol
# GULP energy per Si atom -5580.639106 kJ/mol
# Density = 2.129085 g / cm^3
# Si number density = 21.339418 Si / 1000 Ang^3
#
#
#
# Elastic Constant Matrix: (Units=GPa)
#
#
# Indices 1 2 3 4 5 6 
#
# 1 64.5330 7.4947 2.9916 0.0000 -2.0915 0.0000
# 2 7.4947 66.7463 14.2195 0.0000 5.8126 0.0000
# 3 2.9916 14.2195 65.4578 0.0000 -3.3516 0.0000
# 4 0.0000 0.0000 0.0000 26.2489 0.0000 7.6254
# 5 -2.0915 5.8126 -3.3516 0.0000 34.0707 0.0000
# 6 0.0000 0.0000 0.0000 7.6254 0.0000 17.9745
#
#
#
# Elastic Compliance Matrix: (Units=1/GPa)
#
#
# Indices 1 2 3 4 5 6 
#
# 1 0.015760 -0.001823 -0.000260 0.000000 0.001253 0.000000
# 2 -0.001823 0.016238 -0.003610 0.000000 -0.003237 0.000000
# 3 -0.000260 -0.003610 0.016185 0.000000 0.002192 0.000000
# 4 0.000000 0.000000 0.000000 0.043452 0.000000 -0.018434
# 5 0.001253 -0.003237 0.002192 0.000000 0.030196 0.000000
# 6 0.000000 0.000000 0.000000 -0.018434 0.000000 0.063455
#
#
# Mechanical properties :
#
#
# Convention : Reuss Voigt Hill
#
# Bulk Modulus (GPa) = 27.17610 27.34986 27.26298
# Shear Modulus (GPa) = 23.93055 27.12757 25.52906
#
# Velocity S-wave (km/s) = 3.35240 3.56932 3.46256
# Velocity P-wave (km/s) = 5.26760 5.46179 5.36557
#
# Compressibility (1/GPa) = 0.03679704
#
# Stress axis : x y z
#
# Youngs Moduli (GPa) = 63.45024 61.58481 61.78445
#
# Poissons Ratio (x) = 0.11229 0.01607
# Poissons Ratio (y) = 0.11569 0.22303
# Poissons Ratio (z) = 0.01650 0.22231
#
# Static dielectric constant tensor:
#      x y z
#    x 3.225040 0.000000 -2.242700 
#    y 0.000000 1.752080 0.000000 
#    z -2.242700 0.000000 5.276280 
# 
# From -- ./inp_files/275790.got.cif
#   From: 2010.05.17/outbox.cif.g08.bks.cpg/sg12_138_cif.got.tgz:275790.got - 2010.06.03 13:09:07.
