data_PCOD9218595
_publ_section_title
;
Structure prediction by ZEFSAII (Michael W. Deem and Ramdas Pophale) SiO2 
 PCOD9218595
Probable space group: C 2/M
;
_chemical_formula_sum "Si O2"
_cell_formula_units_Z 48
_cell_length_a 18.185941
_cell_length_b 17.006876
_cell_length_c 21.548201
_cell_angle_alpha 90.000000
_cell_angle_beta 161.493901
_cell_angle_gamma 90.000000
_cell_volume 2115.367987
_symmetry_space_group_name_H-M "C 2/M"
_symmetry_group_IT_number 12
_symmetry_cell_setting 'monoclinic'
loop_
_space_group_symop_operation_xyz
x,y,z
-x,y,-z
-x,-y,-z
x,-y,z
1/2+x,1/2+y,z
1/2-x,1/2+y,-z
1/2-x,1/2-y,-z
1/2+x,1/2-y,z
loop_
_atom_site_type_symbol
_atom_site_label
_atom_site_fract_x
_atom_site_fract_y
_atom_site_fract_z
Si Si1 0.824137 0.162669 0.161488
Si Si2 0.818732 0.592983 0.410117
Si Si3 0.087238 0.906658 0.471665
Si Si4 0.212686 0.906725 0.003431
Si Si5 0.348352 0.094626 0.794471
Si Si6 0.551434 0.185369 0.361006
O O1 0.045777 0.118685 0.368704
O O2 0.809517 0.144662 0.077105
O O3 0.838839 0.252222 0.193691
O O4 0.599029 0.123540 0.010722
O O5 0.848270 0.500000 0.449377
O O6 0.545902 0.602145 0.173776
O O7 0.000000 0.611392 0.500000
O O8 0.877239 0.645620 0.517233
O O9 0.862158 0.880191 0.330749
O O10 0.293559 0.877787 0.680227
O O11 0.095931 0.000000 0.479631
O O12 0.241633 0.000000 0.011023
O O13 0.432739 0.878611 0.220097
O O14 0.349032 0.000000 0.796592
O O15 0.750000 0.250000 0.500000
#
# Coordination Sequence:
#
# PCOD9218595 Si02
#       6
#     8   8   8   8   8   8
#     4  12  23  37  64  97 136 175 219 284 349 419
#     4  10  24  51  81 105 137 188 249 304 357 427
#     4   9  19  37  58  87 131 181 230 273 324 399
#     4  11  25  46  74 103 136 185 243 293 351 432
#     4   9  19  36  57  87 131 181 230 275 320 401
#     4  12  27  47  68 102 148 180 219 298 371 428
#
# _framework density 22.691087
#
# number of rings (size 3 to 8) (size 9 to 14) (size 15 to 20)
#    0.000    1.500    1.667    4.000    2.333    2.000 
#    9.000    2.500    0.000    0.000    0.000    0.000 
#    0.000    0.000    0.000    0.000    0.000    0.000 
#
# Total GULP energy -133913.040196 kJ/mol
# GULP energy per Si atom -5579.710008 kJ/mol
# Density = 2.263944 g / cm^3
# Si number density = 22.691087 Si / 1000 Ang^3
#
#
#
# Elastic Constant Matrix: (Units=GPa)
#
#
# Indices 1 2 3 4 5 6 
#
# 1 101.4890 34.9127 51.9544 0.0306 -1.2604 -0.0233
# 2 34.9127 74.7848 43.1438 0.0821 -7.1251 0.0168
# 3 51.9544 43.1438 145.5894 -0.0959 -18.2265 -0.0527
# 4 0.0306 0.0821 -0.0959 34.5580 -0.0204 2.1093
# 5 -1.2604 -7.1251 -18.2265 -0.0204 39.0747 -0.0149
# 6 -0.0233 0.0168 -0.0527 2.1093 -0.0149 32.0926
#
#
#
# Elastic Compliance Matrix: (Units=1/GPa)
#
#
# Indices 1 2 3 4 5 6 
#
# 1 0.013176 -0.004205 -0.003716 -0.000014 -0.002075 0.000006
# 2 -0.004205 0.017492 -0.003505 -0.000046 0.001419 -0.000014
# 3 -0.003716 -0.003505 0.009705 0.000040 0.003768 0.000014
# 4 -0.000014 -0.000046 0.000040 0.029054 0.000024 -0.001909
# 5 -0.002075 0.001419 0.003768 0.000024 0.027541 0.000015
# 6 0.000006 -0.000014 0.000014 -0.001909 0.000015 0.031285
#
#
# Mechanical properties :
#
#
# Convention : Reuss Voigt Hill
#
# Bulk Modulus (GPa) = 57.07393 64.65388 60.86390
# Shear Modulus (GPa) = 31.85782 33.93522 32.89652
#
# Velocity S-wave (km/s) = 3.75104 3.87140 3.81170
# Velocity P-wave (km/s) = 6.63080 6.96697 6.80096
#
# Compressibility (1/GPa) = 0.01752114
#
# Stress axis : x y z
#
# Youngs Moduli (GPa) = 75.89400 57.16746 103.03876
#
# Poissons Ratio (x) = 0.24041 0.38285
# Poissons Ratio (y) = 0.31916 0.36119
# Poissons Ratio (z) = 0.28199 0.20039
#
# Static dielectric constant tensor:
#      x y z
#    x 1.948690 0.000000 0.040680 
#    y 0.000000 1.844080 -0.000050 
#    z 0.040680 -0.000050 1.894210 
# 
# From -- ./inp_files/317536.got.cif
#   From: 2010.05.17/outbox.cif.g08.bks.cpg/sg12_159_cif.got.tgz:317536.got - 2010.06.03 13:09:07.
