data_PCOD9218968
_publ_section_title
;
Structure prediction by ZEFSAII (Michael W. Deem and Ramdas Pophale) SiO2 
 PCOD9218968
Probable space group: C 2/M
;
_chemical_formula_sum "Si O2"
_cell_formula_units_Z 48
_cell_length_a 13.168979
_cell_length_b 18.506252
_cell_length_c 13.082932
_cell_angle_alpha 90.000000
_cell_angle_beta 116.126008
_cell_angle_gamma 90.000000
_cell_volume 2862.652960
_symmetry_space_group_name_H-M "C 2/M"
_symmetry_group_IT_number 12
_symmetry_cell_setting 'monoclinic'
loop_
_space_group_symop_operation_xyz
x,y,z
-x,y,-z
-x,-y,-z
x,-y,z
1/2+x,1/2+y,z
1/2-x,1/2+y,-z
1/2-x,1/2-y,-z
1/2+x,1/2-y,z
loop_
_atom_site_type_symbol
_atom_site_label
_atom_site_fract_x
_atom_site_fract_y
_atom_site_fract_z
Si Si1 0.069724 0.191865 0.182160
Si Si2 0.634394 0.083982 0.981252
Si Si3 0.326384 0.586171 0.373700
Si Si4 0.551412 0.587235 0.359051
Si Si5 0.406847 0.142070 0.813399
Si Si6 0.681616 0.318095 0.017919
O O1 0.090422 0.135168 0.281422
O O2 0.071872 0.276259 0.211340
O O3 0.942749 0.178191 0.085616
O O4 0.158618 0.186632 0.128523
O O5 0.525009 0.098758 0.861928
O O6 0.637733 0.000000 0.012419
O O7 0.622191 0.132283 0.078541
O O8 0.746283 0.111209 0.976058
O O9 0.323016 0.500000 0.365739
O O10 0.422792 0.608370 0.334534
O O11 0.373102 0.603268 0.507224
O O12 0.202341 0.614244 0.294322
O O13 0.554669 0.500000 0.342206
O O14 0.750000 0.250000 0.000000
#
# Coordination Sequence:
#
# PCOD9218968 Si02
#       6
#     8   8   8   8   8   8
#     4  11  22  33  58  78 107 148 173 223 275 323
#     4  11  21  33  54  82 109 141 183 224 265 327
#     4   9  18  35  58  79 108 143 180 234 276 307
#     4   9  20  37  55  80 108 142 188 228 269 322
#     4  11  19  32  54  81 110 139 180 228 272 322
#     4  11  20  38  51  76 114 143 172 212 278 326
#
# _framework density 16.767662999999999
#
# number of rings (size 3 to 8) (size 9 to 14) (size 15 to 20)
#    0.000    1.667    3.333    5.000    0.000    3.333 
#    0.000    1.667    0.000    1.000    0.000    3.500 
#    0.000    0.000    0.000    0.000    0.000    0.000 
#
# Total GULP energy -133787.884895 kJ/mol
# GULP energy per Si atom -5574.495204 kJ/mol
# Density = 1.672950 g / cm^3
# Si number density = 16.767663 Si / 1000 Ang^3
#
#
#
# Elastic Constant Matrix: (Units=GPa)
#
#
# Indices 1 2 3 4 5 6 
#
# 1 94.3414 28.8041 39.5977 0.0000 0.0774 0.0000
# 2 28.8041 72.3781 40.1522 0.0000 -10.4251 0.0000
# 3 39.5977 40.1522 71.4625 0.0000 -4.6034 0.0000
# 4 0.0000 0.0000 0.0000 17.0493 0.0000 -11.8810
# 5 0.0774 -10.4251 -4.6034 0.0000 29.8323 0.0000
# 6 0.0000 0.0000 0.0000 -11.8810 0.0000 22.5198
#
#
#
# Elastic Compliance Matrix: (Units=1/GPa)
#
#
# Indices 1 2 3 4 5 6 
#
# 1 0.014072 -0.002138 -0.006713 0.000000 -0.001820 0.000000
# 2 -0.002138 0.021273 -0.010392 0.000000 0.005836 0.000000
# 3 -0.006713 -0.010392 0.023553 0.000000 0.000020 0.000000
# 4 0.000000 0.000000 0.000000 0.092755 0.000000 0.048936
# 5 -0.001820 0.005836 0.000020 0.000000 0.035568 0.000000
# 6 0.000000 0.000000 0.000000 0.048936 0.000000 0.070223
#
#
# Mechanical properties :
#
#
# Convention : Reuss Voigt Hill
#
# Bulk Modulus (GPa) = 48.99122 50.58776 49.78949
# Shear Modulus (GPa) = 16.51621 22.52217 19.51919
#
# Velocity S-wave (km/s) = 3.14188 3.66893 3.41559
# Velocity P-wave (km/s) = 6.51483 6.94143 6.73151
#
# Compressibility (1/GPa) = 0.02041182
#
# Stress axis : x y z
#
# Youngs Moduli (GPa) = 71.06426 47.00869 42.45706
#
# Poissons Ratio (x) = 0.10051 0.28502
# Poissons Ratio (y) = 0.15194 0.44120
# Poissons Ratio (z) = 0.47707 0.48850
#
# Static dielectric constant tensor:
#      x y z
#    x 1.584300 0.000000 0.004190 
#    y 0.000000 1.570540 0.000000 
#    z 0.004190 0.000000 1.570040 
# 
# From -- ./inp_files/131221.got.cif
#   From: 2010.05.17/outbox.cif.g08.bks.cpg/sg12_66_cif.got.tgz:131221.got - 2010.06.03 13:09:07.
