data_PCOD9218950
_publ_section_title
;
Structure prediction by ZEFSAII (Michael W. Deem and Ramdas Pophale) SiO2 
 PCOD9218950
Probable space group: C 2/M
;
_chemical_formula_sum "Si O2"
_cell_formula_units_Z 64
_cell_length_a 17.757850
_cell_length_b 24.590246
_cell_length_c 7.718535
_cell_angle_alpha 90.000000
_cell_angle_beta 95.132079
_cell_angle_gamma 90.000000
_cell_volume 3356.940232
_symmetry_space_group_name_H-M "C 2/M"
_symmetry_group_IT_number 12
_symmetry_cell_setting 'monoclinic'
loop_
_space_group_symop_operation_xyz
x,y,z
-x,y,-z
-x,-y,-z
x,-y,z
1/2+x,1/2+y,z
1/2-x,1/2+y,-z
1/2-x,1/2-y,-z
1/2+x,1/2-y,z
loop_
_atom_site_type_symbol
_atom_site_label
_atom_site_fract_x
_atom_site_fract_y
_atom_site_fract_z
Si Si1 0.023681 0.750625 0.305707
Si Si2 0.337588 0.609794 0.297252
Si Si3 0.748930 0.376337 0.069636
Si Si4 0.394306 0.809062 0.162020
Si Si5 0.831001 0.236630 0.854075
Si Si6 0.846999 0.063404 0.678402
Si Si7 0.500280 0.628175 0.709938
Si Si8 0.304568 0.731500 0.359697
O O1 0.984194 0.697282 0.212774
O O2 0.000000 0.750503 0.500000
O O3 0.113091 0.756307 0.297085
O O4 0.997240 0.809415 0.225374
O O5 0.327247 0.575777 0.471639
O O6 0.420288 0.599653 0.230283
O O7 0.339636 0.672149 0.370068
O O8 0.276603 0.606160 0.129537
O O9 0.837971 0.358990 0.105604
O O10 0.698620 0.323485 0.115447
O O11 0.721011 0.419388 0.207623
O O12 0.358894 0.781040 0.325014
O O13 0.378668 0.763805 0.013945
O O14 0.755761 0.271495 0.810991
O O15 0.922988 0.097645 0.741695
O O16 0.863720 0.000000 0.699408
O O17 0.500000 0.629213 0.500000
O O18 0.250000 0.750000 0.500000
#
# Coordination Sequence:
#
# PCOD9218950 Si02
#       8
#     8   8   8   8   8   8   8   8
#     4  11  20  31  50  80 116 156 186 219 279 351
#     4  11  20  37  57  74 107 150 195 240 294 339
#     4  11  21  38  58  81 113 152 194 243 292 341
#     4  11  20  33  50  81 115 146 191 229 283 355
#     4  11  19  32  51  78 116 150 183 224 279 355
#     4  11  25  41  57  80 110 153 209 257 289 320
#     4   9  19  33  51  74 110 148 194 240 279 326
#     4  11  19  29  50  77 108 147 190 233 277 345
#
# _framework density 19.064979999999998
#
# number of rings (size 3 to 8) (size 9 to 14) (size 15 to 20)
#    0.000    1.250    5.000    3.375    1.750    3.250 
#    0.000    0.625    0.000    0.000    0.000    0.000 
#    0.000    6.500    0.000    0.000    0.000    0.000 
#
# Total GULP energy -178278.801569 kJ/mol
# GULP energy per Si atom -5571.212549 kJ/mol
# Density = 1.902159 g / cm^3
# Si number density = 19.064980 Si / 1000 Ang^3
#
#
#
# Elastic Constant Matrix: (Units=GPa)
#
#
# Indices 1 2 3 4 5 6 
#
# 1 81.3558 23.9485 13.7610 0.0000 5.2078 0.0000
# 2 23.9485 55.7898 18.8071 0.0000 4.4300 0.0000
# 3 13.7610 18.8071 63.7900 0.0000 -2.5083 0.0000
# 4 0.0000 0.0000 0.0000 15.9931 0.0000 0.0036
# 5 5.2078 4.4300 -2.5083 0.0000 27.7602 0.0000
# 6 0.0000 0.0000 0.0000 0.0036 0.0000 13.7844
#
#
#
# Elastic Compliance Matrix: (Units=1/GPa)
#
#
# Indices 1 2 3 4 5 6 
#
# 1 0.014284 -0.005454 -0.001550 0.000000 -0.001949 0.000000
# 2 -0.005454 0.022375 -0.005540 0.000000 -0.003048 0.000000
# 3 -0.001550 -0.005540 0.017753 0.000000 0.002779 0.000000
# 4 0.000000 0.000000 0.000000 0.062527 0.000000 -0.000016
# 5 -0.001949 -0.003048 0.002779 0.000000 0.037126 0.000000
# 6 0.000000 0.000000 0.000000 -0.000016 0.000000 0.072546
#
#
# Mechanical properties :
#
#
# Convention : Reuss Voigt Hill
#
# Bulk Modulus (GPa) = 34.10161 34.88542 34.49351
# Shear Modulus (GPa) = 19.12222 21.13546 20.12884
#
# Velocity S-wave (km/s) = 3.17046 3.33318 3.25284
# Velocity P-wave (km/s) = 5.59717 5.75772 5.67801
#
# Compressibility (1/GPa) = 0.02932413
#
# Stress axis : x y z
#
# Youngs Moduli (GPa) = 70.00722 44.69189 56.32706
#
# Poissons Ratio (x) = 0.24377 0.08731
# Poissons Ratio (y) = 0.38185 0.31206
# Poissons Ratio (z) = 0.10851 0.24760
#
# Static dielectric constant tensor:
#      x y z
#    x 1.765400 0.000000 0.000330 
#    y 0.000000 1.628080 0.000000 
#    z 0.000330 0.000000 1.846160 
# 
# From -- ./inp_files/77535.got.cif
#   From: 2010.05.17/outbox.cif.g08.bks.cpg/sg12_39_cif.got.tgz:77535.got - 2010.06.03 13:09:07.
