data_PCOD9218438
_publ_section_title
;
Structure prediction by ZEFSAII (Michael W. Deem and Ramdas Pophale) SiO2 
 PCOD9218438
Probable space group: C 2/M
;
_chemical_formula_sum "Si O2"
_cell_formula_units_Z 38
_cell_length_a 11.921623
_cell_length_b 14.133310
_cell_length_c 15.016476
_cell_angle_alpha 90.000000
_cell_angle_beta 47.919793
_cell_angle_gamma 90.000000
_cell_volume 1877.900484
_symmetry_space_group_name_H-M "C 2/M"
_symmetry_group_IT_number 12
_symmetry_cell_setting 'monoclinic'
loop_
_space_group_symop_operation_xyz
x,y,z
-x,y,-z
-x,-y,-z
x,-y,z
1/2+x,1/2+y,z
1/2-x,1/2+y,-z
1/2-x,1/2-y,-z
1/2+x,1/2-y,z
loop_
_atom_site_type_symbol
_atom_site_label
_atom_site_fract_x
_atom_site_fract_y
_atom_site_fract_z
Si Si1 0.500000 0.000000 0.500000
Si Si2 0.094303 0.636713 0.292999
Si Si3 0.427301 0.651284 0.754972
Si Si4 0.551620 0.390183 0.877249
Si Si5 0.410979 0.500000 0.453226
Si Si6 0.829235 0.500000 0.126210
Si Si7 0.090314 0.500000 0.712988
O O1 0.489314 0.916521 0.582495
O O2 0.087877 0.748666 0.285133
O O3 0.268151 0.609701 0.214948
O O4 0.017091 0.589680 0.247718
O O5 0.492929 0.660321 0.819814
O O6 0.539163 0.588196 0.634473
O O7 0.271375 0.591784 0.845456
O O8 0.498411 0.500000 0.899231
O O9 0.500000 0.350402 0.000000
O O10 0.500000 0.500000 0.500000
O O11 0.235234 0.500000 0.570750
O O12 0.842327 0.500000 0.225338
O O13 0.000000 0.500000 0.000000
#
# Coordination Sequence:
#
# PCOD9218438 Si02
#       7
#     2   8   8   8   4   4   4
#     4  10  24  46  64 104 142 178 226 300 352 420
#     4  11  27  43  71 103 137 181 239 290 362 420
#     4  11  26  45  70 104 137 188 240 291 355 436
#     4  11  24  46  72  97 141 188 234 296 362 423
#     4  11  23  44  65  98 142 182 234 290 360 413
#     4  11  26  45  71 101 148 184 234 295 356 420
#     4  11  25  44  65  97 136 186 230 296 354 417
#
# _framework density 20.235364000000001
#
# number of rings (size 3 to 8) (size 9 to 14) (size 15 to 20)
#    0.000    1.053    6.316    0.000   13.263    2.526 
#    0.000    0.000    0.000    0.000    0.000    0.000 
#    0.000    0.000    0.000    0.000    0.000    0.000 
#
# Total GULP energy -105819.083273 kJ/mol
# GULP energy per Si atom -5569.425435 kJ/mol
# Density = 2.018931 g / cm^3
# Si number density = 20.235364 Si / 1000 Ang^3
#
#
#
# Elastic Constant Matrix: (Units=GPa)
#
#
# Indices 1 2 3 4 5 6 
#
# 1 139.0245 30.0170 57.3048 0.0000 4.1920 0.0000
# 2 30.0170 152.6114 37.2341 0.0000 0.9971 0.0000
# 3 57.3048 37.2341 90.9843 0.0000 11.6882 0.0000
# 4 0.0000 0.0000 0.0000 12.7716 0.0000 7.6575
# 5 4.1920 0.9971 11.6882 0.0000 42.5018 0.0000
# 6 0.0000 0.0000 0.0000 7.6575 0.0000 10.9841
#
#
#
# Elastic Compliance Matrix: (Units=1/GPa)
#
#
# Indices 1 2 3 4 5 6 
#
# 1 0.009766 -0.000447 -0.006059 0.000000 0.000714 0.000000
# 2 -0.000447 0.007318 -0.002796 0.000000 0.000641 0.000000
# 3 -0.006059 -0.002796 0.016447 0.000000 -0.003860 0.000000
# 4 0.000000 0.000000 0.000000 0.134530 0.000000 -0.093787
# 5 0.000714 0.000641 -0.003860 0.000000 0.024504 0.000000
# 6 0.000000 0.000000 0.000000 -0.093787 0.000000 0.156423
#
#
# Mechanical properties :
#
#
# Convention : Reuss Voigt Hill
#
# Bulk Modulus (GPa) = 66.99341 70.19244 68.59292
# Shear Modulus (GPa) = 13.42032 30.45578 21.93805
#
# Velocity S-wave (km/s) = 2.57808 3.88374 3.29621
# Velocity P-wave (km/s) = 6.48390 7.40774 6.96116
#
# Compressibility (1/GPa) = 0.01492684
#
# Stress axis : x y z
#
# Youngs Moduli (GPa) = 102.39988 136.64103 60.80021
#
# Poissons Ratio (x) = 0.06109 0.36841
# Poissons Ratio (y) = 0.04578 0.16998
# Poissons Ratio (z) = 0.62048 0.38202
#
# Static dielectric constant tensor:
#      x y z
#    x 1.796160 0.000000 -0.042740 
#    y 0.000000 1.710740 0.000000 
#    z -0.042740 0.000000 1.741740 
# 
# From -- ./inp_files/204197.got.cif
#   From: 2010.05.17/outbox.cif.g08.bks.cpg/sg12_103_cif.got.tgz:204197.got - 2010.06.03 13:09:07.
