data_PCOD9218705
_publ_section_title
;
Structure prediction by ZEFSAII (Michael W. Deem and Ramdas Pophale) SiO2 
 PCOD9218705
Probable space group: C 2/M
;
_chemical_formula_sum "Si O2"
_cell_formula_units_Z 40
_cell_length_a 5.403022
_cell_length_b 22.729371
_cell_length_c 14.374786
_cell_angle_alpha 90.000000
_cell_angle_beta 98.934915
_cell_angle_gamma 90.000000
_cell_volume 1743.906988
_symmetry_space_group_name_H-M "C 2/M"
_symmetry_group_IT_number 12
_symmetry_cell_setting 'monoclinic'
loop_
_space_group_symop_operation_xyz
x,y,z
-x,y,-z
-x,-y,-z
x,-y,z
1/2+x,1/2+y,z
1/2-x,1/2+y,-z
1/2-x,1/2-y,-z
1/2+x,1/2-y,z
loop_
_atom_site_type_symbol
_atom_site_label
_atom_site_fract_x
_atom_site_fract_y
_atom_site_fract_z
Si Si1 0.673604 0.605903 0.783032
Si Si2 0.555718 0.784212 0.113654
Si Si3 0.929938 0.000000 0.888923
Si Si4 0.761525 0.500000 0.419305
Si Si5 0.000000 0.710968 0.500000
Si Si6 0.014716 0.500000 0.246262
Si Si7 0.373645 0.632097 0.590835
O O1 0.850964 0.652592 0.844688
O O2 0.530883 0.560493 0.845313
O O3 0.511161 0.640787 0.697042
O O4 0.831896 0.558912 0.733584
O O5 0.295548 0.759489 0.141160
O O6 0.500000 0.787985 0.000000
O O7 0.629893 0.000000 0.859372
O O8 0.000000 0.000000 0.000000
O O9 0.811332 0.500000 0.313002
O O10 0.639569 0.562558 0.424194
O O11 0.000000 0.500000 0.500000
O O12 0.750000 0.750000 0.500000
O O13 0.895395 0.664781 0.417369
O O14 0.500000 0.650806 0.500000
#
# Coordination Sequence:
#
# PCOD9218705 Si02
#       7
#     8   8   4   4   4   4   8
#     4  11  26  44  72 108 146 194 245 302 377 449
#     4  10  25  47  73 104 138 187 250 309 362 426
#     4  11  26  44  71 108 151 196 239 306 382 454
#     4  12  21  40  73 103 144 184 236 300 364 430
#     4  12  28  51  72 105 152 202 254 308 370 438
#     4  11  24  43  67 111 150 181 244 296 372 457
#     4  12  25  46  73 108 148 194 246 308 368 442
#
# _framework density 22.937004999999999
#
# number of rings (size 3 to 8) (size 9 to 14) (size 15 to 20)
#    0.000    0.800    4.000    2.100    5.600    3.200 
#    0.000    0.000    0.000    0.000    0.000    0.000 
#    0.000    0.000    0.000    0.000    0.000    0.000 
#
# Total GULP energy -111522.965727 kJ/mol
# GULP energy per Si atom -5576.148286 kJ/mol
# Density = 2.288480 g / cm^3
# Si number density = 22.937005 Si / 1000 Ang^3
#
#
#
# Elastic Constant Matrix: (Units=GPa)
#
#
# Indices 1 2 3 4 5 6 
#
# 1 99.7121 51.9028 46.7994 0.0000 27.3378 0.0000
# 2 51.9028 139.8247 30.8987 0.0000 19.2257 0.0000
# 3 46.7994 30.8987 124.9861 0.0000 31.0795 0.0000
# 4 0.0000 0.0000 0.0000 17.6067 0.0000 35.3568
# 5 27.3378 19.2257 31.0795 0.0000 43.3760 0.0000
# 6 0.0000 0.0000 0.0000 35.3568 0.0000 38.1066
#
#
#
# Elastic Compliance Matrix: (Units=1/GPa)
#
#
# Indices 1 2 3 4 5 6 
#
# 1 0.015244 -0.004183 -0.003341 0.000000 -0.005359 0.000000
# 2 -0.004183 0.008933 -0.000381 0.000000 -0.001050 0.000000
# 3 -0.003341 -0.000381 0.010684 0.000000 -0.005381 0.000000
# 4 0.000000 0.000000 0.000000 -0.065795 0.000000 0.061047
# 5 -0.005359 -0.001050 -0.005381 0.000000 0.030753 0.000000
# 6 0.000000 0.000000 0.000000 0.061047 0.000000 -0.030400
#
#
# Mechanical properties :
#
#
# Convention : Reuss Voigt Hill
#
# Bulk Modulus (GPa) = 52.49170 69.30276 60.89723
# Shear Modulus (GPa) = -593.79078 35.47934 -279.15572
#
# Velocity S-wave (km/s) = -16.10717 3.93723 -11.04399
# Velocity P-wave (km/s) = 17.97182 7.13785 11.66271
#
# Compressibility (1/GPa) = 0.01905063
#
# Stress axis : x y z
#
# Youngs Moduli (GPa) = 65.60027 111.94181 93.59744
#
# Poissons Ratio (x) = 0.46829 0.31271
# Poissons Ratio (y) = 0.27443 0.03566
# Poissons Ratio (z) = 0.21917 0.04265
#
# Static dielectric constant tensor:
#      x y z
#    x 1.857860 0.000000 -0.075340 
#    y 0.000000 1.840110 0.000000 
#    z -0.075340 0.000000 1.830510 
# 
# From -- ./inp_files/191651.got.cif
#   From: 2010.05.17/outbox.cif.g08.bks.cpg/sg12_96_cif.got.tgz:191651.got - 2010.06.03 13:09:07.
