data_PCOD9218297
_publ_section_title
;
Structure prediction by ZEFSAII (Michael W. Deem and Ramdas Pophale) SiO2 
 PCOD9218297
Probable space group: C 2/M
;
_chemical_formula_sum "Si O2"
_cell_formula_units_Z 56
_cell_length_a 24.133055
_cell_length_b 8.686602
_cell_length_c 15.455079
_cell_angle_alpha 90.000000
_cell_angle_beta 61.041638
_cell_angle_gamma 90.000000
_cell_volume 2834.833200
_symmetry_space_group_name_H-M "C 2/M"
_symmetry_group_IT_number 12
_symmetry_cell_setting 'monoclinic'
loop_
_space_group_symop_operation_xyz
x,y,z
-x,y,-z
-x,-y,-z
x,-y,z
1/2+x,1/2+y,z
1/2-x,1/2+y,-z
1/2-x,1/2-y,-z
1/2+x,1/2-y,z
loop_
_atom_site_type_symbol
_atom_site_label
_atom_site_fract_x
_atom_site_fract_y
_atom_site_fract_z
Si Si1 0.237293 0.181544 0.786769
Si Si2 0.938937 0.315129 0.810408
Si Si3 0.131596 0.821578 0.292824
Si Si4 0.189748 0.683343 0.992357
Si Si5 0.287237 0.683975 0.388756
Si Si6 0.931892 0.674329 0.505579
Si Si7 0.933656 0.183833 0.314856
O O1 0.307449 0.216810 0.768214
O O2 0.192951 0.261405 0.890798
O O3 0.234508 0.239651 0.689861
O O4 0.224724 0.000000 0.795685
O O5 0.942001 0.500000 0.799352
O O6 0.922171 0.237108 0.731298
O O7 0.007608 0.250280 0.784649
O O8 0.878261 0.274122 0.915136
O O9 0.109751 0.790364 0.406818
O O10 0.145866 0.000000 0.266970
O O11 0.195429 0.500000 0.991957
O O12 0.250000 0.750000 0.000000
O O13 0.277630 0.500000 0.398885
O O14 0.250000 0.750000 0.500000
O O15 0.362560 0.713724 0.335873
O O16 0.905417 0.500000 0.529308
O O17 0.936909 0.731625 0.404690
O O18 0.000000 0.670789 0.500000
O O19 0.941349 0.000000 0.318718
#
# Coordination Sequence:
#
# PCOD9218297 Si02
#       7
#     8   8   8   8   8   8   8
#     4  11  23  41  64  90 125 164 208 257 313 373
#     4  11  23  39  59  88 124 161 200 249 313 374
#     4  12  23  35  57  88 122 158 202 252 307 367
#     4  11  23  39  63  93 127 164 209 259 315 374
#     4  10  24  44  66  93 124 164 210 259 309 369
#     4  11  22  35  54  82 120 158 197 244 306 371
#     4  11  23  40  62  89 122 160 209 259 309 370
#
# _framework density 19.754249000000002
#
# number of rings (size 3 to 8) (size 9 to 14) (size 15 to 20)
#    0.000    1.000    2.857    4.286    0.000    6.857 
#    0.000    0.714    0.000    4.286    0.000    0.000 
#    0.000    0.000    0.000    0.000    0.000    0.000 
#
# Total GULP energy -156429.782181 kJ/mol
# GULP energy per Si atom -5586.777935 kJ/mol
# Density = 1.970929 g / cm^3
# Si number density = 19.754249 Si / 1000 Ang^3
#
#
#
# Elastic Constant Matrix: (Units=GPa)
#
#
# Indices 1 2 3 4 5 6 
#
# 1 75.2843 20.7215 32.6347 0.0000 -8.3773 0.0000
# 2 20.7215 53.9845 24.6314 0.0000 -3.3470 0.0001
# 3 32.6347 24.6314 118.7086 0.0000 -10.8353 0.0000
# 4 0.0000 0.0000 0.0000 34.3059 0.0000 -4.3200
# 5 -8.3773 -3.3470 -10.8353 0.0000 30.2625 0.0000
# 6 0.0000 0.0001 0.0000 -4.3200 0.0000 21.7035
#
#
#
# Elastic Compliance Matrix: (Units=1/GPa)
#
#
# Indices 1 2 3 4 5 6 
#
# 1 0.016274 -0.004582 -0.003265 0.000000 0.002829 0.000000
# 2 -0.004582 0.021768 -0.003260 0.000000 -0.000028 0.000000
# 3 -0.003265 -0.003260 0.010216 0.000000 0.002394 0.000000
# 4 0.000000 0.000000 0.000000 0.029899 0.000000 0.005951
# 5 0.002829 -0.000028 0.002394 0.000000 0.034681 0.000000
# 6 0.000000 0.000000 0.000000 0.005951 0.000000 0.047260
#
#
# Mechanical properties :
#
#
# Convention : Reuss Voigt Hill
#
# Bulk Modulus (GPa) = 38.39379 44.88361 41.63870
# Shear Modulus (GPa) = 26.17886 28.58704 27.38295
#
# Velocity S-wave (km/s) = 3.64432 3.80825 3.72718
# Velocity P-wave (km/s) = 6.09803 6.48902 6.29656
#
# Compressibility (1/GPa) = 0.02604588
#
# Stress axis : x y z
#
# Youngs Moduli (GPa) = 61.44679 45.93893 97.88108
#
# Poissons Ratio (x) = 0.21047 0.31959
# Poissons Ratio (y) = 0.28152 0.31907
# Poissons Ratio (z) = 0.20063 0.14975
#
# Static dielectric constant tensor:
#      x y z
#    x 1.708110 0.000000 -0.030080 
#    y 0.000000 1.667610 0.000000 
#    z -0.030080 0.000000 1.727810 
# 
# From -- ./inp_files/238407.got.cif
#   From: 2010.05.17/outbox.cif.g08.bks.cpg/sg12_120_cif.got.tgz:238407.got - 2010.06.03 13:09:07.
