data_PCOD9218300
_publ_section_title
;
Structure prediction by ZEFSAII (Michael W. Deem and Ramdas Pophale) SiO2 
 PCOD9218300
Probable space group: C 2/M
;
_chemical_formula_sum "Si O2"
_cell_formula_units_Z 28
_cell_length_a 14.028687
_cell_length_b 15.277087
_cell_length_c 8.438907
_cell_angle_alpha 90.000000
_cell_angle_beta 42.632148
_cell_angle_gamma 90.000000
_cell_volume 1224.948197
_symmetry_space_group_name_H-M "C 2/M"
_symmetry_group_IT_number 12
_symmetry_cell_setting 'monoclinic'
loop_
_space_group_symop_operation_xyz
x,y,z
-x,y,-z
-x,-y,-z
x,-y,z
1/2+x,1/2+y,z
1/2-x,1/2+y,-z
1/2-x,1/2-y,-z
1/2+x,1/2-y,z
loop_
_atom_site_type_symbol
_atom_site_label
_atom_site_fract_x
_atom_site_fract_y
_atom_site_fract_z
Si Si1 0.866741 0.331448 0.547859
Si Si2 0.748338 0.141101 0.633074
Si Si3 0.535784 0.500000 0.767553
Si Si4 0.230040 0.500000 0.158820
Si Si5 0.382493 0.000000 0.010774
O O1 0.789324 0.238246 0.633537
O O2 0.875206 0.354764 0.349684
O O3 0.780977 0.412010 0.726928
O O4 0.000000 0.321205 0.500000
O O5 0.703881 0.086615 0.839466
O O6 0.874882 0.084908 0.397081
O O7 0.500000 0.500000 0.000000
O O8 0.379199 0.500000 0.886776
O O9 0.097382 0.500000 0.200696
O O10 0.500000 0.000000 0.000000
#
# Coordination Sequence:
#
# PCOD9218300 Si02
#       5
#     8   8   4   4   4
#     4  11  23  43  66  94 131 177 218 267 327 387
#     4  10  24  44  66  96 135 174 211 277 331 381
#     4  11  21  45  70  94 130 170 226 268 323 395
#     4  12  24  40  72  97 127 178 224 266 322 390
#     4  11  24  44  66  99 133 169 221 273 326 388
#
# _framework density 22.85811
#
# number of rings (size 3 to 8) (size 9 to 14) (size 15 to 20)
#    0.000    1.143    2.857    3.000    4.000    2.286 
#   10.286    0.000    0.000    0.000    0.000    0.000 
#    0.000    0.000    0.000    0.000    0.000    0.000 
#
# Total GULP energy -78179.126066 kJ/mol
# GULP energy per Si atom -5584.223290 kJ/mol
# Density = 2.280608 g / cm^3
# Si number density = 22.858110 Si / 1000 Ang^3
#
#
#
# Elastic Constant Matrix: (Units=GPa)
#
#
# Indices 1 2 3 4 5 6 
#
# 1 168.6900 50.5617 17.2706 0.0000 7.9474 0.0000
# 2 50.5617 193.4121 46.9762 0.0000 12.6607 0.0000
# 3 17.2706 46.9762 49.8178 0.0000 8.6628 0.0000
# 4 0.0000 0.0000 0.0000 5.4970 0.0000 9.2852
# 5 7.9474 12.6607 8.6628 0.0000 30.1308 0.0000
# 6 0.0000 0.0000 0.0000 9.2852 0.0000 32.0923
#
#
#
# Elastic Compliance Matrix: (Units=1/GPa)
#
#
# Indices 1 2 3 4 5 6 
#
# 1 0.006481 -0.001463 -0.000713 0.000000 -0.000890 0.000000
# 2 -0.001463 0.007068 -0.006009 0.000000 -0.000857 0.000000
# 3 -0.000713 -0.006009 0.026857 0.000000 -0.005009 0.000000
# 4 0.000000 0.000000 0.000000 0.355809 0.000000 -0.102945
# 5 -0.000890 -0.000857 -0.005009 0.000000 0.035223 0.000000
# 6 0.000000 0.000000 0.000000 -0.102945 0.000000 0.060945
#
#
# Mechanical properties :
#
#
# Convention : Reuss Voigt Hill
#
# Bulk Modulus (GPa) = 41.60104 71.28186 56.44145
# Shear Modulus (GPa) = 9.67555 33.35144 21.51350
#
# Velocity S-wave (km/s) = 2.05963 3.82391 3.07119
# Velocity P-wave (km/s) = 4.88828 7.12381 6.10917
#
# Compressibility (1/GPa) = 0.02403786
#
# Stress axis : x y z
#
# Youngs Moduli (GPa) = 154.28674 141.47654 37.23369
#
# Poissons Ratio (x) = 0.20699 0.02653
# Poissons Ratio (y) = 0.22573 0.22374
# Poissons Ratio (z) = 0.10995 0.85013
#
# Static dielectric constant tensor:
#      x y z
#    x 1.963100 0.000000 -0.059540 
#    y 0.000000 1.800020 0.000000 
#    z -0.059540 0.000000 1.864490 
# 
# From -- ./inp_files/45114.got.cif
#   From: 2010.05.17/outbox.cif.g08.bks.cpg/sg12_23_cif.got.tgz:45114.got - 2010.06.03 13:09:07.
