data_PCOD9218420
_publ_section_title
;
Structure prediction by ZEFSAII (Michael W. Deem and Ramdas Pophale) SiO2 
 PCOD9218420
Probable space group: C 2/M
;
_chemical_formula_sum "Si O2"
_cell_formula_units_Z 44
_cell_length_a 9.378640
_cell_length_b 21.832897
_cell_length_c 10.393465
_cell_angle_alpha 90.000000
_cell_angle_beta 94.964237
_cell_angle_gamma 90.000000
_cell_volume 2120.212774
_symmetry_space_group_name_H-M "C 2/M"
_symmetry_group_IT_number 12
_symmetry_cell_setting 'monoclinic'
loop_
_space_group_symop_operation_xyz
x,y,z
-x,y,-z
-x,-y,-z
x,-y,z
1/2+x,1/2+y,z
1/2-x,1/2+y,-z
1/2-x,1/2-y,-z
1/2+x,1/2-y,z
loop_
_atom_site_type_symbol
_atom_site_label
_atom_site_fract_x
_atom_site_fract_y
_atom_site_fract_z
Si Si1 0.865844 0.367483 0.182529
Si Si2 0.000000 0.714689 0.000000
Si Si3 0.121188 0.123169 0.617843
Si Si4 0.410545 0.186573 0.615453
Si Si5 0.789906 0.500000 0.580362
Si Si6 0.922589 0.805207 0.760901
Si Si7 0.116086 0.500000 0.708858
O O1 0.732213 0.335649 0.242269
O O2 0.850952 0.439791 0.203533
O O3 0.015006 0.349775 0.262461
O O4 0.880659 0.332069 0.047619
O O5 0.051568 0.761371 0.114791
O O6 0.244820 0.171751 0.595480
O O7 0.204238 0.059164 0.621557
O O8 0.000000 0.120059 0.500000
O O9 0.043193 0.144104 0.742936
O O10 0.500000 0.165864 0.500000
O O11 0.431976 0.257826 0.644024
O O12 0.802381 0.500000 0.424013
O O13 0.949523 0.500000 0.651854
#
# Coordination Sequence:
#
# PCOD9218420 Si02
#       7
#     8   4   8   8   4   8   4
#     4  11  23  41  67  93 123 169 217 261 315 377
#     4  10  24  45  70  91 126 168 216 272 318 372
#     4  12  24  38  63  97 134 172 208 256 321 386
#     4  11  21  37  60  92 131 167 207 260 317 384
#     4  11  23  42  64  94 135 171 210 257 319 382
#     4  11  24  41  64  94 128 166 212 266 325 377
#     4  11  22  41  68  94 128 170 214 266 308 381
#
# _framework density 20.752635000000001
#
# number of rings (size 3 to 8) (size 9 to 14) (size 15 to 20)
#    0.000    0.909    1.818    6.818    0.000    4.727 
#    0.000    0.000    0.000    1.091    0.000    0.000 
#    0.000    0.000    0.000    0.000    0.000    0.000 
#
# Total GULP energy -122888.349174 kJ/mol
# GULP energy per Si atom -5585.834053 kJ/mol
# Density = 2.070540 g / cm^3
# Si number density = 20.752635 Si / 1000 Ang^3
#
#
#
# Elastic Constant Matrix: (Units=GPa)
#
#
# Indices 1 2 3 4 5 6 
#
# 1 92.5296 24.5101 19.9848 0.0000 -15.6162 0.0000
# 2 24.5101 142.6872 36.0060 0.0000 -4.0604 0.0000
# 3 19.9848 36.0060 74.3173 0.0000 -11.1456 0.0000
# 4 0.0000 0.0000 0.0000 24.5711 0.0000 -7.0756
# 5 -15.6162 -4.0604 -11.1456 0.0000 29.6824 0.0000
# 6 0.0000 0.0000 0.0000 -7.0756 0.0000 32.5309
#
#
#
# Elastic Compliance Matrix: (Units=1/GPa)
#
#
# Indices 1 2 3 4 5 6 
#
# 1 0.012568 -0.001549 -0.001769 0.000000 0.005736 0.000000
# 2 -0.001549 0.008180 -0.003710 0.000000 -0.001089 0.000000
# 3 -0.001769 -0.003710 0.016439 0.000000 0.004735 0.000000
# 4 0.000000 0.000000 0.000000 0.043418 0.000000 0.009444
# 5 0.005736 -0.001089 0.004735 0.000000 0.038337 0.000000
# 6 0.000000 0.000000 0.000000 0.009444 0.000000 0.032794
#
#
# Mechanical properties :
#
#
# Convention : Reuss Voigt Hill
#
# Bulk Modulus (GPa) = 43.23243 52.28179 47.75711
# Shear Modulus (GPa) = 28.81843 32.62576 30.72209
#
# Velocity S-wave (km/s) = 3.73052 3.96931 3.85176
# Velocity P-wave (km/s) = 6.27959 6.80108 6.54553
#
# Compressibility (1/GPa) = 0.02313079
#
# Stress axis : x y z
#
# Youngs Moduli (GPa) = 79.56824 122.25576 60.83165
#
# Poissons Ratio (x) = 0.18941 0.10760
# Poissons Ratio (y) = 0.12327 0.22566
# Poissons Ratio (z) = 0.14074 0.45353
#
# Static dielectric constant tensor:
#      x y z
#    x 1.706060 0.000000 0.014850 
#    y 0.000000 1.762850 0.000000 
#    z 0.014850 0.000000 1.812120 
# 
# From -- ./inp_files/120792.got.cif
#   From: 2010.05.17/outbox.cif.g08.bks.cpg/sg12_61_cif.got.tgz:120792.got - 2010.06.03 13:09:07.
