data_PCOD9218443
_publ_section_title
;
Structure prediction by ZEFSAII (Michael W. Deem and Ramdas Pophale) SiO2 
 PCOD9218443
Probable space group: C 2/M
;
_chemical_formula_sum "Si O2"
_cell_formula_units_Z 56
_cell_length_a 15.785122
_cell_length_b 16.758292
_cell_length_c 11.474066
_cell_angle_alpha 90.000000
_cell_angle_beta 117.923023
_cell_angle_gamma 90.000000
_cell_volume 2681.882236
_symmetry_space_group_name_H-M "C 2/M"
_symmetry_group_IT_number 12
_symmetry_cell_setting 'monoclinic'
loop_
_space_group_symop_operation_xyz
x,y,z
-x,y,-z
-x,-y,-z
x,-y,z
1/2+x,1/2+y,z
1/2-x,1/2+y,-z
1/2-x,1/2-y,-z
1/2+x,1/2-y,z
loop_
_atom_site_type_symbol
_atom_site_label
_atom_site_fract_x
_atom_site_fract_y
_atom_site_fract_z
Si Si1 0.296156 0.637872 0.754633
Si Si2 0.890252 0.302796 0.444004
Si Si3 0.441363 0.500000 0.341639
Si Si4 0.051021 0.000000 0.163451
Si Si5 0.929988 0.749476 0.719986
Si Si6 0.120730 0.828911 0.761750
Si Si7 0.987591 0.410747 0.130568
Si Si8 0.261452 0.093817 0.022748
O O1 0.196527 0.634824 0.619070
O O2 0.377599 0.574101 0.779053
O O3 0.350487 0.719370 0.757792
O O4 0.269851 0.621396 0.870327
O O5 0.888795 0.253552 0.562773
O O6 0.870906 0.242232 0.324980
O O7 0.000000 0.333502 0.500000
O O8 0.500000 0.500000 0.500000
O O9 0.486678 0.500000 0.238904
O O10 0.391344 0.413587 0.310708
O O11 0.000000 0.000000 0.000000
O O12 0.958898 0.660007 0.770846
O O13 0.026214 0.804001 0.775924
O O14 0.210496 0.846008 0.901604
O O15 0.019947 0.500000 0.184930
O O16 0.875300 0.403350 0.085546
O O17 0.000000 0.402585 0.000000
O O18 0.232936 0.000000 0.985826
#
# Coordination Sequence:
#
# PCOD9218443 Si02
#       8
#     8   8   4   4   8   8   8   8
#     4  12  25  42  72 101 138 180 222 281 347 405
#     4  10  24  46  65  97 135 179 232 282 327 400
#     4  12  22  42  68  99 141 190 229 275 348 414
#     4  12  26  46  69 109 149 176 225 291 350 413
#     4  11  24  42  68  98 138 174 224 281 335 410
#     4  11  23  40  68  99 139 182 221 281 341 404
#     4  10  25  47  67  94 134 178 228 286 344 403
#     4  11  23  42  65 101 138 174 229 282 337 410
#
# _framework density 20.880856000000001
#
# number of rings (size 3 to 8) (size 9 to 14) (size 15 to 20)
#    0.000    1.000    2.857    4.286    4.000    1.143 
#    1.286    0.357    0.000    0.000    0.000    0.000 
#    0.000    0.000    0.000    0.000    0.000    0.000 
#
# Total GULP energy -156362.665520 kJ/mol
# GULP energy per Si atom -5584.380911 kJ/mol
# Density = 2.083333 g / cm^3
# Si number density = 20.880856 Si / 1000 Ang^3
#
#
#
# Elastic Constant Matrix: (Units=GPa)
#
#
# Indices 1 2 3 4 5 6 
#
# 1 92.1564 27.7174 24.6849 0.0000 -3.8602 0.0000
# 2 27.7174 71.6269 34.9443 0.0000 16.9570 0.0000
# 3 24.6849 34.9443 53.6371 0.0000 8.7576 0.0000
# 4 0.0000 0.0000 0.0000 -2.5788 0.0000 -23.7763
# 5 -3.8602 16.9570 8.7576 0.0000 32.4774 0.0000
# 6 0.0000 0.0000 0.0000 -23.7763 0.0000 9.7843
#
#
#
# Elastic Compliance Matrix: (Units=1/GPa)
#
#
# Indices 1 2 3 4 5 6 
#
# 1 0.013495 -0.004368 -0.004184 0.000000 0.005013 0.000000
# 2 -0.004368 0.023743 -0.011872 0.000000 -0.009715 0.000000
# 3 -0.004184 -0.011872 0.028634 0.000000 -0.002020 0.000000
# 4 0.000000 0.000000 0.000000 -0.016568 0.000000 -0.040262
# 5 0.005013 -0.009715 -0.002020 0.000000 0.037003 0.000000
# 6 0.000000 0.000000 0.000000 -0.040262 0.000000 0.004367
#
#
# Mechanical properties :
#
#
# Convention : Reuss Voigt Hill
#
# Bulk Modulus (GPa) = 39.96051 43.56820 41.76435
# Shear Modulus (GPa) = 35.74907 16.60817 26.17862
#
# Velocity S-wave (km/s) = 4.14218 2.82330 3.54462
# Velocity P-wave (km/s) = 6.48505 5.61591 6.06607
#
# Compressibility (1/GPa) = 0.02502471
#
# Stress axis : x y z
#
# Youngs Moduli (GPa) = 74.09904 42.11685 34.92393
#
# Poissons Ratio (x) = 0.18397 0.14611
# Poissons Ratio (y) = 0.32367 0.41463
# Poissons Ratio (z) = 0.31000 0.50002
#
# Static dielectric constant tensor:
#      x y z
#    x 1.806830 0.000000 0.033410 
#    y 0.000000 1.792490 0.000000 
#    z 0.033410 0.000000 1.763770 
# 
# From -- ./inp_files/146277.got.cif
#   From: 2010.05.17/outbox.cif.g08.bks.cpg/sg12_74_cif.got.tgz:146277.got - 2010.06.03 13:09:07.
