data_PCOD9218777
_publ_section_title
;
Structure prediction by ZEFSAII (Michael W. Deem and Ramdas Pophale) SiO2 
 PCOD9218777
Probable space group: C 2/M
;
_chemical_formula_sum "Si O2"
_cell_formula_units_Z 36
_cell_length_a 9.107152
_cell_length_b 21.835694
_cell_length_c 14.579239
_cell_angle_alpha 90.000000
_cell_angle_beta 144.966064
_cell_angle_gamma 90.000000
_cell_volume 1664.343151
_symmetry_space_group_name_H-M "C 2/M"
_symmetry_group_IT_number 12
_symmetry_cell_setting 'monoclinic'
loop_
_space_group_symop_operation_xyz
x,y,z
-x,y,-z
-x,-y,-z
x,-y,z
1/2+x,1/2+y,z
1/2-x,1/2+y,-z
1/2-x,1/2-y,-z
1/2+x,1/2-y,z
loop_
_atom_site_type_symbol
_atom_site_label
_atom_site_fract_x
_atom_site_fract_y
_atom_site_fract_z
Si Si1 0.838288 0.500000 0.072134
Si Si2 0.270240 0.000000 0.256725
Si Si3 0.597857 0.874782 0.154767
Si Si4 0.500000 0.893200 0.500000
Si Si5 0.080332 0.805267 0.372083
Si Si6 0.234143 0.289154 0.900310
O O1 0.823234 0.500000 0.175256
O O2 0.997780 0.442824 0.116882
O O3 0.539294 0.500000 0.886888
O O4 0.395452 0.939527 0.367906
O O5 0.460559 0.840605 0.169314
O O6 0.894863 0.857003 0.320724
O O7 0.500000 0.858396 0.000000
O O8 0.271370 0.846897 0.410294
O O9 0.250000 0.750000 0.500000
O O10 0.865117 0.760644 0.220660
O O11 0.500000 0.315309 0.000000
O O12 0.250000 0.250000 0.000000
#
# Coordination Sequence:
#
# PCOD9218777 Si02
#       6
#     4   4   8   4   8   8
#     4  11  27  45  79 101 134 187 257 300 345 424
#     4  10  26  49  71 104 133 197 242 297 357 425
#     4  12  25  46  72 107 143 186 241 301 356 425
#     4  11  26  48  70  96 154 191 228 294 376 427
#     4  12  26  43  71 106 145 186 232 293 363 434
#     4  12  24  44  71 103 141 187 238 292 362 426
#
# _framework density 21.630154000000001
#
# number of rings (size 3 to 8) (size 9 to 14) (size 15 to 20)
#    0.000    0.444    4.444    3.000    6.222    1.778 
#    0.000    1.111    0.000    0.000    0.000    0.000 
#    0.000    0.000    0.000    0.000    0.000    0.000 
#
# Total GULP energy -100274.282680 kJ/mol
# GULP energy per Si atom -5570.793482 kJ/mol
# Density = 2.158092 g / cm^3
# Si number density = 21.630154 Si / 1000 Ang^3
#
#
#
# Elastic Constant Matrix: (Units=GPa)
#
#
# Indices 1 2 3 4 5 6 
#
# 1 127.5384 29.0957 23.3759 0.0002 49.2536 -0.0001
# 2 29.0957 108.2413 12.6746 0.0010 21.3004 0.0000
# 3 23.3759 12.6746 63.6024 -0.0019 14.8590 -0.0004
# 4 0.0002 0.0010 -0.0019 -14.0330 -0.0007 -12.1209
# 5 49.2536 21.3004 14.8590 -0.0007 42.7633 -0.0001
# 6 -0.0001 0.0000 -0.0004 -12.1209 -0.0001 36.0923
#
#
#
# Elastic Compliance Matrix: (Units=1/GPa)
#
#
# Indices 1 2 3 4 5 6 
#
# 1 0.014291 -0.000588 -0.001478 0.000001 -0.015653 0.000000
# 2 -0.000588 0.010317 -0.000868 0.000001 -0.004160 0.000000
# 3 -0.001478 -0.000868 0.017348 -0.000002 -0.003893 0.000000
# 4 0.000001 0.000001 -0.000002 -0.055238 -0.000002 -0.018551
# 5 -0.015653 -0.004160 -0.003893 -0.000002 0.044839 -0.000001
# 6 0.000000 0.000000 0.000000 -0.018551 -0.000001 0.021477
#
#
# Mechanical properties :
#
#
# Convention : Reuss Voigt Hill
#
# Bulk Modulus (GPa) = 27.70996 47.74164 37.72580
# Shear Modulus (GPa) = 70.48998 28.58025 49.53512
#
# Velocity S-wave (km/s) = 5.71485 3.63893 4.79069
# Velocity P-wave (km/s) = 7.50897 6.30678 6.93398
#
# Compressibility (1/GPa) = 0.03608811
#
# Stress axis : x y z
#
# Youngs Moduli (GPa) = 69.97405 96.92787 57.64196
#
# Poissons Ratio (x) = 0.05699 0.08521
# Poissons Ratio (y) = 0.04114 0.05003
# Poissons Ratio (z) = 0.10344 0.08413
#
# Static dielectric constant tensor:
#      x y z
#    x 1.863520 -0.000020 -0.016930 
#    y -0.000020 -8.337310 -0.000050 
#    z -0.016930 -0.000050 1.893490 
# 
# From -- ./inp_files/197631.got.cif
#   From: 2010.05.17/outbox.cif.g08.bks.cpg/sg12_99_cif.got.tgz:197631.got - 2010.06.03 13:09:07.
