data_PCOD9218016
_publ_section_title
;
Structure prediction by ZEFSAII (Michael W. Deem and Ramdas Pophale) SiO2 
 PCOD9218016
Probable space group: C 2/M
;
_chemical_formula_sum "Si O2"
_cell_formula_units_Z 52
_cell_length_a 20.034370
_cell_length_b 9.220505
_cell_length_c 19.587454
_cell_angle_alpha 90.000000
_cell_angle_beta 46.102750
_cell_angle_gamma 90.000000
_cell_volume 2607.313410
_symmetry_space_group_name_H-M "C 2/M"
_symmetry_group_IT_number 12
_symmetry_cell_setting 'monoclinic'
loop_
_space_group_symop_operation_xyz
x,y,z
-x,y,-z
-x,-y,-z
x,-y,z
1/2+x,1/2+y,z
1/2-x,1/2+y,-z
1/2-x,1/2-y,-z
1/2+x,1/2-y,z
loop_
_atom_site_type_symbol
_atom_site_label
_atom_site_fract_x
_atom_site_fract_y
_atom_site_fract_z
Si Si1 0.706344 0.670687 0.713282
Si Si2 0.106675 0.758083 0.101500
Si Si3 0.552132 0.830095 0.891560
Si Si4 0.015930 0.166082 0.307966
Si Si5 0.416181 0.170065 0.612067
Si Si6 0.250602 0.500000 0.033603
Si Si7 0.831628 0.326785 0.400757
O O1 0.688231 0.500000 0.713640
O O2 0.642495 0.729949 0.819584
O O3 0.815459 0.688046 0.649809
O O4 0.677088 0.766431 0.669507
O O5 0.171315 0.624752 0.076005
O O6 0.019985 0.709000 0.117253
O O7 0.070448 0.826261 0.198083
O O8 0.169108 0.873471 0.017548
O O9 0.578078 0.000000 0.867840
O O10 0.500000 0.808692 0.000000
O O11 0.927763 0.270545 0.363438
O O12 0.075148 0.227794 0.328609
O O13 0.987303 0.000000 0.340897
O O14 0.500000 0.200708 0.500000
O O15 0.424338 0.000000 0.626554
O O16 0.825279 0.500000 0.408111
O O17 0.750000 0.250000 0.500000
#
# Coordination Sequence:
#
# PCOD9218016 Si02
#       7
#     8   8   8   8   8   4   8
#     4  11  24  43  68 101 139 180 230 282 343 412
#     4  11  23  45  65 100 130 178 221 283 327 404
#     4  11  25  45  68  95 136 183 230 279 341 407
#     4  12  25  42  71 101 137 178 226 283 335 403
#     4  10  24  46  69  99 138 180 226 282 346 409
#     4  10  24  40  68  92 136 170 226 276 340 386
#     4  12  25  42  70 102 135 178 224 279 344 409
#
# _framework density 19.943901
#
# number of rings (size 3 to 8) (size 9 to 14) (size 15 to 20)
#    0.000    0.923    3.077    3.231    3.231    5.538 
#    2.769    0.000    0.000    0.000    0.000    0.000 
#    0.000    0.000    0.000    0.000    0.000    0.000 
#
# Total GULP energy -144849.451030 kJ/mol
# GULP energy per Si atom -5571.132732 kJ/mol
# Density = 1.989851 g / cm^3
# Si number density = 19.943901 Si / 1000 Ang^3
#
#
#
# Elastic Constant Matrix: (Units=GPa)
#
#
# Indices 1 2 3 4 5 6 
#
# 1 34.6040 14.3278 11.7287 0.0000 -18.1857 0.0000
# 2 14.3278 135.4691 25.7750 0.0000 -14.3763 0.0000
# 3 11.7287 25.7750 54.6131 0.0000 -9.6697 0.0000
# 4 0.0000 0.0000 0.0000 26.3104 0.0000 -7.7082
# 5 -18.1857 -14.3763 -9.6697 0.0000 36.5939 0.0000
# 6 0.0000 0.0000 0.0000 -7.7082 0.0000 14.1713
#
#
#
# Elastic Compliance Matrix: (Units=1/GPa)
#
#
# Indices 1 2 3 4 5 6 
#
# 1 0.040824 -0.001443 -0.004820 0.000000 0.018448 0.000000
# 2 -0.001443 0.008347 -0.003332 0.000000 0.001682 0.000000
# 3 -0.004820 -0.003332 0.021257 0.000000 0.001913 0.000000
# 4 0.000000 0.000000 0.000000 0.045213 0.000000 0.024592
# 5 0.018448 0.001682 0.001913 0.000000 0.037661 0.000000
# 6 0.000000 0.000000 0.000000 0.024592 0.000000 0.083942
#
#
# Mechanical properties :
#
#
# Convention : Reuss Voigt Hill
#
# Bulk Modulus (GPa) = 19.51662 36.48328 27.99995
# Shear Modulus (GPa) = 18.28071 26.93875 22.60973
#
# Velocity S-wave (km/s) = 3.03084 3.67921 3.37065
# Velocity P-wave (km/s) = 4.69627 6.03170 5.40539
#
# Compressibility (1/GPa) = 0.05123839
#
# Stress axis : x y z
#
# Youngs Moduli (GPa) = 24.49512 119.80738 47.04362
#
# Poissons Ratio (x) = 0.17288 0.22676
# Poissons Ratio (y) = 0.03535 0.15673
# Poissons Ratio (z) = 0.11807 0.39916
#
# Static dielectric constant tensor:
#      x y z
#    x 1.653180 0.000000 -0.001080 
#    y 0.000000 1.670800 0.000000 
#    z -0.001080 0.000000 1.734490 
# 
# From -- ./inp_files/282072.got.cif
#   From: 2010.05.17/outbox.cif.g08.bks.cpg/sg12_142_cif.got.tgz:282072.got - 2010.06.03 13:09:07.
