data_PCOD9218637
_publ_section_title
;
Structure prediction by ZEFSAII (Michael W. Deem and Ramdas Pophale) SiO2 
 PCOD9218637
Probable space group: C 2/M
;
_chemical_formula_sum "Si O2"
_cell_formula_units_Z 36
_cell_length_a 11.393561
_cell_length_b 22.875248
_cell_length_c 6.961567
_cell_angle_alpha 90.000000
_cell_angle_beta 128.398390
_cell_angle_gamma 90.000000
_cell_volume 1421.962664
_symmetry_space_group_name_H-M "C 2/M"
_symmetry_group_IT_number 12
_symmetry_cell_setting 'monoclinic'
loop_
_space_group_symop_operation_xyz
x,y,z
-x,y,-z
-x,-y,-z
x,-y,z
1/2+x,1/2+y,z
1/2-x,1/2+y,-z
1/2-x,1/2-y,-z
1/2+x,1/2-y,z
loop_
_atom_site_type_symbol
_atom_site_label
_atom_site_fract_x
_atom_site_fract_y
_atom_site_fract_z
Si Si1 0.500000 0.690753 0.000000
Si Si2 0.631630 0.900182 0.987780
Si Si3 0.479834 0.794968 0.707011
Si Si4 0.278418 0.113801 0.327715
Si Si5 0.609632 0.500000 0.247393
Si Si6 0.123984 0.000000 0.737226
O O1 0.545563 0.734003 0.217600
O O2 0.641198 0.650502 0.095355
O O3 0.614397 0.828563 0.959439
O O4 0.617336 0.907516 0.741742
O O5 0.500000 0.920012 0.000000
O O6 0.776772 0.940309 0.169602
O O7 0.500000 0.784197 0.500000
O O8 0.649303 0.844030 0.438900
O O9 0.205794 0.058581 0.348862
O O10 0.564432 0.500000 0.439588
O O11 0.418021 0.500000 0.040366
#
# Coordination Sequence:
#
# PCOD9218637 Si02
#       6
#     4   8   8   8   4   4
#     4  12  22  47  72 103 152 182 244 314 342 428
#     4  11  23  46  66 100 147 187 237 295 353 435
#     4  10  25  43  69 108 139 196 242 285 370 428
#     4  11  24  45  75 104 140 192 243 292 370 426
#     4  12  22  47  69 103 139 181 232 304 360 418
#     4  12  27  41  70 109 140 188 246 296 369 418
#
# _framework density 25.317122000000001
#
# number of rings (size 3 to 8) (size 9 to 14) (size 15 to 20)
#    0.000    0.889    4.444    1.000    3.111    4.444 
#    4.000    4.444    0.000    0.000    0.000    0.000 
#    0.000    0.000    0.000    0.000    0.000    0.000 
#
# Total GULP energy -100336.701442 kJ/mol
# GULP energy per Si atom -5574.261191 kJ/mol
# Density = 2.525950 g / cm^3
# Si number density = 25.317122 Si / 1000 Ang^3
#
#
#
# Elastic Constant Matrix: (Units=GPa)
#
#
# Indices 1 2 3 4 5 6 
#
# 1 190.8082 80.3099 39.8984 0.0000 -26.2140 0.0000
# 2 80.3099 152.6618 48.4099 0.0000 -5.5128 0.0000
# 3 39.8984 48.4099 158.4127 0.0000 -14.6636 0.0000
# 4 0.0000 0.0000 0.0000 33.1882 0.0000 -5.2831
# 5 -26.2140 -5.5128 -14.6636 0.0000 40.1807 0.0000
# 6 0.0000 0.0000 0.0000 -5.2831 0.0000 29.1495
#
#
#
# Elastic Compliance Matrix: (Units=1/GPa)
#
#
# Indices 1 2 3 4 5 6 
#
# 1 0.007428 -0.003639 -0.000369 0.000000 0.004212 0.000000
# 2 -0.003639 0.009037 -0.002018 0.000000 -0.001871 0.000000
# 3 -0.000369 -0.002018 0.007218 0.000000 0.002117 0.000000
# 4 0.000000 0.000000 0.000000 0.031026 0.000000 0.005623
# 5 0.004212 -0.001871 0.002117 0.000000 0.028151 0.000000
# 6 0.000000 0.000000 0.000000 0.005623 0.000000 0.035325
#
#
# Mechanical properties :
#
#
# Convention : Reuss Voigt Hill
#
# Bulk Modulus (GPa) = 85.97328 93.23547 89.60438
# Shear Modulus (GPa) = 37.28125 42.72130 40.00128
#
# Velocity S-wave (km/s) = 3.84157 4.11231 3.97924
# Velocity P-wave (km/s) = 7.32865 7.71072 7.52211
#
# Compressibility (1/GPa) = 0.01163152
#
# Stress axis : x y z
#
# Youngs Moduli (GPa) = 134.62247 110.65570 138.53669
#
# Poissons Ratio (x) = 0.40263 0.05113
# Poissons Ratio (y) = 0.48983 0.27962
# Poissons Ratio (z) = 0.04968 0.22335
#
# Static dielectric constant tensor:
#      x y z
#    x 2.226760 0.000000 -0.174070 
#    y 0.000000 1.872480 0.000000 
#    z -0.174070 0.000000 2.272180 
# 
# From -- ./inp_files/49017.got.cif
#   From: 2010.05.17/outbox.cif.g08.bks.cpg/sg12_25_cif.got.tgz:49017.got - 2010.06.03 13:09:07.
