data_PCOD9218733
_publ_section_title
;
Structure prediction by ZEFSAII (Michael W. Deem and Ramdas Pophale) SiO2 
 PCOD9218733
Probable space group: C 2/M
;
_chemical_formula_sum "Si O2"
_cell_formula_units_Z 44
_cell_length_a 9.625897
_cell_length_b 21.671822
_cell_length_c 10.815756
_cell_angle_alpha 90.000000
_cell_angle_beta 70.003517
_cell_angle_gamma 90.000000
_cell_volume 2120.259583
_symmetry_space_group_name_H-M "C 2/M"
_symmetry_group_IT_number 12
_symmetry_cell_setting 'monoclinic'
loop_
_space_group_symop_operation_xyz
x,y,z
-x,y,-z
-x,-y,-z
x,-y,z
1/2+x,1/2+y,z
1/2-x,1/2+y,-z
1/2-x,1/2-y,-z
1/2+x,1/2-y,z
loop_
_atom_site_type_symbol
_atom_site_label
_atom_site_fract_x
_atom_site_fract_y
_atom_site_fract_z
Si Si1 0.152364 0.278588 0.246803
Si Si2 0.932103 0.378629 0.885834
Si Si3 0.000000 0.800823 0.500000
Si Si4 0.230495 0.500000 0.420394
Si Si5 0.622795 0.670747 0.067077
Si Si6 0.122445 0.129179 0.684406
Si Si7 0.023432 0.500000 0.707148
O O1 0.031290 0.322115 0.217020
O O2 0.090331 0.241265 0.379623
O O3 0.186966 0.227776 0.129814
O O4 0.272145 0.324869 0.269454
O O5 0.988357 0.440405 0.802326
O O6 0.755866 0.367936 0.964719
O O7 0.000000 0.373323 0.000000
O O8 0.898040 0.841781 0.443995
O O9 0.317114 0.561441 0.356402
O O10 0.093613 0.500000 0.368017
O O11 0.176033 0.500000 0.580857
O O12 0.531245 0.630289 0.193743
O O13 0.500000 0.689537 0.000000
#
# Coordination Sequence:
#
# PCOD9218733 Si02
#       7
#     8   8   4   4   8   8   4
#     4  11  23  40  68  98 139 178 227 285 345 410
#     4  12  26  42  70 101 141 185 232 283 343 409
#     4  10  26  39  66 103 138 180 236 280 358 402
#     4  11  24  46  75  97 137 181 246 280 347 401
#     4  11  23  43  67 102 140 179 231 277 355 410
#     4  11  24  44  67 102 136 183 230 291 342 409
#     4  11  25  45  67 101 136 187 238 285 332 417
#
# _framework density 20.752175000000001
#
# number of rings (size 3 to 8) (size 9 to 14) (size 15 to 20)
#    0.000    0.909    3.636    1.909    7.636    4.000 
#    0.000    1.818    0.000    0.000    0.000    0.000 
#    0.000    0.000    0.000    0.000    0.000    0.000 
#
# Total GULP energy -122748.025367 kJ/mol
# GULP energy per Si atom -5579.455698 kJ/mol
# Density = 2.070494 g / cm^3
# Si number density = 20.752175 Si / 1000 Ang^3
#
#
#
# Elastic Constant Matrix: (Units=GPa)
#
#
# Indices 1 2 3 4 5 6 
#
# 1 77.2323 43.6952 49.0145 0.0000 17.6761 0.0000
# 2 43.6952 102.9372 49.6781 0.0000 -15.6368 0.0000
# 3 49.0145 49.6781 152.3536 0.0000 13.4209 0.0000
# 4 0.0000 0.0000 0.0000 215.9486 0.0000 -101.0455
# 5 17.6761 -15.6368 13.4209 0.0000 37.5514 0.0000
# 6 0.0000 0.0000 0.0000 -101.0455 0.0000 89.9851
#
#
#
# Elastic Compliance Matrix: (Units=1/GPa)
#
#
# Indices 1 2 3 4 5 6 
#
# 1 0.024801 -0.011484 -0.002875 0.000000 -0.015429 0.000000
# 2 -0.011484 0.018523 -0.003615 0.000000 0.014411 0.000000
# 3 -0.002875 -0.003615 0.008963 0.000000 -0.003355 0.000000
# 4 0.000000 0.000000 0.000000 0.009758 0.000000 0.010957
# 5 -0.015429 0.014411 -0.003355 0.000000 0.041093 0.000000
# 6 0.000000 0.000000 0.000000 0.010957 0.000000 0.023417
#
#
# Mechanical properties :
#
#
# Convention : Reuss Voigt Hill
#
# Bulk Modulus (GPa) = 61.20190 68.58874 64.89532
# Shear Modulus (GPa) = 29.77127 81.37270 55.57198
#
# Velocity S-wave (km/s) = 3.79173 6.26871 5.18044
# Velocity P-wave (km/s) = 6.98036 9.24764 8.19281
#
# Compressibility (1/GPa) = 0.01633936
#
# Stress axis : x y z
#
# Youngs Moduli (GPa) = 40.32124 53.98740 111.57122
#
# Poissons Ratio (x) = 0.61997 0.32079
# Poissons Ratio (y) = 0.46304 0.40330
# Poissons Ratio (z) = 0.11593 0.19515
#
# Static dielectric constant tensor:
#      x y z
#    x 1.894750 0.000000 0.087430 
#    y 0.000000 1.736100 0.000000 
#    z 0.087430 0.000000 1.868350 
# 
# From -- ./inp_files/120768.got.cif
#   From: 2010.05.17/outbox.cif.g08.bks.cpg/sg12_61_cif.got.tgz:120768.got - 2010.06.03 13:09:07.
