data_PCOD9218587
_publ_section_title
;
Structure prediction by ZEFSAII (Michael W. Deem and Ramdas Pophale) SiO2 
 PCOD9218587
Probable space group: C 2/M
;
_chemical_formula_sum "Si O2"
_cell_formula_units_Z 56
_cell_length_a 8.824854
_cell_length_b 30.438486
_cell_length_c 12.370741
_cell_angle_alpha 90.000000
_cell_angle_beta 123.552461
_cell_angle_gamma 90.000000
_cell_volume 2769.296274
_symmetry_space_group_name_H-M "C 2/M"
_symmetry_group_IT_number 12
_symmetry_cell_setting 'monoclinic'
loop_
_space_group_symop_operation_xyz
x,y,z
-x,y,-z
-x,-y,-z
x,-y,z
1/2+x,1/2+y,z
1/2-x,1/2+y,-z
1/2-x,1/2-y,-z
1/2+x,1/2-y,z
loop_
_atom_site_type_symbol
_atom_site_label
_atom_site_fract_x
_atom_site_fract_y
_atom_site_fract_z
Si Si1 0.000000 0.794347 0.500000
Si Si2 0.906960 0.500000 0.737849
Si Si3 0.679137 0.081599 0.144817
Si Si4 0.097709 0.261476 0.737893
Si Si5 0.980983 0.796299 0.866671
Si Si6 0.475333 0.401195 0.863645
Si Si7 0.867205 0.345458 0.692733
Si Si8 0.936617 0.422955 0.353903
O O1 0.988300 0.763336 0.600659
O O2 0.175874 0.825275 0.580289
O O3 0.001421 0.461675 0.699951
O O4 0.818440 0.539015 0.778782
O O5 0.663099 0.125731 0.211264
O O6 0.856815 0.081744 0.140165
O O7 0.500000 0.079016 0.000000
O O8 0.284099 0.277454 0.757813
O O9 0.124029 0.226303 0.843894
O O10 0.001404 0.303792 0.752506
O O11 0.983125 0.848441 0.858239
O O12 0.000000 0.785299 0.000000
O O13 0.279632 0.416461 0.743674
O O14 0.500000 0.413025 0.000000
O O15 0.960785 0.378737 0.645224
O O16 0.000000 0.432459 0.500000
#
# Coordination Sequence:
#
# PCOD9218587 Si02
#       8
#     4   4   8   8   8   8   8   8
#     4  12  26  42  66  95 140 185 240 280 340 412
#     4  10  24  50  69 110 138 179 219 281 355 420
#     4  11  25  46  75 102 140 178 226 284 349 422
#     4  12  24  42  62  96 133 184 232 288 332 400
#     4  11  25  41  64  95 137 176 236 287 344 395
#     4  11  24  44  71 105 136 183 234 283 349 415
#     4  11  25  41  65  97 136 180 233 280 342 404
#     4  11  25  44  75 100 142 177 231 287 348 411
#
# _framework density 20.221744000000001
#
# number of rings (size 3 to 8) (size 9 to 14) (size 15 to 20)
#    0.000    0.857    2.857    3.857    7.000    1.143 
#    0.000    2.143    0.000    0.000    0.000    0.000 
#    0.000    0.000    0.000    0.000    0.000    0.000 
#
# Total GULP energy -156027.301444 kJ/mol
# GULP energy per Si atom -5572.403623 kJ/mol
# Density = 2.017572 g / cm^3
# Si number density = 20.221744 Si / 1000 Ang^3
#
#
#
# Elastic Constant Matrix: (Units=GPa)
#
#
# Indices 1 2 3 4 5 6 
#
# 1 154.0297 60.7880 50.5816 0.0000 -14.8210 0.0000
# 2 60.7880 119.5329 36.1810 0.0000 -12.7681 0.0000
# 3 50.5816 36.1810 52.2006 0.0000 -5.5762 0.0000
# 4 0.0000 0.0000 0.0000 -2.7982 0.0000 -7.6855
# 5 -14.8210 -12.7681 -5.5762 0.0000 33.4593 0.0000
# 6 0.0000 0.0000 0.0000 -7.6855 0.0000 -3.1883
#
#
#
# Elastic Compliance Matrix: (Units=1/GPa)
#
#
# Indices 1 2 3 4 5 6 
#
# 1 0.010365 -0.002610 -0.007992 0.000000 0.002263 0.000000
# 2 -0.002610 0.011522 -0.005203 0.000000 0.002373 0.000000
# 3 -0.007992 -0.005203 0.030460 0.000000 -0.000450 0.000000
# 4 0.000000 0.000000 0.000000 0.063582 0.000000 -0.153266
# 5 0.002263 0.002373 -0.000450 0.000000 0.031720 0.000000
# 6 0.000000 0.000000 0.000000 -0.153266 0.000000 0.055803
#
#
# Mechanical properties :
#
#
# Convention : Reuss Voigt Hill
#
# Bulk Modulus (GPa) = 48.22808 68.98495 58.60652
# Shear Modulus (GPa) = 20.66330 17.37539 19.01935
#
# Velocity S-wave (km/s) = 3.20008 2.93446 3.07015
# Velocity P-wave (km/s) = 6.12825 6.75794 6.45078
#
# Compressibility (1/GPa) = 0.02073481
#
# Stress axis : x y z
#
# Youngs Moduli (GPa) = 96.48155 86.79289 32.83006
#
# Poissons Ratio (x) = 0.22653 0.26239
# Poissons Ratio (y) = 0.25181 0.17082
# Poissons Ratio (z) = 0.77112 0.45161
#
# Static dielectric constant tensor:
#      x y z
#    x 1.697560 0.000000 0.006490 
#    y 0.000000 1.680230 0.000000 
#    z 0.006490 0.000000 1.723200 
# 
# From -- ./inp_files/125873.got.cif
#   From: 2010.05.17/outbox.cif.g08.bks.cpg/sg12_63_cif.got.tgz:125873.got - 2010.06.03 13:09:07.
