data_PCOD9218459
_publ_section_title
;
Structure prediction by ZEFSAII (Michael W. Deem and Ramdas Pophale) SiO2 
 PCOD9218459
Probable space group: C 2/M
;
_chemical_formula_sum "Si O2"
_cell_formula_units_Z 26
_cell_length_a 8.980374
_cell_length_b 17.031674
_cell_length_c 9.173876
_cell_angle_alpha 90.000000
_cell_angle_beta 130.315669
_cell_angle_gamma 90.000000
_cell_volume 1069.891128
_symmetry_space_group_name_H-M "C 2/M"
_symmetry_group_IT_number 12
_symmetry_cell_setting 'monoclinic'
loop_
_space_group_symop_operation_xyz
x,y,z
-x,y,-z
-x,-y,-z
x,-y,z
1/2+x,1/2+y,z
1/2-x,1/2+y,-z
1/2-x,1/2-y,-z
1/2+x,1/2-y,z
loop_
_atom_site_type_symbol
_atom_site_label
_atom_site_fract_x
_atom_site_fract_y
_atom_site_fract_z
Si Si1 0.416248 0.582730 0.733121
Si Si2 0.154387 0.363164 0.995621
Si Si3 0.000000 0.000000 0.500000
Si Si4 0.163962 0.717974 0.715007
O O1 0.340171 0.500000 0.749932
O O2 0.646351 0.591710 0.912034
O O3 0.414490 0.567155 0.559161
O O4 0.306922 0.658537 0.721199
O O5 0.221434 0.288469 0.135686
O O6 0.072515 0.331647 0.791307
O O7 0.000000 0.406976 0.000000
O O8 0.000000 0.744949 0.500000
#
# Coordination Sequence:
#
# PCOD9218459 Si02
#       4
#     8   8   2   8
#     4  10  24  46  68  96 141 172 226 277 337 395
#     4  11  25  42  67 104 135 175 230 276 335 403
#     4   8  24  44  70 100 132 182 220 284 332 404
#     4  11  25  42  70 100 136 180 225 278 338 398
#
# _framework density 24.301538000000001
#
# number of rings (size 3 to 8) (size 9 to 14) (size 15 to 20)
#    0.923    0.615    0.000    4.615    6.462    6.154 
#    0.000    0.000    0.000    0.000    0.000    0.000 
#    0.000    0.000    0.000    0.000    0.000    0.000 
#
# Total GULP energy -72429.820650 kJ/mol
# GULP energy per Si atom -5571.524665 kJ/mol
# Density = 2.424623 g / cm^3
# Si number density = 24.301538 Si / 1000 Ang^3
#
#
#
# Elastic Constant Matrix: (Units=GPa)
#
#
# Indices 1 2 3 4 5 6 
#
# 1 83.9765 19.9577 41.3813 0.0000 -27.5361 0.0000
# 2 19.9577 124.7298 20.4225 0.0000 -12.2471 0.0000
# 3 41.3813 20.4225 93.9776 0.0000 -15.0754 0.0000
# 4 0.0000 0.0000 0.0000 -6.1092 0.0000 3.5370
# 5 -27.5361 -12.2471 -15.0754 0.0000 35.2505 0.0000
# 6 0.0000 0.0000 0.0000 3.5370 0.0000 26.0320
#
#
#
# Elastic Compliance Matrix: (Units=1/GPa)
#
#
# Indices 1 2 3 4 5 6 
#
# 1 0.019150 -0.000854 -0.006329 0.000000 0.011956 0.000000
# 2 -0.000854 0.008524 -0.001190 0.000000 0.001786 0.000000
# 3 -0.006329 -0.001190 0.013772 0.000000 0.000532 0.000000
# 4 0.000000 0.000000 0.000000 -0.151750 0.000000 0.020619
# 5 0.011956 0.001786 0.000532 0.000000 0.038556 0.000000
# 6 0.000000 0.000000 0.000000 0.020619 0.000000 0.035613
#
#
# Mechanical properties :
#
#
# Convention : Reuss Voigt Hill
#
# Bulk Modulus (GPa) = 40.48549 51.80079 46.14314
# Shear Modulus (GPa) = -448.14949 25.76283 -211.19333
#
# Velocity S-wave (km/s) = -13.59457 3.25950 -9.33242
# Velocity P-wave (km/s) = 15.15654 5.96053 9.85375
#
# Compressibility (1/GPa) = 0.02470020
#
# Stress axis : x y z
#
# Youngs Moduli (GPa) = 52.21899 117.31408 72.61297
#
# Poissons Ratio (x) = 0.10018 0.45956
# Poissons Ratio (y) = 0.04459 0.08641
# Poissons Ratio (z) = 0.33049 0.13960
#
# Static dielectric constant tensor:
#      x y z
#    x 1.970550 0.000000 -0.008930 
#    y 0.000000 1.929190 0.000000 
#    z -0.008930 0.000000 1.958110 
# 
# From -- ./inp_files/37837.got.cif
#   From: 2010.05.17/outbox.cif.g08.bks.cpg/sg12_19_cif.got.tgz:37837.got - 2010.06.03 13:09:07.
