data_PCOD9218660
_publ_section_title
;
Structure prediction by ZEFSAII (Michael W. Deem and Ramdas Pophale) SiO2 
 PCOD9218660
Probable space group: C 2/M
;
_chemical_formula_sum "Si O2"
_cell_formula_units_Z 36
_cell_length_a 21.757565
_cell_length_b 12.160792
_cell_length_c 20.639037
_cell_angle_alpha 90.000000
_cell_angle_beta 20.253063
_cell_angle_gamma 90.000000
_cell_volume 1890.373017
_symmetry_space_group_name_H-M "C 2/M"
_symmetry_group_IT_number 12
_symmetry_cell_setting 'monoclinic'
loop_
_space_group_symop_operation_xyz
x,y,z
-x,y,-z
-x,-y,-z
x,-y,z
1/2+x,1/2+y,z
1/2-x,1/2+y,-z
1/2-x,1/2-y,-z
1/2+x,1/2-y,z
loop_
_atom_site_type_symbol
_atom_site_label
_atom_site_fract_x
_atom_site_fract_y
_atom_site_fract_z
Si Si1 0.012547 0.875804 0.881625
Si Si2 0.776573 0.500000 0.399102
Si Si3 0.231297 0.796087 0.205385
Si Si4 0.818148 0.500000 0.027218
Si Si5 0.180686 0.205248 0.403730
Si Si6 0.972851 0.000000 0.797376
O O1 0.194250 0.808233 0.704569
O O2 0.033709 0.000000 0.886493
O O3 0.862493 0.806167 0.066103
O O4 0.955663 0.896578 0.863007
O O5 0.719708 0.606862 0.414327
O O6 0.667289 0.500000 0.573453
O O7 0.987868 0.500000 0.196147
O O8 0.295091 0.893827 0.095788
O O9 0.229591 0.831523 0.282170
O O10 0.027944 0.767759 0.389149
O O11 0.668086 0.500000 0.120629
#
# Coordination Sequence:
#
# PCOD9218660 Si02
#       6
#     8   4   8   4   8   4
#     4  10  25  45  62  94 128 183 215 254 308 390
#     4  12  23  41  67 101 126 167 213 269 330 378
#     4  11  23  41  69  99 130 164 211 275 328 374
#     4  12  23  41  67 101 126 167 213 269 330 378
#     4  11  23  41  69  99 130 164 211 275 328 374
#     4  10  26  46  60  94 136 174 212 262 310 386
#
# _framework density 19.043862000000001
#
# number of rings (size 3 to 8) (size 9 to 14) (size 15 to 20)
#    0.667    0.444    4.444    1.333    0.000    8.889 
#    0.000    2.222    0.000    0.000    0.000    0.000 
#    0.000    0.000    0.000    0.000    0.000    0.000 
#
# Total GULP energy -100530.599079 kJ/mol
# GULP energy per Si atom -5585.033282 kJ/mol
# Density = 1.900052 g / cm^3
# Si number density = 19.043862 Si / 1000 Ang^3
#
#
#
# Elastic Constant Matrix: (Units=GPa)
#
#
# Indices 1 2 3 4 5 6 
#
# 1 33.9890 -9.0668 -12.4425 -0.0008 6.0358 0.0001
# 2 -9.0668 71.8549 13.4666 -0.0050 -5.8047 0.0028
# 3 -12.4425 13.4666 90.1775 -0.0066 6.7852 0.0024
# 4 -0.0008 -0.0050 -0.0066 30.2817 0.0020 -12.2830
# 5 6.0358 -5.8047 6.7852 0.0020 30.8365 -0.0004
# 6 0.0001 0.0028 0.0024 -12.2830 -0.0004 34.0606
#
#
#
# Elastic Compliance Matrix: (Units=1/GPa)
#
#
# Indices 1 2 3 4 5 6 
#
# 1 0.033109 0.002734 0.004686 0.000003 -0.006997 0.000000
# 2 0.002734 0.014865 -0.002047 0.000002 0.002713 0.000000
# 3 0.004686 -0.002047 0.012344 0.000003 -0.004019 0.000000
# 4 0.000003 0.000002 0.000003 0.038681 -0.000003 0.013949
# 5 -0.006997 0.002713 -0.004019 -0.000003 0.035194 -0.000001
# 6 0.000000 0.000000 0.000000 0.013949 -0.000001 0.034390
#
#
# Mechanical properties :
#
#
# Convention : Reuss Voigt Hill
#
# Bulk Modulus (GPa) = 14.07157 19.99290 17.03223
# Shear Modulus (GPa) = 27.54469 32.64002 30.09236
#
# Velocity S-wave (km/s) = 3.80726 4.14447 3.97944
# Velocity P-wave (km/s) = 5.17030 5.78129 5.48431
#
# Compressibility (1/GPa) = 0.07106526
#
# Stress axis : x y z
#
# Youngs Moduli (GPa) = 30.20343 67.27335 81.01169
#
# Poissons Ratio (x) = -0.18394 -0.37966
# Poissons Ratio (y) = -0.08258 0.16581
# Poissons Ratio (z) = -0.14155 0.13769
#
# Static dielectric constant tensor:
#      x y z
#    x 1.661670 0.000000 0.001110 
#    y 0.000000 1.625510 0.000000 
#    z 0.001110 0.000000 1.644610 
# 
# From -- ./inp_files/147428.got.cif
#   From: 2010.05.17/outbox.cif.g08.bks.cpg/sg12_74_cif.got.tgz:147428.got - 2010.06.03 13:09:07.
