data_PCOD9218881
_publ_section_title
;
Structure prediction by ZEFSAII (Michael W. Deem and Ramdas Pophale) SiO2 
 PCOD9218881
Probable space group: C 2/M
;
_chemical_formula_sum "Si O2"
_cell_formula_units_Z 40
_cell_length_a 7.939943
_cell_length_b 13.514022
_cell_length_c 22.621817
_cell_angle_alpha 90.000000
_cell_angle_beta 135.974869
_cell_angle_gamma 90.000000
_cell_volume 1686.933395
_symmetry_space_group_name_H-M "C 2/M"
_symmetry_group_IT_number 12
_symmetry_cell_setting 'monoclinic'
loop_
_space_group_symop_operation_xyz
x,y,z
-x,y,-z
-x,-y,-z
x,-y,z
1/2+x,1/2+y,z
1/2-x,1/2+y,-z
1/2-x,1/2-y,-z
1/2+x,1/2-y,z
loop_
_atom_site_type_symbol
_atom_site_label
_atom_site_fract_x
_atom_site_fract_y
_atom_site_fract_z
Si Si1 0.732760 0.700756 0.313264
Si Si2 0.986621 0.383301 0.791833
Si Si3 0.243695 0.302867 0.435622
Si Si4 0.498969 0.617244 0.146806
Si Si5 0.246437 0.618973 0.970932
O O1 0.719072 0.814914 0.287417
O O2 0.729966 0.717311 0.382190
O O3 0.523305 0.655162 0.219782
O O4 0.984739 0.645244 0.363073
O O5 0.934257 0.500000 0.776930
O O6 0.238782 0.367482 0.819029
O O7 0.038975 0.350536 0.872735
O O8 0.500000 0.358872 0.500000
O O9 0.250000 0.250000 0.500000
O O10 0.461743 0.500000 0.140807
O O11 0.292876 0.656468 0.049259
O O12 0.213586 0.500000 0.967702
O O13 0.500000 0.632136 0.000000
#
# Coordination Sequence:
#
# PCOD9218881 Si02
#       5
#     8   8   8   8   8
#     4  11  18  33  58  81  99 136 176 218 259 309
#     4   9  17  30  51  78 109 143 180 211 243 302
#     4   9  20  36  56  76 103 135 166 210 282 331
#     4   9  17  30  51  78 110 143 177 212 248 300
#     4   7  12  25  44  71 108 146 174 205 246 287
#
# _framework density 23.711666000000001
#
# number of rings (size 3 to 8) (size 9 to 14) (size 15 to 20)
#    0.000    3.000    2.000    2.400    0.000    0.800 
#    0.000    1.000    0.000   24.000    0.000    4.200 
#    0.000    0.000    0.000    0.000    0.000    0.000 
#
# Total GULP energy -111410.519662 kJ/mol
# GULP energy per Si atom -5570.525983 kJ/mol
# Density = 2.365770 g / cm^3
# Si number density = 23.711666 Si / 1000 Ang^3
#
#
#
# Elastic Constant Matrix: (Units=GPa)
#
#
# Indices 1 2 3 4 5 6 
#
# 1 49.2197 10.9154 53.6756 0.0000 10.1904 0.0000
# 2 10.9154 56.7472 20.8128 0.0000 -5.2627 0.0000
# 3 53.6756 20.8128 200.1790 0.0000 -36.9919 0.0000
# 4 0.0000 0.0000 0.0000 8.9589 0.0000 0.2387
# 5 10.1904 -5.2627 -36.9919 0.0000 38.4969 0.0000
# 6 0.0000 0.0000 0.0000 0.2387 0.0000 6.7010
#
#
#
# Elastic Compliance Matrix: (Units=1/GPa)
#
#
# Indices 1 2 3 4 5 6 
#
# 1 0.046856 -0.005358 -0.017551 0.000000 -0.030000 0.000000
# 2 -0.005358 0.018955 0.000252 0.000000 0.004251 0.000000
# 3 -0.017551 0.000252 0.012816 0.000000 0.016995 0.000000
# 4 0.000000 0.000000 0.000000 0.111727 0.000000 -0.003980
# 5 -0.030000 0.004251 0.016995 0.000000 0.050829 0.000000
# 6 0.000000 0.000000 0.000000 -0.003980 0.000000 0.149374
#
#
# Mechanical properties :
#
#
# Convention : Reuss Voigt Hill
#
# Bulk Modulus (GPa) = 30.01895 52.99486 41.50690
# Shear Modulus (GPa) = 11.18632 25.54750 18.36691
#
# Velocity S-wave (km/s) = 2.17437 3.28597 2.78617
# Velocity P-wave (km/s) = 4.35790 6.06589 5.28140
#
# Compressibility (1/GPa) = 0.03331229
#
# Stress axis : x y z
#
# Youngs Moduli (GPa) = 21.34199 52.75751 78.02771
#
# Poissons Ratio (x) = 0.28268 1.36944
# Poissons Ratio (y) = 0.11435 -0.01963
# Poissons Ratio (z) = 0.37457 -0.01327
#
# Static dielectric constant tensor:
#      x y z
#    x 2.017800 0.000000 -0.014190 
#    y 0.000000 1.917950 0.000000 
#    z -0.014190 0.000000 1.902400 
# 
# From -- ./inp_files/195013.got.cif
#   From: 2010.05.17/outbox.cif.g08.bks.cpg/sg12_98_cif.got.tgz:195013.got - 2010.06.03 13:09:07.
