data_PCOD9218589
_publ_section_title
;
Structure prediction by ZEFSAII (Michael W. Deem and Ramdas Pophale) SiO2 
 PCOD9218589
Probable space group: C 2/M
;
_chemical_formula_sum "Si O2"
_cell_formula_units_Z 42
_cell_length_a 8.925303
_cell_length_b 31.108293
_cell_length_c 8.233987
_cell_angle_alpha 90.000000
_cell_angle_beta 58.069897
_cell_angle_gamma 90.000000
_cell_volume 1940.262200
_symmetry_space_group_name_H-M "C 2/M"
_symmetry_group_IT_number 12
_symmetry_cell_setting 'monoclinic'
loop_
_space_group_symop_operation_xyz
x,y,z
-x,y,-z
-x,-y,-z
x,-y,z
1/2+x,1/2+y,z
1/2-x,1/2+y,-z
1/2-x,1/2-y,-z
1/2+x,1/2-y,z
loop_
_atom_site_type_symbol
_atom_site_label
_atom_site_fract_x
_atom_site_fract_y
_atom_site_fract_z
Si Si1 0.820523 0.694689 0.680419
Si Si2 0.469496 0.932955 0.211066
Si Si3 0.921114 0.732354 0.221079
Si Si4 0.175055 0.118587 0.956258
Si Si5 0.000000 0.500000 0.500000
Si Si6 0.194910 0.855215 0.312213
O O1 0.692674 0.726685 0.660174
O O2 0.705756 0.656542 0.812548
O O3 0.000000 0.676433 0.500000
O O4 0.909516 0.724822 0.764559
O O5 0.653954 0.910077 0.138961
O O6 0.453129 0.963412 0.380439
O O7 0.312824 0.897028 0.296105
O O8 0.500000 0.948670 0.000000
O O9 0.809355 0.687875 0.277771
O O10 0.000000 0.741749 0.000000
O O11 0.165312 0.139625 0.137879
O O12 0.000000 0.094297 0.000000
O O13 0.000000 0.854006 0.500000
#
# Coordination Sequence:
#
# PCOD9218589 Si02
#       6
#     8   8   8   8   2   8
#     4  12  26  39  62  93 137 183 245 291 340 397
#     4  10  24  50  72 109 147 179 229 289 358 424
#     4  12  23  43  59  93 138 188 235 299 338 392
#     4  11  25  42  70 101 138 184 230 288 340 415
#     4  12  26  44  92 106 132 186 226 284 364 442
#     4  11  24  44  71  97 142 189 230 286 352 407
#
# _framework density 21.646560000000001
#
# number of rings (size 3 to 8) (size 9 to 14) (size 15 to 20)
#    0.000    0.762    3.810    3.143    9.333    0.000 
#    0.000    0.952    0.000    0.000    0.000    0.000 
#    0.000    0.000    0.000    0.000    0.000    0.000 
#
# Total GULP energy -116937.692555 kJ/mol
# GULP energy per Si atom -5568.461550 kJ/mol
# Density = 2.159729 g / cm^3
# Si number density = 21.646560 Si / 1000 Ang^3
#
#
#
# Elastic Constant Matrix: (Units=GPa)
#
#
# Indices 1 2 3 4 5 6 
#
# 1 100.7240 32.6048 22.1429 0.0000 -8.3463 0.0000
# 2 32.6048 95.1564 42.4681 0.0000 1.7118 0.0000
# 3 22.1429 42.4681 103.2707 0.0000 -2.6768 0.0000
# 4 0.0000 0.0000 0.0000 4.2913 0.0000 51.8496
# 5 -8.3463 1.7118 -2.6768 0.0000 44.4606 0.0000
# 6 0.0000 0.0000 0.0000 51.8496 0.0000 75.6257
#
#
#
# Elastic Compliance Matrix: (Units=1/GPa)
#
#
# Indices 1 2 3 4 5 6 
#
# 1 0.011469 -0.003550 -0.000941 0.000000 0.002233 0.000000
# 2 -0.003550 0.014000 -0.005035 0.000000 -0.001509 0.000000
# 3 -0.000941 -0.005035 0.011975 0.000000 0.000738 0.000000
# 4 0.000000 0.000000 0.000000 -0.031993 0.000000 0.021934
# 5 0.002233 -0.001509 0.000738 0.000000 0.023014 0.000000
# 6 0.000000 0.000000 0.000000 0.021934 0.000000 -0.001815
#
#
# Mechanical properties :
#
#
# Convention : Reuss Voigt Hill
#
# Bulk Modulus (GPa) = 54.37458 54.84251 54.60855
# Shear Modulus (GPa) = 96.46483 38.33788 67.40135
#
# Velocity S-wave (km/s) = 6.68284 4.21299 5.58613
# Velocity P-wave (km/s) = 9.20440 7.00401 8.17854
#
# Compressibility (1/GPa) = 0.01839095
#
# Stress axis : x y z
#
# Youngs Moduli (GPa) = 87.18984 71.43054 83.50839
#
# Poissons Ratio (x) = 0.25357 0.07862
# Poissons Ratio (y) = 0.30951 0.42047
# Poissons Ratio (z) = 0.08209 0.35965
#
# Static dielectric constant tensor:
#      x y z
#    x 1.773360 0.000000 0.074930 
#    y 0.000000 1.764750 0.000000 
#    z 0.074930 0.000000 1.893290 
# 
# From -- ./inp_files/42069.got.cif
#   From: 2010.05.17/outbox.cif.g08.bks.cpg/sg12_22_cif.got.tgz:42069.got - 2010.06.03 13:09:07.
