data_PCOD9218253
_publ_section_title
;
Structure prediction by ZEFSAII (Michael W. Deem and Ramdas Pophale) SiO2 
 PCOD9218253
Probable space group: C 2/M
;
_chemical_formula_sum "Si O2"
_cell_formula_units_Z 44
_cell_length_a 9.327670
_cell_length_b 23.148600
_cell_length_c 10.797810
_cell_angle_alpha 90.000000
_cell_angle_beta 61.460403
_cell_angle_gamma 90.000000
_cell_volume 2048.184111
_symmetry_space_group_name_H-M "C 2/M"
_symmetry_group_IT_number 12
_symmetry_cell_setting 'monoclinic'
loop_
_space_group_symop_operation_xyz
x,y,z
-x,y,-z
-x,-y,-z
x,-y,z
1/2+x,1/2+y,z
1/2-x,1/2+y,-z
1/2-x,1/2-y,-z
1/2+x,1/2-y,z
loop_
_atom_site_type_symbol
_atom_site_label
_atom_site_fract_x
_atom_site_fract_y
_atom_site_fract_z
Si Si1 0.366170 0.296934 0.796053
Si Si2 0.355668 0.873569 0.255783
Si Si3 0.515232 0.500000 0.644012
Si Si4 0.821975 0.668266 0.747687
Si Si5 0.165892 0.874391 0.584002
Si Si6 0.642246 0.000000 0.839463
Si Si7 0.000000 0.182245 0.000000
O O1 0.217309 0.341320 0.834261
O O2 0.319216 0.237884 0.747742
O O3 0.523333 0.328861 0.673715
O O4 0.418082 0.285170 0.917093
O O5 0.522851 0.847812 0.236272
O O6 0.223272 0.867697 0.419881
O O7 0.380435 0.940956 0.224566
O O8 0.500000 0.500000 0.500000
O O9 0.605609 0.439667 0.634468
O O10 0.338332 0.500000 0.784393
O O11 0.813120 0.642037 0.615056
O O12 0.652713 0.647863 0.881210
O O13 0.500000 0.000000 0.000000
#
# Coordination Sequence:
#
# PCOD9218253 Si02
#       7
#     8   8   4   8   8   4   4
#     4  11  23  42  69 102 139 189 231 286 348 426
#     4  12  24  43  71 100 141 182 233 295 349 417
#     4  12  20  47  71  95 133 192 244 278 348 428
#     4  11  26  40  65 105 143 180 234 291 349 421
#     4  11  23  42  71 101 136 189 232 288 356 413
#     4  12  28  43  71 107 133 181 243 292 346 412
#     4  10  24  44  62  93 140 201 232 268 358 418
#
# _framework density 21.482444000000001
#
# number of rings (size 3 to 8) (size 9 to 14) (size 15 to 20)
#    0.000    0.727    3.636    3.818    2.545    5.091 
#    0.000    1.818    0.000    4.364    0.000    0.000 
#    0.000    0.000    0.000    0.000    0.000    0.000 
#
# Total GULP energy -122929.896973 kJ/mol
# GULP energy per Si atom -5587.722590 kJ/mol
# Density = 2.143355 g / cm^3
# Si number density = 21.482444 Si / 1000 Ang^3
#
#
#
# Elastic Constant Matrix: (Units=GPa)
#
#
# Indices 1 2 3 4 5 6 
#
# 1 118.4109 29.8281 37.3820 0.0000 1.5823 0.0000
# 2 29.8281 117.4544 22.0878 0.0000 11.6357 0.0000
# 3 37.3820 22.0878 91.5632 0.0000 1.8584 0.0000
# 4 0.0000 0.0000 0.0000 14.3766 0.0000 10.1064
# 5 1.5823 11.6357 1.8584 0.0000 40.6709 0.0000
# 6 0.0000 0.0000 0.0000 10.1064 0.0000 30.0898
#
#
#
# Elastic Compliance Matrix: (Units=1/GPa)
#
#
# Indices 1 2 3 4 5 6 
#
# 1 0.010076 -0.001902 -0.003661 0.000000 0.000319 0.000000
# 2 -0.001902 0.009529 -0.001470 0.000000 -0.002585 0.000000
# 3 -0.003661 -0.001470 0.012771 0.000000 -0.000021 0.000000
# 4 0.000000 0.000000 0.000000 0.091057 0.000000 -0.030584
# 5 0.000319 -0.002585 -0.000021 0.000000 0.025316 0.000000
# 6 0.000000 0.000000 0.000000 -0.030584 0.000000 0.043506
#
#
# Mechanical properties :
#
#
# Convention : Reuss Voigt Hill
#
# Bulk Modulus (GPa) = 54.61382 56.22492 55.41937
# Shear Modulus (GPa) = 23.53769 32.90286 28.22027
#
# Velocity S-wave (km/s) = 3.31368 3.91783 3.62835
# Velocity P-wave (km/s) = 6.33391 6.83339 6.58838
#
# Compressibility (1/GPa) = 0.01831038
#
# Stress axis : x y z
#
# Youngs Moduli (GPa) = 99.24712 104.93782 78.30133
#
# Poissons Ratio (x) = 0.19958 0.28668
# Poissons Ratio (y) = 0.18876 0.11509
# Poissons Ratio (z) = 0.36337 0.15424
#
# Static dielectric constant tensor:
#      x y z
#    x 1.817700 0.000000 -0.015320 
#    y 0.000000 1.749800 0.000000 
#    z -0.015320 0.000000 1.853630 
# 
# From -- ./inp_files/122380.got.cif
#   From: 2010.05.17/outbox.cif.g08.bks.cpg/sg12_62_cif.got.tgz:122380.got - 2010.06.03 13:09:07.
