data_PCOD9218419
_publ_section_title
;
Structure prediction by ZEFSAII (Michael W. Deem and Ramdas Pophale) SiO2 
 PCOD9218419
Probable space group: C 2/M
;
_chemical_formula_sum "Si O2"
_cell_formula_units_Z 42
_cell_length_a 6.829166
_cell_length_b 25.567653
_cell_length_c 15.859258
_cell_angle_alpha 90.000000
_cell_angle_beta 139.804406
_cell_angle_gamma 90.000000
_cell_volume 1787.185582
_symmetry_space_group_name_H-M "C 2/M"
_symmetry_group_IT_number 12
_symmetry_cell_setting 'monoclinic'
loop_
_space_group_symop_operation_xyz
x,y,z
-x,y,-z
-x,-y,-z
x,-y,z
1/2+x,1/2+y,z
1/2-x,1/2+y,-z
1/2-x,1/2-y,-z
1/2+x,1/2-y,z
loop_
_atom_site_type_symbol
_atom_site_label
_atom_site_fract_x
_atom_site_fract_y
_atom_site_fract_z
Si Si1 0.807568 0.260467 0.602645
Si Si2 0.315457 0.140949 0.234946
Si Si3 0.061500 0.407643 0.152355
Si Si4 0.000000 0.500000 0.000000
Si Si5 0.705535 0.442080 0.345158
Si Si6 0.720214 0.696625 0.868178
O O1 0.990035 0.247173 0.565309
O O2 0.903205 0.320867 0.650753
O O3 0.029860 0.225110 0.733518
O O4 0.362854 0.108828 0.166011
O O5 0.265858 0.100025 0.293691
O O6 0.019362 0.177252 0.141196
O O7 0.942804 0.453268 0.052753
O O8 0.397934 0.426955 0.292124
O O9 0.129771 0.354422 0.124649
O O10 0.647210 0.500000 0.288440
O O11 0.000000 0.443653 0.500000
O O12 0.000000 0.727638 0.000000
#
# Coordination Sequence:
#
# PCOD9218419 Si02
#       6
#     8   8   8   2   8   8
#     4  12  25  47  76 113 155 210 260 314 384 471
#     4  11  27  45  77 111 148 207 261 308 393 467
#     4  11  25  48  73 107 145 199 253 322 384 467
#     4  12  24  52  80 102 152 194 264 328 394 462
#     4  10  24  45  70 106 152 190 245 324 387 453
#     4  11  26  50  72 111 161 196 258 330 388 452
#
# _framework density 23.500637000000001
#
# number of rings (size 3 to 8) (size 9 to 14) (size 15 to 20)
#    0.000    0.952    3.810    1.143    9.333    1.524 
#    0.000    5.714    0.000    0.000    0.000    0.000 
#    0.000    0.000    0.000    0.000    0.000    0.000 
#
# Total GULP energy -117182.343854 kJ/mol
# GULP energy per Si atom -5580.111612 kJ/mol
# Density = 2.344715 g / cm^3
# Si number density = 23.500637 Si / 1000 Ang^3
#
#
#
# Elastic Constant Matrix: (Units=GPa)
#
#
# Indices 1 2 3 4 5 6 
#
# 1 167.3313 55.1235 82.2237 0.0000 -20.0216 0.0000
# 2 55.1235 142.1183 61.3929 0.0000 -14.8075 0.0000
# 3 82.2237 61.3929 146.0666 0.0003 3.2324 0.0001
# 4 0.0000 0.0000 0.0003 21.4309 0.0001 -11.3062
# 5 -20.0216 -14.8075 3.2324 0.0001 35.9954 0.0000
# 6 0.0000 0.0000 0.0001 -11.3062 0.0000 35.6793
#
#
#
# Elastic Compliance Matrix: (Units=1/GPa)
#
#
# Indices 1 2 3 4 5 6 
#
# 1 0.009371 -0.000923 -0.005004 0.000000 0.005282 0.000000
# 2 -0.000923 0.009262 -0.003453 0.000000 0.003607 0.000000
# 3 -0.005004 -0.003453 0.011230 0.000000 -0.005213 0.000000
# 4 0.000000 0.000000 0.000000 0.056028 0.000000 0.017754
# 5 0.005282 0.003607 -0.005213 0.000000 0.032671 0.000000
# 6 0.000000 0.000000 0.000000 0.017754 0.000000 0.033654
#
#
# Mechanical properties :
#
#
# Convention : Reuss Voigt Hill
#
# Bulk Modulus (GPa) = 90.06929 94.77738 92.42334
# Shear Modulus (GPa) = 28.62417 35.73953 32.18185
#
# Velocity S-wave (km/s) = 3.49380 3.90396 3.70456
# Velocity P-wave (km/s) = 7.39493 7.79349 7.59682
#
# Compressibility (1/GPa) = 0.01110256
#
# Stress axis : x y z
#
# Youngs Moduli (GPa) = 106.70986 107.97007 89.04706
#
# Poissons Ratio (x) = 0.09962 0.44562
# Poissons Ratio (y) = 0.09846 0.30750
# Poissons Ratio (z) = 0.53401 0.37285
#
# Static dielectric constant tensor:
#      x y z
#    x 2.029840 0.000000 0.059620 
#    y 0.000000 1.865340 0.000000 
#    z 0.059620 0.000000 1.960170 
# 
# From -- ./inp_files/116136.got.cif
#   From: 2010.05.17/outbox.cif.g08.bks.cpg/sg12_59_cif.got.tgz:116136.got - 2010.06.03 13:09:07.
