data_PCOD9218396
_publ_section_title
;
Structure prediction by ZEFSAII (Michael W. Deem and Ramdas Pophale) SiO2 
 PCOD9218396
Probable space group: C 2/M
;
_chemical_formula_sum "Si O2"
_cell_formula_units_Z 40
_cell_length_a 9.937434
_cell_length_b 15.032516
_cell_length_c 16.632023
_cell_angle_alpha 90.000000
_cell_angle_beta 44.656039
_cell_angle_gamma 90.000000
_cell_volume 1746.276933
_symmetry_space_group_name_H-M "C 2/M"
_symmetry_group_IT_number 12
_symmetry_cell_setting 'monoclinic'
loop_
_space_group_symop_operation_xyz
x,y,z
-x,y,-z
-x,-y,-z
x,-y,z
1/2+x,1/2+y,z
1/2-x,1/2+y,-z
1/2-x,1/2-y,-z
1/2+x,1/2-y,z
loop_
_atom_site_type_symbol
_atom_site_label
_atom_site_fract_x
_atom_site_fract_y
_atom_site_fract_z
Si Si1 0.923641 0.599485 0.656700
Si Si2 0.047325 0.203678 0.391493
Si Si3 0.429128 0.901658 0.226764
Si Si4 0.170294 0.667754 0.984905
Si Si5 0.970230 0.899440 0.268451
O O1 0.998307 0.500000 0.601243
O O2 0.003152 0.691781 0.588347
O O3 0.956659 0.607331 0.738137
O O4 0.705406 0.603474 0.719064
O O5 0.945445 0.161086 0.357513
O O6 0.000000 0.167224 0.500000
O O7 0.270939 0.175818 0.285500
O O8 0.336486 0.000000 0.267225
O O9 0.574090 0.896585 0.091023
O O10 0.337716 0.626574 0.860213
O O11 0.250000 0.750000 0.000000
O O12 0.000000 0.698505 0.000000
O O13 0.986115 0.000000 0.290933
#
# Coordination Sequence:
#
# PCOD9218396 Si02
#       5
#     8   8   8   8   8
#     4  10  24  45  67  98 139 176 221 278 339 411
#     4  12  25  44  70  98 133 178 233 286 336 399
#     4  11  25  44  69 101 137 178 225 277 338 403
#     4  12  25  41  70 102 140 180 222 274 332 407
#     4  11  25  44  69 101 137 178 225 277 338 403
#
# _framework density 22.905875000000002
#
# number of rings (size 3 to 8) (size 9 to 14) (size 15 to 20)
#    0.000    0.800    2.000    4.800    2.800    6.000 
#    0.000    7.000    0.000    0.000    0.000    0.000 
#    0.000    0.000    0.000    0.000    0.000    0.000 
#
# Total GULP energy -111870.970026 kJ/mol
# GULP energy per Si atom -5593.548501 kJ/mol
# Density = 2.285374 g / cm^3
# Si number density = 22.905875 Si / 1000 Ang^3
#
#
#
# Elastic Constant Matrix: (Units=GPa)
#
#
# Indices 1 2 3 4 5 6 
#
# 1 175.0692 43.9896 26.7698 -0.0001 12.6015 -0.0001
# 2 43.9896 151.7273 30.6635 -0.0003 3.4200 0.0000
# 3 26.7698 30.6635 101.1190 -0.0008 14.5781 0.0000
# 4 -0.0001 -0.0003 -0.0008 -10.3353 0.0002 -5.7679
# 5 12.6015 3.4200 14.5781 0.0002 34.2153 0.0001
# 6 -0.0001 0.0000 0.0000 -5.7679 0.0001 9.4003
#
#
#
# Elastic Compliance Matrix: (Units=1/GPa)
#
#
# Indices 1 2 3 4 5 6 
#
# 1 0.006393 -0.001623 -0.000942 0.000000 -0.001791 0.000000
# 2 -0.001623 0.007434 -0.001922 0.000000 0.000673 0.000000
# 3 -0.000942 -0.001922 0.011340 -0.000001 -0.004293 0.000000
# 4 0.000000 0.000000 -0.000001 -0.072075 0.000001 -0.044224
# 5 -0.001791 0.000673 -0.004293 0.000001 0.031648 0.000000
# 6 0.000000 0.000000 0.000000 -0.044224 0.000000 0.079244
#
#
# Mechanical properties :
#
#
# Convention : Reuss Voigt Hill
#
# Bulk Modulus (GPa) = 61.75070 70.08459 65.91764
# Shear Modulus (GPa) = 63.81151 28.42225 46.11688
#
# Velocity S-wave (km/s) = 5.28381 3.52636 4.49187
# Velocity P-wave (km/s) = 8.01510 6.87339 7.46610
#
# Compressibility (1/GPa) = 0.01619415
#
# Stress axis : x y z
#
# Youngs Moduli (GPa) = 156.42801 134.50888 88.17996
#
# Poissons Ratio (x) = 0.21826 0.08308
# Poissons Ratio (y) = 0.25383 0.16948
# Poissons Ratio (z) = 0.14738 0.25852
#
# Static dielectric constant tensor:
#      x y z
#    x 1.835600 0.000000 -0.028300 
#    y 0.000000 2.045860 0.000000 
#    z -0.028300 0.000000 1.786410 
# 
# From -- ./inp_files/256391.got.cif
#   From: 2010.05.17/outbox.cif.g08.bks.cpg/sg12_129_cif.got.tgz:256391.got - 2010.06.03 13:09:07.
