data_PCOD9218981
_publ_section_title
;
Structure prediction by ZEFSAII (Michael W. Deem and Ramdas Pophale) SiO2 
 PCOD9218981
Probable space group: C 2/M
;
_chemical_formula_sum "Si O2"
_cell_formula_units_Z 44
_cell_length_a 13.035021
_cell_length_b 23.521222
_cell_length_c 13.117829
_cell_angle_alpha 90.000000
_cell_angle_beta 143.629337
_cell_angle_gamma 90.000000
_cell_volume 2385.026275
_symmetry_space_group_name_H-M "C 2/M"
_symmetry_group_IT_number 12
_symmetry_cell_setting 'monoclinic'
loop_
_space_group_symop_operation_xyz
x,y,z
-x,y,-z
-x,-y,-z
x,-y,z
1/2+x,1/2+y,z
1/2-x,1/2+y,-z
1/2-x,1/2-y,-z
1/2+x,1/2-y,z
loop_
_atom_site_type_symbol
_atom_site_label
_atom_site_fract_x
_atom_site_fract_y
_atom_site_fract_z
Si Si1 0.493961 0.325701 0.800655
Si Si2 0.000000 0.904083 0.000000
Si Si3 0.419663 0.718274 0.333943
Si Si4 0.579078 0.788875 0.161045
Si Si5 0.393157 0.168350 0.597057
Si Si6 0.893952 0.438130 0.309600
O O1 0.596535 0.323390 0.775542
O O2 0.525474 0.263556 0.875098
O O3 0.294676 0.335851 0.605900
O O4 0.530538 0.368651 0.920555
O O5 0.187411 0.933700 0.163195
O O6 0.500000 0.690571 0.500000
O O7 0.241591 0.740899 0.236698
O O8 0.530185 0.772237 0.384814
O O9 0.628043 0.825380 0.298237
O O10 0.500000 0.820358 0.000000
O O11 0.524567 0.116870 0.680620
O O12 0.926223 0.500000 0.285161
O O13 0.000000 0.438172 0.500000
#
# Coordination Sequence:
#
# PCOD9218981 Si02
#       6
#     8   4   8   8   8   8
#     4  11  21  34  55  85 118 153 184 227 274 345
#     4  12  23  38  60  88 116 144 189 234 288 340
#     4  11  19  33  54  81 120 154 181 217 273 342
#     4  11  22  32  50  85 121 151 188 221 270 344
#     4  11  21  37  56  80 114 155 187 229 284 329
#     4  11  24  41  60  82 109 146 192 243 289 329
#
# _framework density 18.448433000000001
#
# number of rings (size 3 to 8) (size 9 to 14) (size 15 to 20)
#    0.000    0.909    6.364    3.000    2.545    1.455 
#    0.000    0.000    0.000    0.545    0.000    1.273 
#    0.000    0.000    0.000    0.000    0.000    0.000 
#
# Total GULP energy -122482.538114 kJ/mol
# GULP energy per Si atom -5567.388096 kJ/mol
# Density = 1.840644 g / cm^3
# Si number density = 18.448433 Si / 1000 Ang^3
#
#
#
# Elastic Constant Matrix: (Units=GPa)
#
#
# Indices 1 2 3 4 5 6 
#
# 1 106.7202 23.8743 39.6601 0.0000 -24.0438 0.0000
# 2 23.8743 60.9081 24.9393 0.0000 -7.0271 0.0000
# 3 39.6601 24.9393 111.9282 0.0000 -24.6258 0.0000
# 4 0.0000 0.0000 0.0000 -18.8606 0.0000 -0.9913
# 5 -24.0438 -7.0271 -24.6258 0.0000 36.7007 0.0000
# 6 0.0000 0.0000 0.0000 -0.9913 0.0000 13.1440
#
#
#
# Elastic Compliance Matrix: (Units=1/GPa)
#
#
# Indices 1 2 3 4 5 6 
#
# 1 0.012274 -0.003172 -0.002354 0.000000 0.005854 0.000000
# 2 -0.003172 0.018911 -0.003227 0.000000 -0.000622 0.000000
# 3 -0.002354 -0.003227 0.011746 0.000000 0.005721 0.000000
# 4 0.000000 0.000000 0.000000 -0.052811 0.000000 -0.003983
# 5 0.005854 -0.000622 0.005721 0.000000 0.034802 0.000000
# 6 0.000000 0.000000 0.000000 -0.003983 0.000000 0.075780
#
#
# Mechanical properties :
#
#
# Convention : Reuss Voigt Hill
#
# Bulk Modulus (GPa) = 39.33062 50.72264 45.02663
# Shear Modulus (GPa) = 39.46880 18.93565 29.20223
#
# Velocity S-wave (km/s) = 4.63040 3.20724 3.98290
# Velocity P-wave (km/s) = 7.06774 6.42411 6.75359
#
# Compressibility (1/GPa) = 0.02542548
#
# Stress axis : x y z
#
# Youngs Moduli (GPa) = 81.47572 52.87996 85.13332
#
# Poissons Ratio (x) = 0.16771 0.20044
# Poissons Ratio (y) = 0.25840 0.27470
# Poissons Ratio (z) = 0.19182 0.17063
#
# Static dielectric constant tensor:
#      x y z
#    x 1.657660 0.000000 0.038180 
#    y 0.000000 1.619710 0.000000 
#    z 0.038180 0.000000 1.766410 
# 
# From -- ./inp_files/50880.got.cif
#   From: 2010.05.17/outbox.cif.g08.bks.cpg/sg12_26_cif.got.tgz:50880.got - 2010.06.03 13:09:07.
