data_PCOD9218346
_publ_section_title
;
Structure prediction by ZEFSAII (Michael W. Deem and Ramdas Pophale) SiO2 
 PCOD9218346
Probable space group: C 2/M
;
_chemical_formula_sum "Si O2"
_cell_formula_units_Z 36
_cell_length_a 8.786475
_cell_length_b 21.543416
_cell_length_c 10.878772
_cell_angle_alpha 90.000000
_cell_angle_beta 59.301822
_cell_angle_gamma 90.000000
_cell_volume 1770.684407
_symmetry_space_group_name_H-M "C 2/M"
_symmetry_group_IT_number 12
_symmetry_cell_setting 'monoclinic'
loop_
_space_group_symop_operation_xyz
x,y,z
-x,y,-z
-x,-y,-z
x,-y,z
1/2+x,1/2+y,z
1/2-x,1/2+y,-z
1/2-x,1/2-y,-z
1/2+x,1/2-y,z
loop_
_atom_site_type_symbol
_atom_site_label
_atom_site_fract_x
_atom_site_fract_y
_atom_site_fract_z
Si Si1 0.796663 0.000000 0.719154
Si Si2 0.371961 0.791103 0.359996
Si Si3 0.284726 0.500000 0.427499
Si Si4 0.680811 0.870981 0.853057
Si Si5 0.500000 0.107906 0.500000
Si Si6 0.088882 0.204315 0.092827
O O1 0.690134 0.940698 0.807679
O O2 0.787031 0.000000 0.575135
O O3 0.001855 0.000000 0.683716
O O4 0.250000 0.750000 0.500000
O O5 0.287084 0.828951 0.281104
O O6 0.476773 0.843829 0.395192
O O7 0.481521 0.739586 0.241659
O O8 0.171103 0.561002 0.429870
O O9 0.838018 0.858574 0.882156
O O10 0.500000 0.855004 0.000000
O O11 0.250000 0.250000 0.000000
O O12 0.000000 0.194282 0.000000
#
# Coordination Sequence:
#
# PCOD9218346 Si02
#       6
#     4   8   4   8   4   8
#     4  11  25  46  70 100 137 192 240 291 352 417
#     4  12  25  40  72 108 138 177 234 289 352 427
#     4  10  24  44  71  95 142 184 231 300 354 401
#     4  12  25  47  70  98 142 190 235 290 357 422
#     4  11  24  44  68 106 138 183 230 294 348 419
#     4  12  24  45  68  99 141 187 225 290 364 421
#
# _framework density 20.331121
#
# number of rings (size 3 to 8) (size 9 to 14) (size 15 to 20)
#    0.000    0.444    6.667    1.667    3.111    0.000 
#    0.000    0.556    0.000    0.000    0.000    0.000 
#    0.000    0.000    0.000    0.000    0.000    0.000 
#
# Total GULP energy -100414.843226 kJ/mol
# GULP energy per Si atom -5578.602401 kJ/mol
# Density = 2.028485 g / cm^3
# Si number density = 20.331121 Si / 1000 Ang^3
#
#
#
# Elastic Constant Matrix: (Units=GPa)
#
#
# Indices 1 2 3 4 5 6 
#
# 1 122.9482 33.4793 44.2217 0.0000 29.3059 0.0000
# 2 33.4793 112.2260 47.9859 0.0000 8.7600 0.0000
# 3 44.2217 47.9859 143.0002 0.0000 7.6047 0.0000
# 4 0.0000 0.0000 0.0000 3.6025 0.0000 11.5660
# 5 29.3059 8.7600 7.6047 0.0000 28.7740 0.0000
# 6 0.0000 0.0000 0.0000 11.5660 0.0000 44.2051
#
#
#
# Elastic Compliance Matrix: (Units=1/GPa)
#
#
# Indices 1 2 3 4 5 6 
#
# 1 0.012203 -0.001641 -0.002626 0.000000 -0.011235 0.000000
# 2 -0.001641 0.010773 -0.003065 0.000000 -0.000799 0.000000
# 3 -0.002626 -0.003065 0.008765 0.000000 0.001291 0.000000
# 4 0.000000 0.000000 0.000000 1.735032 0.000000 -0.453961
# 5 -0.011235 -0.000799 0.001291 0.000000 0.046098 0.000000
# 6 0.000000 0.000000 0.000000 -0.453961 0.000000 0.141398
#
#
# Mechanical properties :
#
#
# Convention : Reuss Voigt Hill
#
# Bulk Modulus (GPa) = 58.55641 69.94982 64.25311
# Shear Modulus (GPa) = 2.53213 32.14881 17.34047
#
# Velocity S-wave (km/s) = 1.11721 3.98082 2.92362
# Velocity P-wave (km/s) = 5.52522 7.45716 6.56267
#
# Compressibility (1/GPa) = 0.01707755
#
# Stress axis : x y z
#
# Youngs Moduli (GPa) = 81.95026 92.82454 114.09201
#
# Poissons Ratio (x) = 0.15230 0.29955
# Poissons Ratio (y) = 0.13446 0.34972
# Poissons Ratio (z) = 0.21516 0.28453
#
# Static dielectric constant tensor:
#      x y z
#    x 1.774550 0.000000 -0.015950 
#    y 0.000000 1.701970 0.000000 
#    z -0.015950 0.000000 1.677110 
# 
# From -- ./inp_files/120008.got.cif
#   From: 2010.05.17/outbox.cif.g08.bks.cpg/sg12_61_cif.got.tgz:120008.got - 2010.06.03 13:09:07.
