data_PCOD9218635
_publ_section_title
;
Structure prediction by ZEFSAII (Michael W. Deem and Ramdas Pophale) SiO2 
 PCOD9218635
Probable space group: C 2/M
;
_chemical_formula_sum "Si O2"
_cell_formula_units_Z 40
_cell_length_a 9.401493
_cell_length_b 21.877459
_cell_length_c 8.894794
_cell_angle_alpha 90.000000
_cell_angle_beta 67.015389
_cell_angle_gamma 90.000000
_cell_volume 1684.244655
_symmetry_space_group_name_H-M "C 2/M"
_symmetry_group_IT_number 12
_symmetry_cell_setting 'monoclinic'
loop_
_space_group_symop_operation_xyz
x,y,z
-x,y,-z
-x,-y,-z
x,-y,z
1/2+x,1/2+y,z
1/2-x,1/2+y,-z
1/2-x,1/2-y,-z
1/2+x,1/2-y,z
loop_
_atom_site_type_symbol
_atom_site_label
_atom_site_fract_x
_atom_site_fract_y
_atom_site_fract_z
Si Si1 0.323479 0.887472 0.234102
Si Si2 0.154786 0.643995 0.200099
Si Si3 0.194162 0.928170 0.608939
Si Si4 0.836499 0.767569 0.618718
Si Si5 0.404676 0.597151 0.902374
O O1 0.506630 0.878421 0.168776
O O2 0.260828 0.911549 0.419829
O O3 0.257671 0.818307 0.252687
O O4 0.239162 0.926470 0.138577
O O5 0.184596 0.592955 0.315174
O O6 0.131728 0.707553 0.295196
O O7 0.311554 0.647869 0.037051
O O8 0.037894 0.893187 0.724145
O O9 0.160419 0.000000 0.629370
O O10 0.750000 0.750000 0.500000
O O11 0.000000 0.793221 0.500000
O O12 0.500000 0.565239 0.000000
#
# Coordination Sequence:
#
# PCOD9218635 Si02
#       5
#     8   8   8   8   8
#     4  12  24  43  71  99 138 181 232 283 334 412
#     4  11  24  43  66 104 137 179 223 279 354 403
#     4  11  24  46  73 100 133 180 236 287 340 409
#     4  12  22  40  68 103 142 182 224 280 338 408
#     4  10  25  43  65  96 136 176 225 280 341 403
#
# _framework density 23.749518999999999
#
# number of rings (size 3 to 8) (size 9 to 14) (size 15 to 20)
#    0.000    0.800    4.000    3.000    2.800    7.600 
#    0.000    2.000    0.000    7.200    0.000    0.000 
#    0.000    0.000    0.000    0.000    0.000    0.000 
#
# Total GULP energy -111604.111932 kJ/mol
# GULP energy per Si atom -5580.205597 kJ/mol
# Density = 2.369546 g / cm^3
# Si number density = 23.749519 Si / 1000 Ang^3
#
#
#
# Elastic Constant Matrix: (Units=GPa)
#
#
# Indices 1 2 3 4 5 6 
#
# 1 194.1859 36.6185 49.1881 0.0000 18.1866 0.0000
# 2 36.6185 62.9820 46.8111 0.0000 3.2977 0.0000
# 3 49.1881 46.8111 108.8563 0.0000 12.2561 0.0000
# 4 0.0000 0.0000 0.0000 -15.5557 0.0000 -22.5467
# 5 18.1866 3.2977 12.2561 0.0000 57.2826 0.0000
# 6 0.0000 0.0000 0.0000 -22.5467 0.0000 -53.6179
#
#
#
# Elastic Compliance Matrix: (Units=1/GPa)
#
#
# Indices 1 2 3 4 5 6 
#
# 1 0.006128 -0.002279 -0.001624 0.000000 -0.001467 0.000000
# 2 -0.002279 0.024222 -0.009540 0.000000 0.001371 0.000000
# 3 -0.001624 -0.009540 0.014246 0.000000 -0.001983 0.000000
# 4 0.000000 0.000000 0.000000 -0.164617 0.000000 0.069223
# 5 -0.001467 0.001371 -0.001983 0.000000 0.018269 0.000000
# 6 0.000000 0.000000 0.000000 0.069223 0.000000 -0.047759
#
#
# Mechanical properties :
#
#
# Convention : Reuss Voigt Hill
#
# Bulk Modulus (GPa) = 56.46802 70.13997 63.30399
# Shear Modulus (GPa) = -42.83690 13.18224 -14.82733
#
# Velocity S-wave (km/s) = -4.25160 2.35851 -2.50135
# Velocity P-wave (km/s) = 0.52285 6.08392 4.28607
#
# Compressibility (1/GPa) = 0.01770914
#
# Stress axis : x y z
#
# Youngs Moduli (GPa) = 163.17916 41.28498 70.19490
#
# Poissons Ratio (x) = 0.09410 0.11398
# Poissons Ratio (y) = 0.37195 0.66969
# Poissons Ratio (z) = 0.26496 0.39387
#
# Static dielectric constant tensor:
#      x y z
#    x 1.966060 0.000000 0.046490 
#    y 0.000000 1.856510 0.000000 
#    z 0.046490 0.000000 1.925410 
# 
# From -- ./inp_files/39234.got.cif
#   From: 2010.05.17/outbox.cif.g08.bks.cpg/sg12_20_cif.got.tgz:39234.got - 2010.06.03 13:09:07.
