data_PCOD9218009
_publ_section_title
;
Structure prediction by ZEFSAII (Michael W. Deem and Ramdas Pophale) SiO2 
 PCOD9218009
Probable space group: C 2/M
;
_chemical_formula_sum "Si O2"
_cell_formula_units_Z 48
_cell_length_a 25.673465
_cell_length_b 14.372565
_cell_length_c 11.631562
_cell_angle_alpha 90.000000
_cell_angle_beta 149.000014
_cell_angle_gamma 90.000000
_cell_volume 2210.527732
_symmetry_space_group_name_H-M "C 2/M"
_symmetry_group_IT_number 12
_symmetry_cell_setting 'monoclinic'
loop_
_space_group_symop_operation_xyz
x,y,z
-x,y,-z
-x,-y,-z
x,-y,z
1/2+x,1/2+y,z
1/2-x,1/2+y,-z
1/2-x,1/2-y,-z
1/2+x,1/2-y,z
loop_
_atom_site_type_symbol
_atom_site_label
_atom_site_fract_x
_atom_site_fract_y
_atom_site_fract_z
Si Si1 0.910728 0.500000 0.069140
Si Si2 0.238793 0.157695 0.051793
Si Si3 0.554457 0.864617 0.224182
Si Si4 0.383660 0.500000 0.310213
Si Si5 0.281472 0.604619 0.744352
Si Si6 0.848085 0.816898 0.653378
Si Si7 0.117710 0.500000 0.725599
Si Si8 0.693648 0.500000 0.574310
O O1 0.859118 0.500000 0.095482
O O2 0.981099 0.410443 0.179476
O O3 0.815598 0.500000 0.805883
O O4 0.213156 0.172763 0.136662
O O5 0.338696 0.093248 0.246744
O O6 0.250000 0.250000 0.000000
O O7 0.163159 0.090321 0.840695
O O8 0.669146 0.897254 0.472754
O O9 0.570438 0.754149 0.243491
O O10 0.500000 0.892546 0.000000
O O11 0.500000 0.500000 0.500000
O O12 0.356624 0.500000 0.394258
O O13 0.301659 0.500000 0.824477
O O14 0.363040 0.634625 0.804545
O O15 0.750000 0.750000 0.500000
O O16 0.832302 0.903289 0.538490
O O17 0.000000 0.500000 0.500000
#
# Coordination Sequence:
#
# PCOD9218009 Si02
#       8
#     4   8   8   4   8   8   4   4
#     4  12  21  39  73  95 141 174 228 296 347 419
#     4  11  25  46  74 104 139 192 246 292 358 423
#     4  11  24  39  63 109 141 179 232 288 355 418
#     4  11  27  53  69 101 144 190 245 294 360 432
#     4  11  20  43  71  96 147 192 229 288 357 422
#     4  10  24  40  67 102 142 180 232 282 352 419
#     4  11  23  42  63 108 138 176 234 294 353 417
#     4  12  24  48  74  98 139 196 227 293 367 430
#
# _framework density 21.714272000000001
#
# number of rings (size 3 to 8) (size 9 to 14) (size 15 to 20)
#    0.000    1.000    5.000    3.250    4.667    2.000 
#    6.000    0.417    0.000    0.000    0.000    0.000 
#    0.000    0.000    0.000    0.000    0.000    0.000 
#
# Total GULP energy -133892.243005 kJ/mol
# GULP energy per Si atom -5578.843459 kJ/mol
# Density = 2.166485 g / cm^3
# Si number density = 21.714272 Si / 1000 Ang^3
#
#
#
# Elastic Constant Matrix: (Units=GPa)
#
#
# Indices 1 2 3 4 5 6 
#
# 1 115.4314 37.4256 37.0467 0.0000 -11.1983 0.0000
# 2 37.4256 136.3873 55.7324 0.0000 1.4302 0.0000
# 3 37.0467 55.7324 66.5175 0.0000 -3.6554 0.0000
# 4 0.0000 0.0000 0.0000 18.2959 0.0000 -2.8990
# 5 -11.1983 1.4302 -3.6554 0.0000 40.4330 0.0000
# 6 0.0000 0.0000 0.0000 -2.8990 0.0000 32.4664
#
#
#
# Elastic Compliance Matrix: (Units=1/GPa)
#
#
# Indices 1 2 3 4 5 6 
#
# 1 0.010858 -0.000902 -0.005150 0.000000 0.002574 0.000000
# 2 -0.000902 0.011287 -0.009035 0.000000 -0.001466 0.000000
# 3 -0.005150 -0.009035 0.025538 0.000000 0.001202 0.000000
# 4 0.000000 0.000000 0.000000 0.055442 0.000000 0.004951
# 5 0.002574 -0.001466 0.001202 0.000000 0.025606 0.000000
# 6 0.000000 0.000000 0.000000 0.004951 0.000000 0.031243
#
#
# Mechanical properties :
#
#
# Convention : Reuss Voigt Hill
#
# Bulk Modulus (GPa) = 57.11439 64.30508 60.70974
# Shear Modulus (GPa) = 25.51219 30.78116 28.14667
#
# Velocity S-wave (km/s) = 3.43141 3.76913 3.60422
# Velocity P-wave (km/s) = 6.48531 6.97282 6.73348
#
# Compressibility (1/GPa) = 0.01750872
#
# Stress axis : x y z
#
# Youngs Moduli (GPa) = 92.09628 88.59749 39.15684
#
# Poissons Ratio (x) = 0.07991 0.20167
# Poissons Ratio (y) = 0.08307 0.35379
# Poissons Ratio (z) = 0.47432 0.80049
#
# Static dielectric constant tensor:
#      x y z
#    x 1.730480 0.000000 0.100360 
#    y 0.000000 1.643810 0.000000 
#    z 0.100360 0.000000 1.646340 
# 
# From -- ./inp_files/183946.got.cif
#   From: 2010.05.17/outbox.cif.g08.bks.cpg/sg12_92_cif.got.tgz:183946.got - 2010.06.03 13:09:07.
