data_PCOD9218383
_publ_section_title
;
Structure prediction by ZEFSAII (Michael W. Deem and Ramdas Pophale) SiO2 
 PCOD9218383
Probable space group: C 2/M
;
_chemical_formula_sum "Si O2"
_cell_formula_units_Z 56
_cell_length_a 9.096000
_cell_length_b 22.981116
_cell_length_c 13.805328
_cell_angle_alpha 90.000000
_cell_angle_beta 70.715773
_cell_angle_gamma 90.000000
_cell_volume 2723.896219
_symmetry_space_group_name_H-M "C 2/M"
_symmetry_group_IT_number 12
_symmetry_cell_setting 'monoclinic'
loop_
_space_group_symop_operation_xyz
x,y,z
-x,y,-z
-x,-y,-z
x,-y,z
1/2+x,1/2+y,z
1/2-x,1/2+y,-z
1/2-x,1/2-y,-z
1/2+x,1/2-y,z
loop_
_atom_site_type_symbol
_atom_site_label
_atom_site_fract_x
_atom_site_fract_y
_atom_site_fract_z
Si Si1 0.107914 0.889857 0.688962
Si Si2 0.659211 0.261152 0.147994
Si Si3 0.836554 0.433947 0.487917
Si Si4 0.160714 0.345812 0.011714
Si Si5 0.853749 0.848693 0.603862
Si Si6 0.830241 0.235492 0.290125
Si Si7 0.650669 0.567230 0.897974
O O1 0.205052 0.932682 0.599981
O O2 0.201533 0.828253 0.662151
O O3 0.109495 0.910145 0.799449
O O4 0.938482 0.878213 0.678238
O O5 0.623280 0.215117 0.072768
O O6 0.799138 0.236476 0.181825
O O7 0.516002 0.259410 0.253415
O O8 0.709285 0.323438 0.093792
O O9 0.858232 0.500000 0.447670
O O10 0.767526 0.392553 0.420053
O O11 0.000000 0.414833 0.500000
O O12 0.226464 0.391055 0.074985
O O13 0.000000 0.367122 0.000000
O O14 0.760417 0.789389 0.644982
O O15 0.000000 0.837683 0.500000
O O16 0.703465 0.500000 0.879950
O O17 0.500000 0.568845 0.000000
#
# Coordination Sequence:
#
# PCOD9218383 Si02
#       7
#     8   8   8   8   8   8   8
#     4  11  23  41  66  92 127 168 210 258 320 378
#     4  11  23  37  62  95 126 169 207 261 315 380
#     4  10  24  45  67  92 122 165 217 265 313 374
#     4  11  23  39  62  91 129 168 216 262 313 369
#     4  10  25  42  65  97 128 166 207 262 321 380
#     4  12  22  39  61  97 131 158 207 257 321 384
#     4  11  25  42  63  92 127 170 218 264 312 372
#
# _framework density 20.558786999999999
#
# number of rings (size 3 to 8) (size 9 to 14) (size 15 to 20)
#    0.000    1.143    4.286    1.286    2.000    6.286 
#    0.000    0.000    0.000    0.000    0.000    0.000 
#    0.000    0.000    0.000    0.000    0.000    0.000 
#
# Total GULP energy -156267.340648 kJ/mol
# GULP energy per Si atom -5580.976452 kJ/mol
# Density = 2.051199 g / cm^3
# Si number density = 20.558787 Si / 1000 Ang^3
#
#
#
# Elastic Constant Matrix: (Units=GPa)
#
#
# Indices 1 2 3 4 5 6 
#
# 1 134.5060 70.8814 43.6222 0.0000 21.4293 0.0000
# 2 70.8814 114.1445 40.3179 0.0000 11.8595 0.0000
# 3 43.6222 40.3179 67.3631 0.0000 18.7045 0.0000
# 4 0.0000 0.0000 0.0000 30.2170 0.0000 2.3631
# 5 21.4293 11.8595 18.7045 0.0000 39.3339 0.0000
# 6 0.0000 0.0000 0.0000 2.3631 0.0000 22.7681
#
#
#
# Elastic Compliance Matrix: (Units=1/GPa)
#
#
# Indices 1 2 3 4 5 6 
#
# 1 0.012252 -0.006070 -0.003405 0.000000 -0.003225 0.000000
# 2 -0.006070 0.014119 -0.004903 0.000000 0.001382 0.000000
# 3 -0.003405 -0.004903 0.021958 0.000000 -0.007108 0.000000
# 4 0.000000 0.000000 0.000000 0.033365 0.000000 -0.003463
# 5 -0.003225 0.001382 -0.007108 0.000000 0.030144 0.000000
# 6 0.000000 0.000000 0.000000 -0.003463 0.000000 0.044280
#
#
# Mechanical properties :
#
#
# Convention : Reuss Voigt Hill
#
# Bulk Modulus (GPa) = 51.09368 69.51740 60.30554
# Shear Modulus (GPa) = 26.12353 29.20994 27.66674
#
# Velocity S-wave (km/s) = 3.56852 3.77344 3.67241
# Velocity P-wave (km/s) = 6.47190 7.27135 6.88324
#
# Compressibility (1/GPa) = 0.01957189
#
# Stress axis : x y z
#
# Youngs Moduli (GPa) = 81.62194 70.82890 45.54093
#
# Poissons Ratio (x) = 0.42994 0.15507
# Poissons Ratio (y) = 0.49546 0.22329
# Poissons Ratio (z) = 0.27793 0.34728
#
# Static dielectric constant tensor:
#      x y z
#    x 1.725410 0.000000 -0.011440 
#    y 0.000000 1.719160 0.000000 
#    z -0.011440 0.000000 1.790900 
# 
# From -- ./inp_files/198357.got.cif
#   From: 2010.05.17/outbox.cif.g08.bks.cpg/sg12_100_cif.got.tgz:198357.got - 2010.06.03 13:09:07.
