data_PCOD9218492
_publ_section_title
;
Structure prediction by ZEFSAII (Michael W. Deem and Ramdas Pophale) SiO2 
 PCOD9218492
Probable space group: C 2/M
;
_chemical_formula_sum "Si O2"
_cell_formula_units_Z 48
_cell_length_a 19.244333
_cell_length_b 25.700290
_cell_length_c 11.544350
_cell_angle_alpha 90.000000
_cell_angle_beta 22.127641
_cell_angle_gamma 90.000000
_cell_volume 2150.665109
_symmetry_space_group_name_H-M "C 2/M"
_symmetry_group_IT_number 12
_symmetry_cell_setting 'monoclinic'
loop_
_space_group_symop_operation_xyz
x,y,z
-x,y,-z
-x,-y,-z
x,-y,z
1/2+x,1/2+y,z
1/2-x,1/2+y,-z
1/2-x,1/2-y,-z
1/2+x,1/2-y,z
loop_
_atom_site_type_symbol
_atom_site_label
_atom_site_fract_x
_atom_site_fract_y
_atom_site_fract_z
Si Si1 0.401764 0.100003 0.764195
Si Si2 0.261959 0.443804 0.288307
Si Si3 0.928433 0.224848 0.477857
Si Si4 0.947050 0.881739 0.814328
Si Si5 0.532047 0.183688 0.147408
Si Si6 0.178719 0.598020 0.662797
O O1 0.500000 0.126608 0.500000
O O2 0.552691 0.057288 0.563234
O O3 0.395702 0.137818 0.881520
O O4 0.194652 0.086751 0.047837
O O5 0.346098 0.500000 0.131391
O O6 0.247812 0.433900 0.445919
O O7 0.365019 0.395589 0.067754
O O8 0.000000 0.233160 0.500000
O O9 0.048894 0.177537 0.236322
O O10 0.947424 0.273939 0.364593
O O11 0.713919 0.208521 0.810741
O O12 0.158234 0.897953 0.496853
O O13 0.387979 0.154555 0.284921
O O14 0.000000 0.574918 0.000000
#
# Coordination Sequence:
#
# PCOD9218492 Si02
#       6
#     8   8   8   8   8   8
#     4   9  20  39  67  96 129 164 214 273 331 383
#     4  10  24  46  72  98 128 169 222 274 334 400
#     4  12  24  39  67  97 133 176 226 271 323 388
#     4  11  23  41  67  96 133 172 215 275 327 388
#     4  11  24  40  63  94 133 178 224 263 326 387
#     4  11  24  45  64  94 138 173 217 269 330 391
#
# _framework density 22.318677999999998
#
# number of rings (size 3 to 8) (size 9 to 14) (size 15 to 20)
#    0.000    1.333    3.333    1.500    7.000    5.333 
#    0.000    0.000    0.000    1.500    0.000    0.000 
#    0.000    0.000    0.000    0.000    0.000    0.000 
#
# Total GULP energy -133965.434093 kJ/mol
# GULP energy per Si atom -5581.893087 kJ/mol
# Density = 2.226788 g / cm^3
# Si number density = 22.318678 Si / 1000 Ang^3
#
#
#
# Elastic Constant Matrix: (Units=GPa)
#
#
# Indices 1 2 3 4 5 6 
#
# 1 87.0127 13.9796 41.6468 0.0016 -21.8322 0.0098
# 2 13.9796 66.9586 33.5007 -0.0114 13.6201 0.0037
# 3 41.6468 33.5007 96.4116 -0.0490 -12.9541 0.0070
# 4 0.0016 -0.0114 -0.0490 13.2091 0.0029 -7.0048
# 5 -21.8322 13.6201 -12.9541 0.0029 59.6155 -0.0068
# 6 0.0098 0.0037 0.0070 -7.0048 -0.0068 -0.8045
#
#
#
# Elastic Compliance Matrix: (Units=1/GPa)
#
#
# Indices 1 2 3 4 5 6 
#
# 1 0.015615 -0.001444 -0.005594 0.000004 0.004833 0.000055
# 2 -0.001444 0.020277 -0.007329 0.000005 -0.006754 0.000025
# 3 -0.005594 -0.007329 0.015745 0.000010 0.003047 -0.000079
# 4 0.000004 0.000005 0.000010 0.013477 -0.000011 -0.117345
# 5 0.004833 -0.006754 0.003047 -0.000011 0.020749 -0.000022
# 6 0.000055 0.000025 -0.000079 -0.117345 -0.000022 -0.221279
#
#
# Mechanical properties :
#
#
# Convention : Reuss Voigt Hill
#
# Bulk Modulus (GPa) = 43.66558 47.62633 45.64596
# Shear Modulus (GPa) = -50.48102 25.15441 -12.66331
#
# Velocity S-wave (km/s) = -4.76103 3.36081 -2.38457
# Velocity P-wave (km/s) = 3.25824 6.03702 3.59371
#
# Compressibility (1/GPa) = 0.02290133
#
# Stress axis : x y z
#
# Youngs Moduli (GPa) = 64.04277 49.31690 63.51334
#
# Poissons Ratio (x) = 0.07123 0.35528
# Poissons Ratio (y) = 0.09250 0.46551
# Poissons Ratio (z) = 0.35824 0.36146
#
# Static dielectric constant tensor:
#      x y z
#    x 1.867040 -0.000010 -0.017440 
#    y -0.000010 1.806730 0.000030 
#    z -0.017440 0.000030 1.850590 
# 
# From -- ./inp_files/170786.got.cif
#   From: 2010.05.17/outbox.cif.g08.bks.cpg/sg12_86_cif.got.tgz:170786.got - 2010.06.03 13:09:07.
