data_PCOD9218190
_publ_section_title
;
Structure prediction by ZEFSAII (Michael W. Deem and Ramdas Pophale) SiO2 
 PCOD9218190
Probable space group: C 2/M
;
_chemical_formula_sum "Si O2"
_cell_formula_units_Z 44
_cell_length_a 10.853277
_cell_length_b 21.717691
_cell_length_c 7.946509
_cell_angle_alpha 90.000000
_cell_angle_beta 70.908403
_cell_angle_gamma 90.000000
_cell_volume 1770.032728
_symmetry_space_group_name_H-M "C 2/M"
_symmetry_group_IT_number 12
_symmetry_cell_setting 'monoclinic'
loop_
_space_group_symop_operation_xyz
x,y,z
-x,y,-z
-x,-y,-z
x,-y,z
1/2+x,1/2+y,z
1/2-x,1/2+y,-z
1/2-x,1/2-y,-z
1/2+x,1/2-y,z
loop_
_atom_site_type_symbol
_atom_site_label
_atom_site_fract_x
_atom_site_fract_y
_atom_site_fract_z
Si Si1 0.129683 0.361880 0.732229
Si Si2 0.258663 0.000000 0.678024
Si Si3 0.614238 0.303118 0.238879
Si Si4 0.500000 0.245317 0.000000
Si Si5 0.385314 0.000000 0.274180
Si Si6 0.172551 0.000000 0.086524
Si Si7 0.000000 0.304112 0.500000
Si Si8 0.966973 0.913855 0.322612
O O1 0.275300 0.348909 0.737498
O O2 0.069966 0.430049 0.791996
O O3 0.099957 0.348296 0.552655
O O4 0.058804 0.302899 0.843335
O O5 0.169222 0.058379 0.670025
O O6 0.366987 0.000000 0.484352
O O7 0.264294 0.000000 0.879673
O O8 0.595253 0.242020 0.354995
O O9 0.479159 0.341112 0.311648
O O10 0.612179 0.284241 0.043455
O O11 0.253389 0.000000 0.222396
O O12 0.073646 0.057385 0.146974
O O13 0.000000 0.932512 0.500000
#
# Coordination Sequence:
#
# PCOD9218190 Si02
#       8
#     8   4   8   4   4   4   4   8
#     4  11  24  47  68  95 132 175 235 282 340 401
#     4  11  23  37  58 103 143 177 220 278 345 413
#     4  11  21  39  69 101 133 179 218 275 344 412
#     4  10  26  43  66  99 140 178 220 286 334 404
#     4  12  24  45  70  94 133 185 227 288 336 393
#     4  11  21  37  56  95 138 180 215 271 331 408
#     4  10  24  43  64  95 130 180 226 274 334 400
#     4  11  18  34  62  92 144 175 208 273 343 406
#
# _framework density 24.858295999999999
#
# number of rings (size 3 to 8) (size 9 to 14) (size 15 to 20)
#    0.000    1.091    4.545    2.727    2.545    0.727 
#    6.545    0.000    0.000    0.000    0.000    0.000 
#    0.000    0.000    0.000    0.000    0.000    0.000 
#
# Total GULP energy -122612.181692 kJ/mol
# GULP energy per Si atom -5573.280986 kJ/mol
# Density = 2.480172 g / cm^3
# Si number density = 24.858296 Si / 1000 Ang^3
#
#
#
# Elastic Constant Matrix: (Units=GPa)
#
#
# Indices 1 2 3 4 5 6 
#
# 1 75.2198 33.4313 21.0525 0.0000 26.1992 0.0000
# 2 33.4313 151.2346 20.8596 0.0000 26.3263 0.0000
# 3 21.0525 20.8596 102.0220 0.0000 15.0748 0.0000
# 4 0.0000 0.0000 0.0000 7.9651 0.0000 -9.6165
# 5 26.1992 26.3263 15.0748 0.0000 22.6971 0.0000
# 6 0.0000 0.0000 0.0000 -9.6165 0.0000 25.3603
#
#
#
# Elastic Compliance Matrix: (Units=1/GPa)
#
#
# Indices 1 2 3 4 5 6 
#
# 1 0.022340 -0.000539 -0.000867 0.000000 -0.024586 0.000000
# 2 -0.000539 0.008307 -0.000283 0.000000 -0.008825 0.000000
# 3 -0.000867 -0.000283 0.010913 0.000000 -0.005919 0.000000
# 4 0.000000 0.000000 0.000000 0.231558 0.000000 0.087806
# 5 -0.024586 -0.008825 -0.005919 0.000000 0.086605 0.000000
# 6 0.000000 0.000000 0.000000 0.087806 0.000000 0.072727
#
#
# Mechanical properties :
#
#
# Convention : Reuss Voigt Hill
#
# Bulk Modulus (GPa) = 26.19066 53.24036 39.71551
# Shear Modulus (GPa) = 11.14690 28.08004 19.61347
#
# Velocity S-wave (km/s) = 2.11988 3.36461 2.81198
# Velocity P-wave (km/s) = 4.06826 6.04633 5.15310
#
# Compressibility (1/GPa) = 0.03818155
#
# Stress axis : x y z
#
# Youngs Moduli (GPa) = 44.76301 120.38630 91.63210
#
# Poissons Ratio (x) = 0.06488 0.07943
# Poissons Ratio (y) = 0.02413 0.02595
# Poissons Ratio (z) = 0.03880 0.03410
#
# Static dielectric constant tensor:
#      x y z
#    x 2.038630 0.000000 -0.037390 
#    y 0.000000 1.960810 0.000000 
#    z -0.037390 0.000000 2.205170 
# 
# From -- ./inp_files/49363.got.cif
#   From: 2010.05.17/outbox.cif.g08.bks.cpg/sg12_25_cif.got.tgz:49363.got - 2010.06.03 13:09:07.
