data_PCOD9218702
_publ_section_title
;
Structure prediction by ZEFSAII (Michael W. Deem and Ramdas Pophale) SiO2 
 PCOD9218702
Probable space group: C 2/M
;
_chemical_formula_sum "Si O2"
_cell_formula_units_Z 48
_cell_length_a 14.435224
_cell_length_b 27.535963
_cell_length_c 8.531163
_cell_angle_alpha 90.000000
_cell_angle_beta 39.994767
_cell_angle_gamma 90.000000
_cell_volume 2179.476836
_symmetry_space_group_name_H-M "C 2/M"
_symmetry_group_IT_number 12
_symmetry_cell_setting 'monoclinic'
loop_
_space_group_symop_operation_xyz
x,y,z
-x,y,-z
-x,-y,-z
x,-y,z
1/2+x,1/2+y,z
1/2-x,1/2+y,-z
1/2-x,1/2-y,-z
1/2+x,1/2-y,z
loop_
_atom_site_type_symbol
_atom_site_label
_atom_site_fract_x
_atom_site_fract_y
_atom_site_fract_z
Si Si1 0.179068 0.057034 0.606546
Si Si2 0.413191 0.133860 0.269932
Si Si3 0.368820 0.683271 0.788555
Si Si4 0.072074 0.449982 0.236125
Si Si5 0.444584 0.776086 0.898328
Si Si6 0.862096 0.082478 0.971754
O O1 0.274010 0.101296 0.415463
O O2 0.021085 0.062634 0.740573
O O3 0.222388 0.000000 0.537162
O O4 0.171450 0.071412 0.801550
O O5 0.507860 0.097197 0.245829
O O6 0.428189 0.187048 0.327362
O O7 0.500000 0.142735 0.000000
O O8 0.500000 0.670943 0.500000
O O9 0.422388 0.730034 0.816276
O O10 0.350055 0.638345 0.933517
O O11 0.214058 0.696853 0.906988
O O12 0.036009 0.500000 0.196624
O O13 0.000000 0.452240 0.500000
O O14 0.241377 0.445286 0.032150
O O15 0.500000 0.760288 0.000000
#
# Coordination Sequence:
#
# PCOD9218702 Si02
#       6
#     8   8   8   8   8   8
#     4  11  24  42  67  99 140 185 235 281 336 415
#     4  11  24  42  65  98 132 174 225 284 339 396
#     4  11  26  45  69 104 139 175 230 291 347 413
#     4  11  21  38  65  94 129 176 230 278 331 400
#     4  10  25  47  69  97 135 181 231 282 348 416
#     4  11  23  40  65  98 137 177 224 281 343 406
#
# _framework density 22.023636
#
# number of rings (size 3 to 8) (size 9 to 14) (size 15 to 20)
#    0.000    1.167    3.333    2.500    7.000    5.333 
#    0.000    0.000    0.000    5.500    0.000    0.000 
#    0.000    0.000    0.000    0.000    0.000    0.000 
#
# Total GULP energy -133819.736602 kJ/mol
# GULP energy per Si atom -5575.822358 kJ/mol
# Density = 2.197351 g / cm^3
# Si number density = 22.023636 Si / 1000 Ang^3
#
#
#
# Elastic Constant Matrix: (Units=GPa)
#
#
# Indices 1 2 3 4 5 6 
#
# 1 89.0157 15.8090 8.3718 0.0000 -26.5575 0.0000
# 2 15.8090 137.3976 13.2743 0.0000 -3.8208 0.0000
# 3 8.3718 13.2743 40.4045 0.0000 -28.4939 0.0000
# 4 0.0000 0.0000 0.0000 87.4830 0.0000 -84.9070
# 5 -26.5575 -3.8208 -28.4939 0.0000 36.7235 0.0000
# 6 0.0000 0.0000 0.0000 -84.9070 0.0000 158.4199
#
#
#
# Elastic Compliance Matrix: (Units=1/GPa)
#
#
# Indices 1 2 3 4 5 6 
#
# 1 0.017065 -0.002594 0.012873 0.000000 0.022059 0.000000
# 2 -0.002594 0.008017 -0.006252 0.000000 -0.005893 0.000000
# 3 0.012873 -0.006252 0.066788 0.000000 0.060480 0.000000
# 4 0.000000 0.000000 0.000000 0.023823 0.000000 0.012768
# 5 0.022059 -0.005893 0.060480 0.000000 0.089497 0.000000
# 6 0.000000 0.000000 0.000000 0.012768 0.000000 0.013156
#
#
# Mechanical properties :
#
#
# Convention : Reuss Voigt Hill
#
# Bulk Modulus (GPa) = 10.00758 37.96979 23.98869
# Shear Modulus (GPa) = 20.52555 71.81610 46.17083
#
# Velocity S-wave (km/s) = 3.05614 5.71659 4.58364
# Velocity P-wave (km/s) = 4.12398 7.80067 6.23930
#
# Compressibility (1/GPa) = 0.09992423
#
# Stress axis : x y z
#
# Youngs Moduli (GPa) = 58.59856 124.73912 14.97281
#
# Poissons Ratio (x) = 0.32355 -0.19274
# Poissons Ratio (y) = 0.15199 0.09361
# Poissons Ratio (z) = -0.75433 0.77985
#
# Static dielectric constant tensor:
#      x y z
#    x 1.818200 0.000000 -0.036680 
#    y 0.000000 1.946560 0.000000 
#    z -0.036680 0.000000 1.826060 
# 
# From -- ./inp_files/67330.got.cif
#   From: 2010.05.17/outbox.cif.g08.bks.cpg/sg12_34_cif.got.tgz:67330.got - 2010.06.03 13:09:07.
