data_PCOD9218072
_publ_section_title
;
Structure prediction by ZEFSAII (Michael W. Deem and Ramdas Pophale) SiO2 
 PCOD9218072
Probable space group: C 2/M
;
_chemical_formula_sum "Si O2"
_cell_formula_units_Z 40
_cell_length_a 25.655918
_cell_length_b 8.844191
_cell_length_c 19.631456
_cell_angle_alpha 90.000000
_cell_angle_beta 151.893563
_cell_angle_gamma 90.000000
_cell_volume 2098.560100
_symmetry_space_group_name_H-M "C 2/M"
_symmetry_group_IT_number 12
_symmetry_cell_setting 'monoclinic'
loop_
_space_group_symop_operation_xyz
x,y,z
-x,y,-z
-x,-y,-z
x,-y,z
1/2+x,1/2+y,z
1/2-x,1/2+y,-z
1/2-x,1/2-y,-z
1/2+x,1/2-y,z
loop_
_atom_site_type_symbol
_atom_site_label
_atom_site_fract_x
_atom_site_fract_y
_atom_site_fract_z
Si Si1 0.974756 0.318629 0.335026
Si Si2 0.433819 0.318892 0.141551
Si Si3 0.770729 0.681171 0.192205
Si Si4 0.213055 0.180027 0.643697
Si Si5 0.341666 0.181383 0.656317
O O1 0.978443 0.500000 0.334834
O O2 0.931978 0.252447 0.214403
O O3 0.888922 0.277073 0.295750
O O4 0.096490 0.256131 0.489986
O O5 0.443411 0.500000 0.158496
O O6 0.541198 0.253413 0.227339
O O7 0.324669 0.283086 0.972248
O O8 0.770502 0.500000 0.202769
O O9 0.752099 0.761860 0.242241
O O10 0.301383 0.215490 0.686432
O O11 0.197883 0.000000 0.626994
O O12 0.250000 0.250000 0.500000
O O13 0.346062 0.000000 0.652642
#
# Coordination Sequence:
#
# PCOD9218072 Si02
#       5
#     8   8   8   8   8
#     4  11  22  39  64  90 121 162 205 248 299 361
#     4  11  23  40  63  91 123 159 203 251 301 359
#     4  10  24  42  60  89 126 162 200 247 305 362
#     4  11  24  40  62  91 122 158 202 252 303 358
#     4  11  23  40  63  90 120 157 202 252 302 357
#
# _framework density 19.060687999999999
#
# number of rings (size 3 to 8) (size 9 to 14) (size 15 to 20)
#    0.000    1.200    2.000    3.600    0.000    8.800 
#    0.000    4.000    0.000    0.000    0.000    0.000 
#    0.000    0.000    0.000    0.000    0.000    0.000 
#
# Total GULP energy -111873.537467 kJ/mol
# GULP energy per Si atom -5593.676873 kJ/mol
# Density = 1.901731 g / cm^3
# Si number density = 19.060688 Si / 1000 Ang^3
#
#
#
# Elastic Constant Matrix: (Units=GPa)
#
#
# Indices 1 2 3 4 5 6 
#
# 1 75.7030 8.5876 -7.4023 0.0000 -3.2892 0.0000
# 2 8.5876 21.1965 3.2231 0.0000 -1.2380 0.0000
# 3 -7.4023 3.2231 20.9038 0.0000 -10.3057 0.0000
# 4 0.0000 0.0000 0.0000 31.9918 0.0000 -4.8061
# 5 -3.2892 -1.2380 -10.3057 0.0000 31.1382 0.0000
# 6 0.0000 0.0000 0.0000 -4.8061 0.0000 35.0838
#
#
#
# Elastic Compliance Matrix: (Units=1/GPa)
#
#
# Indices 1 2 3 4 5 6 
#
# 1 0.015021 -0.007130 0.008438 0.000000 0.004096 0.000000
# 2 -0.007130 0.051705 -0.011776 0.000000 -0.002595 0.000000
# 3 0.008438 -0.011776 0.063155 0.000000 0.021325 0.000000
# 4 0.000000 0.000000 0.000000 0.031915 0.000000 0.004372
# 5 0.004096 -0.002595 0.021325 0.000000 0.039502 0.000000
# 6 0.000000 0.000000 0.000000 0.004372 0.000000 0.029102
#
#
# Mechanical properties :
#
#
# Convention : Reuss Voigt Hill
#
# Bulk Modulus (GPa) = 9.17889 14.06891 11.62390
# Shear Modulus (GPa) = 17.38207 27.20242 22.29225
#
# Velocity S-wave (km/s) = 3.02310 3.78186 3.42356
# Velocity P-wave (km/s) = 4.12451 5.14462 4.66254
#
# Compressibility (1/GPa) = 0.10894569
#
# Stress axis : x y z
#
# Youngs Moduli (GPa) = 66.57209 19.34041 15.83394
#
# Poissons Ratio (x) = 0.13789 -0.13360
# Poissons Ratio (y) = 0.47463 0.18647
# Poissons Ratio (z) = -0.56172 0.22776
#
# Static dielectric constant tensor:
#      x y z
#    x 1.646420 0.000000 -0.000530 
#    y 0.000000 1.637900 0.000000 
#    z -0.000530 0.000000 1.629920 
# 
# From -- ./inp_files/151697.got.cif
#   From: 2010.05.17/outbox.cif.g08.bks.cpg/sg12_76_cif.got.tgz:151697.got - 2010.06.03 13:09:07.
