data_PCOD9218295
_publ_section_title
;
Structure prediction by ZEFSAII (Michael W. Deem and Ramdas Pophale) SiO2 
 PCOD9218295
Probable space group: C 2/M
;
_chemical_formula_sum "Si O2"
_cell_formula_units_Z 38
_cell_length_a 20.093571
_cell_length_b 20.416943
_cell_length_c 10.145786
_cell_angle_alpha 90.000000
_cell_angle_beta 28.905787
_cell_angle_gamma 90.000000
_cell_volume 2011.935045
_symmetry_space_group_name_H-M "C 2/M"
_symmetry_group_IT_number 12
_symmetry_cell_setting 'monoclinic'
loop_
_space_group_symop_operation_xyz
x,y,z
-x,y,-z
-x,-y,-z
x,-y,z
1/2+x,1/2+y,z
1/2-x,1/2+y,-z
1/2-x,1/2-y,-z
1/2+x,1/2-y,z
loop_
_atom_site_type_symbol
_atom_site_label
_atom_site_fract_x
_atom_site_fract_y
_atom_site_fract_z
Si Si1 0.896333 0.289433 0.416718
Si Si2 0.656441 0.425424 0.177975
Si Si3 0.000000 0.000000 0.000000
Si Si4 0.718449 0.795060 0.928041
Si Si5 0.832841 0.113844 0.146561
Si Si6 0.500000 0.723345 0.000000
O O1 0.812382 0.236365 0.649647
O O2 0.820253 0.358852 0.565021
O O3 0.055576 0.293089 0.183642
O O4 0.899322 0.268071 0.259464
O O5 0.500000 0.423952 0.500000
O O6 0.708607 0.500000 0.104908
O O7 0.737702 0.369141 0.114452
O O8 0.654226 0.407470 0.027239
O O9 0.891386 0.056838 0.136441
O O10 0.750000 0.750000 0.000000
O O11 0.925748 0.176578 0.023575
#
# Coordination Sequence:
#
# PCOD9218295 Si02
#       6
#     8   8   2   8   8   4
#     4  12  24  41  66  99 135 169 220 272 336 379
#     4  11  23  42  64  97 129 173 225 267 332 396
#     4  10  24  44  66  92 128 178 226 254 330 396
#     4  12  23  40  66  99 135 172 215 278 330 396
#     4  11  22  41  67  92 127 174 217 275 315 396
#     4  11  22  41  64  99 126 167 220 270 327 384
#
# _framework density 18.88729
#
# number of rings (size 3 to 8) (size 9 to 14) (size 15 to 20)
#    0.000    0.632    5.263    3.789    0.000    0.000 
#    1.895    1.053    0.000    0.632    0.000    0.000 
#    0.000    0.000    0.000    0.000    0.000    0.000 
#
# Total GULP energy -105829.947377 kJ/mol
# GULP energy per Si atom -5569.997230 kJ/mol
# Density = 1.884430 g / cm^3
# Si number density = 18.887290 Si / 1000 Ang^3
#
#
#
# Elastic Constant Matrix: (Units=GPa)
#
#
# Indices 1 2 3 4 5 6 
#
# 1 73.3414 70.0165 63.4209 0.0000 -9.1955 0.0000
# 2 70.0165 171.6502 74.7113 0.0001 -4.8622 0.0001
# 3 63.4209 74.7113 139.3884 0.0006 -4.8276 0.0004
# 4 0.0000 0.0001 0.0006 39.9701 -0.0001 0.9391
# 5 -9.1955 -4.8622 -4.8276 -0.0001 47.9217 -0.0001
# 6 0.0000 0.0001 0.0004 0.9391 -0.0001 63.0670
#
#
#
# Elastic Compliance Matrix: (Units=1/GPa)
#
#
# Indices 1 2 3 4 5 6 
#
# 1 0.029610 -0.008036 -0.009028 0.000000 0.003957 0.000000
# 2 -0.008036 0.009786 -0.001613 0.000000 -0.000712 0.000000
# 3 -0.009028 -0.001613 0.012123 0.000000 -0.000675 0.000000
# 4 0.000000 0.000000 0.000000 0.025027 0.000000 -0.000373
# 5 0.003957 -0.000712 -0.000675 0.000000 0.021486 0.000000
# 6 0.000000 0.000000 0.000000 -0.000373 0.000000 0.015862
#
#
# Mechanical properties :
#
#
# Convention : Reuss Voigt Hill
#
# Bulk Modulus (GPa) = 70.60254 88.96414 79.78334
# Shear Modulus (GPa) = 32.05735 41.94050 36.99893
#
# Velocity S-wave (km/s) = 4.12430 4.71740 4.43078
# Velocity P-wave (km/s) = 7.75512 8.76794 8.27704
#
# Compressibility (1/GPa) = 0.01416380
#
# Stress axis : x y z
#
# Youngs Moduli (GPa) = 33.77277 102.18762 82.48709
#
# Poissons Ratio (x) = 0.82122 0.74467
# Poissons Ratio (y) = 0.27141 0.13308
# Poissons Ratio (z) = 0.30489 0.16486
#
# Static dielectric constant tensor:
#      x y z
#    x 1.687350 0.000000 -0.007420 
#    y 0.000000 1.645130 0.000000 
#    z -0.007420 0.000000 1.657750 
# 
# From -- ./inp_files/177859.got.cif
#   From: 2010.05.17/outbox.cif.g08.bks.cpg/sg12_89_cif.got.tgz:177859.got - 2010.06.03 13:09:07.
