data_PCOD9218480
_publ_section_title
;
Structure prediction by ZEFSAII (Michael W. Deem and Ramdas Pophale) SiO2 
 PCOD9218480
Probable space group: C 2/M
;
_chemical_formula_sum "Si O2"
_cell_formula_units_Z 40
_cell_length_a 16.456158
_cell_length_b 14.860751
_cell_length_c 8.078903
_cell_angle_alpha 90.000000
_cell_angle_beta 114.145606
_cell_angle_gamma 90.000000
_cell_volume 1802.846259
_symmetry_space_group_name_H-M "C 2/M"
_symmetry_group_IT_number 12
_symmetry_cell_setting 'monoclinic'
loop_
_space_group_symop_operation_xyz
x,y,z
-x,y,-z
-x,-y,-z
x,-y,z
1/2+x,1/2+y,z
1/2-x,1/2+y,-z
1/2-x,1/2-y,-z
1/2+x,1/2-y,z
loop_
_atom_site_type_symbol
_atom_site_label
_atom_site_fract_x
_atom_site_fract_y
_atom_site_fract_z
Si Si1 0.500000 0.774496 0.500000
Si Si2 0.243852 0.602761 0.094085
Si Si3 0.548674 0.104310 0.810976
Si Si4 0.354327 0.397021 0.862080
Si Si5 0.674542 0.316621 0.509409
Si Si6 0.500000 0.754633 0.000000
O O1 0.437648 0.845547 0.349731
O O2 0.427521 0.714354 0.537231
O O3 0.266452 0.500000 0.152867
O O4 0.288009 0.657362 0.278378
O O5 0.137915 0.610389 0.992750
O O6 0.277670 0.617908 0.934901
O O7 0.522004 0.000000 0.776796
O O8 0.481054 0.173770 0.839142
O O9 0.387324 0.500000 0.916312
O O10 0.331436 0.387072 0.648721
O O11 0.420393 0.315032 0.960256
O O12 0.750000 0.250000 0.500000
#
# Coordination Sequence:
#
# PCOD9218480 Si02
#       6
#     4   8   8   8   8   4
#     4  12  25  44  69 108 142 188 241 300 361 430
#     4  10  24  46  71 102 141 186 239 299 357 427
#     4  11  24  44  69 100 137 182 236 298 362 422
#     4  11  24  44  70 102 141 187 235 290 358 428
#     4  12  25  45  71 106 146 191 241 297 363 432
#     4  12  22  42  64 100 138 178 230 288 354 420
#
# _framework density 22.187138999999998
#
# number of rings (size 3 to 8) (size 9 to 14) (size 15 to 20)
#    0.000    0.800    2.000    5.100    0.000    2.400 
#    0.000    3.000    0.000    0.000    0.000    0.000 
#    0.000    0.000    0.000    0.000    0.000    0.000 
#
# Total GULP energy -111399.152520 kJ/mol
# GULP energy per Si atom -5569.957626 kJ/mol
# Density = 2.213664 g / cm^3
# Si number density = 22.187139 Si / 1000 Ang^3
#
#
#
# Elastic Constant Matrix: (Units=GPa)
#
#
# Indices 1 2 3 4 5 6 
#
# 1 120.0422 61.2644 19.3013 0.0000 -14.5558 0.0000
# 2 61.2644 126.0690 29.9731 0.0000 -22.9478 0.0000
# 3 19.3013 29.9731 102.6701 0.0000 -18.5000 0.0000
# 4 0.0000 0.0000 0.0000 44.7242 0.0000 -4.5428
# 5 -14.5558 -22.9478 -18.5000 0.0000 20.6853 0.0000
# 6 0.0000 0.0000 0.0000 -4.5428 0.0000 24.3701
#
#
#
# Elastic Compliance Matrix: (Units=1/GPa)
#
#
# Indices 1 2 3 4 5 6 
#
# 1 0.011171 -0.004984 -0.000268 0.000000 0.002092 0.000000
# 2 -0.004984 0.012266 -0.000982 0.000000 0.009222 0.000000
# 3 -0.000268 -0.000982 0.011738 0.000000 0.009220 0.000000
# 4 0.000000 0.000000 0.000000 0.022791 0.000000 0.004248
# 5 0.002092 0.009222 0.009220 0.000000 0.068292 0.000000
# 6 0.000000 0.000000 0.000000 0.004248 0.000000 0.041826
#
#
# Mechanical properties :
#
#
# Convention : Reuss Voigt Hill
#
# Bulk Modulus (GPa) = 44.03971 63.31765 53.67868
# Shear Modulus (GPa) = 26.57842 33.83876 30.20859
#
# Velocity S-wave (km/s) = 3.46485 3.90956 3.69390
# Velocity P-wave (km/s) = 5.99160 6.99853 6.51455
#
# Compressibility (1/GPa) = 0.02270678
#
# Stress axis : x y z
#
# Youngs Moduli (GPa) = 89.51911 81.52291 85.19028
#
# Poissons Ratio (x) = 0.40632 0.02284
# Poissons Ratio (y) = 0.44617 0.08368
# Poissons Ratio (z) = 0.02400 0.08008
#
# Static dielectric constant tensor:
#      x y z
#    x 1.874880 0.000000 -0.079110 
#    y 0.000000 1.808640 0.000000 
#    z -0.079110 0.000000 2.001120 
# 
# From -- ./inp_files/59265.got.cif
#   From: 2010.05.17/outbox.cif.g08.bks.cpg/sg12_30_cif.got.tgz:59265.got - 2010.06.03 13:09:07.
