data_PCOD9218898
_publ_section_title
;
Structure prediction by ZEFSAII (Michael W. Deem and Ramdas Pophale) SiO2 
 PCOD9218898
Probable space group: C 2/M
;
_chemical_formula_sum "Si O2"
_cell_formula_units_Z 36
_cell_length_a 16.481721
_cell_length_b 21.235372
_cell_length_c 5.405145
_cell_angle_alpha 90.000000
_cell_angle_beta 109.144092
_cell_angle_gamma 90.000000
_cell_volume 1787.155058
_symmetry_space_group_name_H-M "C 2/M"
_symmetry_group_IT_number 12
_symmetry_cell_setting 'monoclinic'
loop_
_space_group_symop_operation_xyz
x,y,z
-x,y,-z
-x,-y,-z
x,-y,z
1/2+x,1/2+y,z
1/2-x,1/2+y,-z
1/2-x,1/2-y,-z
1/2+x,1/2-y,z
loop_
_atom_site_type_symbol
_atom_site_label
_atom_site_fract_x
_atom_site_fract_y
_atom_site_fract_z
Si Si1 0.330617 0.500000 0.580624
Si Si2 0.956665 0.856141 0.206664
Si Si3 0.752715 0.825127 0.002716
Si Si4 0.694736 0.889936 0.444737
Si Si5 0.436377 0.500000 0.186383
Si Si6 0.055273 0.500000 0.305273
O O1 0.274074 0.437888 0.524072
O O2 0.381418 0.500000 0.378348
O O3 0.381410 0.500000 0.884504
O O4 0.000000 0.829789 0.500000
O O5 0.978591 0.930980 0.228589
O O6 0.853474 0.846953 0.103474
O O7 0.000000 0.829788 0.000000
O O8 0.705801 0.850514 0.708132
O O9 0.750000 0.750000 0.000000
O O10 0.705801 0.850513 0.203472
O O11 0.613421 0.936746 0.363420
O O12 0.000000 0.500000 0.500000
O O13 0.000000 0.500000 0.000000
#
# Coordination Sequence:
#
# PCOD9218898 Si02
#       6
#     4   8   8   8   4   4
#     4  11  18  35  64  91 121 158 198 259 308 381
#     4  12  24  40  61  95 134 163 204 268 323 374
#     4  12  25  45  67  92 126 183 236 257 310 397
#     4  11  22  42  68  94 129 171 215 278 323 391
#     4  12  20  36  59  93 132 158 196 246 324 388
#     4  11  24  43  69 108 137 162 216 291 366 399
#
# _framework density 20.143746
#
# number of rings (size 3 to 8) (size 9 to 14) (size 15 to 20)
#    0.000    0.444    4.444    5.333    0.000    3.556 
#    0.000    6.667    0.000    0.000    0.000    0.000 
#    0.000    0.000    0.000    0.000    0.000    0.000 
#
# Total GULP energy -100569.664694 kJ/mol
# GULP energy per Si atom -5587.203594 kJ/mol
# Density = 2.009790 g / cm^3
# Si number density = 20.143746 Si / 1000 Ang^3
#
#
#
# Elastic Constant Matrix: (Units=GPa)
#
#
# Indices 1 2 3 4 5 6 
#
# 1 125.6852 44.5150 99.5828 0.0000 -19.4659 0.0000
# 2 44.5150 135.1417 71.5616 0.0000 -15.8820 0.0000
# 3 99.5828 71.5616 225.5837 0.0000 -39.1435 0.0000
# 4 0.0000 0.0000 0.0000 21.3904 0.0000 0.6567
# 5 -19.4659 -15.8820 -39.1435 0.0000 41.1755 0.0000
# 6 0.0000 0.0000 0.0000 0.6567 0.0000 22.5143
#
#
#
# Elastic Compliance Matrix: (Units=1/GPa)
#
#
# Indices 1 2 3 4 5 6 
#
# 1 0.012477 -0.001414 -0.004946 0.000000 0.000651 0.000000
# 2 -0.001414 0.009082 -0.002113 0.000000 0.000825 0.000000
# 3 -0.004946 -0.002113 0.008071 0.000000 0.004519 0.000000
# 4 0.000000 0.000000 0.000000 0.046792 0.000000 -0.001365
# 5 0.000651 0.000825 0.004519 0.000000 0.029208 0.000000
# 6 0.000000 0.000000 0.000000 -0.001365 0.000000 0.044456
#
#
# Mechanical properties :
#
#
# Convention : Reuss Voigt Hill
#
# Bulk Modulus (GPa) = 78.85324 101.96992 90.41158
# Shear Modulus (GPa) = 29.19507 35.06613 32.13060
#
# Velocity S-wave (km/s) = 3.81115 4.17681 3.99816
# Velocity P-wave (km/s) = 7.65485 8.60186 8.14213
#
# Compressibility (1/GPa) = 0.01268179
#
# Stress axis : x y z
#
# Youngs Moduli (GPa) = 80.14601 110.11302 123.89783
#
# Poissons Ratio (x) = 0.15572 0.61286
# Poissons Ratio (y) = 0.11334 0.26186
# Poissons Ratio (z) = 0.39644 0.23272
#
# Static dielectric constant tensor:
#      x y z
#    x 1.740540 0.000000 0.002490 
#    y 0.000000 1.651860 0.000000 
#    z 0.002490 0.000000 1.736300 
# 
# From -- ./inp_files/15963.got.cif
#   From: 2010.05.17/outbox.cif.g08.bks.cpg/sg12_8_cif.got.tgz:15963.got - 2010.06.03 13:09:07.
