data_PCOD9218683
_publ_section_title
;
Structure prediction by ZEFSAII (Michael W. Deem and Ramdas Pophale) SiO2 
 PCOD9218683
Probable space group: C 2/M
;
_chemical_formula_sum "Si O2"
_cell_formula_units_Z 36
_cell_length_a 4.951880
_cell_length_b 27.497435
_cell_length_c 10.766766
_cell_angle_alpha 90.000000
_cell_angle_beta 98.912696
_cell_angle_gamma 90.000000
_cell_volume 1448.344225
_symmetry_space_group_name_H-M "C 2/M"
_symmetry_group_IT_number 12
_symmetry_cell_setting 'monoclinic'
loop_
_space_group_symop_operation_xyz
x,y,z
-x,y,-z
-x,-y,-z
x,-y,z
1/2+x,1/2+y,z
1/2-x,1/2+y,-z
1/2-x,1/2-y,-z
1/2+x,1/2-y,z
loop_
_atom_site_type_symbol
_atom_site_label
_atom_site_fract_x
_atom_site_fract_y
_atom_site_fract_z
Si Si1 0.937962 0.281629 0.849357
Si Si2 0.193974 0.141854 0.258028
Si Si3 0.920474 0.445040 0.674533
Si Si4 0.000000 0.877886 0.500000
Si Si5 0.291597 0.585237 0.084226
O O1 0.626847 0.264042 0.818193
O O2 0.063276 0.325645 0.778879
O O3 0.000000 0.288910 0.000000
O O4 0.312429 0.087174 0.283340
O O5 0.096006 0.153907 0.389571
O O6 0.947617 0.133780 0.143410
O O7 0.971266 0.500000 0.638974
O O8 0.736178 0.413567 0.567737
O O9 0.770170 0.444879 0.797026
O O10 0.500000 0.562554 0.000000
O O11 0.000000 0.594854 0.000000
#
# Coordination Sequence:
#
# PCOD9218683 Si02
#       5
#     8   8   8   4   8
#     4  10  25  46  75 111 145 185 239 298 366 440
#     4  11  25  45  77 103 150 194 245 298 365 430
#     4  11  25  45  72 105 148 198 248 300 358 430
#     4  10  25  46  70 108 146 194 250 302 355 422
#     4  11  24  43  66 105 145 194 237 296 364 429
#
# _framework density 24.855965999999999
#
# number of rings (size 3 to 8) (size 9 to 14) (size 15 to 20)
#    0.000    1.333    2.222    1.000    9.333    7.111 
#    0.000    1.111    0.000    0.000    0.000    0.000 
#    0.000    0.000    0.000    0.000    0.000    0.000 
#
# Total GULP energy -100829.179546 kJ/mol
# GULP energy per Si atom -5601.621086 kJ/mol
# Density = 2.479939 g / cm^3
# Si number density = 24.855966 Si / 1000 Ang^3
#
#
#
# Elastic Constant Matrix: (Units=GPa)
#
#
# Indices 1 2 3 4 5 6 
#
# 1 131.1854 10.2730 40.3773 0.0000 0.9833 0.0000
# 2 10.2730 98.6570 32.5789 0.0000 -6.8235 0.0000
# 3 40.3773 32.5789 179.4120 0.0000 -25.7453 0.0000
# 4 0.0000 0.0000 0.0000 8.9490 0.0000 -8.0360
# 5 0.9833 -6.8235 -25.7453 0.0000 56.4569 0.0000
# 6 0.0000 0.0000 0.0000 -8.0360 0.0000 1.5942
#
#
#
# Elastic Compliance Matrix: (Units=1/GPa)
#
#
# Indices 1 2 3 4 5 6 
#
# 1 0.008257 -0.000287 -0.001960 0.000000 -0.001072 0.000000
# 2 -0.000287 0.010803 -0.001829 0.000000 0.000477 0.000000
# 3 -0.001960 -0.001829 0.006763 0.000000 0.002897 0.000000
# 4 0.000000 0.000000 0.000000 -0.031686 0.000000 -0.159725
# 5 -0.001072 0.000477 0.002897 0.000000 0.019110 0.000000
# 6 0.000000 0.000000 0.000000 -0.159725 0.000000 -0.177871
#
#
# Mechanical properties :
#
#
# Convention : Reuss Voigt Hill
#
# Bulk Modulus (GPa) = 56.58900 63.96810 60.27855
# Shear Modulus (GPa) = -33.20404 35.13504 0.96550
#
# Velocity S-wave (km/s) = -3.65890 3.76379 0.62392
# Velocity P-wave (km/s) = 2.22847 6.68428 4.98225
#
# Compressibility (1/GPa) = 0.01767128
#
# Stress axis : x y z
#
# Youngs Moduli (GPa) = 121.11612 92.56827 147.87108
#
# Poissons Ratio (x) = 0.02654 0.28982
# Poissons Ratio (y) = 0.03472 0.27042
# Poissons Ratio (z) = 0.23738 0.16928
#
# Static dielectric constant tensor:
#      x y z
#    x 2.025790 0.000000 0.007140 
#    y 0.000000 2.016870 0.000000 
#    z 0.007140 0.000000 1.976330 
# 
# From -- ./inp_files/115301.got.cif
#   From: 2010.05.17/outbox.cif.g08.bks.cpg/sg12_58_cif.got.tgz:115301.got - 2010.06.03 13:09:07.
