data_PCOD9218310
_publ_section_title
;
Structure prediction by ZEFSAII (Michael W. Deem and Ramdas Pophale) SiO2 
 PCOD9218310
Probable space group: C 2/M
;
_chemical_formula_sum "Si O2"
_cell_formula_units_Z 48
_cell_length_a 21.080969
_cell_length_b 16.447302
_cell_length_c 17.315410
_cell_angle_alpha 90.000000
_cell_angle_beta 158.117380
_cell_angle_gamma 90.000000
_cell_volume 2237.611935
_symmetry_space_group_name_H-M "C 2/M"
_symmetry_group_IT_number 12
_symmetry_cell_setting 'monoclinic'
loop_
_space_group_symop_operation_xyz
x,y,z
-x,y,-z
-x,-y,-z
x,-y,z
1/2+x,1/2+y,z
1/2-x,1/2+y,-z
1/2-x,1/2-y,-z
1/2+x,1/2-y,z
loop_
_atom_site_type_symbol
_atom_site_label
_atom_site_fract_x
_atom_site_fract_y
_atom_site_fract_z
Si Si1 0.803463 0.089363 0.254172
Si Si2 0.643046 0.851225 0.461033
Si Si3 0.241127 0.409671 0.000722
Si Si4 0.305796 0.090448 0.308175
Si Si5 0.449879 0.692709 0.714908
Si Si6 0.108942 0.245913 0.047229
O O1 0.783927 0.089592 0.139722
O O2 0.707459 0.170198 0.171849
O O3 0.000000 0.095414 0.500000
O O4 0.740578 0.000000 0.210902
O O5 0.698088 0.885445 0.605884
O O6 0.614020 0.753618 0.423928
O O7 0.795526 0.863754 0.571271
O O8 0.456484 0.886716 0.232610
O O9 0.264150 0.500000 0.994113
O O10 0.379576 0.351237 0.119065
O O11 0.500000 0.086799 0.500000
O O12 0.222789 0.164977 0.168873
O O13 0.230121 0.000000 0.211534
O O14 0.500422 0.747876 0.846175
O O15 0.000000 0.231279 0.000000
#
# Coordination Sequence:
#
# PCOD9218310 Si02
#       6
#     8   8   8   8   8   8
#     4  10  24  44  67  98 132 173 229 284 340 404
#     4  11  23  44  67  96 137 175 225 282 334 403
#     4  11  24  42  67  98 134 178 223 280 349 406
#     4  11  25  42  66  99 133 178 227 275 338 408
#     4  11  25  42  67 102 130 178 230 276 338 415
#     4  12  24  43  68  98 133 179 221 276 343 404
#
# _framework density 21.451440999999999
#
# number of rings (size 3 to 8) (size 9 to 14) (size 15 to 20)
#    0.000    1.000    3.333    2.500    4.667    4.000 
#    0.000    0.000    0.000    0.000    0.000    0.000 
#    0.000    0.000    0.000    0.000    0.000    0.000 
#
# Total GULP energy -134074.059337 kJ/mol
# GULP energy per Si atom -5586.419139 kJ/mol
# Density = 2.140262 g / cm^3
# Si number density = 21.451441 Si / 1000 Ang^3
#
#
#
# Elastic Constant Matrix: (Units=GPa)
#
#
# Indices 1 2 3 4 5 6 
#
# 1 24.0903 13.0555 -2.8796 0.0006 2.8372 0.0007
# 2 13.0555 129.6136 39.6541 -0.0014 10.0902 -0.0007
# 3 -2.8796 39.6541 93.3685 0.0002 1.7636 0.0010
# 4 0.0006 -0.0014 0.0002 -10.2506 0.0002 -31.4135
# 5 2.8372 10.0902 1.7636 0.0002 26.6058 -0.0003
# 6 0.0007 -0.0007 0.0010 -31.4135 -0.0003 -19.6939
#
#
#
# Elastic Compliance Matrix: (Units=1/GPa)
#
#
# Indices 1 2 3 4 5 6 
#
# 1 0.045289 -0.005486 0.003783 0.000001 -0.003000 0.000001
# 2 -0.005486 0.009798 -0.004277 0.000000 -0.002847 -0.000001
# 3 0.003783 -0.004277 0.012636 0.000000 0.000381 0.000000
# 4 0.000001 0.000000 0.000000 0.025090 -0.000001 -0.040021
# 5 -0.003000 -0.002847 0.000381 -0.000001 0.038960 0.000001
# 6 0.000001 -0.000001 0.000000 -0.040021 0.000001 0.013059
#
#
# Mechanical properties :
#
#
# Convention : Reuss Voigt Hill
#
# Bulk Modulus (GPa) = 17.93254 38.52584 28.22919
# Shear Modulus (GPa) = 28.50978 12.48177 20.49577
#
# Velocity S-wave (km/s) = 3.64955 2.41480 3.09439
# Velocity P-wave (km/s) = 5.11241 5.07676 5.09462
#
# Compressibility (1/GPa) = 0.05576455
#
# Stress axis : x y z
#
# Youngs Moduli (GPa) = 22.08050 102.06332 79.13882
#
# Poissons Ratio (x) = 0.55989 -0.29940
# Poissons Ratio (y) = 0.12113 0.33844
# Poissons Ratio (z) = -0.08354 0.43648
#
# Static dielectric constant tensor:
#      x y z
#    x 1.769020 0.000000 -0.004070 
#    y 0.000000 1.840040 0.000000 
#    z -0.004070 0.000000 1.799980 
# 
# From -- ./inp_files/104955.got.cif
#   From: 2010.05.17/outbox.cif.g08.bks.cpg/sg12_53_cif.got.tgz:104955.got - 2010.06.03 13:09:07.
