data_PCOD9218827
_publ_section_title
;
Structure prediction by ZEFSAII (Michael W. Deem and Ramdas Pophale) SiO2 
 PCOD9218827
Probable space group: C 2/M
;
_chemical_formula_sum "Si O2"
_cell_formula_units_Z 64
_cell_length_a 16.367333
_cell_length_b 31.672518
_cell_length_c 13.192978
_cell_angle_alpha 90.000000
_cell_angle_beta 143.655483
_cell_angle_gamma 90.000000
_cell_volume 4053.159632
_symmetry_space_group_name_H-M "C 2/M"
_symmetry_group_IT_number 12
_symmetry_cell_setting 'monoclinic'
loop_
_space_group_symop_operation_xyz
x,y,z
-x,y,-z
-x,-y,-z
x,-y,z
1/2+x,1/2+y,z
1/2-x,1/2+y,-z
1/2-x,1/2-y,-z
1/2+x,1/2-y,z
loop_
_atom_site_type_symbol
_atom_site_label
_atom_site_fract_x
_atom_site_fract_y
_atom_site_fract_z
Si Si1 0.201044 0.866993 0.101982
Si Si2 0.912127 0.777703 0.313862
Si Si3 0.983258 0.186682 0.788457
Si Si4 0.579594 0.224155 0.978157
Si Si5 0.852917 0.547250 0.489173
Si Si6 0.047566 0.685208 0.730973
Si Si7 0.327536 0.953587 0.218399
Si Si8 0.770283 0.361799 0.408616
O O1 0.309903 0.836125 0.157579
O O2 0.232801 0.914289 0.098405
O O3 0.225190 0.862505 0.245972
O O4 0.054160 0.851310 0.919753
O O5 0.952943 0.806627 0.258881
O O6 0.745759 0.775613 0.159685
O O7 0.000000 0.790297 0.500000
O O8 0.959788 0.730553 0.330554
O O9 0.824756 0.172257 0.628488
O O10 0.021677 0.229552 0.887371
O O11 0.500000 0.211542 0.000000
O O12 0.546608 0.194292 0.849765
O O13 0.811588 0.500000 0.483390
O O14 0.838379 0.546917 0.352014
O O15 0.774315 0.589140 0.448303
O O16 0.017674 0.552114 0.669544
O O17 0.925176 0.655498 0.571567
O O18 0.277220 0.000000 0.137937
#
# Coordination Sequence:
#
# PCOD9218827 Si02
#       8
#     8   8   8   8   8   8   8   8
#     4  11  17  33  49  71 103 137 164 206 243 287
#     4  11  23  38  54  70  98 134 165 209 256 293
#     4  11  23  36  49  72 104 130 171 209 243 291
#     4  11  23  38  53  71 100 131 162 214 259 285
#     4   8  14  26  42  68 101 130 162 201 239 286
#     4  11  21  34  52  73  99 129 173 205 240 294
#     4   8  14  24  44  69  96 131 167 199 240 289
#     4  11  21  29  51  78  98 139 172 199 238 298
#
# _framework density 15.790150000000001
#
# number of rings (size 3 to 8) (size 9 to 14) (size 15 to 20)
#    0.000    1.750    3.750    3.750    3.500    1.000 
#    0.000    0.625    0.000    3.000    0.000    0.000 
#    0.000    6.000    0.000    0.000    0.000    0.000 
#
# Total GULP energy -178344.738756 kJ/mol
# GULP energy per Si atom -5573.273086 kJ/mol
# Density = 1.575421 g / cm^3
# Si number density = 15.790150 Si / 1000 Ang^3
#
#
#
# Elastic Constant Matrix: (Units=GPa)
#
#
# Indices 1 2 3 4 5 6 
#
# 1 71.1937 14.4876 11.3893 0.0000 -5.5220 0.0000
# 2 14.4876 72.3000 4.6929 0.0000 -6.8773 0.0000
# 3 11.3893 4.6929 41.6430 0.0000 -9.3106 0.0000
# 4 0.0000 0.0000 0.0000 12.9510 0.0000 2.6025
# 5 -5.5220 -6.8773 -9.3106 0.0000 15.6283 0.0000
# 6 0.0000 0.0000 0.0000 2.6025 0.0000 9.5792
#
#
#
# Elastic Compliance Matrix: (Units=1/GPa)
#
#
# Indices 1 2 3 4 5 6 
#
# 1 0.015297 -0.002633 -0.003389 0.000000 0.002227 0.000000
# 2 -0.002633 0.014891 0.000345 0.000000 0.005828 0.000000
# 3 -0.003389 0.000345 0.028459 0.000000 0.015909 0.000000
# 4 0.000000 0.000000 0.000000 0.081673 0.000000 -0.022189
# 5 0.002227 0.005828 0.015909 0.000000 0.076816 0.000000
# 6 0.000000 0.000000 0.000000 -0.022189 0.000000 0.110421
#
#
# Mechanical properties :
#
#
# Convention : Reuss Voigt Hill
#
# Bulk Modulus (GPa) = 21.14528 27.36405 24.25466
# Shear Modulus (GPa) = 14.09742 17.93616 16.01679
#
# Velocity S-wave (km/s) = 2.99121 3.37398 3.18835
# Velocity P-wave (km/s) = 5.03491 5.70489 5.38034
#
# Compressibility (1/GPa) = 0.04729187
#
# Stress axis : x y z
#
# Youngs Moduli (GPa) = 65.37241 67.15509 35.13882
#
# Poissons Ratio (x) = 0.17685 0.11909
# Poissons Ratio (y) = 0.17215 -0.01213
# Poissons Ratio (z) = 0.22155 -0.02318
#
# Static dielectric constant tensor:
#      x y z
#    x 1.525170 0.000000 0.006550 
#    y 0.000000 1.543940 0.000000 
#    z 0.006550 0.000000 1.520680 
# 
# From -- ./inp_files/150302.got.cif
#   From: 2010.05.17/outbox.cif.g08.bks.cpg/sg12_76_cif.got.tgz:150302.got - 2010.06.03 13:09:07.
