data_PCOD9218463
_publ_section_title
;
Structure prediction by ZEFSAII (Michael W. Deem and Ramdas Pophale) SiO2 
 PCOD9218463
Probable space group: C 2/M
;
_chemical_formula_sum "Si O2"
_cell_formula_units_Z 40
_cell_length_a 24.493457
_cell_length_b 8.793396
_cell_length_c 8.403947
_cell_angle_alpha 90.000000
_cell_angle_beta 83.035636
_cell_angle_gamma 90.000000
_cell_volume 1796.692739
_symmetry_space_group_name_H-M "C 2/M"
_symmetry_group_IT_number 12
_symmetry_cell_setting 'monoclinic'
loop_
_space_group_symop_operation_xyz
x,y,z
-x,y,-z
-x,-y,-z
x,-y,z
1/2+x,1/2+y,z
1/2-x,1/2+y,-z
1/2-x,1/2-y,-z
1/2+x,1/2-y,z
loop_
_atom_site_type_symbol
_atom_site_label
_atom_site_fract_x
_atom_site_fract_y
_atom_site_fract_z
Si Si1 0.296139 0.172730 0.377768
Si Si2 0.766836 0.322609 0.831773
Si Si3 0.437867 0.675122 0.086153
Si Si4 0.079528 0.672963 0.563273
Si Si5 0.113711 0.183194 0.231186
O O1 0.250000 0.250000 0.500000
O O2 0.290748 0.288808 0.237184
O O3 0.354805 0.166539 0.433943
O O4 0.280549 0.000000 0.338195
O O5 0.778717 0.500000 0.825069
O O6 0.823439 0.238211 0.762487
O O7 0.750000 0.250000 0.000000
O O8 0.420598 0.500000 0.118437
O O9 0.438088 0.754482 0.260353
O O10 0.500000 0.676481 0.000000
O O11 0.403980 0.735404 0.942169
O O12 0.058770 0.500000 0.559178
O O13 0.075470 0.755883 0.391981
O O14 0.111051 0.000000 0.234702
#
# Coordination Sequence:
#
# PCOD9218463 Si02
#       5
#     8   8   8   8   8
#     4  11  22  37  59  89 126 167 207 250 304 368
#     4  12  24  38  58  88 127 168 212 261 312 376
#     4  10  24  46  69  94 124 163 215 272 328 386
#     4  11  24  41  65  97 132 170 211 262 320 382
#     4  11  23  41  67  94 125 167 214 265 322 384
#
# _framework density 22.263127999999998
#
# number of rings (size 3 to 8) (size 9 to 14) (size 15 to 20)
#    0.000    1.000    2.000    4.800    0.000    8.400 
#    0.000    4.000    0.000    0.000    0.000    0.000 
#    0.000    0.000    0.000    0.000    0.000    0.000 
#
# Total GULP energy -111386.550285 kJ/mol
# GULP energy per Si atom -5569.327514 kJ/mol
# Density = 2.221246 g / cm^3
# Si number density = 22.263128 Si / 1000 Ang^3
#
#
#
# Elastic Constant Matrix: (Units=GPa)
#
#
# Indices 1 2 3 4 5 6 
#
# 1 54.0507 8.1950 14.5271 0.0000 10.6515 0.0000
# 2 8.1950 113.7247 52.6405 0.0000 -6.3339 0.0000
# 3 14.5271 52.6405 159.7340 0.0000 -9.6127 0.0000
# 4 0.0000 0.0000 0.0000 35.1297 0.0000 -0.3539
# 5 10.6515 -6.3339 -9.6127 0.0000 35.1609 0.0000
# 6 0.0000 0.0000 0.0000 -0.3539 0.0000 11.9363
#
#
#
# Elastic Compliance Matrix: (Units=1/GPa)
#
#
# Indices 1 2 3 4 5 6 
#
# 1 0.020542 -0.000954 -0.001971 0.000000 -0.006934 0.000000
# 2 -0.000954 0.010452 -0.003281 0.000000 0.001275 0.000000
# 3 -0.001971 -0.003281 0.007647 0.000000 0.002097 0.000000
# 4 0.000000 0.000000 0.000000 0.028474 0.000000 0.000844
# 5 -0.006934 0.001275 0.002097 0.000000 0.031344 0.000000
# 6 0.000000 0.000000 0.000000 0.000844 0.000000 0.083803
#
#
# Mechanical properties :
#
#
# Convention : Reuss Voigt Hill
#
# Bulk Modulus (GPa) = 38.12630 53.13718 45.63174
# Shear Modulus (GPa) = 24.58008 33.25517 28.91762
#
# Velocity S-wave (km/s) = 3.32636 3.86908 3.60794
# Velocity P-wave (km/s) = 5.64937 6.62414 6.15608
#
# Compressibility (1/GPa) = 0.02622861
#
# Stress axis : x y z
#
# Youngs Moduli (GPa) = 48.68098 95.67975 130.76949
#
# Poissons Ratio (x) = 0.09128 0.25775
# Poissons Ratio (y) = 0.04644 0.42903
# Poissons Ratio (z) = 0.09595 0.31391
#
# Static dielectric constant tensor:
#      x y z
#    x 1.604170 0.000000 -0.253060 
#    y 0.000000 1.761440 0.000000 
#    z -0.253060 0.000000 1.524980 
# 
# From -- ./inp_files/92822.got.cif
#   From: 2010.05.17/outbox.cif.g08.bks.cpg/sg12_47_cif.got.tgz:92822.got - 2010.06.03 13:09:07.
