data_PCOD9218272
_publ_section_title
;
Structure prediction by ZEFSAII (Michael W. Deem and Ramdas Pophale) SiO2 
 PCOD9218272
Probable space group: C 2/M
;
_chemical_formula_sum "Si O2"
_cell_formula_units_Z 64
_cell_length_a 13.516397
_cell_length_b 26.553514
_cell_length_c 15.251097
_cell_angle_alpha 90.000000
_cell_angle_beta 141.820122
_cell_angle_gamma 90.000000
_cell_volume 3383.494778
_symmetry_space_group_name_H-M "C 2/M"
_symmetry_group_IT_number 12
_symmetry_cell_setting 'monoclinic'
loop_
_space_group_symop_operation_xyz
x,y,z
-x,y,-z
-x,-y,-z
x,-y,z
1/2+x,1/2+y,z
1/2-x,1/2+y,-z
1/2-x,1/2-y,-z
1/2+x,1/2-y,z
loop_
_atom_site_type_symbol
_atom_site_label
_atom_site_fract_x
_atom_site_fract_y
_atom_site_fract_z
Si Si1 0.311878 0.306642 0.048902
Si Si2 0.810107 0.193877 0.385480
Si Si3 0.694394 0.304449 0.313099
Si Si4 0.546457 0.559041 0.635349
Si Si5 0.809550 0.860830 0.865915
Si Si6 0.814446 0.639452 0.865851
Si Si7 0.549193 0.059458 0.636499
Si Si8 0.244543 0.383597 0.494504
O O1 0.503325 0.302779 0.190425
O O2 0.242115 0.335991 0.083034
O O3 0.250000 0.250000 0.000000
O O4 0.267919 0.337012 0.930438
O O5 0.772844 0.250788 0.387643
O O6 0.716873 0.180770 0.231538
O O7 0.750642 0.154296 0.416512
O O8 0.000000 0.187753 0.500000
O O9 0.727352 0.320494 0.236132
O O10 0.752018 0.348048 0.418018
O O11 0.500000 0.564226 0.500000
O O12 0.569119 0.500000 0.669253
O O13 0.702526 0.592204 0.763681
O O14 0.401977 0.582056 0.592177
O O15 0.708223 0.909846 0.771185
O O16 0.000000 0.870796 0.000000
O O17 0.000000 0.625977 0.000000
O O18 0.500000 0.067560 0.500000
O O19 0.409242 0.081347 0.600988
O O20 0.568632 0.000000 0.662723
#
# Coordination Sequence:
#
# PCOD9218272 Si02
#       8
#     8   8   8   8   8   8   8   8
#     4  11  23  41  65  91 131 178 216 258 327 387
#     4  12  24  41  66  98 132 170 216 266 329 393
#     4  11  23  39  64  98 127 170 212 267 327 392
#     4  11  23  45  71  93 125 172 220 277 333 383
#     4  10  24  44  64  93 134 170 214 267 322 388
#     4  12  24  42  63  94 135 172 214 271 318 390
#     4  11  25  44  70  98 125 170 224 276 327 377
#     4  12  22  42  66  99 128 167 213 275 332 389
#
# _framework density 18.915351999999999
#
# number of rings (size 3 to 8) (size 9 to 14) (size 15 to 20)
#    0.000    0.750    5.000    2.250    5.250    1.500 
#    0.000    0.625    0.000    0.000    0.000    0.000 
#    0.000    0.000    0.000    0.000    0.000    0.000 
#
# Total GULP energy -178955.873809 kJ/mol
# GULP energy per Si atom -5592.371057 kJ/mol
# Density = 1.887230 g / cm^3
# Si number density = 18.915352 Si / 1000 Ang^3
#
#
#
# Elastic Constant Matrix: (Units=GPa)
#
#
# Indices 1 2 3 4 5 6 
#
# 1 68.1622 42.5484 44.7638 0.0000 -7.2052 0.0000
# 2 42.5484 155.4181 55.7268 0.0000 3.2373 0.0000
# 3 44.7638 55.7268 77.4555 0.0000 -7.3173 0.0000
# 4 0.0000 0.0000 0.0000 17.2811 0.0000 -0.2060
# 5 -7.2052 3.2373 -7.3173 0.0000 25.7297 0.0000
# 6 0.0000 0.0000 0.0000 -0.2060 0.0000 51.1913
#
#
#
# Elastic Compliance Matrix: (Units=1/GPa)
#
#
# Indices 1 2 3 4 5 6 
#
# 1 0.024515 -0.002475 -0.012032 0.000000 0.003755 0.000000
# 2 -0.002475 0.009144 -0.005469 0.000000 -0.003399 0.000000
# 3 -0.012032 -0.005469 0.024196 0.000000 0.004200 0.000000
# 4 0.000000 0.000000 0.000000 0.057869 0.000000 0.000233
# 5 0.003755 -0.003399 0.004200 0.000000 0.041539 0.000000
# 6 0.000000 0.000000 0.000000 0.000233 0.000000 0.019535
#
#
# Mechanical properties :
#
#
# Convention : Reuss Voigt Hill
#
# Bulk Modulus (GPa) = 55.86220 65.23487 60.54853
# Shear Modulus (GPa) = 22.44982 29.37355 25.91168
#
# Velocity S-wave (km/s) = 3.44882 3.94495 3.70520
# Velocity P-wave (km/s) = 6.74210 7.43726 7.09820
#
# Compressibility (1/GPa) = 0.01790119
#
# Stress axis : x y z
#
# Youngs Moduli (GPa) = 40.79181 109.36425 41.32895
#
# Poissons Ratio (x) = 0.27071 0.49728
# Poissons Ratio (y) = 0.10097 0.22604
# Poissons Ratio (z) = 0.49082 0.59814
#
# Static dielectric constant tensor:
#      x y z
#    x 1.652910 0.000000 -0.008310 
#    y 0.000000 1.626350 0.000000 
#    z -0.008310 0.000000 1.619600 
# 
# From -- ./inp_files/209412.got.cif
#   From: 2010.05.17/outbox.cif.g08.bks.cpg/sg12_105_cif.got.tgz:209412.got - 2010.06.03 13:09:07.
