data_PCOD9218085
_publ_section_title
;
Structure prediction by ZEFSAII (Michael W. Deem and Ramdas Pophale) SiO2 
 PCOD9218085
Probable space group: C 2/M
;
_chemical_formula_sum "Si O2"
_cell_formula_units_Z 24
_cell_length_a 7.023515
_cell_length_b 18.842077
_cell_length_c 7.668583
_cell_angle_alpha 90.000000
_cell_angle_beta 84.752652
_cell_angle_gamma 90.000000
_cell_volume 1010.588911
_symmetry_space_group_name_H-M "C 2/M"
_symmetry_group_IT_number 12
_symmetry_cell_setting 'monoclinic'
loop_
_space_group_symop_operation_xyz
x,y,z
-x,y,-z
-x,-y,-z
x,-y,z
1/2+x,1/2+y,z
1/2-x,1/2+y,-z
1/2-x,1/2-y,-z
1/2+x,1/2-y,z
loop_
_atom_site_type_symbol
_atom_site_label
_atom_site_fract_x
_atom_site_fract_y
_atom_site_fract_z
Si Si1 0.728582 0.000000 0.522573
Si Si2 0.264644 0.347957 0.677532
Si Si3 0.000000 0.252699 0.500000
Si Si4 0.203270 0.000000 0.880879
Si Si5 0.000000 0.384133 0.000000
O O1 0.500000 0.000000 0.500000
O O2 0.780518 0.069805 0.628332
O O3 0.823988 0.000000 0.324625
O O4 0.454913 0.300697 0.665220
O O5 0.165822 0.309302 0.522920
O O6 0.121508 0.341171 0.849644
O O7 0.339393 0.066378 0.921055
O O8 0.000000 0.000000 0.000000
#
# Coordination Sequence:
#
# PCOD9218085 Si02
#       5
#     4   8   4   4   4
#     4  12  20  42  68  91 126 169 209 263 321 375
#     4  11  23  42  66  92 128 169 212 263 317 383
#     4  10  24  42  62  92 128 172 210 256 326 384
#     4  11  24  38  63 100 132 160 211 272 322 369
#     4  11  22  42  62  96 130 165 214 268 314 371
#
# _framework density 23.748528
#
# number of rings (size 3 to 8) (size 9 to 14) (size 15 to 20)
#    0.000    1.000    5.000    1.000    4.667    2.000 
#    0.000    0.000    0.000    0.000    0.000    0.000 
#    0.000    0.000    0.000    0.000    0.000    0.000 
#
# Total GULP energy -67003.454279 kJ/mol
# GULP energy per Si atom -5583.621190 kJ/mol
# Density = 2.369448 g / cm^3
# Si number density = 23.748528 Si / 1000 Ang^3
#
#
#
# Elastic Constant Matrix: (Units=GPa)
#
#
# Indices 1 2 3 4 5 6 
#
# 1 102.5641 32.2978 41.4705 0.0000 -43.5461 0.0000
# 2 32.2978 154.9844 33.0192 0.0000 -18.2366 0.0000
# 3 41.4705 33.0192 141.4354 0.0000 -60.0576 0.0000
# 4 0.0000 0.0000 0.0000 28.2634 0.0000 -20.5207
# 5 -43.5461 -18.2366 -60.0576 0.0000 49.5962 0.0000
# 6 0.0000 0.0000 0.0000 -20.5207 0.0000 23.9662
#
#
#
# Elastic Compliance Matrix: (Units=1/GPa)
#
#
# Indices 1 2 3 4 5 6 
#
# 1 0.016596 -0.002047 0.003046 0.000000 0.017507 0.000000
# 2 -0.002047 0.007077 -0.001462 0.000000 -0.000966 0.000000
# 3 0.003046 -0.001462 0.015286 0.000000 0.020647 0.000000
# 4 0.000000 0.000000 0.000000 0.093521 0.000000 0.080076
# 5 0.017507 -0.000966 0.020647 0.000000 0.060181 0.000000
# 6 0.000000 0.000000 0.000000 0.080076 0.000000 0.110290
#
#
# Mechanical properties :
#
#
# Convention : Reuss Voigt Hill
#
# Bulk Modulus (GPa) = 26.29380 68.06211 47.17796
# Shear Modulus (GPa) = 15.79503 39.84492 27.81998
#
# Velocity S-wave (km/s) = 2.58174 4.10052 3.42634
# Velocity P-wave (km/s) = 4.47023 7.15128 5.96338
#
# Compressibility (1/GPa) = 0.03803177
#
# Stress axis : x y z
#
# Youngs Moduli (GPa) = 60.25439 141.30779 65.42025
#
# Poissons Ratio (x) = 0.28932 -0.19926
# Poissons Ratio (y) = 0.12337 0.09564
# Poissons Ratio (z) = -0.18352 0.20658
#
# Static dielectric constant tensor:
#      x y z
#    x 3.809150 0.000000 -0.770110 
#    y 0.000000 1.875200 0.000000 
#    z -0.770110 0.000000 2.210710 
# 
# From -- ./inp_files/36375.got.cif
#   From: 2010.05.17/outbox.cif.g08.bks.cpg/sg12_19_cif.got.tgz:36375.got - 2010.06.03 13:09:07.
