data_PCOD9218822
_publ_section_title
;
Structure prediction by ZEFSAII (Michael W. Deem and Ramdas Pophale) SiO2 
 PCOD9218822
Probable space group: C 2/M
;
_chemical_formula_sum "Si O2"
_cell_formula_units_Z 48
_cell_length_a 21.544947
_cell_length_b 12.697501
_cell_length_c 11.633252
_cell_angle_alpha 90.000000
_cell_angle_beta 64.442687
_cell_angle_gamma 90.000000
_cell_volume 2871.081980
_symmetry_space_group_name_H-M "C 2/M"
_symmetry_group_IT_number 12
_symmetry_cell_setting 'monoclinic'
loop_
_space_group_symop_operation_xyz
x,y,z
-x,y,-z
-x,-y,-z
x,-y,z
1/2+x,1/2+y,z
1/2-x,1/2+y,-z
1/2-x,1/2-y,-z
1/2+x,1/2-y,z
loop_
_atom_site_type_symbol
_atom_site_label
_atom_site_fract_x
_atom_site_fract_y
_atom_site_fract_z
Si Si1 0.943154 0.808258 0.876733
Si Si2 0.609901 0.500000 0.502705
Si Si3 0.674698 0.700684 0.572783
Si Si4 0.433040 0.879968 0.716191
Si Si5 0.449424 0.500000 0.704386
Si Si6 0.093258 0.872775 0.847194
Si Si7 0.406611 0.119828 0.482766
O O1 0.926747 0.698918 0.827170
O O2 0.930573 0.897966 0.792608
O O3 0.023372 0.823193 0.849090
O O4 0.902171 0.831312 0.026484
O O5 0.652427 0.602195 0.509948
O O6 0.532897 0.500000 0.620871
O O7 0.590195 0.500000 0.384546
O O8 0.750000 0.750000 0.500000
O O9 0.655608 0.661295 0.715731
O O10 0.626920 0.797091 0.573675
O O11 0.513058 0.881218 0.614350
O O12 0.396979 0.848593 0.624445
O O13 0.413130 0.000000 0.760228
O O14 0.085573 0.000000 0.854746
O O15 0.380848 0.000000 0.490499
#
# Coordination Sequence:
#
# PCOD9218822 Si02
#       7
#     8   4   8   8   4   8   8
#     4  11  17  31  56  85 112 141 173 233 299 336
#     4  11  22  35  54  93 114 140 191 235 298 314
#     4  12  23  36  55  77 113 150 183 229 264 348
#     4   9  17  31  53  78 112 137 176 230 267 334
#     4  11  18  32  65  88 115 132 176 266 291 321
#     4  11  20  35  52  81 116 143 181 222 293 351
#     4   9  18  33  52  78 105 145 182 217 279 317
#
# _framework density 16.718436000000001
#
# number of rings (size 3 to 8) (size 9 to 14) (size 15 to 20)
#    0.000    1.500    5.833    2.500    1.167    2.667 
#    0.000    2.500    0.000    4.000    0.000    0.000 
#    0.000    0.000    0.000    0.000    0.000    0.000 
#
# Total GULP energy -133769.373427 kJ/mol
# GULP energy per Si atom -5573.723893 kJ/mol
# Density = 1.668038 g / cm^3
# Si number density = 16.718436 Si / 1000 Ang^3
#
#
#
# Elastic Constant Matrix: (Units=GPa)
#
#
# Indices 1 2 3 4 5 6 
#
# 1 37.1323 27.7533 36.1961 0.0000 7.1673 0.0000
# 2 27.7533 91.5866 54.2840 0.0000 19.1996 0.0000
# 3 36.1961 54.2840 117.1479 0.0000 27.9315 0.0000
# 4 0.0000 0.0000 0.0000 17.5378 0.0000 15.0513
# 5 7.1673 19.1996 27.9315 0.0000 26.5327 0.0000
# 6 0.0000 0.0000 0.0000 15.0513 0.0000 17.7983
#
#
#
# Elastic Compliance Matrix: (Units=1/GPa)
#
#
# Indices 1 2 3 4 5 6 
#
# 1 0.041999 -0.007454 -0.010819 0.000000 0.005439 0.000000
# 2 -0.007454 0.016836 -0.004104 0.000000 -0.005849 0.000000
# 3 -0.010819 -0.004104 0.016523 0.000000 -0.011502 0.000000
# 4 0.000000 0.000000 0.000000 0.207919 0.000000 -0.175828
# 5 0.005439 -0.005849 -0.011502 0.000000 0.052561 0.000000
# 6 0.000000 0.000000 0.000000 -0.175828 0.000000 0.204875
#
#
# Mechanical properties :
#
#
# Convention : Reuss Voigt Hill
#
# Bulk Modulus (GPa) = 32.67582 53.59260 43.13421
# Shear Modulus (GPa) = 8.39392 20.88266 14.63829
#
# Velocity S-wave (km/s) = 2.24313 3.53807 2.96223
# Velocity P-wave (km/s) = 5.12797 6.98685 6.12830
#
# Compressibility (1/GPa) = 0.03060367
#
# Stress axis : x y z
#
# Youngs Moduli (GPa) = 23.81008 59.39682 60.52133
#
# Poissons Ratio (x) = 0.44276 0.65480
# Poissons Ratio (y) = 0.17749 0.24835
# Poissons Ratio (z) = 0.25761 0.24374
#
# Static dielectric constant tensor:
#      x y z
#    x 1.579010 0.000000 -0.001870 
#    y 0.000000 1.574150 0.000000 
#    z -0.001870 0.000000 1.575140 
# 
# From -- ./inp_files/164741.got.cif
#   From: 2010.05.17/outbox.cif.g08.bks.cpg/sg12_83_cif.got.tgz:164741.got - 2010.06.03 13:09:07.
