data_PCOD9218586
_publ_section_title
;
Structure prediction by ZEFSAII (Michael W. Deem and Ramdas Pophale) SiO2 
 PCOD9218586
Probable space group: C 2/M
;
_chemical_formula_sum "Si O2"
_cell_formula_units_Z 60
_cell_length_a 26.845203
_cell_length_b 19.656715
_cell_length_c 14.719231
_cell_angle_alpha 90.000000
_cell_angle_beta 19.937708
_cell_angle_gamma 90.000000
_cell_volume 2648.591478
_symmetry_space_group_name_H-M "C 2/M"
_symmetry_group_IT_number 12
_symmetry_cell_setting 'monoclinic'
loop_
_space_group_symop_operation_xyz
x,y,z
-x,y,-z
-x,-y,-z
x,-y,z
1/2+x,1/2+y,z
1/2-x,1/2+y,-z
1/2-x,1/2-y,-z
1/2+x,1/2-y,z
loop_
_atom_site_type_symbol
_atom_site_label
_atom_site_fract_x
_atom_site_fract_y
_atom_site_fract_z
Si Si1 0.545196 0.078225 0.705374
Si Si2 0.399779 0.879669 0.588544
Si Si3 0.566182 0.424247 0.186062
Si Si4 0.285674 0.736083 0.834247
Si Si5 0.132193 0.819896 0.589044
Si Si6 0.403075 0.788708 0.007733
Si Si7 0.500000 0.615962 0.500000
Si Si8 0.833687 0.921896 0.316283
O O1 0.530780 0.097109 0.624665
O O2 0.457534 0.133690 0.913441
O O3 0.716279 0.085584 0.437521
O O4 0.501852 0.000000 0.796093
O O5 0.500000 0.902870 0.500000
O O6 0.380231 0.798177 0.631955
O O7 0.235706 0.908308 0.876512
O O8 0.530394 0.500000 0.213539
O O9 0.466050 0.368099 0.308107
O O10 0.545721 0.422056 0.330180
O O11 0.371308 0.665722 0.687481
O O12 0.250000 0.750000 0.000000
O O13 0.144900 0.729757 0.012714
O O14 0.201258 0.869148 0.545210
O O15 0.029838 0.764180 0.812647
O O16 0.258803 0.783135 0.315467
O O17 0.822877 0.000000 0.366714
O O18 0.000000 0.910530 0.000000
#
# Coordination Sequence:
#
# PCOD9218586 Si02
#       8
#     8   8   8   8   8   8   4   8
#     4  11  27  48  70 104 147 185 235 298 361 435
#     4  12  24  42  71 101 143 190 241 291 358 433
#     4  12  26  42  66 102 145 190 242 300 358 428
#     4  12  22  41  67  97 136 189 242 292 352 422
#     4  12  26  49  76 107 144 188 245 301 362 431
#     4  12  27  46  73 109 145 189 240 301 364 427
#     4  12  23  42  64  98 139 186 238 296 353 420
#     4  10  24  49  80 109 143 192 241 294 368 438
#
# _framework density 22.653551
#
# number of rings (size 3 to 8) (size 9 to 14) (size 15 to 20)
#    0.000    0.400    4.667    3.400    1.867    4.267 
#    0.000    1.333    0.000    0.000    0.000    0.000 
#    0.000    0.000    0.000    0.000    0.000    0.000 
#
# Total GULP energy -168055.278721 kJ/mol
# GULP energy per Si atom -5601.842624 kJ/mol
# Density = 2.260199 g / cm^3
# Si number density = 22.653551 Si / 1000 Ang^3
#
#
#
# Elastic Constant Matrix: (Units=GPa)
#
#
# Indices 1 2 3 4 5 6 
#
# 1 76.0711 19.5817 -2.4373 -0.0002 -4.1630 0.0001
# 2 19.5817 119.9287 28.9477 -0.0003 3.6416 0.0000
# 3 -2.4373 28.9477 76.6053 -0.0008 2.3329 0.0003
# 4 -0.0002 -0.0003 -0.0008 25.0334 0.0004 -5.0384
# 5 -4.1630 3.6416 2.3329 0.0004 24.7446 0.0000
# 6 0.0001 0.0000 0.0003 -5.0384 0.0000 29.6574
#
#
#
# Elastic Compliance Matrix: (Units=1/GPa)
#
#
# Indices 1 2 3 4 5 6 
#
# 1 0.014030 -0.002706 0.001389 0.000000 0.002628 0.000000
# 2 -0.002706 0.009723 -0.003713 0.000000 -0.001536 0.000000
# 3 0.001389 -0.003713 0.014519 0.000000 -0.000589 0.000000
# 4 0.000000 0.000000 0.000000 0.041361 -0.000001 0.007027
# 5 0.002628 -0.001536 -0.000589 -0.000001 0.041137 0.000000
# 6 0.000000 0.000000 0.000000 0.007027 0.000000 0.034912
#
#
# Mechanical properties :
#
#
# Convention : Reuss Voigt Hill
#
# Bulk Modulus (GPa) = 35.44614 40.53215 37.98914
# Shear Modulus (GPa) = 28.54738 30.98793 29.76766
#
# Velocity S-wave (km/s) = 3.55374 3.70253 3.62890
# Velocity P-wave (km/s) = 5.70261 6.01742 5.86213
#
# Compressibility (1/GPa) = 0.02821182
#
# Stress axis : x y z
#
# Youngs Moduli (GPa) = 71.27365 102.84804 68.87386
#
# Poissons Ratio (x) = 0.27830 -0.09566
# Poissons Ratio (y) = 0.19286 0.25576
# Poissons Ratio (z) = -0.09899 0.38192
#
# Static dielectric constant tensor:
#      x y z
#    x 1.866960 0.000000 -0.010800 
#    y 0.000000 1.835370 0.000000 
#    z -0.010800 0.000000 1.841030 
# 
# From -- ./inp_files/247261.got.cif
#   From: 2010.05.17/outbox.cif.g08.bks.cpg/sg12_124_cif.got.tgz:247261.got - 2010.06.03 13:09:07.
