data_PCOD9218890
_publ_section_title
;
Structure prediction by ZEFSAII (Michael W. Deem and Ramdas Pophale) SiO2 
 PCOD9218890
Probable space group: C 2/M
;
_chemical_formula_sum "Si O2"
_cell_formula_units_Z 40
_cell_length_a 18.324716
_cell_length_b 20.693250
_cell_length_c 8.534334
_cell_angle_alpha 90.000000
_cell_angle_beta 40.411785
_cell_angle_gamma 90.000000
_cell_volume 2097.953648
_symmetry_space_group_name_H-M "C 2/M"
_symmetry_group_IT_number 12
_symmetry_cell_setting 'monoclinic'
loop_
_space_group_symop_operation_xyz
x,y,z
-x,y,-z
-x,-y,-z
x,-y,z
1/2+x,1/2+y,z
1/2-x,1/2+y,-z
1/2-x,1/2-y,-z
1/2+x,1/2-y,z
loop_
_atom_site_type_symbol
_atom_site_label
_atom_site_fract_x
_atom_site_fract_y
_atom_site_fract_z
Si Si1 0.310985 0.175851 0.640303
Si Si2 0.418198 0.682685 0.487900
Si Si3 0.918917 0.773039 0.006183
Si Si4 0.518906 0.074583 0.783081
Si Si5 0.187090 0.652302 0.997922
O O1 0.381894 0.241982 0.535121
O O2 0.382573 0.121333 0.438135
O O3 0.286174 0.156949 0.861613
O O4 0.193987 0.193456 0.746664
O O5 0.500000 0.672868 0.500000
O O6 0.498932 0.674455 0.207163
O O7 0.301606 0.646002 0.710410
O O8 0.871361 0.719695 0.962695
O O9 0.000000 0.739720 0.000000
O O10 0.404300 0.097778 0.886712
O O11 0.543513 0.000000 0.706957
O O12 0.500000 0.080886 0.000000
#
# Coordination Sequence:
#
# PCOD9218890 Si02
#       5
#     8   8   8   8   8
#     4  11  21  36  59  83 117 154 192 229 279 343
#     4  11  18  34  56  87 124 148 178 233 287 337
#     4  11  22  33  55  91 122 151 182 231 291 341
#     4  11  25  42  59  83 113 147 194 243 283 328
#     4  11  21  35  58  85 116 154 191 229 279 340
#
# _framework density 19.066198
#
# number of rings (size 3 to 8) (size 9 to 14) (size 15 to 20)
#    0.000    1.000    6.000    2.400    2.800    3.200 
#    0.000    0.000    0.000    2.400    0.000    0.000 
#    0.000    0.000    0.000    0.000    0.000    0.000 
#
# Total GULP energy -111662.045243 kJ/mol
# GULP energy per Si atom -5583.102262 kJ/mol
# Density = 1.902280 g / cm^3
# Si number density = 19.066198 Si / 1000 Ang^3
#
#
#
# Elastic Constant Matrix: (Units=GPa)
#
#
# Indices 1 2 3 4 5 6 
#
# 1 74.4768 10.3517 12.6098 0.0000 -21.7552 0.0000
# 2 10.3517 67.6182 19.6656 0.0000 -7.9389 0.0000
# 3 12.6098 19.6656 92.6985 0.0000 -28.2736 0.0000
# 4 0.0000 0.0000 0.0000 16.5680 0.0000 -2.1034
# 5 -21.7552 -7.9389 -28.2736 0.0000 34.3145 0.0000
# 6 0.0000 0.0000 0.0000 -2.1034 0.0000 15.7359
#
#
#
# Elastic Compliance Matrix: (Units=1/GPa)
#
#
# Indices 1 2 3 4 5 6 
#
# 1 0.016766 -0.001675 0.001601 0.000000 0.011561 0.000000
# 2 -0.001675 0.015965 -0.003147 0.000000 0.000038 0.000000
# 3 0.001601 -0.003147 0.015127 0.000000 0.012750 0.000000
# 4 0.000000 0.000000 0.000000 0.061399 0.000000 0.008207
# 5 0.011561 0.000038 0.012750 0.000000 0.046986 0.000000
# 6 0.000000 0.000000 0.000000 0.008207 0.000000 0.064646
#
#
# Mechanical properties :
#
#
# Convention : Reuss Voigt Hill
#
# Bulk Modulus (GPa) = 24.14612 35.56085 29.85348
# Shear Modulus (GPa) = 20.73512 26.13478 23.43495
#
# Velocity S-wave (km/s) = 3.30135 3.70637 3.50971
# Velocity P-wave (km/s) = 5.21764 6.08341 5.66709
#
# Compressibility (1/GPa) = 0.04141452
#
# Stress axis : x y z
#
# Youngs Moduli (GPa) = 59.64532 62.63617 66.10915
#
# Poissons Ratio (x) = 0.10491 -0.10583
# Poissons Ratio (y) = 0.09990 0.20807
# Poissons Ratio (z) = -0.09548 0.19714
#
# Static dielectric constant tensor:
#      x y z
#    x 1.703600 0.000000 0.040110 
#    y 0.000000 1.634190 0.000000 
#    z 0.040110 0.000000 1.737220 
# 
# From -- ./inp_files/46911.got.cif
#   From: 2010.05.17/outbox.cif.g08.bks.cpg/sg12_24_cif.got.tgz:46911.got - 2010.06.03 13:09:07.
