data_PCOD9218313
_publ_section_title
;
Structure prediction by ZEFSAII (Michael W. Deem and Ramdas Pophale) SiO2 
 PCOD9218313
Probable space group: C 2/M
;
_chemical_formula_sum "Si O2"
_cell_formula_units_Z 32
_cell_length_a 22.127518
_cell_length_b 14.247778
_cell_length_c 5.530116
_cell_angle_alpha 90.000000
_cell_angle_beta 124.221808
_cell_angle_gamma 90.000000
_cell_volume 1441.615752
_symmetry_space_group_name_H-M "C 2/M"
_symmetry_group_IT_number 12
_symmetry_cell_setting 'monoclinic'
loop_
_space_group_symop_operation_xyz
x,y,z
-x,y,-z
-x,-y,-z
x,-y,z
1/2+x,1/2+y,z
1/2-x,1/2+y,-z
1/2-x,1/2-y,-z
1/2+x,1/2-y,z
loop_
_atom_site_type_symbol
_atom_site_label
_atom_site_fract_x
_atom_site_fract_y
_atom_site_fract_z
Si Si1 0.955520 0.109486 0.150903
Si Si2 0.307741 0.110079 0.160726
Si Si3 0.189273 0.772684 0.166366
Si Si4 0.034341 0.387412 0.322276
O O1 0.000000 0.134013 0.500000
O O2 0.933855 0.000000 0.134688
O O3 0.884572 0.172758 0.948495
O O4 0.000000 0.114917 0.000000
O O5 0.233696 0.158365 0.084457
O O6 0.378212 0.124667 0.489499
O O7 0.298842 0.000000 0.096943
O O8 0.329786 0.170789 0.980077
O O9 0.250000 0.750000 0.500000
O O10 0.020841 0.500000 0.292748
O O11 0.000000 0.353283 0.500000
O O12 0.000000 0.347507 0.000000
#
# Coordination Sequence:
#
# PCOD9218313 Si02
#       4
#     8   8   8   8
#     4  10  24  48  79 109 143 193 249 308 367 430
#     4  10  24  44  67  98 141 191 234 292 371 439
#     4  11  26  45  68 108 141 186 242 311 364 435
#     4   9  19  37  61  92 128 172 225 270 330 420
#
# _framework density 22.197316000000001
#
# number of rings (size 3 to 8) (size 9 to 14) (size 15 to 20)
#    0.000    2.000    0.000    0.750   10.500    3.000 
#    0.000    0.000    0.000    0.750    0.000    0.000 
#    0.000    0.000    0.000    0.000    0.000    0.000 
#
# Total GULP energy -89341.828227 kJ/mol
# GULP energy per Si atom -5583.864264 kJ/mol
# Density = 2.214679 g / cm^3
# Si number density = 22.197316 Si / 1000 Ang^3
#
#
#
# Elastic Constant Matrix: (Units=GPa)
#
#
# Indices 1 2 3 4 5 6 
#
# 1 76.3452 2.2409 33.4352 0.0000 7.4907 0.0000
# 2 2.2409 88.9194 56.9577 0.0000 24.0463 0.0000
# 3 33.4352 56.9577 150.3202 0.0000 -3.4475 0.0000
# 4 0.0000 0.0000 0.0000 27.7416 0.0000 18.1192
# 5 7.4907 24.0463 -3.4475 0.0000 28.2330 0.0000
# 6 0.0000 0.0000 0.0000 18.1192 0.0000 17.6635
#
#
#
# Elastic Compliance Matrix: (Units=1/GPa)
#
#
# Indices 1 2 3 4 5 6 
#
# 1 0.016859 0.006767 -0.006567 0.000000 -0.011038 0.000000
# 2 0.006767 0.025184 -0.011613 0.000000 -0.024663 0.000000
# 3 -0.006567 -0.011613 0.012816 0.000000 0.013198 0.000000
# 4 0.000000 0.000000 0.000000 0.109230 0.000000 -0.112047
# 5 -0.011038 -0.024663 0.013198 0.000000 0.060965 0.000000
# 6 0.000000 0.000000 0.000000 -0.112047 0.000000 0.171552
#
#
# Mechanical properties :
#
#
# Convention : Reuss Voigt Hill
#
# Bulk Modulus (GPa) = 31.21890 55.65027 43.43458
# Shear Modulus (GPa) = 11.62494 29.59102 20.60798
#
# Velocity S-wave (km/s) = 2.29095 3.65511 3.05027
# Velocity P-wave (km/s) = 4.59268 6.55273 5.65822
#
# Compressibility (1/GPa) = 0.03203188
#
# Stress axis : x y z
#
# Youngs Moduli (GPa) = 59.31649 39.70781 78.02666
#
# Poissons Ratio (x) = -0.26868 0.51239
# Poissons Ratio (y) = -0.40137 0.90613
# Poissons Ratio (z) = 0.38952 0.46113
#
# Static dielectric constant tensor:
#      x y z
#    x 1.882100 0.000000 -0.026330 
#    y 0.000000 1.807630 0.000000 
#    z -0.026330 0.000000 1.820170 
# 
# From -- ./inp_files/14488.got.cif
#   From: 2010.05.17/outbox.cif.g08.bks.cpg/sg12_8_cif.got.tgz:14488.got - 2010.06.03 13:09:07.
