data_PCOD9218376
_publ_section_title
;
Structure prediction by ZEFSAII (Michael W. Deem and Ramdas Pophale) SiO2 
 PCOD9218376
Probable space group: C 2/M
;
_chemical_formula_sum "Si O2"
_cell_formula_units_Z 64
_cell_length_a 30.506610
_cell_length_b 8.813338
_cell_length_c 16.355613
_cell_angle_alpha 90.000000
_cell_angle_beta 133.005475
_cell_angle_gamma 90.000000
_cell_volume 3215.806902
_symmetry_space_group_name_H-M "C 2/M"
_symmetry_group_IT_number 12
_symmetry_cell_setting 'monoclinic'
loop_
_space_group_symop_operation_xyz
x,y,z
-x,y,-z
-x,-y,-z
x,-y,z
1/2+x,1/2+y,z
1/2-x,1/2+y,-z
1/2-x,1/2-y,-z
1/2+x,1/2-y,z
loop_
_atom_site_type_symbol
_atom_site_label
_atom_site_fract_x
_atom_site_fract_y
_atom_site_fract_z
Si Si1 0.793341 0.317967 0.123913
Si Si2 0.753947 0.681609 0.256828
Si Si3 0.049817 0.680561 0.912294
Si Si4 0.521989 0.824095 0.434873
Si Si5 0.879876 0.818941 0.852896
Si Si6 0.411866 0.320032 0.203217
Si Si7 0.137603 0.180607 0.511550
Si Si8 0.408201 0.181099 0.715083
O O1 0.792964 0.500000 0.118295
O O2 0.770957 0.274485 0.185827
O O3 0.859509 0.256830 0.189066
O O4 0.750000 0.250000 0.000000
O O5 0.763571 0.500000 0.276689
O O6 0.684898 0.712396 0.189436
O O7 0.797972 0.765741 0.375031
O O8 0.058853 0.500000 0.921888
O O9 0.088111 0.758570 0.889274
O O10 0.979727 0.711238 0.806516
O O11 0.070277 0.746307 0.024956
O O12 0.500000 0.819226 0.500000
O O13 0.475176 0.729449 0.321909
O O14 0.587674 0.755770 0.506945
O O15 0.521799 0.000000 0.406994
O O16 0.883070 0.747443 0.767348
O O17 0.888221 0.000000 0.858931
O O18 0.404723 0.500000 0.194603
O O19 0.122067 0.241785 0.401675
O O20 0.132559 0.000000 0.507361
O O21 0.399645 0.000000 0.700461
#
# Coordination Sequence:
#
# PCOD9218376 Si02
#       8
#     8   8   8   8   8   8   8   8
#     4  11  23  41  65  93 129 173 220 266 321 386
#     4  10  24  45  65  90 128 174 216 262 323 389
#     4  11  23  41  66  95 130 171 215 264 325 391
#     4  11  23  40  62  89 124 166 208 254 314 382
#     4  11  24  42  67  97 129 166 216 273 327 383
#     4  12  24  38  61  93 128 165 211 263 318 377
#     4  12  25  41  66  96 127 166 214 271 323 376
#     4  11  24  43  67  94 130 172 215 263 325 394
#
# _framework density 19.901693000000002
#
# number of rings (size 3 to 8) (size 9 to 14) (size 15 to 20)
#    0.000    0.875    1.250    6.000    0.000   10.500 
#    0.000    0.000    0.000    0.000    0.000    0.000 
#    0.000    0.000    0.000    0.000    0.000    0.000 
#
# Total GULP energy -179154.344249 kJ/mol
# GULP energy per Si atom -5598.573258 kJ/mol
# Density = 1.985640 g / cm^3
# Si number density = 19.901693 Si / 1000 Ang^3
#
#
#
# Elastic Constant Matrix: (Units=GPa)
#
#
# Indices 1 2 3 4 5 6 
#
# 1 88.4284 49.6075 23.9319 0.0000 -19.3805 0.0000
# 2 49.6075 92.7268 50.3657 0.0000 -7.4518 0.0000
# 3 23.9319 50.3657 106.6129 0.0000 -12.3905 0.0000
# 4 0.0000 0.0000 0.0000 32.6780 0.0000 -2.8205
# 5 -19.3805 -7.4518 -12.3905 0.0000 33.0042 0.0000
# 6 0.0000 0.0000 0.0000 -2.8205 0.0000 29.6948
#
#
#
# Elastic Compliance Matrix: (Units=1/GPa)
#
#
# Indices 1 2 3 4 5 6 
#
# 1 0.018537 -0.010086 0.001677 0.000000 0.009238 0.000000
# 2 -0.010086 0.020011 -0.007688 0.000000 -0.004291 0.000000
# 3 0.001677 -0.007688 0.013121 0.000000 0.004175 0.000000
# 4 0.000000 0.000000 0.000000 0.030855 0.000000 0.002931
# 5 0.009238 -0.004291 0.004175 0.000000 0.036322 0.000000
# 6 0.000000 0.000000 0.000000 0.002931 0.000000 0.033954
#
#
# Mechanical properties :
#
#
# Convention : Reuss Voigt Hill
#
# Bulk Modulus (GPa) = 51.34722 59.50867 55.42794
# Shear Modulus (GPa) = 26.11157 29.99961 28.05559
#
# Velocity S-wave (km/s) = 3.62612 3.88672 3.75868
# Velocity P-wave (km/s) = 6.58697 7.07873 6.83727
#
# Compressibility (1/GPa) = 0.01947525
#
# Stress axis : x y z
#
# Youngs Moduli (GPa) = 53.94514 49.97172 76.21641
#
# Poissons Ratio (x) = 0.50400 -0.12783
# Poissons Ratio (y) = 0.54408 0.58598
# Poissons Ratio (z) = -0.09047 0.38420
#
# Static dielectric constant tensor:
#      x y z
#    x 1.697070 0.000000 0.004080 
#    y 0.000000 1.661300 0.000000 
#    z 0.004080 0.000000 1.692540 
# 
# From -- ./inp_files/250057.got.cif
#   From: 2010.05.17/outbox.cif.g08.bks.cpg/sg12_126_cif.got.tgz:250057.got - 2010.06.03 13:09:07.
