data_PCOD9218532
_publ_section_title
;
Structure prediction by ZEFSAII (Michael W. Deem and Ramdas Pophale) SiO2 
 PCOD9218532
Probable space group: C 2/M
;
_chemical_formula_sum "Si O2"
_cell_formula_units_Z 56
_cell_length_a 29.458865
_cell_length_b 18.622133
_cell_length_c 5.636909
_cell_angle_alpha 90.000000
_cell_angle_beta 59.292888
_cell_angle_gamma 90.000000
_cell_volume 2658.754808
_symmetry_space_group_name_H-M "C 2/M"
_symmetry_group_IT_number 12
_symmetry_cell_setting 'monoclinic'
loop_
_space_group_symop_operation_xyz
x,y,z
-x,y,-z
-x,-y,-z
x,-y,z
1/2+x,1/2+y,z
1/2-x,1/2+y,-z
1/2-x,1/2-y,-z
1/2+x,1/2-y,z
loop_
_atom_site_type_symbol
_atom_site_label
_atom_site_fract_x
_atom_site_fract_y
_atom_site_fract_z
Si Si1 0.093310 0.775224 0.037683
Si Si2 0.295581 0.290671 0.523293
Si Si3 0.846035 0.307180 0.738925
Si Si4 0.468063 0.580283 0.835416
Si Si5 0.276586 0.917305 0.230847
Si Si6 0.970650 0.637459 0.832712
Si Si7 0.373143 0.921526 0.304857
O O1 0.111888 0.740350 0.234182
O O2 0.072232 0.855148 0.087168
O O3 0.047247 0.720370 0.084671
O O4 0.148031 0.777254 0.748324
O O5 0.250000 0.250000 0.500000
O O6 0.304767 0.249391 0.743072
O O7 0.277266 0.373032 0.590052
O O8 0.877735 0.355484 0.468190
O O9 0.811704 0.366128 0.970153
O O10 0.500000 0.581377 0.500000
O O11 0.444787 0.500000 0.916813
O O12 0.500000 0.591087 0.000000
O O13 0.313370 0.919460 0.366797
O O14 0.270107 0.000000 0.168665
O O15 0.000000 0.628753 0.500000
O O16 0.915570 0.592790 0.984037
O O17 0.000000 0.615049 0.000000
O O18 0.382855 0.000000 0.384444
#
# Coordination Sequence:
#
# PCOD9218532 Si02
#       7
#     8   8   8   8   8   8   8
#     4  12  25  40  69 102 134 179 232 287 348 415
#     4  12  23  42  66  97 134 176 229 284 348 414
#     4  12  21  42  68  95 134 183 225 289 338 418
#     4  10  24  47  73 103 143 188 233 288 357 421
#     4  11  24  43  67  97 134 178 224 276 347 422
#     4  12  25  43  67 100 139 179 237 290 343 412
#     4  11  24  43  66  95 136 182 226 281 349 413
#
# _framework density 21.062491999999999
#
# number of rings (size 3 to 8) (size 9 to 14) (size 15 to 20)
#    0.000    0.571    5.714    2.571    2.000    1.143 
#    0.000    0.714    0.000    0.000    0.000    0.000 
#    0.000    0.000    0.000    0.000    0.000    0.000 
#
# Total GULP energy -156231.288350 kJ/mol
# GULP energy per Si atom -5579.688870 kJ/mol
# Density = 2.101455 g / cm^3
# Si number density = 21.062492 Si / 1000 Ang^3
#
#
#
# Elastic Constant Matrix: (Units=GPa)
#
#
# Indices 1 2 3 4 5 6 
#
# 1 75.3778 55.7519 27.3180 0.0000 15.5757 0.0000
# 2 55.7519 170.6713 27.6349 0.0000 10.1306 0.0000
# 3 27.3180 27.6349 87.3325 0.0000 3.0227 0.0000
# 4 0.0000 0.0000 0.0000 12.7613 0.0000 -1.7727
# 5 15.5757 10.1306 3.0227 0.0000 25.0598 0.0000
# 6 0.0000 0.0000 0.0000 -1.7727 0.0000 38.1314
#
#
#
# Elastic Compliance Matrix: (Units=1/GPa)
#
#
# Indices 1 2 3 4 5 6 
#
# 1 0.021154 -0.005567 -0.004497 0.000000 -0.010355 0.000000
# 2 -0.005567 0.007772 -0.000732 0.000000 0.000407 0.000000
# 3 -0.004497 -0.000732 0.013036 0.000000 0.001518 0.000000
# 4 0.000000 0.000000 0.000000 0.078871 0.000000 0.003667
# 5 -0.010355 0.000407 0.001518 0.000000 0.045993 0.000000
# 6 0.000000 0.000000 0.000000 0.003667 0.000000 0.026396
#
#
# Mechanical properties :
#
#
# Convention : Reuss Voigt Hill
#
# Bulk Modulus (GPa) = 49.09240 61.64343 55.36792
# Shear Modulus (GPa) = 22.56277 30.03564 26.29920
#
# Velocity S-wave (km/s) = 3.27652 3.78037 3.53743
# Velocity P-wave (km/s) = 6.13780 6.95596 6.55965
#
# Compressibility (1/GPa) = 0.02036975
#
# Stress axis : x y z
#
# Youngs Moduli (GPa) = 47.27300 128.66296 76.70945
#
# Poissons Ratio (x) = 0.71631 0.34495
# Poissons Ratio (y) = 0.26319 0.05615
# Poissons Ratio (z) = 0.21258 0.09418
#
# Static dielectric constant tensor:
#      x y z
#    x 1.795960 0.000000 0.005840 
#    y 0.000000 1.757910 0.000000 
#    z 0.005840 0.000000 1.901220 
# 
# From -- ./inp_files/28823.got.cif
#   From: 2010.05.17/outbox.cif.g08.bks.cpg/sg12_15_cif.got.tgz:28823.got - 2010.06.03 13:09:07.
