data_PCOD9218055
_publ_section_title
;
Structure prediction by ZEFSAII (Michael W. Deem and Ramdas Pophale) SiO2 
 PCOD9218055
Probable space group: C 2/M
;
_chemical_formula_sum "Si O2"
_cell_formula_units_Z 40
_cell_length_a 14.179859
_cell_length_b 20.603014
_cell_length_c 8.565295
_cell_angle_alpha 90.000000
_cell_angle_beta 134.934464
_cell_angle_gamma 90.000000
_cell_volume 1771.438927
_symmetry_space_group_name_H-M "C 2/M"
_symmetry_group_IT_number 12
_symmetry_cell_setting 'monoclinic'
loop_
_space_group_symop_operation_xyz
x,y,z
-x,y,-z
-x,-y,-z
x,-y,z
1/2+x,1/2+y,z
1/2-x,1/2+y,-z
1/2-x,1/2-y,-z
1/2+x,1/2-y,z
loop_
_atom_site_type_symbol
_atom_site_label
_atom_site_fract_x
_atom_site_fract_y
_atom_site_fract_z
Si Si1 0.190680 0.138482 0.345535
Si Si2 0.548488 0.068615 0.381889
Si Si3 0.647474 0.301489 0.952324
Si Si4 0.555294 0.198824 0.237049
Si Si5 0.046434 0.926005 0.733514
O O1 0.293039 0.080283 0.426519
O O2 0.287855 0.183412 0.565794
O O3 0.067284 0.103896 0.285378
O O4 0.163528 0.179217 0.154744
O O5 0.500000 0.066378 0.500000
O O6 0.493834 0.134589 0.244632
O O7 0.516611 0.000000 0.264837
O O8 0.504788 0.264650 0.760853
O O9 0.657368 0.370464 0.878044
O O10 0.750000 0.250000 0.000000
O O11 0.500000 0.199122 0.000000
O O12 0.000000 0.927157 0.500000
O O13 0.080965 0.000000 0.818602
#
# Coordination Sequence:
#
# PCOD9218055 Si02
#       5
#     8   8   8   8   8
#     4  10  24  45  71  98 142 185 237 294 359 421
#     4   9  19  38  64  95 134 179 229 284 349 423
#     4  12  27  43  73 108 141 189 235 297 363 436
#     4  10  24  41  66 100 136 180 233 285 361 423
#     4  11  27  49  74 105 142 193 247 300 357 426
#
# _framework density 22.580514999999998
#
# number of rings (size 3 to 8) (size 9 to 14) (size 15 to 20)
#    1.200    0.400    0.000    3.600    5.600    4.400 
#    0.000    1.000    0.000    0.000    0.000    0.000 
#    0.000    0.000    0.000    0.000    0.000    0.000 
#
# Total GULP energy -111460.451976 kJ/mol
# GULP energy per Si atom -5573.022599 kJ/mol
# Density = 2.252912 g / cm^3
# Si number density = 22.580515 Si / 1000 Ang^3
#
#
#
# Elastic Constant Matrix: (Units=GPa)
#
#
# Indices 1 2 3 4 5 6 
#
# 1 75.2114 36.7139 3.7744 0.0000 2.3772 0.0000
# 2 36.7139 241.2757 43.9755 0.0000 -7.7688 0.0000
# 3 3.7744 43.9755 65.5068 0.0000 -1.1090 0.0000
# 4 0.0000 0.0000 0.0000 33.2116 0.0000 16.7746
# 5 2.3772 -7.7688 -1.1090 0.0000 28.7302 0.0000
# 6 0.0000 0.0000 0.0000 16.7746 0.0000 49.2960
#
#
#
# Elastic Compliance Matrix: (Units=1/GPa)
#
#
# Indices 1 2 3 4 5 6 
#
# 1 0.014487 -0.002399 0.000745 0.000000 -0.001819 0.000000
# 2 -0.002399 0.005158 -0.003300 0.000000 0.001466 0.000000
# 3 0.000745 -0.003300 0.017433 0.000000 -0.000281 0.000000
# 4 0.000000 0.000000 0.000000 0.036359 0.000000 -0.012372
# 5 -0.001819 0.001466 -0.000281 0.000000 0.035343 0.000000
# 6 0.000000 0.000000 0.000000 -0.012372 0.000000 0.024496
#
#
# Mechanical properties :
#
#
# Convention : Reuss Voigt Hill
#
# Bulk Modulus (GPa) = 36.80418 61.21349 49.00883
# Shear Modulus (GPa) = 32.84289 42.08290 37.46290
#
# Velocity S-wave (km/s) = 3.81790 4.32172 4.07760
# Velocity P-wave (km/s) = 5.98077 7.21602 6.62724
#
# Compressibility (1/GPa) = 0.02717083
#
# Stress axis : x y z
#
# Youngs Moduli (GPa) = 69.02802 193.86383 57.36212
#
# Poissons Ratio (x) = 0.46502 -0.04272
# Poissons Ratio (y) = 0.16558 0.18928
# Poissons Ratio (z) = -0.05141 0.63971
#
# Static dielectric constant tensor:
#      x y z
#    x 1.786110 0.000000 0.107010 
#    y 0.000000 1.922920 0.000000 
#    z 0.107010 0.000000 1.832140 
# 
# From -- ./inp_files/63808.got.cif
#   From: 2010.05.17/outbox.cif.g08.bks.cpg/sg12_32_cif.got.tgz:63808.got - 2010.06.03 13:09:07.
