data_PCOD9218488
_publ_section_title
;
Structure prediction by ZEFSAII (Michael W. Deem and Ramdas Pophale) SiO2 
 PCOD9218488
Probable space group: C 2/M
;
_chemical_formula_sum "Si O2"
_cell_formula_units_Z 40
_cell_length_a 9.342013
_cell_length_b 20.912142
_cell_length_c 16.114126
_cell_angle_alpha 90.000000
_cell_angle_beta 31.495700
_cell_angle_gamma 90.000000
_cell_volume 1644.665761
_symmetry_space_group_name_H-M "C 2/M"
_symmetry_group_IT_number 12
_symmetry_cell_setting 'monoclinic'
loop_
_space_group_symop_operation_xyz
x,y,z
-x,y,-z
-x,-y,-z
x,-y,z
1/2+x,1/2+y,z
1/2-x,1/2+y,-z
1/2-x,1/2-y,-z
1/2+x,1/2-y,z
loop_
_atom_site_type_symbol
_atom_site_label
_atom_site_fract_x
_atom_site_fract_y
_atom_site_fract_z
Si Si1 0.687486 0.400001 0.668523
Si Si2 0.986853 0.703861 0.133697
Si Si3 0.527524 0.000000 0.735504
Si Si4 0.739772 0.070794 0.006732
Si Si5 0.530081 0.500000 0.617381
Si Si6 0.572400 0.741499 0.670238
O O1 0.548867 0.417615 0.824175
O O2 0.520007 0.437873 0.680628
O O3 0.663006 0.324734 0.667471
O O4 0.000000 0.419108 0.500000
O O5 0.894495 0.704723 0.276031
O O6 0.741909 0.732692 0.201209
O O7 0.250000 0.750000 0.000000
O O8 0.073358 0.633238 0.062744
O O9 0.788709 0.000000 0.669742
O O10 0.337839 0.940824 0.858431
O O11 0.323966 0.000000 0.425087
O O12 0.669058 0.000000 0.006104
O O13 0.750000 0.750000 0.500000
#
# Coordination Sequence:
#
# PCOD9218488 Si02
#       6
#     8   8   4   8   4   8
#     4  12  25  45  70 102 141 193 242 303 370 439
#     4  12  25  48  76 108 146 191 247 304 366 441
#     4   9  23  42  63 106 136 191 232 307 360 440
#     4  10  24  46  72 104 145 188 250 296 369 435
#     4  11  22  40  70  98 148 179 244 296 373 431
#     4  12  28  47  74 107 147 193 244 305 371 440
#
# _framework density 24.32105
#
# number of rings (size 3 to 8) (size 9 to 14) (size 15 to 20)
#    0.600    0.200    3.000    3.900    2.800    3.200 
#    0.000    2.000    0.000    0.000    0.000    0.000 
#    0.000    0.000    0.000    0.000    0.000    0.000 
#
# Total GULP energy -111827.528093 kJ/mol
# GULP energy per Si atom -5591.376405 kJ/mol
# Density = 2.426569 g / cm^3
# Si number density = 24.321050 Si / 1000 Ang^3
#
#
#
# Elastic Constant Matrix: (Units=GPa)
#
#
# Indices 1 2 3 4 5 6 
#
# 1 97.5993 21.3955 38.9067 -0.0035 -0.6242 0.0022
# 2 21.3955 130.1472 26.0755 -0.0009 2.4030 0.0038
# 3 38.9067 26.0755 178.7735 -0.0087 19.7507 0.0296
# 4 -0.0035 -0.0009 -0.0087 41.3309 -0.0025 7.5577
# 5 -0.6242 2.4030 19.7507 -0.0025 51.5577 -0.0061
# 6 0.0022 0.0038 0.0296 7.5577 -0.0061 4.1362
#
#
#
# Elastic Compliance Matrix: (Units=1/GPa)
#
#
# Indices 1 2 3 4 5 6 
#
# 1 0.011534 -0.001431 -0.002427 -0.000003 0.001136 0.000020
# 2 -0.001431 0.008093 -0.000862 0.000000 -0.000064 -0.000001
# 3 -0.002427 -0.000862 0.006522 0.000015 -0.002488 -0.000075
# 4 -0.000003 0.000000 0.000015 0.036335 -0.000012 -0.066393
# 5 0.001136 -0.000064 -0.002488 -0.000012 0.020366 0.000069
# 6 0.000020 -0.000001 -0.000075 -0.066393 0.000069 0.363086
#
#
# Mechanical properties :
#
#
# Convention : Reuss Voigt Hill
#
# Bulk Modulus (GPa) = 59.84468 64.36394 62.10431
# Shear Modulus (GPa) = 10.84727 40.74778 25.79752
#
# Velocity S-wave (km/s) = 2.11417 4.09762 3.26038
# Velocity P-wave (km/s) = 5.53346 6.99350 6.30588
#
# Compressibility (1/GPa) = 0.01670992
#
# Stress axis : x y z
#
# Youngs Moduli (GPa) = 86.69691 123.56808 153.31659
#
# Poissons Ratio (x) = 0.17681 0.37211
# Poissons Ratio (y) = 0.12406 0.13214
# Poissons Ratio (z) = 0.21042 0.10650
#
# Static dielectric constant tensor:
#      x y z
#    x 1.943430 0.000010 0.027810 
#    y 0.000010 1.903340 0.000010 
#    z 0.027810 0.000010 1.987660 
# 
# From -- ./inp_files/307190.got.cif
#   From: 2010.05.17/outbox.cif.g08.bks.cpg/sg12_154_cif.got.tgz:307190.got - 2010.06.03 13:09:07.
