data_PCOD9218795
_publ_section_title
;
Structure prediction by ZEFSAII (Michael W. Deem and Ramdas Pophale) SiO2 
 PCOD9218795
Probable space group: C 2/M
;
_chemical_formula_sum "Si O2"
_cell_formula_units_Z 54
_cell_length_a 13.184594
_cell_length_b 23.269712
_cell_length_c 9.855956
_cell_angle_alpha 90.000000
_cell_angle_beta 67.601713
_cell_angle_gamma 90.000000
_cell_volume 2795.699034
_symmetry_space_group_name_H-M "C 2/M"
_symmetry_group_IT_number 12
_symmetry_cell_setting 'monoclinic'
loop_
_space_group_symop_operation_xyz
x,y,z
-x,y,-z
-x,-y,-z
x,-y,z
1/2+x,1/2+y,z
1/2-x,1/2+y,-z
1/2-x,1/2-y,-z
1/2+x,1/2-y,z
loop_
_atom_site_type_symbol
_atom_site_label
_atom_site_fract_x
_atom_site_fract_y
_atom_site_fract_z
Si Si1 0.779901 0.148914 0.503717
Si Si2 0.000000 0.500000 0.000000
Si Si3 0.637255 0.733810 0.128417
Si Si4 0.621920 0.240439 0.444314
Si Si5 0.881276 0.066365 0.226677
Si Si6 0.370883 0.599423 0.919658
Si Si7 0.669338 0.901606 0.829504
Si Si8 0.000000 0.305448 0.000000
O O1 0.691477 0.193605 0.488778
O O2 0.873450 0.195055 0.497382
O O3 0.823562 0.105605 0.368136
O O4 0.728446 0.114455 0.657306
O O5 0.075624 0.449940 0.884825
O O6 0.657598 0.751329 0.272081
O O7 0.615862 0.666628 0.119694
O O8 0.537010 0.767197 0.108699
O O9 0.750000 0.750000 0.000000
O O10 0.500000 0.218243 0.500000
O O11 0.013403 0.070141 0.175493
O O12 0.847507 0.000000 0.254793
O O13 0.854404 0.088668 0.088426
O O14 0.265243 0.580865 0.886601
O O15 0.604929 0.844293 0.909721
#
# Coordination Sequence:
#
# PCOD9218795 Si02
#       8
#     8   2   8   8   8   8   8   4
#     4  11  24  43  66  98 138 172 220 276 334 412
#     4  10  28  44  72  90 132 170 238 292 328 382
#     4  12  21  37  66  99 126 174 211 266 329 404
#     4  11  23  40  65 100 141 172 208 270 349 405
#     4  11  26  43  66  96 129 175 230 284 331 395
#     4  11  22  43  67  95 132 170 222 274 338 393
#     4  11  24  44  67  96 125 176 220 277 333 393
#     4  11  22  39  64  96 133 158 221 258 326 406
#
# _framework density 19.315384999999999
#
# number of rings (size 3 to 8) (size 9 to 14) (size 15 to 20)
#    0.000    0.889    2.963    4.444    3.111    3.556 
#    0.000    0.741    0.000    1.333    0.000    0.000 
#    0.000    0.000    0.000    0.000    0.000    0.000 
#
# Total GULP energy -150542.580117 kJ/mol
# GULP energy per Si atom -5575.651115 kJ/mol
# Density = 1.927142 g / cm^3
# Si number density = 19.315385 Si / 1000 Ang^3
#
#
#
# Elastic Constant Matrix: (Units=GPa)
#
#
# Indices 1 2 3 4 5 6 
#
# 1 75.2080 15.9693 25.9803 0.0000 8.3056 0.0000
# 2 15.9693 71.9454 26.6987 0.0000 3.8616 0.0000
# 3 25.9803 26.6987 110.1857 0.0000 -2.5153 0.0000
# 4 0.0000 0.0000 0.0000 23.7050 0.0000 -13.0870
# 5 8.3056 3.8616 -2.5153 0.0000 25.1340 0.0000
# 6 0.0000 0.0000 0.0000 -13.0870 0.0000 5.2399
#
#
#
# Elastic Compliance Matrix: (Units=1/GPa)
#
#
# Indices 1 2 3 4 5 6 
#
# 1 0.015405 -0.001926 -0.003283 0.000000 -0.005123 0.000000
# 2 -0.001926 0.015702 -0.003399 0.000000 -0.002116 0.000000
# 3 -0.003283 -0.003399 0.010734 0.000000 0.002681 0.000000
# 4 0.000000 0.000000 0.000000 -0.111355 0.000000 -0.278113
# 5 -0.005123 -0.002116 0.002681 0.000000 0.042073 0.000000
# 6 0.000000 0.000000 0.000000 -0.278113 0.000000 -0.503757
#
#
# Mechanical properties :
#
#
# Convention : Reuss Voigt Hill
#
# Bulk Modulus (GPa) = 40.60721 43.84842 42.22782
# Shear Modulus (GPa) = -9.88585 23.39518 6.75466
#
# Velocity S-wave (km/s) = -2.26478 3.48403 1.87207
# Velocity P-wave (km/s) = 3.77225 6.23981 5.15583
#
# Compressibility (1/GPa) = 0.02462617
#
# Stress axis : x y z
#
# Youngs Moduli (GPa) = 64.91309 63.68683 93.15922
#
# Poissons Ratio (x) = 0.12268 0.30580
# Poissons Ratio (y) = 0.12504 0.31663
# Poissons Ratio (z) = 0.21308 0.21646
#
# Static dielectric constant tensor:
#      x y z
#    x 1.695500 0.000000 0.009670 
#    y 0.000000 1.607780 0.000000 
#    z 0.009670 0.000000 1.644910 
# 
# From -- ./inp_files/65337.got.cif
#   From: 2010.05.17/outbox.cif.g08.bks.cpg/sg12_33_cif.got.tgz:65337.got - 2010.06.03 13:09:07.
