data_PCOD9218353
_publ_section_title
;
Structure prediction by ZEFSAII (Michael W. Deem and Ramdas Pophale) SiO2 
 PCOD9218353
Probable space group: C 2/M
;
_chemical_formula_sum "Si O2"
_cell_formula_units_Z 36
_cell_length_a 8.671216
_cell_length_b 13.235134
_cell_length_c 22.149175
_cell_angle_alpha 90.000000
_cell_angle_beta 43.892121
_cell_angle_gamma 90.000000
_cell_volume 1762.336417
_symmetry_space_group_name_H-M "C 2/M"
_symmetry_group_IT_number 12
_symmetry_cell_setting 'monoclinic'
loop_
_space_group_symop_operation_xyz
x,y,z
-x,y,-z
-x,-y,-z
x,-y,z
1/2+x,1/2+y,z
1/2-x,1/2+y,-z
1/2-x,1/2-y,-z
1/2+x,1/2-y,z
loop_
_atom_site_type_symbol
_atom_site_label
_atom_site_fract_x
_atom_site_fract_y
_atom_site_fract_z
Si Si1 0.119865 0.674596 0.298788
Si Si2 0.311114 0.000000 0.358985
Si Si3 0.678662 0.500000 0.536653
Si Si4 0.930272 0.875773 0.895562
Si Si5 0.208476 0.315483 0.413001
Si Si6 0.000000 0.756072 0.000000
O O1 0.360266 0.666837 0.201270
O O2 0.153425 0.653199 0.360391
O O3 0.967253 0.595106 0.306284
O O4 0.955957 0.769789 0.342709
O O5 0.243140 0.000000 0.448642
O O6 0.087992 0.000000 0.384197
O O7 0.773992 0.404602 0.544227
O O8 0.709618 0.819702 0.933046
O O9 0.922052 0.000000 0.896082
O O10 0.961011 0.829944 0.954072
O O11 0.000000 0.249794 0.500000
#
# Coordination Sequence:
#
# PCOD9218353 Si02
#       6
#     8   4   4   8   8   4
#     4  12  24  40  64  91 128 165 216 265 318 375
#     4  11  23  40  59  88 122 169 218 267 309 378
#     4  11  24  39  60  85 123 175 225 258 320 371
#     4  11  23  45  71  99 133 170 212 271 332 396
#     4  12  24  40  60  90 128 175 216 265 312 378
#     4  10  24  44  72 102 130 166 214 264 338 410
#
# _framework density 20.427427000000002
#
# number of rings (size 3 to 8) (size 9 to 14) (size 15 to 20)
#    0.000    0.667    3.333    5.000    3.111    0.000 
#    0.000    0.000    2.444    0.000    0.000    0.000 
#    0.000    0.000    0.000    0.000    0.000    0.000 
#
# Total GULP energy -100453.916144 kJ/mol
# GULP energy per Si atom -5580.773119 kJ/mol
# Density = 2.038093 g / cm^3
# Si number density = 20.427427 Si / 1000 Ang^3
#
#
#
# Elastic Constant Matrix: (Units=GPa)
#
#
# Indices 1 2 3 4 5 6 
#
# 1 105.3280 15.6229 23.9713 -0.0003 -29.8593 0.0000
# 2 15.6229 88.6816 27.3929 0.0002 -18.3496 -0.0002
# 3 23.9713 27.3929 114.6234 0.0007 -42.1785 -0.0005
# 4 -0.0003 0.0002 0.0007 -25.5956 -0.0005 23.8697
# 5 -29.8593 -18.3496 -42.1785 -0.0005 46.0747 0.0005
# 6 0.0000 -0.0002 -0.0005 23.8697 0.0005 5.1117
#
#
#
# Elastic Compliance Matrix: (Units=1/GPa)
#
#
# Indices 1 2 3 4 5 6 
#
# 1 0.011681 -0.000614 0.000602 0.000000 0.007877 0.000000
# 2 -0.000614 0.012548 -0.001776 0.000000 0.002974 0.000000
# 3 0.000602 -0.001776 0.013430 0.000000 0.011977 0.000000
# 4 0.000000 0.000000 0.000000 -0.007296 -0.000001 0.034070
# 5 0.007877 0.002974 0.011977 -0.000001 0.038958 0.000000
# 6 0.000000 0.000000 0.000000 0.034070 0.000000 0.036534
#
#
# Mechanical properties :
#
#
# Convention : Reuss Voigt Hill
#
# Bulk Modulus (GPa) = 29.33930 49.17857 39.25893
# Shear Modulus (GPa) = 41.39344 21.22789 31.31066
#
# Velocity S-wave (km/s) = 4.50640 3.22714 3.91932
# Velocity P-wave (km/s) = 6.43978 6.16546 6.30411
#
# Compressibility (1/GPa) = 0.03408398
#
# Stress axis : x y z
#
# Youngs Moduli (GPa) = 85.60771 79.69141 74.45946
#
# Poissons Ratio (x) = 0.04893 -0.04486
# Poissons Ratio (y) = 0.05257 0.13226
# Poissons Ratio (z) = -0.05157 0.14155
#
# Static dielectric constant tensor:
#      x y z
#    x 1.721250 0.000000 -0.043800 
#    y 0.000000 2.004300 0.000000 
#    z -0.043800 0.000000 1.742090 
# 
# From -- ./inp_files/194143.got.cif
#   From: 2010.05.17/outbox.cif.g08.bks.cpg/sg12_98_cif.got.tgz:194143.got - 2010.06.03 13:09:07.
