data_PCOD9218235
_publ_section_title
;
Structure prediction by ZEFSAII (Michael W. Deem and Ramdas Pophale) SiO2 
 PCOD9218235
Probable space group: C 2/M
;
_chemical_formula_sum "Si O2"
_cell_formula_units_Z 40
_cell_length_a 9.069552
_cell_length_b 20.606177
_cell_length_c 18.757282
_cell_angle_alpha 90.000000
_cell_angle_beta 142.593624
_cell_angle_gamma 90.000000
_cell_volume 2129.481572
_symmetry_space_group_name_H-M "C 2/M"
_symmetry_group_IT_number 12
_symmetry_cell_setting 'monoclinic'
loop_
_space_group_symop_operation_xyz
x,y,z
-x,y,-z
-x,-y,-z
x,-y,z
1/2+x,1/2+y,z
1/2-x,1/2+y,-z
1/2-x,1/2-y,-z
1/2+x,1/2-y,z
loop_
_atom_site_type_symbol
_atom_site_label
_atom_site_fract_x
_atom_site_fract_y
_atom_site_fract_z
Si Si1 0.679308 0.177877 0.500633
Si Si2 0.395455 0.000000 0.877141
Si Si3 0.785576 0.131318 0.261542
Si Si4 0.071956 0.631059 0.737825
Si Si5 0.764301 0.500000 0.132314
Si Si6 0.535563 0.254580 0.095507
O O1 0.500000 0.182278 0.500000
O O2 0.750000 0.250000 0.500000
O O3 0.553292 0.140734 0.386524
O O4 0.930379 0.142423 0.616315
O O5 0.254979 0.066806 0.802391
O O6 0.585589 0.000000 0.884139
O O7 0.500000 0.000000 0.000000
O O8 0.633704 0.134856 0.278194
O O9 0.677964 0.193045 0.179641
O O10 0.185647 0.561921 0.799640
O O11 0.291741 0.683467 0.823231
O O12 0.500000 0.500000 0.000000
O O13 0.500000 0.251111 0.000000
O O14 0.250000 0.250000 0.000000
#
# Coordination Sequence:
#
# PCOD9218235 Si02
#       6
#     8   4   8   8   4   8
#     4  12  26  43  68  97 132 172 223 278 329 388
#     4  10  24  45  68  99 135 176 217 266 328 394
#     4  11  24  44  68  97 133 174 219 273 328 390
#     4  11  24  44  67  97 132 174 221 271 329 390
#     4  10  24  43  70  97 135 176 217 268 326 394
#     4  12  24  38  64  97 133 169 220 271 327 391
#
# _framework density 18.783913999999999
#
# number of rings (size 3 to 8) (size 9 to 14) (size 15 to 20)
#    0.000    0.800    4.000    3.000    5.600    2.400 
#    0.000    4.000    0.000    0.000    0.000    0.000 
#    0.000    0.000    0.000    0.000    0.000    0.000 
#
# Total GULP energy -111356.114383 kJ/mol
# GULP energy per Si atom -5567.805719 kJ/mol
# Density = 1.874116 g / cm^3
# Si number density = 18.783914 Si / 1000 Ang^3
#
#
#
# Elastic Constant Matrix: (Units=GPa)
#
#
# Indices 1 2 3 4 5 6 
#
# 1 144.1527 72.2005 87.2745 0.0000 -7.9226 -0.0001
# 2 72.2005 189.0745 119.0620 0.0001 1.9143 0.0000
# 3 87.2745 119.0620 228.6487 0.0001 2.6039 -0.0001
# 4 0.0000 0.0001 0.0001 39.4451 0.0001 -1.1168
# 5 -7.9226 1.9143 2.6039 0.0001 49.0947 0.0000
# 6 -0.0001 0.0000 -0.0001 -1.1168 0.0000 25.0305
#
#
#
# Elastic Compliance Matrix: (Units=1/GPa)
#
#
# Indices 1 2 3 4 5 6 
#
# 1 0.009658 -0.002041 -0.002644 0.000000 0.001778 0.000000
# 2 -0.002041 0.008301 -0.003538 0.000000 -0.000465 0.000000
# 3 -0.002644 -0.003538 0.007233 0.000000 -0.000672 0.000000
# 4 0.000000 0.000000 0.000000 0.025384 0.000000 0.001133
# 5 0.001778 -0.000465 -0.000672 0.000000 0.020710 0.000000
# 6 0.000000 0.000000 0.000000 0.001133 0.000000 0.040002
#
#
# Mechanical properties :
#
#
# Convention : Reuss Voigt Hill
#
# Bulk Modulus (GPa) = 114.34503 124.32773 119.33638
# Shear Modulus (GPa) = 38.27082 41.60331 39.93706
#
# Velocity S-wave (km/s) = 4.51868 4.71131 4.61600
# Velocity P-wave (km/s) = 9.39312 9.79425 9.59578
#
# Compressibility (1/GPa) = 0.00874546
#
# Stress axis : x y z
#
# Youngs Moduli (GPa) = 103.54378 120.46640 138.26198
#
# Poissons Ratio (x) = 0.24589 0.36552
# Poissons Ratio (y) = 0.21135 0.48919
# Poissons Ratio (z) = 0.27374 0.42623
#
# Static dielectric constant tensor:
#      x y z
#    x 1.678810 0.000000 0.033120 
#    y 0.000000 1.628780 0.000000 
#    z 0.033120 0.000000 1.639620 
# 
# From -- ./inp_files/258352.got.cif
#   From: 2010.05.17/outbox.cif.g08.bks.cpg/sg12_130_cif.got.tgz:258352.got - 2010.06.03 13:09:07.
