data_PCOD9218684
_publ_section_title
;
Structure prediction by ZEFSAII (Michael W. Deem and Ramdas Pophale) SiO2 
 PCOD9218684
Probable space group: C 2/M
;
_chemical_formula_sum "Si O2"
_cell_formula_units_Z 48
_cell_length_a 18.969061
_cell_length_b 11.500176
_cell_length_c 12.274808
_cell_angle_alpha 90.000000
_cell_angle_beta 103.414791
_cell_angle_gamma 90.000000
_cell_volume 2604.660333
_symmetry_space_group_name_H-M "C 2/M"
_symmetry_group_IT_number 12
_symmetry_cell_setting 'monoclinic'
loop_
_space_group_symop_operation_xyz
x,y,z
-x,y,-z
-x,-y,-z
x,-y,z
1/2+x,1/2+y,z
1/2-x,1/2+y,-z
1/2-x,1/2-y,-z
1/2+x,1/2-y,z
loop_
_atom_site_type_symbol
_atom_site_label
_atom_site_fract_x
_atom_site_fract_y
_atom_site_fract_z
Si Si1 0.564822 0.500000 0.170746
Si Si2 0.368267 0.731061 0.719241
Si Si3 0.709362 0.138969 0.687933
Si Si4 0.923914 0.362501 0.526909
Si Si5 0.581280 0.137449 0.048354
Si Si6 0.175700 0.246376 0.906728
Si Si7 0.105892 0.000000 0.936124
O O1 0.588609 0.612900 0.244251
O O2 0.479061 0.500000 0.121930
O O3 0.606415 0.500000 0.068668
O O4 0.284169 0.696675 0.673623
O O5 0.402365 0.797744 0.629649
O O6 0.380002 0.803945 0.834657
O O7 0.642806 0.151613 0.580639
O O8 0.688564 0.204617 0.791513
O O9 0.720903 0.000000 0.710578
O O10 0.931894 0.500000 0.553387
O O11 0.000000 0.323387 0.500000
O O12 0.578176 0.000000 0.065329
O O13 0.500000 0.183933 0.000000
O O14 0.622778 0.168564 0.953397
O O15 0.143485 0.116274 0.903920
O O16 0.250000 0.250000 0.000000
#
# Coordination Sequence:
#
# PCOD9218684 Si02
#       7
#     4   8   8   8   8   8   4
#     4  11  22  40  68  91 131 175 210 258 319 388
#     4  12  22  43  68  93 127 172 216 261 317 383
#     4  11  24  44  67  95 128 172 213 264 322 378
#     4  10  25  46  70  94 125 166 216 272 324 374
#     4  11  24  38  62  96 130 167 213 265 315 377
#     4  12  24  39  65  95 134 169 212 257 318 387
#     4  11  24  40  59  98 136 174 207 255 325 377
#
# _framework density 18.428505999999999
#
# number of rings (size 3 to 8) (size 9 to 14) (size 15 to 20)
#    0.000    0.833    4.167    2.500    7.000    0.000 
#    1.500    1.250    0.000    0.000    0.000    0.000 
#    0.000    0.000    0.000    0.000    0.000    0.000 
#
# Total GULP energy -134157.990444 kJ/mol
# GULP energy per Si atom -5589.916268 kJ/mol
# Density = 1.838656 g / cm^3
# Si number density = 18.428506 Si / 1000 Ang^3
#
#
#
# Elastic Constant Matrix: (Units=GPa)
#
#
# Indices 1 2 3 4 5 6 
#
# 1 137.5312 42.2473 47.8114 0.0000 -4.0168 0.0000
# 2 42.2473 94.1591 51.4650 0.0000 -6.9046 0.0000
# 3 47.8114 51.4650 90.1705 0.0000 -16.5931 0.0000
# 4 0.0000 0.0000 0.0000 35.1363 0.0000 -10.3849
# 5 -4.0168 -6.9046 -16.5931 0.0000 36.1624 0.0000
# 6 0.0000 0.0000 0.0000 -10.3849 0.0000 33.8199
#
#
#
# Elastic Compliance Matrix: (Units=1/GPa)
#
#
# Indices 1 2 3 4 5 6 
#
# 1 0.009243 -0.002088 -0.003925 0.000000 -0.001173 0.000000
# 2 -0.002088 0.015955 -0.008171 0.000000 -0.000935 0.000000
# 3 -0.003925 -0.008171 0.019079 0.000000 0.006758 0.000000
# 4 0.000000 0.000000 0.000000 0.031301 0.000000 0.009612
# 5 -0.001173 -0.000935 0.006758 0.000000 0.030445 0.000000
# 6 0.000000 0.000000 0.000000 0.009612 0.000000 0.032520
#
#
# Mechanical properties :
#
#
# Convention : Reuss Voigt Hill
#
# Bulk Modulus (GPa) = 62.86145 67.21203 65.03674
# Shear Modulus (GPa) = 29.03382 33.04620 31.04001
#
# Velocity S-wave (km/s) = 3.97354 4.23923 4.10853
# Velocity P-wave (km/s) = 7.43217 7.77897 7.60754
#
# Compressibility (1/GPa) = 0.01590800
#
# Stress axis : x y z
#
# Youngs Moduli (GPa) = 108.19442 62.67767 52.41449
#
# Poissons Ratio (x) = 0.13085 0.20573
# Poissons Ratio (y) = 0.22587 0.42829
# Poissons Ratio (z) = 0.42467 0.51216
#
# Static dielectric constant tensor:
#      x y z
#    x 1.468550 0.000000 0.021650 
#    y 0.000000 1.631810 0.000000 
#    z 0.021650 0.000000 1.601390 
# 
# From -- ./inp_files/153585.got.cif
#   From: 2010.05.17/outbox.cif.g08.bks.cpg/sg12_77_cif.got.tgz:153585.got - 2010.06.03 13:09:07.
