data_PCOD9218467
_publ_section_title
;
Structure prediction by ZEFSAII (Michael W. Deem and Ramdas Pophale) SiO2 
 PCOD9218467
Probable space group: C 2/M
;
_chemical_formula_sum "Si O2"
_cell_formula_units_Z 44
_cell_length_a 8.537651
_cell_length_b 22.197766
_cell_length_c 12.327189
_cell_angle_alpha 90.000000
_cell_angle_beta 71.023650
_cell_angle_gamma 90.000000
_cell_volume 2209.242915
_symmetry_space_group_name_H-M "C 2/M"
_symmetry_group_IT_number 12
_symmetry_cell_setting 'monoclinic'
loop_
_space_group_symop_operation_xyz
x,y,z
-x,y,-z
-x,-y,-z
x,-y,z
1/2+x,1/2+y,z
1/2-x,1/2+y,-z
1/2-x,1/2-y,-z
1/2+x,1/2-y,z
loop_
_atom_site_type_symbol
_atom_site_label
_atom_site_fract_x
_atom_site_fract_y
_atom_site_fract_z
Si Si1 0.695128 0.308579 0.944257
Si Si2 0.500000 0.129874 0.500000
Si Si3 0.401103 0.331115 0.633642
Si Si4 0.623622 0.932969 0.073411
Si Si5 0.276137 0.709244 0.316375
Si Si6 0.645938 0.930789 0.678819
O O1 0.768150 0.373062 0.963107
O O2 0.741288 0.299003 0.808101
O O3 0.500000 0.311920 0.000000
O O4 0.750000 0.250000 0.000000
O O5 0.639348 0.170286 0.410440
O O6 0.410386 0.091238 0.427117
O O7 0.500000 0.341426 0.500000
O O8 0.540295 0.309573 0.687101
O O9 0.266729 0.278264 0.646899
O O10 0.295979 0.389581 0.687042
O O11 0.510787 0.925751 0.205940
O O12 0.705339 0.000000 0.060382
O O13 0.500000 0.934408 0.000000
O O14 0.697537 0.000000 0.663979
#
# Coordination Sequence:
#
# PCOD9218467 Si02
#       6
#     8   4   8   8   8   8
#     4  12  27  44  69 101 136 175 229 291 338 397
#     4  12  21  46  72 100 135 174 224 280 340 410
#     4  12  24  41  64  97 136 174 221 276 338 406
#     4  10  24  46  69  95 133 183 228 276 343 409
#     4  12  25  42  68 101 133 176 223 283 349 401
#     4  11  25  44  68  98 138 182 225 276 336 408
#
# _framework density 19.916325000000001
#
# number of rings (size 3 to 8) (size 9 to 14) (size 15 to 20)
#    0.000    0.545    4.545    3.545    7.636    0.727 
#    0.000    0.909    0.000    0.000    0.000    0.000 
#    0.000    0.000    0.000    0.000    0.000    0.000 
#
# Total GULP energy -123058.270284 kJ/mol
# GULP energy per Si atom -5593.557740 kJ/mol
# Density = 1.987099 g / cm^3
# Si number density = 19.916325 Si / 1000 Ang^3
#
#
#
# Elastic Constant Matrix: (Units=GPa)
#
#
# Indices 1 2 3 4 5 6 
#
# 1 117.8612 93.5155 25.8133 0.0000 -2.4245 0.0000
# 2 93.5155 210.8931 38.5360 0.0000 -17.1826 0.0000
# 3 25.8133 38.5360 84.7670 0.0000 1.9521 0.0000
# 4 0.0000 0.0000 0.0000 27.2106 0.0000 -10.2783
# 5 -2.4245 -17.1826 1.9521 0.0000 23.6578 0.0000
# 6 0.0000 0.0000 0.0000 -10.2783 0.0000 53.6172
#
#
#
# Elastic Compliance Matrix: (Units=1/GPa)
#
#
# Indices 1 2 3 4 5 6 
#
# 1 0.013434 -0.005946 -0.001323 0.000000 -0.002833 0.000000
# 2 -0.005946 0.008201 -0.002045 0.000000 0.005516 0.000000
# 3 -0.001323 -0.002045 0.013192 0.000000 -0.002709 0.000000
# 4 0.000000 0.000000 0.000000 0.039619 0.000000 0.007595
# 5 -0.002833 0.005516 -0.002709 0.000000 0.046209 0.000000
# 6 0.000000 0.000000 0.000000 0.007595 0.000000 0.020107
#
#
# Mechanical properties :
#
#
# Convention : Reuss Voigt Hill
#
# Bulk Modulus (GPa) = 61.72730 81.02787 71.37758
# Shear Modulus (GPa) = 30.34196 37.94088 34.14142
#
# Velocity S-wave (km/s) = 3.90740 4.36938 4.14483
# Velocity P-wave (km/s) = 7.17061 8.13805 7.66960
#
# Compressibility (1/GPa) = 0.01620029
#
# Stress axis : x y z
#
# Youngs Moduli (GPa) = 74.43959 121.93026 75.80495
#
# Poissons Ratio (x) = 0.72500 0.10025
# Poissons Ratio (y) = 0.44262 0.15501
# Poissons Ratio (z) = 0.09845 0.24932
#
# Static dielectric constant tensor:
#      x y z
#    x 1.680980 0.000000 0.009830 
#    y 0.000000 1.730270 0.000000 
#    z 0.009830 0.000000 1.697990 
# 
# From -- ./inp_files/120613.got.cif
#   From: 2010.05.17/outbox.cif.g08.bks.cpg/sg12_61_cif.got.tgz:120613.got - 2010.06.03 13:09:07.
