data_PCOD9218347
_publ_section_title
;
Structure prediction by ZEFSAII (Michael W. Deem and Ramdas Pophale) SiO2 
 PCOD9218347
Probable space group: C 2/M
;
_chemical_formula_sum "Si O2"
_cell_formula_units_Z 32
_cell_length_a 7.730123
_cell_length_b 16.204750
_cell_length_c 15.697714
_cell_angle_alpha 90.000000
_cell_angle_beta 43.791008
_cell_angle_gamma 90.000000
_cell_volume 1360.786544
_symmetry_space_group_name_H-M "C 2/M"
_symmetry_group_IT_number 12
_symmetry_cell_setting 'monoclinic'
loop_
_space_group_symop_operation_xyz
x,y,z
-x,y,-z
-x,-y,-z
x,-y,z
1/2+x,1/2+y,z
1/2-x,1/2+y,-z
1/2-x,1/2-y,-z
1/2+x,1/2-y,z
loop_
_atom_site_type_symbol
_atom_site_label
_atom_site_fract_x
_atom_site_fract_y
_atom_site_fract_z
Si Si1 0.848804 0.909595 0.771208
Si Si2 0.765362 0.172204 0.631552
Si Si3 0.783814 0.406451 0.748848
Si Si4 0.961779 0.251681 0.126114
O O1 0.871442 0.893625 0.662178
O O2 0.673060 0.833752 0.862714
O O3 0.112612 0.909045 0.725690
O O4 0.734981 0.000000 0.826839
O O5 0.563714 0.128910 0.642590
O O6 0.618575 0.235013 0.745726
O O7 0.000000 0.210070 0.500000
O O8 0.792111 0.500000 0.780210
O O9 0.649119 0.338224 0.856133
O O10 0.250000 0.250000 0.000000
#
# Coordination Sequence:
#
# PCOD9218347 Si02
#       4
#     8   8   8   8
#     4   9  22  42  66 101 138 175 225 281 338 398
#     4  10  24  44  71  96 137 179 227 277 341 401
#     4  11  23  42  68 100 134 180 227 277 340 401
#     4  10  24  47  69  99 138 178 226 286 339 397
#
# _framework density 23.515813000000001
#
# number of rings (size 3 to 8) (size 9 to 14) (size 15 to 20)
#    1.500    0.500    0.000    2.250    0.000    9.000 
#    0.000    6.250    0.000    0.000    0.000    0.000 
#    0.000    0.000    0.000    0.000    0.000    0.000 
#
# Total GULP energy -89159.946539 kJ/mol
# GULP energy per Si atom -5572.496659 kJ/mol
# Density = 2.346229 g / cm^3
# Si number density = 23.515813 Si / 1000 Ang^3
#
#
#
# Elastic Constant Matrix: (Units=GPa)
#
#
# Indices 1 2 3 4 5 6 
#
# 1 95.6890 25.6984 49.8256 0.0001 -18.9958 -0.0001
# 2 25.6984 178.3818 56.2562 0.0000 -20.3096 0.0000
# 3 49.8256 56.2562 179.0791 0.0001 -27.9528 0.0000
# 4 0.0001 0.0000 0.0001 13.1556 0.0000 -6.2099
# 5 -18.9958 -20.3096 -27.9528 0.0000 18.1538 0.0000
# 6 -0.0001 0.0000 0.0000 -6.2099 0.0000 23.6488
#
#
#
# Elastic Compliance Matrix: (Units=1/GPa)
#
#
# Indices 1 2 3 4 5 6 
#
# 1 0.013756 -0.000061 -0.002069 0.000000 0.011139 0.000000
# 2 -0.000061 0.006620 -0.001207 0.000000 0.005484 0.000000
# 3 -0.002069 -0.001207 0.007885 0.000000 0.008627 0.000000
# 4 0.000000 0.000000 0.000000 0.086769 0.000000 0.022784
# 5 0.011139 0.005484 0.008627 0.000000 0.086159 0.000000
# 6 0.000000 0.000000 0.000000 0.022784 0.000000 0.048268
#
#
# Mechanical properties :
#
#
# Convention : Reuss Voigt Hill
#
# Bulk Modulus (GPa) = 46.32355 79.63446 62.97901
# Shear Modulus (GPa) = 18.98784 32.41628 25.70206
#
# Velocity S-wave (km/s) = 2.84465 3.71683 3.30960
# Velocity P-wave (km/s) = 5.52549 7.23585 6.43772
#
# Compressibility (1/GPa) = 0.02158729
#
# Stress axis : x y z
#
# Youngs Moduli (GPa) = 72.69691 151.06579 126.81540
#
# Poissons Ratio (x) = 0.00919 0.26244
# Poissons Ratio (y) = 0.00442 0.15301
# Poissons Ratio (z) = 0.15044 0.18227
#
# Static dielectric constant tensor:
#      x y z
#    x 2.052300 0.000000 0.026860 
#    y 0.000000 1.926280 0.000000 
#    z 0.026860 0.000000 1.841230 
# 
# From -- ./inp_files/300560.got.cif
#   From: 2010.05.17/outbox.cif.g08.bks.cpg/sg12_151_cif.got.tgz:300560.got - 2010.06.03 13:09:07.
