data_PCOD9218703
_publ_section_title
;
Structure prediction by ZEFSAII (Michael W. Deem and Ramdas Pophale) SiO2 
 PCOD9218703
Probable space group: C 2/M
;
_chemical_formula_sum "Si O2"
_cell_formula_units_Z 36
_cell_length_a 8.126292
_cell_length_b 14.889139
_cell_length_c 21.563065
_cell_angle_alpha 90.000000
_cell_angle_beta 41.673935
_cell_angle_gamma 90.000000
_cell_volume 1734.693334
_symmetry_space_group_name_H-M "C 2/M"
_symmetry_group_IT_number 12
_symmetry_cell_setting 'monoclinic'
loop_
_space_group_symop_operation_xyz
x,y,z
-x,y,-z
-x,-y,-z
x,-y,z
1/2+x,1/2+y,z
1/2-x,1/2+y,-z
1/2-x,1/2-y,-z
1/2+x,1/2-y,z
loop_
_atom_site_type_symbol
_atom_site_label
_atom_site_fract_x
_atom_site_fract_y
_atom_site_fract_z
Si Si1 0.882847 0.639317 0.728093
Si Si2 0.577679 0.000000 0.580201
Si Si3 0.365713 0.151359 0.971769
Si Si4 0.715264 0.158518 0.756017
Si Si5 0.902530 0.000000 0.372463
Si Si6 0.002268 0.000000 0.109834
O O1 0.809382 0.739226 0.729032
O O2 0.643149 0.578357 0.808598
O O3 0.051949 0.587301 0.630839
O O4 0.028179 0.643735 0.751997
O O5 0.812453 0.000000 0.469065
O O6 0.337482 0.000000 0.603424
O O7 0.566054 0.140961 0.861264
O O8 0.500000 0.138131 0.000000
O O9 0.250000 0.250000 0.000000
O O10 0.152331 0.078054 0.028945
O O11 0.935383 0.087641 0.687438
#
# Coordination Sequence:
#
# PCOD9218703 Si02
#       6
#     8   4   8   8   4   4
#     4  11  25  43  70  97 138 181 227 287 333 410
#     4  10  25  47  71 106 132 176 220 290 354 405
#     4  12  26  43  66  99 138 184 229 278 333 403
#     4  12  25  44  69 101 136 185 229 281 340 402
#     4  11  25  45  75 101 138 171 228 282 349 420
#     4  11  25  41  65  92 137 178 227 282 328 400
#
# _framework density 20.752948
#
# number of rings (size 3 to 8) (size 9 to 14) (size 15 to 20)
#    0.000    0.667    2.222    5.000    6.222    3.556 
#    0.000    0.000    0.000    0.000    0.000    0.000 
#    0.000    0.000    0.000    0.000    0.000    0.000 
#
# Total GULP energy -100285.303139 kJ/mol
# GULP energy per Si atom -5571.405730 kJ/mol
# Density = 2.070571 g / cm^3
# Si number density = 20.752948 Si / 1000 Ang^3
#
#
#
# Elastic Constant Matrix: (Units=GPa)
#
#
# Indices 1 2 3 4 5 6 
#
# 1 43.7718 8.9731 32.8498 0.0000 28.4397 0.0032
# 2 8.9731 204.4986 92.3712 -0.0009 -4.9706 -0.0008
# 3 32.8498 92.3712 214.8818 -0.0033 18.4996 -0.0047
# 4 0.0000 -0.0009 -0.0033 26.9549 0.0003 3.6762
# 5 28.4397 -4.9706 18.4996 0.0003 34.1665 -0.0007
# 6 0.0032 -0.0008 -0.0047 3.6762 -0.0007 -11.4467
#
#
#
# Elastic Compliance Matrix: (Units=1/GPa)
#
#
# Indices 1 2 3 4 5 6 
#
# 1 0.054186 -0.001701 -0.003826 -0.000002 -0.043279 0.000019
# 2 -0.001701 0.006317 -0.002786 0.000000 0.003844 0.000000
# 3 -0.003826 -0.002786 0.006500 0.000001 -0.000740 -0.000003
# 4 -0.000002 0.000000 0.000001 0.035542 0.000001 0.011415
# 5 -0.043279 0.003844 -0.000740 0.000001 0.066253 -0.000016
# 6 0.000019 0.000000 -0.000003 0.011415 -0.000016 -0.083696
#
#
# Mechanical properties :
#
#
# Convention : Reuss Voigt Hill
#
# Bulk Modulus (GPa) = 19.85115 81.28226 50.56670
# Shear Modulus (GPa) = 42.18673 31.86547 37.02610
#
# Velocity S-wave (km/s) = 4.51356 3.92275 4.22849
# Velocity P-wave (km/s) = 6.06211 7.73104 6.94687
#
# Compressibility (1/GPa) = 0.05037492
#
# Stress axis : x y z
#
# Youngs Moduli (GPa) = 18.45509 158.31392 153.84552
#
# Poissons Ratio (x) = 0.26933 0.58865
# Poissons Ratio (y) = 0.03140 0.42863
# Poissons Ratio (z) = 0.07061 0.44108
#
# Static dielectric constant tensor:
#      x y z
#    x 1.792000 0.000000 0.010830 
#    y 0.000000 1.695860 0.000000 
#    z 0.010830 0.000000 1.735610 
# 
# From -- ./inp_files/300106.got.cif
#   From: 2010.05.17/outbox.cif.g08.bks.cpg/sg12_151_cif.got.tgz:300106.got - 2010.06.03 13:09:07.
