data_PCOD9218299
_publ_section_title
;
Structure prediction by ZEFSAII (Michael W. Deem and Ramdas Pophale) SiO2 
 PCOD9218299
Probable space group: C 2/M
;
_chemical_formula_sum "Si O2"
_cell_formula_units_Z 34
_cell_length_a 19.281094
_cell_length_b 7.638971
_cell_length_c 20.922804
_cell_angle_alpha 90.000000
_cell_angle_beta 29.179410
_cell_angle_gamma 90.000000
_cell_volume 1502.456672
_symmetry_space_group_name_H-M "C 2/M"
_symmetry_group_IT_number 12
_symmetry_cell_setting 'monoclinic'
loop_
_space_group_symop_operation_xyz
x,y,z
-x,y,-z
-x,-y,-z
x,-y,z
1/2+x,1/2+y,z
1/2-x,1/2+y,-z
1/2-x,1/2-y,-z
1/2+x,1/2-y,z
loop_
_atom_site_type_symbol
_atom_site_label
_atom_site_fract_x
_atom_site_fract_y
_atom_site_fract_z
Si Si1 0.198918 0.789947 0.372900
Si Si2 0.880414 0.294712 0.348982
Si Si3 0.303167 0.696910 0.887497
Si Si4 0.500000 0.000000 0.500000
Si Si5 0.335967 0.213797 0.128372
O O1 0.324810 0.758365 0.322255
O O2 0.253068 0.734564 0.259099
O O3 0.070714 0.657263 0.488451
O O4 0.164682 0.000000 0.402889
O O5 0.910721 0.500000 0.328377
O O6 0.750000 0.250000 0.500000
O O7 0.026617 0.203521 0.249805
O O8 0.251690 0.500000 0.923137
O O9 0.237124 0.783400 0.877394
O O10 0.250000 0.750000 0.000000
O O11 0.333265 0.000000 0.132739
O O12 0.500000 0.267545 0.000000
#
# Coordination Sequence:
#
# PCOD9218299 Si02
#       5
#     8   8   8   2   8
#     4  10  24  44  66  96 132 175 220 271 330 392
#     4  11  25  43  67  95 135 176 219 276 336 397
#     4  11  23  40  66  96 129 173 220 273 333 397
#     4  12  26  40  70  94 136 172 222 272 324 394
#     4   9  19  40  67  91 125 170 217 267 332 395
#
# _framework density 22.629604
#
# number of rings (size 3 to 8) (size 9 to 14) (size 15 to 20)
#    0.000    1.647    0.000    3.176    6.588    3.765 
#    2.118    0.588    0.000    0.000    0.000    0.000 
#    0.000    0.000    0.000    0.000    0.000    0.000 
#
# Total GULP energy -94729.346541 kJ/mol
# GULP energy per Si atom -5572.314502 kJ/mol
# Density = 2.257810 g / cm^3
# Si number density = 22.629604 Si / 1000 Ang^3
#
#
#
# Elastic Constant Matrix: (Units=GPa)
#
#
# Indices 1 2 3 4 5 6 
#
# 1 183.9845 18.9080 56.3165 0.0000 7.3811 0.0001
# 2 18.9080 65.8353 -11.2857 -0.0001 0.3952 0.0002
# 3 56.3165 -11.2857 102.5487 0.0000 9.7287 0.0002
# 4 0.0000 -0.0001 0.0000 9.6577 0.0000 15.6386
# 5 7.3811 0.3952 9.7287 0.0000 36.3374 0.0000
# 6 0.0001 0.0002 0.0002 15.6386 0.0000 -90.5767
#
#
#
# Elastic Compliance Matrix: (Units=1/GPa)
#
#
# Indices 1 2 3 4 5 6 
#
# 1 0.006981 -0.002707 -0.004104 0.000000 -0.000290 0.000000
# 2 -0.002707 0.016546 0.003358 0.000000 -0.000529 0.000000
# 3 -0.004104 0.003358 0.012620 0.000000 -0.002582 0.000000
# 4 0.000000 0.000000 0.000000 0.080920 0.000000 0.013971
# 5 -0.000290 -0.000529 -0.002582 0.000000 0.028276 0.000000
# 6 0.000000 0.000000 0.000000 0.013971 0.000000 -0.008628
#
#
# Mechanical properties :
#
#
# Convention : Reuss Voigt Hill
#
# Bulk Modulus (GPa) = 34.20025 53.36069 43.78047
# Shear Modulus (GPa) = 32.60121 10.31233 21.45677
#
# Velocity S-wave (km/s) = 3.79970 2.13703 3.08258
# Velocity P-wave (km/s) = 5.86482 5.45164 5.66200
#
# Compressibility (1/GPa) = 0.02923955
#
# Stress axis : x y z
#
# Youngs Moduli (GPa) = 143.23827 60.43900 79.24011
#
# Poissons Ratio (x) = 0.16360 0.32523
# Poissons Ratio (y) = 0.38773 -0.26606
# Poissons Ratio (z) = 0.58790 -0.20293
#
# Static dielectric constant tensor:
#      x y z
#    x 1.766580 0.000000 -0.227860 
#    y 0.000000 2.383330 0.000000 
#    z -0.227860 0.000000 1.458210 
# 
# From -- ./inp_files/314612.got.cif
#   From: 2010.05.17/outbox.cif.g08.bks.cpg/sg12_158_cif.got.tgz:314612.got - 2010.06.03 13:09:07.
