data_PCOD9218810
_publ_section_title
;
Structure prediction by ZEFSAII (Michael W. Deem and Ramdas Pophale) SiO2 
 PCOD9218810
Probable space group: C 2/M
;
_chemical_formula_sum "Si O2"
_cell_formula_units_Z 52
_cell_length_a 12.134995
_cell_length_b 30.999333
_cell_length_c 7.254405
_cell_angle_alpha 90.000000
_cell_angle_beta 130.593708
_cell_angle_gamma 90.000000
_cell_volume 2072.199717
_symmetry_space_group_name_H-M "C 2/M"
_symmetry_group_IT_number 12
_symmetry_cell_setting 'monoclinic'
loop_
_space_group_symop_operation_xyz
x,y,z
-x,y,-z
-x,-y,-z
x,-y,z
1/2+x,1/2+y,z
1/2-x,1/2+y,-z
1/2-x,1/2-y,-z
1/2+x,1/2-y,z
loop_
_atom_site_type_symbol
_atom_site_label
_atom_site_fract_x
_atom_site_fract_y
_atom_site_fract_z
Si Si1 0.075501 0.754513 0.282398
Si Si2 0.502163 0.921178 0.725724
Si Si3 0.600165 0.567693 0.832251
Si Si4 0.191664 0.500000 0.077069
Si Si5 0.093150 0.668800 0.778336
Si Si6 0.428790 0.662468 0.123301
Si Si7 0.713017 0.450640 0.359437
O O1 0.250000 0.750000 0.500000
O O2 0.991551 0.711415 0.251003
O O3 0.000000 0.760847 0.000000
O O4 0.024869 0.799670 0.316361
O O5 0.500000 0.929696 0.500000
O O6 0.577920 0.876487 0.868881
O O7 0.330484 0.919853 0.578900
O O8 0.573312 0.961939 0.899886
O O9 0.443657 0.551529 0.723124
O O10 0.680513 0.537692 0.776418
O O11 0.583176 0.618164 0.778645
O O12 0.693514 0.561614 0.123275
O O13 0.261494 0.678088 0.920415
O O14 0.000000 0.656440 0.500000
O O15 0.500000 0.650813 0.000000
O O16 0.766430 0.500000 0.430503
#
# Coordination Sequence:
#
# PCOD9218810 Si02
#       7
#     8   8   8   4   8   8   8
#     4  11  26  46  69  96 131 174 224 282 339 397
#     4  11  19  27  45  75 119 160 210 252 323 382
#     4  11  18  25  42  66 109 157 203 239 315 380
#     4  12  17  29  40  75 118 167 204 255 319 398
#     4  11  22  38  63  93 127 174 219 273 334 397
#     4  11  21  35  55  85 123 166 214 262 328 391
#     4  11  17  24  38  65 108 160 198 243 300 385
#
# _framework density 25.094107000000001
#
# number of rings (size 3 to 8) (size 9 to 14) (size 15 to 20)
#    0.000    0.923    6.923    3.923    2.154    0.000 
#    0.000    0.000    0.000    0.000    0.000    0.538 
#    0.000    1.231    0.000    0.000    0.000    0.000 
#
# Total GULP energy -144824.540778 kJ/mol
# GULP energy per Si atom -5570.174645 kJ/mol
# Density = 2.503699 g / cm^3
# Si number density = 25.094107 Si / 1000 Ang^3
#
#
#
# Elastic Constant Matrix: (Units=GPa)
#
#
# Indices 1 2 3 4 5 6 
#
# 1 64.4987 27.1871 68.7171 0.0000 27.2031 0.0000
# 2 27.1871 204.8384 34.4324 0.0000 33.2561 0.0000
# 3 68.7171 34.4324 127.3424 0.0000 43.2600 0.0000
# 4 0.0000 0.0000 0.0000 50.7941 0.0000 30.0102
# 5 27.2031 33.2561 43.2600 0.0000 49.4175 0.0000
# 6 0.0000 0.0000 0.0000 30.0102 0.0000 34.1654
#
#
#
# Elastic Compliance Matrix: (Units=1/GPa)
#
#
# Indices 1 2 3 4 5 6 
#
# 1 0.037346 -0.001273 -0.018667 0.000000 -0.003360 0.000000
# 2 -0.001273 0.005534 0.000310 0.000000 -0.003294 0.000000
# 3 -0.018667 0.000310 0.020527 0.000000 -0.007902 0.000000
# 4 0.000000 0.000000 0.000000 0.040927 0.000000 -0.035950
# 5 -0.003360 -0.003294 -0.007902 0.000000 0.031220 0.000000
# 6 0.000000 0.000000 0.000000 -0.035950 0.000000 0.060847
#
#
# Mechanical properties :
#
#
# Convention : Reuss Voigt Hill
#
# Bulk Modulus (GPa) = 41.41577 73.03919 57.22748
# Shear Modulus (GPa) = 20.51627 44.63159 32.57393
#
# Velocity S-wave (km/s) = 2.86243 4.22188 3.60678
# Velocity P-wave (km/s) = 5.24067 7.27565 6.34033
#
# Compressibility (1/GPa) = 0.02414539
#
# Stress axis : x y z
#
# Youngs Moduli (GPa) = 26.77665 180.71280 48.71727
#
# Poissons Ratio (x) = 0.23011 0.90941
# Poissons Ratio (y) = 0.03410 -0.01510
# Poissons Ratio (z) = 0.49984 -0.05603
#
# Static dielectric constant tensor:
#      x y z
#    x 2.169640 0.000000 -0.157860 
#    y 0.000000 2.119760 0.000000 
#    z -0.157860 0.000000 2.193980 
# 
# From -- ./inp_files/161017.got.cif
#   From: 2010.05.17/outbox.cif.g08.bks.cpg/sg12_81_cif.got.tgz:161017.got - 2010.06.03 13:09:07.
