data_PCOD9218732
_publ_section_title
;
Structure prediction by ZEFSAII (Michael W. Deem and Ramdas Pophale) SiO2 
 PCOD9218732
Probable space group: C 2/M
;
_chemical_formula_sum "Si O2"
_cell_formula_units_Z 44
_cell_length_a 4.888506
_cell_length_b 27.887594
_cell_length_c 15.462572
_cell_angle_alpha 90.000000
_cell_angle_beta 115.918244
_cell_angle_gamma 90.000000
_cell_volume 1895.967211
_symmetry_space_group_name_H-M "C 2/M"
_symmetry_group_IT_number 12
_symmetry_cell_setting 'monoclinic'
loop_
_space_group_symop_operation_xyz
x,y,z
-x,y,-z
-x,-y,-z
x,-y,z
1/2+x,1/2+y,z
1/2-x,1/2+y,-z
1/2-x,1/2-y,-z
1/2+x,1/2-y,z
loop_
_atom_site_type_symbol
_atom_site_label
_atom_site_fract_x
_atom_site_fract_y
_atom_site_fract_z
Si Si1 0.590347 0.000000 0.201700
Si Si2 0.271833 0.405284 0.888932
Si Si3 0.282255 0.000000 0.336560
Si Si4 0.348170 0.629320 0.217076
Si Si5 0.500000 0.823412 0.500000
Si Si6 0.781452 0.720671 0.295546
Si Si7 0.081339 0.913045 0.418316
O O1 0.421315 0.954191 0.139136
O O2 0.952774 0.000000 0.243211
O O3 0.535246 0.000000 0.297967
O O4 0.470471 0.401437 0.829480
O O5 0.003971 0.365557 0.856584
O O6 0.500000 0.402536 0.000000
O O7 0.283087 0.951848 0.394307
O O8 0.560750 0.676125 0.248334
O O9 0.343889 0.603724 0.311263
O O10 0.554611 0.791180 0.590856
O O11 0.230169 0.862164 0.464013
O O12 0.558798 0.766384 0.271835
O O13 0.000000 0.934798 0.500000
#
# Coordination Sequence:
#
# PCOD9218732 Si02
#       7
#     4   8   4   8   4   8   8
#     4  12  23  44  66 100 133 179 229 285 320 391
#     4  12  24  45  73 101 134 177 224 283 340 388
#     4  12  25  41  63  90 145 185 233 267 325 382
#     4  11  25  44  69 101 138 172 226 277 339 412
#     4  10  26  37  66  94 134 174 240 267 324 398
#     4  11  24  43  69  97 133 174 217 281 343 394
#     4  11  25  40  63  95 137 195 222 275 320 394
#
# _framework density 23.207152000000001
#
# number of rings (size 3 to 8) (size 9 to 14) (size 15 to 20)
#    0.000    0.727    3.636    2.727   12.727    0.364 
#    0.000    2.727    0.000   10.909    0.000    0.000 
#    0.000    0.000    0.000    0.000    0.000    0.000 
#
# Total GULP energy -123002.925264 kJ/mol
# GULP energy per Si atom -5591.042057 kJ/mol
# Density = 2.315433 g / cm^3
# Si number density = 23.207152 Si / 1000 Ang^3
#
#
#
# Elastic Constant Matrix: (Units=GPa)
#
#
# Indices 1 2 3 4 5 6 
#
# 1 85.4361 8.4395 31.1864 0.0000 11.2539 0.0000
# 2 8.4395 74.8180 33.6300 0.0000 0.4076 0.0000
# 3 31.1864 33.6300 138.8501 0.0000 26.9593 0.0000
# 4 0.0000 0.0000 0.0000 26.5051 0.0000 8.6789
# 5 11.2539 0.4076 26.9593 0.0000 30.1501 0.0000
# 6 0.0000 0.0000 0.0000 8.6789 0.0000 34.7360
#
#
#
# Elastic Compliance Matrix: (Units=1/GPa)
#
#
# Indices 1 2 3 4 5 6 
#
# 1 0.012941 -0.000430 -0.002258 0.000000 -0.002806 0.000000
# 2 -0.000430 0.015359 -0.004374 0.000000 0.003864 0.000000
# 3 -0.002258 -0.004374 0.010399 0.000000 -0.008396 0.000000
# 4 0.000000 0.000000 0.000000 0.041090 0.000000 -0.010267
# 5 -0.002806 0.003864 -0.008396 0.000000 0.041670 0.000000
# 6 0.000000 0.000000 0.000000 -0.010267 0.000000 0.031354
#
#
# Mechanical properties :
#
#
# Convention : Reuss Voigt Hill
#
# Bulk Modulus (GPa) = 40.68928 49.51288 45.10108
# Shear Modulus (GPa) = 28.55071 33.33480 30.94275
#
# Velocity S-wave (km/s) = 3.51130 3.79410 3.65544
# Velocity P-wave (km/s) = 5.83182 6.36986 6.10677
#
# Compressibility (1/GPa) = 0.02457650
#
# Stress axis : x y z
#
# Youngs Moduli (GPa) = 77.27497 65.10794 96.16600
#
# Poissons Ratio (x) = 0.02797 0.21712
# Poissons Ratio (y) = 0.03320 0.42060
# Poissons Ratio (z) = 0.17447 0.28476
#
# Static dielectric constant tensor:
#      x y z
#    x 1.877120 0.000000 0.018230 
#    y 0.000000 1.915400 0.000000 
#    z 0.018230 0.000000 1.866740 
# 
# From -- ./inp_files/253704.got.cif
#   From: 2010.05.17/outbox.cif.g08.bks.cpg/sg12_127_cif.got.tgz:253704.got - 2010.06.03 13:09:07.
