data_PCOD9218654
_publ_section_title
;
Structure prediction by ZEFSAII (Michael W. Deem and Ramdas Pophale) SiO2 
 PCOD9218654
Probable space group: C 2/M
;
_chemical_formula_sum "Si O2"
_cell_formula_units_Z 64
_cell_length_a 16.245779
_cell_length_b 21.570196
_cell_length_c 11.685844
_cell_angle_alpha 90.000000
_cell_angle_beta 49.265054
_cell_angle_gamma 90.000000
_cell_volume 3102.936619
_symmetry_space_group_name_H-M "C 2/M"
_symmetry_group_IT_number 12
_symmetry_cell_setting 'monoclinic'
loop_
_space_group_symop_operation_xyz
x,y,z
-x,y,-z
-x,-y,-z
x,-y,z
1/2+x,1/2+y,z
1/2-x,1/2+y,-z
1/2-x,1/2-y,-z
1/2+x,1/2-y,z
loop_
_atom_site_type_symbol
_atom_site_label
_atom_site_fract_x
_atom_site_fract_y
_atom_site_fract_z
Si Si1 0.398407 0.251608 0.534386
Si Si2 0.500698 0.616448 0.372561
Si Si3 0.068638 0.373556 0.053855
Si Si4 0.628243 0.615499 0.894817
Si Si5 0.707562 0.571942 0.068567
Si Si6 0.675948 0.760126 0.840555
Si Si7 0.694868 0.570881 0.588541
Si Si8 0.134015 0.666685 0.646445
O O1 0.500000 0.218488 0.500000
O O2 0.446972 0.315296 0.437533
O O3 0.306128 0.262607 0.712285
O O4 0.353543 0.209248 0.475114
O O5 0.500000 0.588439 0.500000
O O6 0.622167 0.614331 0.215298
O O7 0.424790 0.579443 0.355065
O O8 0.981529 0.366553 0.233818
O O9 0.170476 0.415246 0.997839
O O10 0.121862 0.306262 0.979792
O O11 0.000000 0.391464 0.000000
O O12 0.637808 0.690115 0.891263
O O13 0.687942 0.592572 0.726046
O O14 0.500000 0.598943 0.000000
O O15 0.684646 0.587702 0.956438
O O16 0.681023 0.500000 0.112910
O O17 0.642122 0.788835 0.748786
O O18 0.729716 0.500000 0.549539
O O19 0.772975 0.615273 0.444490
#
# Coordination Sequence:
#
# PCOD9218654 Si02
#       8
#     8   8   8   8   8   8   8   8
#     4  11  22  37  66  97 133 164 217 282 348 396
#     4  11  24  43  67 103 136 173 224 291 345 400
#     4  10  25  44  68  97 132 176 228 285 341 401
#     4  12  25  43  70 102 140 182 226 282 345 407
#     4  12  28  46  68 101 141 185 230 276 334 414
#     4  11  22  44  67 100 134 170 224 287 349 403
#     4  12  25  43  68  98 136 188 229 271 337 406
#     4  11  23  42  66  98 132 176 227 281 332 404
#
# _framework density 20.625623000000001
#
# number of rings (size 3 to 8) (size 9 to 14) (size 15 to 20)
#    0.000    0.750    3.750    4.500    5.250    2.750 
#    0.000    0.000    0.000    1.875    0.000    0.000 
#    0.000    0.000    0.000    0.000    0.000    0.000 
#
# Total GULP energy -178848.862450 kJ/mol
# GULP energy per Si atom -5589.026952 kJ/mol
# Density = 2.057868 g / cm^3
# Si number density = 20.625623 Si / 1000 Ang^3
#
#
#
# Elastic Constant Matrix: (Units=GPa)
#
#
# Indices 1 2 3 4 5 6 
#
# 1 96.8404 16.9630 27.3029 0.0000 -14.4736 0.0000
# 2 16.9630 73.6740 -8.4118 0.0000 -0.9795 0.0000
# 3 27.3029 -8.4118 75.0974 0.0000 -17.2628 0.0000
# 4 0.0000 0.0000 0.0000 18.6950 0.0000 -0.8528
# 5 -14.4736 -0.9795 -17.2628 0.0000 43.1005 0.0000
# 6 0.0000 0.0000 0.0000 -0.8528 0.0000 13.5728
#
#
#
# Elastic Compliance Matrix: (Units=1/GPa)
#
#
# Indices 1 2 3 4 5 6 
#
# 1 0.012500 -0.003346 -0.004375 0.000000 0.002369 0.000000
# 2 -0.003346 0.014686 0.002952 0.000000 0.000392 0.000000
# 3 -0.004375 0.002952 0.016427 0.000000 0.005178 0.000000
# 4 0.000000 0.000000 0.000000 0.053644 0.000000 0.003370
# 5 0.002369 0.000392 0.005178 0.000000 0.026080 0.000000
# 6 0.000000 0.000000 0.000000 0.003370 0.000000 0.073889
#
#
# Mechanical properties :
#
#
# Convention : Reuss Voigt Hill
#
# Bulk Modulus (GPa) = 29.34690 35.25778 32.30234
# Shear Modulus (GPa) = 22.92295 29.05750 25.99023
#
# Velocity S-wave (km/s) = 3.33736 3.75748 3.55363
# Velocity P-wave (km/s) = 5.39536 5.99634 5.70377
#
# Compressibility (1/GPa) = 0.03407514
#
# Stress axis : x y z
#
# Youngs Moduli (GPa) = 80.00075 68.09234 60.87416
#
# Poissons Ratio (x) = 0.22784 0.26630
# Poissons Ratio (y) = 0.26768 -0.17968
# Poissons Ratio (z) = 0.34998 -0.20099
#
# Static dielectric constant tensor:
#      x y z
#    x 1.780310 0.000000 -0.015830 
#    y 0.000000 1.714400 0.000000 
#    z -0.015830 0.000000 1.733500 
# 
# From -- ./inp_files/159521.got.cif
#   From: 2010.05.17/outbox.cif.g08.bks.cpg/sg12_80_cif.got.tgz:159521.got - 2010.06.03 13:09:07.
