data_PCOD9218895
_publ_section_title
;
Structure prediction by ZEFSAII (Michael W. Deem and Ramdas Pophale) SiO2 
 PCOD9218895
Probable space group: C 2/M
;
_chemical_formula_sum "Si O2"
_cell_formula_units_Z 40
_cell_length_a 12.289254
_cell_length_b 19.608444
_cell_length_c 8.286870
_cell_angle_alpha 90.000000
_cell_angle_beta 83.334030
_cell_angle_gamma 90.000000
_cell_volume 1983.413564
_symmetry_space_group_name_H-M "C 2/M"
_symmetry_group_IT_number 12
_symmetry_cell_setting 'monoclinic'
loop_
_space_group_symop_operation_xyz
x,y,z
-x,y,-z
-x,-y,-z
x,-y,z
1/2+x,1/2+y,z
1/2-x,1/2+y,-z
1/2-x,1/2-y,-z
1/2+x,1/2-y,z
loop_
_atom_site_type_symbol
_atom_site_label
_atom_site_fract_x
_atom_site_fract_y
_atom_site_fract_z
Si Si1 0.735545 0.157650 0.816274
Si Si2 0.027401 0.200646 0.183008
Si Si3 0.435262 0.921145 0.355481
Si Si4 0.202738 0.792808 0.659093
Si Si5 0.623755 0.145379 0.171243
O O1 0.866180 0.157342 0.785639
O O2 0.671340 0.118087 0.687445
O O3 0.704632 0.237306 0.803826
O O4 0.689255 0.135021 0.995488
O O5 0.061732 0.280913 0.186217
O O6 0.924156 0.187260 0.318040
O O7 0.000000 0.185929 0.000000
O O8 0.500000 0.891962 0.500000
O O9 0.529630 0.910220 0.206225
O O10 0.410394 0.000000 0.388642
O O11 0.250000 0.750000 0.500000
O O12 0.286519 0.850833 0.700944
#
# Coordination Sequence:
#
# PCOD9218895 Si02
#       5
#     8   8   8   8   8
#     4  11  21  35  58  84 116 157 195 238 292 359
#     4  11  18  35  57  87 125 155 187 237 297 354
#     4  11  24  41  59  83 117 155 202 257 304 351
#     4  11  21  33  55  89 127 158 190 238 296 357
#     4  11  20  33  58  86 117 156 197 236 292 355
#
# _framework density 20.167252000000001
#
# number of rings (size 3 to 8) (size 9 to 14) (size 15 to 20)
#    0.000    1.000    6.000    3.000    0.000    4.000 
#    0.000    0.000    0.000    1.800    0.000    4.200 
#    0.000    0.000    0.000    0.000    0.000    0.000 
#
# Total GULP energy -111644.346760 kJ/mol
# GULP energy per Si atom -5582.217338 kJ/mol
# Density = 2.012135 g / cm^3
# Si number density = 20.167252 Si / 1000 Ang^3
#
#
#
# Elastic Constant Matrix: (Units=GPa)
#
#
# Indices 1 2 3 4 5 6 
#
# 1 191.4677 24.0619 47.4007 0.0000 1.0764 0.0000
# 2 24.0619 23.0500 -3.9918 0.0000 11.5477 0.0000
# 3 47.4007 -3.9918 87.4160 0.0000 -0.9543 0.0000
# 4 0.0000 0.0000 0.0000 14.0385 0.0000 2.4920
# 5 1.0764 11.5477 -0.9543 0.0000 36.3633 0.0000
# 6 0.0000 0.0000 0.0000 2.4920 0.0000 19.4846
#
#
#
# Elastic Compliance Matrix: (Units=1/GPa)
#
#
# Indices 1 2 3 4 5 6 
#
# 1 0.007617 -0.010190 -0.004564 0.000000 0.002891 0.000000
# 2 -0.010190 0.065642 0.008301 0.000000 -0.020326 0.000000
# 3 -0.004564 0.008301 0.014270 0.000000 -0.002127 0.000000
# 4 0.000000 0.000000 0.000000 0.072887 0.000000 -0.009322
# 5 0.002891 -0.020326 -0.002127 0.000000 0.033814 0.000000
# 6 0.000000 0.000000 0.000000 -0.009322 0.000000 0.052515
#
#
# Mechanical properties :
#
#
# Convention : Reuss Voigt Hill
#
# Bulk Modulus (GPa) = 13.40065 48.54171 30.97118
# Shear Modulus (GPa) = 17.57309 29.60812 23.59060
#
# Velocity S-wave (km/s) = 2.95510 3.83577 3.42387
# Velocity P-wave (km/s) = 4.27816 6.61357 5.56965
#
# Compressibility (1/GPa) = 0.07462327
#
# Stress axis : x y z
#
# Youngs Moduli (GPa) = 131.28416 15.23412 70.07600
#
# Poissons Ratio (x) = 0.15524 0.31983
# Poissons Ratio (y) = 1.33780 -0.58171
# Poissons Ratio (z) = 0.59919 -0.12646
#
# Static dielectric constant tensor:
#      x y z
#    x 1.799910 0.000000 -0.002720 
#    y 0.000000 1.686060 0.000000 
#    z -0.002720 0.000000 1.821920 
# 
# From -- ./inp_files/46923.got.cif
#   From: 2010.05.17/outbox.cif.g08.bks.cpg/sg12_24_cif.got.tgz:46923.got - 2010.06.03 13:09:07.
