data_PCOD9218056
_publ_section_title
;
Structure prediction by ZEFSAII (Michael W. Deem and Ramdas Pophale) SiO2 
 PCOD9218056
Probable space group: C 2/M
;
_chemical_formula_sum "Si O2"
_cell_formula_units_Z 40
_cell_length_a 12.673369
_cell_length_b 26.196612
_cell_length_c 8.756122
_cell_angle_alpha 90.000000
_cell_angle_beta 134.212535
_cell_angle_gamma 90.000000
_cell_volume 2083.634795
_symmetry_space_group_name_H-M "C 2/M"
_symmetry_group_IT_number 12
_symmetry_cell_setting 'monoclinic'
loop_
_space_group_symop_operation_xyz
x,y,z
-x,y,-z
-x,-y,-z
x,-y,z
1/2+x,1/2+y,z
1/2-x,1/2+y,-z
1/2-x,1/2-y,-z
1/2+x,1/2-y,z
loop_
_atom_site_type_symbol
_atom_site_label
_atom_site_fract_x
_atom_site_fract_y
_atom_site_fract_z
Si Si1 0.000000 0.138994 0.000000
Si Si2 0.477711 0.110601 0.660738
Si Si3 0.667727 0.500000 0.722424
Si Si4 0.197585 0.898742 0.939195
Si Si5 0.500000 0.659644 0.500000
Si Si6 0.416581 0.000000 0.750984
Si Si7 0.786904 0.809445 0.538634
O O1 0.114789 0.104931 0.018087
O O2 0.900680 0.173593 0.787169
O O3 0.500000 0.109854 0.500000
O O4 0.444506 0.052830 0.687869
O O5 0.351409 0.151077 0.583659
O O6 0.639646 0.124859 0.887912
O O7 0.500000 0.500000 0.500000
O O8 0.711025 0.453251 0.874123
O O9 0.751031 0.500000 0.645440
O O10 0.086813 0.871583 0.713539
O O11 0.627532 0.686260 0.534580
O O12 0.500000 0.000000 0.000000
O O13 0.750000 0.750000 0.500000
#
# Coordination Sequence:
#
# PCOD9218056 Si02
#       7
#     4   8   4   8   4   4   8
#     4  10  24  45  62  98 134 175 230 282 346 420
#     4  12  25  44  69 100 142 179 227 281 347 409
#     4  12  24  37  65 100 137 180 231 275 339 405
#     4  11  22  42  66  97 137 179 227 281 338 407
#     4  10  24  41  66  96 132 171 228 282 340 400
#     4  12  25  42  66 102 136 180 232 282 334 411
#     4  11  26  45  71  98 135 180 230 288 349 408
#
# _framework density 19.197223000000001
#
# number of rings (size 3 to 8) (size 9 to 14) (size 15 to 20)
#    0.000    0.800    5.000    1.500    4.200    2.000 
#    0.000    4.000    0.000    0.000    0.000    0.000 
#    0.000    0.000    0.000    0.000    0.000    0.000 
#
# Total GULP energy -111470.326906 kJ/mol
# GULP energy per Si atom -5573.516345 kJ/mol
# Density = 1.915353 g / cm^3
# Si number density = 19.197223 Si / 1000 Ang^3
#
#
#
# Elastic Constant Matrix: (Units=GPa)
#
#
# Indices 1 2 3 4 5 6 
#
# 1 170.8085 68.8500 27.3217 0.0000 5.9235 0.0000
# 2 68.8500 119.0055 16.2990 0.0000 1.6442 0.0000
# 3 27.3217 16.2990 81.6418 0.0000 19.7560 0.0000
# 4 0.0000 0.0000 0.0000 11.8421 0.0000 8.5416
# 5 5.9235 1.6442 19.7560 0.0000 45.1668 0.0000
# 6 0.0000 0.0000 0.0000 8.5416 0.0000 6.4384
#
#
#
# Elastic Compliance Matrix: (Units=1/GPa)
#
#
# Indices 1 2 3 4 5 6 
#
# 1 0.007878 -0.004317 -0.001748 0.000000 -0.000112 0.000000
# 2 -0.004317 0.011014 -0.000888 0.000000 0.000554 0.000000
# 3 -0.001748 -0.000888 0.014480 0.000000 -0.006072 0.000000
# 4 0.000000 0.000000 0.000000 1.959724 0.000000 -2.599896
# 5 -0.000112 0.000554 -0.006072 0.000000 0.024791 0.000000
# 6 0.000000 0.000000 0.000000 -2.599896 0.000000 3.604508
#
#
# Mechanical properties :
#
#
# Convention : Reuss Voigt Hill
#
# Bulk Modulus (GPa) = 51.36843 66.26633 58.81738
# Shear Modulus (GPa) = 0.88609 29.95513 15.42061
#
# Velocity S-wave (km/s) = 0.68013 3.95446 2.83728
# Velocity P-wave (km/s) = 5.23766 7.44607 6.43728
#
# Compressibility (1/GPa) = 0.01946721
#
# Stress axis : x y z
#
# Youngs Moduli (GPa) = 126.93637 90.78958 69.06018
#
# Poissons Ratio (x) = 0.39193 0.12069
# Poissons Ratio (y) = 0.54797 0.06134
# Poissons Ratio (z) = 0.22183 0.08065
#
# Static dielectric constant tensor:
#      x y z
#    x 1.785130 0.000000 0.093380 
#    y 0.000000 1.579680 0.000000 
#    z 0.093380 0.000000 1.600110 
# 
# From -- ./inp_files/52394.got.cif
#   From: 2010.05.17/outbox.cif.g08.bks.cpg/sg12_27_cif.got.tgz:52394.got - 2010.06.03 13:09:07.
