data_PCOD9218475
_publ_section_title
;
Structure prediction by ZEFSAII (Michael W. Deem and Ramdas Pophale) SiO2 
 PCOD9218475
Probable space group: C 2/M
;
_chemical_formula_sum "Si O2"
_cell_formula_units_Z 36
_cell_length_a 10.876136
_cell_length_b 24.713656
_cell_length_c 6.676888
_cell_angle_alpha 90.000000
_cell_angle_beta 105.784881
_cell_angle_gamma 90.000000
_cell_volume 1726.997084
_symmetry_space_group_name_H-M "C 2/M"
_symmetry_group_IT_number 12
_symmetry_cell_setting 'monoclinic'
loop_
_space_group_symop_operation_xyz
x,y,z
-x,y,-z
-x,-y,-z
x,-y,z
1/2+x,1/2+y,z
1/2-x,1/2+y,-z
1/2-x,1/2-y,-z
1/2+x,1/2-y,z
loop_
_atom_site_type_symbol
_atom_site_label
_atom_site_fract_x
_atom_site_fract_y
_atom_site_fract_z
Si Si1 0.144788 0.716021 0.331804
Si Si2 0.865002 0.607639 0.416010
Si Si3 0.500000 0.288427 0.000000
Si Si4 0.649157 0.563669 0.601168
Si Si5 0.242987 0.852175 0.970653
O O1 0.250000 0.750000 0.500000
O O2 0.119101 0.662734 0.448685
O O3 0.025553 0.752693 0.210872
O O4 0.198302 0.694061 0.144320
O O5 0.741831 0.577946 0.455641
O O6 0.000000 0.577321 0.500000
O O7 0.838598 0.624143 0.176775
O O8 0.376436 0.325551 0.970119
O O9 0.500000 0.577018 0.500000
O O10 0.657986 0.500000 0.647621
O O11 0.697277 0.600029 0.805393
#
# Coordination Sequence:
#
# PCOD9218475 Si02
#       5
#     8   8   4   8   8
#     4  11  24  37  57  92 133 175 211 262 315 382
#     4  11  24  43  65  95 134 170 218 270 323 388
#     4  12  22  38  65  90 131 178 222 260 316 382
#     4  10  24  46  70  96 127 165 216 278 333 385
#     4  11  24  41  62  97 125 172 220 264 320 390
#
# _framework density 20.845433
#
# number of rings (size 3 to 8) (size 9 to 14) (size 15 to 20)
#    0.000    1.111    2.222    3.333    6.222    4.000 
#    0.000    3.889    0.000    0.000    0.000    0.000 
#    0.000    0.000    0.000    0.000    0.000    0.000 
#
# Total GULP energy -100670.922343 kJ/mol
# GULP energy per Si atom -5592.829019 kJ/mol
# Density = 2.079799 g / cm^3
# Si number density = 20.845433 Si / 1000 Ang^3
#
#
#
# Elastic Constant Matrix: (Units=GPa)
#
#
# Indices 1 2 3 4 5 6 
#
# 1 112.8610 20.0317 29.4316 0.0000 12.7299 0.0000
# 2 20.0317 57.5778 30.4642 0.0000 11.4558 0.0000
# 3 29.4316 30.4642 123.4667 0.0000 23.7685 0.0000
# 4 0.0000 0.0000 0.0000 14.9992 0.0000 2.4441
# 5 12.7299 11.4558 23.7685 0.0000 38.0922 0.0000
# 6 0.0000 0.0000 0.0000 2.4441 0.0000 16.9147
#
#
#
# Elastic Compliance Matrix: (Units=1/GPa)
#
#
# Indices 1 2 3 4 5 6 
#
# 1 0.009840 -0.002322 -0.001448 0.000000 -0.001687 0.000000
# 2 -0.002322 0.020903 -0.004027 0.000000 -0.002998 0.000000
# 3 -0.001448 -0.004027 0.010356 0.000000 -0.004767 0.000000
# 4 0.000000 0.000000 0.000000 0.068278 0.000000 -0.009866
# 5 -0.001687 -0.002998 -0.004767 0.000000 0.030692 0.000000
# 6 0.000000 0.000000 0.000000 -0.009866 0.000000 0.060546
#
#
# Mechanical properties :
#
#
# Convention : Reuss Voigt Hill
#
# Bulk Modulus (GPa) = 39.20791 50.41785 44.81288
# Shear Modulus (GPa) = 22.25095 28.26642 25.25869
#
# Velocity S-wave (km/s) = 3.27069 3.68639 3.48474
# Velocity P-wave (km/s) = 5.75439 6.50832 6.14293
#
# Compressibility (1/GPa) = 0.02550506
#
# Stress axis : x y z
#
# Youngs Moduli (GPa) = 101.62149 47.84089 96.56413
#
# Poissons Ratio (x) = 0.11107 0.13984
# Poissons Ratio (y) = 0.23594 0.38886
# Poissons Ratio (z) = 0.14716 0.19265
#
# Static dielectric constant tensor:
#      x y z
#    x 1.800990 0.000000 -0.011670 
#    y 0.000000 1.727170 0.000000 
#    z -0.011670 0.000000 1.719440 
# 
# From -- ./inp_files/7431.got.cif
#   From: 2010.05.17/outbox.cif.g08.bks.cpg/sg12_4_cif.got.tgz:7431.got - 2010.06.03 13:09:07.
