data_PCOD9218211
_publ_section_title
;
Structure prediction by ZEFSAII (Michael W. Deem and Ramdas Pophale) SiO2 
 PCOD9218211
Probable space group: C 2/M
;
_chemical_formula_sum "Si O2"
_cell_formula_units_Z 34
_cell_length_a 14.264349
_cell_length_b 12.002877
_cell_length_c 13.458170
_cell_angle_alpha 90.000000
_cell_angle_beta 42.288104
_cell_angle_gamma 90.000000
_cell_volume 1550.412797
_symmetry_space_group_name_H-M "C 2/M"
_symmetry_group_IT_number 12
_symmetry_cell_setting 'monoclinic'
loop_
_space_group_symop_operation_xyz
x,y,z
-x,y,-z
-x,-y,-z
x,-y,z
1/2+x,1/2+y,z
1/2-x,1/2+y,-z
1/2-x,1/2-y,-z
1/2+x,1/2-y,z
loop_
_atom_site_type_symbol
_atom_site_label
_atom_site_fract_x
_atom_site_fract_y
_atom_site_fract_z
Si Si1 0.874982 0.218761 0.330037
Si Si2 0.000000 0.500000 0.500000
Si Si3 0.060631 0.000000 0.607291
Si Si4 0.395919 0.877158 0.775849
Si Si5 0.271329 0.500000 0.718926
Si Si6 0.162868 0.257822 0.855425
O O1 0.750000 0.250000 0.500000
O O2 0.812351 0.200642 0.270758
O O3 0.992913 0.314131 0.242541
O O4 0.938030 0.107318 0.325103
O O5 0.968025 0.404778 0.612452
O O6 0.192719 0.000000 0.427524
O O7 0.921594 0.000000 0.652562
O O8 0.262585 0.800247 0.857480
O O9 0.357029 0.000000 0.846957
O O10 0.196432 0.387589 0.812068
O O11 0.000000 0.241727 0.000000
#
# Coordination Sequence:
#
# PCOD9218211 Si02
#       6
#     8   2   4   8   4   8
#     4  12  25  42  71 102 131 175 234 275 336 394
#     4   8  20  36  70  94 134 164 218 274 342 368
#     4  11  24  41  73 101 136 172 226 291 332 389
#     4  10  24  43  66  97 138 177 217 282 330 396
#     4  11  23  45  68 100 140 175 219 290 341 377
#     4  12  27  46  67  98 142 184 220 271 338 408
#
# _framework density 21.929644
#
# number of rings (size 3 to 8) (size 9 to 14) (size 15 to 20)
#    0.706    0.235    4.706    1.765    4.941    1.412 
#    0.000    0.000    0.000    0.000    0.000    0.000 
#    0.000    0.000    0.000    0.000    0.000    0.000 
#
# Total GULP energy -94779.741264 kJ/mol
# GULP energy per Si atom -5575.278898 kJ/mol
# Density = 2.187973 g / cm^3
# Si number density = 21.929644 Si / 1000 Ang^3
#
#
#
# Elastic Constant Matrix: (Units=GPa)
#
#
# Indices 1 2 3 4 5 6 
#
# 1 91.9085 28.9744 1.0315 0.0000 -19.6173 0.0000
# 2 28.9744 119.0989 -0.5644 0.0000 -10.7613 0.0000
# 3 1.0315 -0.5644 42.5737 0.0000 -18.0294 0.0000
# 4 0.0000 0.0000 0.0000 28.7093 0.0000 -5.6214
# 5 -19.6173 -10.7613 -18.0294 0.0000 29.2333 0.0000
# 6 0.0000 0.0000 0.0000 -5.6214 0.0000 11.6910
#
#
#
# Elastic Compliance Matrix: (Units=1/GPa)
#
#
# Indices 1 2 3 4 5 6 
#
# 1 0.013967 -0.002365 0.004373 0.000000 0.011199 0.000000
# 2 -0.002365 0.009212 0.001277 0.000000 0.002591 0.000000
# 3 0.004373 0.001277 0.033623 0.000000 0.024141 0.000000
# 4 0.000000 0.000000 0.000000 0.038452 0.000000 0.018489
# 5 0.011199 0.002591 0.024141 0.000000 0.057566 0.000000
# 6 0.000000 0.000000 0.000000 0.018489 0.000000 0.094426
#
#
# Mechanical properties :
#
#
# Convention : Reuss Voigt Hill
#
# Bulk Modulus (GPa) = 15.77994 34.71822 25.24908
# Shear Modulus (GPa) = 19.09840 28.86934 23.98387
#
# Velocity S-wave (km/s) = 2.95429 3.63223 3.31066
# Velocity P-wave (km/s) = 4.34148 5.78419 5.11397
#
# Compressibility (1/GPa) = 0.06337158
#
# Stress axis : x y z
#
# Youngs Moduli (GPa) = 71.59520 108.55383 29.74133
#
# Poissons Ratio (x) = 0.25677 -0.13006
# Poissons Ratio (y) = 0.16935 -0.03797
# Poissons Ratio (z) = -0.31308 -0.13860
#
# Static dielectric constant tensor:
#      x y z
#    x 1.774450 0.000000 0.005430 
#    y 0.000000 1.824890 0.000000 
#    z 0.005430 0.000000 1.817460 
# 
# From -- ./inp_files/213230.got.cif
#   From: 2010.05.17/outbox.cif.g08.bks.cpg/sg12_107_cif.got.tgz:213230.got - 2010.06.03 13:09:07.
