data_PCOD9218911
_publ_section_title
;
Structure prediction by ZEFSAII (Michael W. Deem and Ramdas Pophale) SiO2 
 PCOD9218911
Probable space group: C 2/M
;
_chemical_formula_sum "Si O2"
_cell_formula_units_Z 36
_cell_length_a 12.436824
_cell_length_b 18.962104
_cell_length_c 8.420586
_cell_angle_alpha 90.000000
_cell_angle_beta 67.868129
_cell_angle_gamma 90.000000
_cell_volume 1839.496643
_symmetry_space_group_name_H-M "C 2/M"
_symmetry_group_IT_number 12
_symmetry_cell_setting 'monoclinic'
loop_
_space_group_symop_operation_xyz
x,y,z
-x,y,-z
-x,-y,-z
x,-y,z
1/2+x,1/2+y,z
1/2-x,1/2+y,-z
1/2-x,1/2-y,-z
1/2+x,1/2-y,z
loop_
_atom_site_type_symbol
_atom_site_label
_atom_site_fract_x
_atom_site_fract_y
_atom_site_fract_z
Si Si1 0.691182 0.500000 0.488589
Si Si2 0.866356 0.704542 0.326252
Si Si3 0.147325 0.500000 0.292391
Si Si4 0.120000 0.843524 0.520952
Si Si5 0.500000 0.121305 0.000000
Si Si6 0.310379 0.000000 0.075690
Si Si7 0.500000 0.878859 0.500000
O O1 0.791105 0.500000 0.568833
O O2 0.625182 0.426540 0.553046
O O3 0.733187 0.500000 0.279720
O O4 0.870753 0.788541 0.339015
O O5 0.737308 0.676870 0.359033
O O6 0.902260 0.669437 0.474588
O O7 0.963282 0.673296 0.159804
O O8 0.063245 0.568075 0.342353
O O9 0.227706 0.500000 0.090157
O O10 0.000000 0.828544 0.500000
O O11 0.608368 0.068805 0.958336
#
# Coordination Sequence:
#
# PCOD9218911 Si02
#       7
#     4   8   4   8   4   4   4
#     4  12  23  44  62  96 136 174 221 254 320 410
#     4  11  22  40  67  96 124 167 219 275 330 375
#     4  11  21  33  64 101 127 162 205 281 335 366
#     4  11  24  41  64  90 130 182 218 250 322 406
#     4  11  20  38  62 101 132 148 218 291 328 372
#     4  11  21  35  64 103 131 160 207 283 339 368
#     4  11  18  36  62  95 126 154 218 275 326 372
#
# _framework density 19.570571000000001
#
# number of rings (size 3 to 8) (size 9 to 14) (size 15 to 20)
#    0.000    0.889    7.778    0.333    3.111    0.000 
#    0.000    3.333    0.000    2.000    0.000    0.000 
#    0.000    0.000    0.000    0.000    0.000    0.000 
#
# Total GULP energy -100276.697042 kJ/mol
# GULP energy per Si atom -5570.927613 kJ/mol
# Density = 1.952603 g / cm^3
# Si number density = 19.570571 Si / 1000 Ang^3
#
#
#
# Elastic Constant Matrix: (Units=GPa)
#
#
# Indices 1 2 3 4 5 6 
#
# 1 93.9289 22.9259 3.2239 0.0000 -3.3897 0.0000
# 2 22.9259 160.2169 40.9216 0.0000 -9.8152 0.0000
# 3 3.2239 40.9216 72.2369 0.0000 7.3132 0.0000
# 4 0.0000 0.0000 0.0000 25.1521 0.0000 -9.2988
# 5 -3.3897 -9.8152 7.3132 0.0000 11.3427 0.0000
# 6 0.0000 0.0000 0.0000 -9.2988 0.0000 22.0987
#
#
#
# Elastic Compliance Matrix: (Units=1/GPa)
#
#
# Indices 1 2 3 4 5 6 
#
# 1 0.011078 -0.001513 0.000171 0.000000 0.001891 0.000000
# 2 -0.001513 0.008634 -0.005921 0.000000 0.010837 0.000000
# 3 0.000171 -0.005921 0.018939 0.000000 -0.017283 0.000000
# 4 0.000000 0.000000 0.000000 0.047082 0.000000 0.019812
# 5 0.001891 0.010837 -0.017283 0.000000 0.109248 0.000000
# 6 0.000000 0.000000 0.000000 0.019812 0.000000 0.053588
#
#
# Mechanical properties :
#
#
# Convention : Reuss Voigt Hill
#
# Bulk Modulus (GPa) = 41.44793 51.16950 46.30871
# Shear Modulus (GPa) = 18.44082 29.00612 23.72347
#
# Velocity S-wave (km/s) = 3.07298 3.85402 3.48545
# Velocity P-wave (km/s) = 5.81512 6.78289 6.31756
#
# Compressibility (1/GPa) = 0.02412666
#
# Stress axis : x y z
#
# Youngs Moduli (GPa) = 90.26885 115.81904 52.79974
#
# Poissons Ratio (x) = 0.17525 -0.00905
# Poissons Ratio (y) = 0.13659 0.31261
# Poissons Ratio (z) = -0.01547 0.68573
#
# Static dielectric constant tensor:
#      x y z
#    x 1.726850 0.000000 0.031530 
#    y 0.000000 1.710800 0.000000 
#    z 0.031530 0.000000 1.724870 
# 
# From -- ./inp_files/46876.got.cif
#   From: 2010.05.17/outbox.cif.g08.bks.cpg/sg12_24_cif.got.tgz:46876.got - 2010.06.03 13:09:07.
