data_PCOD9218414
_publ_section_title
;
Structure prediction by ZEFSAII (Michael W. Deem and Ramdas Pophale) SiO2 
 PCOD9218414
Probable space group: C 2/M
;
_chemical_formula_sum "Si O2"
_cell_formula_units_Z 48
_cell_length_a 14.381884
_cell_length_b 10.769634
_cell_length_c 18.943881
_cell_angle_alpha 90.000000
_cell_angle_beta 135.645295
_cell_angle_gamma 90.000000
_cell_volume 2051.275191
_symmetry_space_group_name_H-M "C 2/M"
_symmetry_group_IT_number 12
_symmetry_cell_setting 'monoclinic'
loop_
_space_group_symop_operation_xyz
x,y,z
-x,y,-z
-x,-y,-z
x,-y,z
1/2+x,1/2+y,z
1/2-x,1/2+y,-z
1/2-x,1/2-y,-z
1/2+x,1/2-y,z
loop_
_atom_site_type_symbol
_atom_site_label
_atom_site_fract_x
_atom_site_fract_y
_atom_site_fract_z
Si Si1 0.608773 0.000000 0.993834
Si Si2 0.471513 0.759796 0.641523
Si Si3 0.775506 0.775695 0.415959
Si Si4 0.916660 0.000000 0.133235
Si Si5 0.999503 0.764337 0.084010
Si Si6 0.297568 0.500000 0.656074
Si Si7 0.221241 0.856146 0.736214
Si Si8 0.069004 0.500000 0.614564
O O1 0.576658 0.866069 0.942211
O O2 0.500000 0.000000 0.000000
O O3 0.769650 0.000000 0.087795
O O4 0.378040 0.809708 0.653132
O O5 0.371980 0.690573 0.532558
O O6 0.601385 0.677857 0.723727
O O7 0.525390 0.878788 0.630692
O O8 0.760348 0.626199 0.407109
O O9 0.825579 0.828421 0.369523
O O10 0.940427 0.122599 0.097254
O O11 0.045016 0.000000 0.254770
O O12 0.152332 0.731619 0.184838
O O13 0.000000 0.790347 0.000000
O O14 0.228498 0.500000 0.694992
O O15 0.258362 0.000000 0.762187
O O16 0.000000 0.500000 0.500000
#
# Coordination Sequence:
#
# PCOD9218414 Si02
#       8
#     4   8   8   4   8   4   8   4
#     4  10  24  45  70 100 142 185 222 275 353 420
#     4  11  24  40  66  98 134 184 227 280 337 407
#     4  11  24  41  63 100 137 175 233 279 338 408
#     4  12  23  44  76 106 135 180 237 289 347 415
#     4  11  24  47  72 103 137 178 232 293 353 418
#     4  12  22  41  70  97 134 180 232 278 342 408
#     4  12  25  45  67  98 140 181 226 289 349 414
#     4  12  18  40  68  89 134 182 219 281 337 390
#
# _framework density 23.400079000000002
#
# number of rings (size 3 to 8) (size 9 to 14) (size 15 to 20)
#    0.000    0.667    5.833    1.250    2.333    4.000 
#    3.000    0.000    0.000    0.000    0.000    0.000 
#    0.000    0.000    0.000    0.000    0.000    0.000 
#
# Total GULP energy -134113.139003 kJ/mol
# GULP energy per Si atom -5588.047458 kJ/mol
# Density = 2.334682 g / cm^3
# Si number density = 23.400079 Si / 1000 Ang^3
#
#
#
# Elastic Constant Matrix: (Units=GPa)
#
#
# Indices 1 2 3 4 5 6 
#
# 1 123.1846 36.8236 21.2742 0.0000 42.3794 0.0000
# 2 36.8236 133.5237 16.8874 0.0000 10.9570 0.0000
# 3 21.2742 16.8874 73.7676 0.0000 28.5863 0.0000
# 4 0.0000 0.0000 0.0000 8.1473 0.0000 -0.6922
# 5 42.3794 10.9570 28.5863 0.0000 47.1086 0.0000
# 6 0.0000 0.0000 0.0000 -0.6922 0.0000 31.0869
#
#
#
# Elastic Compliance Matrix: (Units=1/GPa)
#
#
# Indices 1 2 3 4 5 6 
#
# 1 0.012701 -0.002732 0.001496 0.000000 -0.011698 0.000000
# 2 -0.002732 0.008333 -0.001727 0.000000 0.001568 0.000000
# 3 0.001496 -0.001727 0.018155 0.000000 -0.011961 0.000000
# 4 0.000000 0.000000 0.000000 0.122973 0.000000 0.002738
# 5 -0.011698 0.001568 -0.011961 0.000000 0.038644 0.000000
# 6 0.000000 0.000000 0.000000 0.002738 0.000000 0.032229
#
#
# Mechanical properties :
#
#
# Convention : Reuss Voigt Hill
#
# Bulk Modulus (GPa) = 30.06461 53.38291 41.72376
# Shear Modulus (GPa) = 19.99610 34.30126 27.14868
#
# Velocity S-wave (km/s) = 2.92641 3.83281 3.40986
# Velocity P-wave (km/s) = 4.92894 6.51536 5.77687
#
# Compressibility (1/GPa) = 0.03326170
#
# Stress axis : x y z
#
# Youngs Moduli (GPa) = 78.73596 120.01180 55.08095
#
# Poissons Ratio (x) = 0.32786 -0.08239
# Poissons Ratio (y) = 0.21510 0.09513
# Poissons Ratio (z) = -0.11777 0.20728
#
# Static dielectric constant tensor:
#      x y z
#    x 1.959630 0.000000 0.025120 
#    y 0.000000 1.899610 0.000000 
#    z 0.025120 0.000000 1.951940 
# 
# From -- ./inp_files/310316.got.cif
#   From: 2010.05.17/outbox.cif.g08.bks.cpg/sg12_156_cif.got.tgz:310316.got - 2010.06.03 13:09:07.
