data_PCOD9218813
_publ_section_title
;
Structure prediction by ZEFSAII (Michael W. Deem and Ramdas Pophale) SiO2 
 PCOD9218813
Probable space group: C 2/M
;
_chemical_formula_sum "Si O2"
_cell_formula_units_Z 48
_cell_length_a 7.143265
_cell_length_b 37.954493
_cell_length_c 10.403388
_cell_angle_alpha 90.000000
_cell_angle_beta 43.082629
_cell_angle_gamma 90.000000
_cell_volume 1926.587576
_symmetry_space_group_name_H-M "C 2/M"
_symmetry_group_IT_number 12
_symmetry_cell_setting 'monoclinic'
loop_
_space_group_symop_operation_xyz
x,y,z
-x,y,-z
-x,-y,-z
x,-y,z
1/2+x,1/2+y,z
1/2-x,1/2+y,-z
1/2-x,1/2-y,-z
1/2+x,1/2-y,z
loop_
_atom_site_type_symbol
_atom_site_label
_atom_site_fract_x
_atom_site_fract_y
_atom_site_fract_z
Si Si1 0.698626 0.093833 0.060626
Si Si2 0.051269 0.540485 0.658467
Si Si3 0.904076 0.346146 0.331533
Si Si4 0.069145 0.152387 0.743860
Si Si5 0.601544 0.459655 0.249251
Si Si6 0.750329 0.791266 0.026740
O O1 0.682727 0.069126 0.196381
O O2 0.443487 0.120362 0.217121
O O3 0.753472 0.065229 0.923580
O O4 0.912017 0.122706 0.903361
O O5 0.959315 0.500000 0.686796
O O6 0.232279 0.541419 0.699697
O O7 0.281783 0.549223 0.436651
O O8 0.155197 0.345510 0.309206
O O9 0.976582 0.309787 0.220188
O O10 0.648972 0.351564 0.554609
O O11 0.867088 0.185887 0.851041
O O12 0.612733 0.500000 0.198645
O O13 0.750000 0.750000 0.000000
O O14 0.000000 0.796576 0.000000
#
# Coordination Sequence:
#
# PCOD9218813 Si02
#       6
#     8   8   8   8   8   8
#     4  11  17  27  50  74  92 120 165 209 243 284
#     4   9  18  31  46  67  96 129 164 203 252 309
#     4   9  19  35  52  71  98 132 167 203 248 303
#     4   9  19  35  52  71  98 132 167 203 248 303
#     4   9  18  31  46  67  96 129 164 203 252 309
#     4   9  18  34  57  81 104 134 173 212 253 305
#
# _framework density 24.914515999999999
#
# number of rings (size 3 to 8) (size 9 to 14) (size 15 to 20)
#    0.000    2.667    0.000    4.500    0.000    2.000 
#    0.000    6.667    0.000   12.000    0.000   18.667 
#    0.000    0.000    0.000    0.000    0.000    0.000 
#
# Total GULP energy -133904.508984 kJ/mol
# GULP energy per Si atom -5579.354541 kJ/mol
# Density = 2.485781 g / cm^3
# Si number density = 24.914516 Si / 1000 Ang^3
#
#
#
# Elastic Constant Matrix: (Units=GPa)
#
#
# Indices 1 2 3 4 5 6 
#
# 1 74.3889 14.2105 26.2578 0.0000 8.9101 0.0000
# 2 14.2105 195.2859 128.3975 0.0000 11.6208 0.0000
# 3 26.2578 128.3975 235.4045 0.0000 14.6374 0.0000
# 4 0.0000 0.0000 0.0000 29.8732 0.0000 10.1274
# 5 8.9101 11.6208 14.6374 0.0000 26.7970 0.0000
# 6 0.0000 0.0000 0.0000 10.1274 0.0000 32.4935
#
#
#
# Elastic Compliance Matrix: (Units=1/GPa)
#
#
# Indices 1 2 3 4 5 6 
#
# 1 0.014408 0.000131 -0.001426 0.000000 -0.004069 0.000000
# 2 0.000131 0.008018 -0.004315 0.000000 -0.001163 0.000000
# 3 -0.001426 -0.004315 0.006848 0.000000 -0.001395 0.000000
# 4 0.000000 0.000000 0.000000 0.037430 0.000000 -0.011666
# 5 -0.004069 -0.001163 -0.001395 0.000000 0.039937 0.000000
# 6 0.000000 0.000000 0.000000 -0.011666 0.000000 0.034411
#
#
# Mechanical properties :
#
#
# Convention : Reuss Voigt Hill
#
# Bulk Modulus (GPa) = 55.39065 93.64565 74.51815
# Shear Modulus (GPa) = 31.58769 40.24698 35.91733
#
# Velocity S-wave (km/s) = 3.56454 4.02357 3.80099
# Velocity P-wave (km/s) = 6.26273 7.69765 7.01697
#
# Compressibility (1/GPa) = 0.01805359
#
# Stress axis : x y z
#
# Youngs Moduli (GPa) = 69.40391 124.72415 146.03833
#
# Poissons Ratio (x) = -0.01633 0.20819
# Poissons Ratio (y) = -0.00909 0.63021
# Poissons Ratio (z) = 0.09894 0.53823
#
# Static dielectric constant tensor:
#      x y z
#    x 2.254540 0.000000 -0.105200 
#    y 0.000000 1.957560 0.000000 
#    z -0.105200 0.000000 2.105240 
# 
# From -- ./inp_files/209797.got.cif
#   From: 2010.05.17/outbox.cif.g08.bks.cpg/sg12_105_cif.got.tgz:209797.got - 2010.06.03 13:09:07.
