data_PCOD9218151
_publ_section_title
;
Structure prediction by ZEFSAII (Michael W. Deem and Ramdas Pophale) SiO2 
 PCOD9218151
Probable space group: C 2/M
;
_chemical_formula_sum "Si O2"
_cell_formula_units_Z 32
_cell_length_a 11.643896
_cell_length_b 19.283689
_cell_length_c 7.732437
_cell_angle_alpha 90.000000
_cell_angle_beta 59.092909
_cell_angle_gamma 90.000000
_cell_volume 1489.679338
_symmetry_space_group_name_H-M "C 2/M"
_symmetry_group_IT_number 12
_symmetry_cell_setting 'monoclinic'
loop_
_space_group_symop_operation_xyz
x,y,z
-x,y,-z
-x,-y,-z
x,-y,z
1/2+x,1/2+y,z
1/2-x,1/2+y,-z
1/2-x,1/2-y,-z
1/2+x,1/2-y,z
loop_
_atom_site_type_symbol
_atom_site_label
_atom_site_fract_x
_atom_site_fract_y
_atom_site_fract_z
Si Si1 0.935811 0.000000 0.812353
Si Si2 0.916913 0.379769 0.224466
Si Si3 0.000000 0.126953 0.000000
Si Si4 0.779680 0.000000 0.594754
Si Si5 0.222444 0.757582 0.814841
Si Si6 0.500000 0.187360 0.500000
O O1 0.935405 0.072202 0.916137
O O2 0.080950 0.000000 0.611199
O O3 0.817958 0.000000 0.766384
O O4 0.806384 0.432612 0.377071
O O5 0.847943 0.311475 0.199253
O O6 0.003519 0.357453 0.322418
O O7 0.000000 0.410805 0.000000
O O8 0.120791 0.178750 0.855258
O O9 0.363942 0.768638 0.610588
O O10 0.250000 0.750000 0.000000
#
# Coordination Sequence:
#
# PCOD9218151 Si02
#       6
#     4   8   4   4   8   4
#     4  10  24  42  70  96 131 184 227 284 340 404
#     4  12  25  45  67 101 139 182 228 283 348 408
#     4  11  22  44  70  99 138 176 234 281 338 416
#     4  11  25  45  64  98 137 178 230 280 348 407
#     4  12  23  44  71 103 142 182 229 288 343 410
#     4  12  26  41  72 105 136 182 228 286 352 405
#
# _framework density 21.481134000000001
#
# number of rings (size 3 to 8) (size 9 to 14) (size 15 to 20)
#    0.000    0.500    3.750    4.125    0.000    4.500 
#    0.000    0.000    0.000    0.000    0.000    0.000 
#    0.000    0.000    0.000    0.000    0.000    0.000 
#
# Total GULP energy -89491.534446 kJ/mol
# GULP energy per Si atom -5593.220903 kJ/mol
# Density = 2.143224 g / cm^3
# Si number density = 21.481134 Si / 1000 Ang^3
#
#
#
# Elastic Constant Matrix: (Units=GPa)
#
#
# Indices 1 2 3 4 5 6 
#
# 1 54.1317 14.6445 -6.8783 0.0000 -3.3058 0.0000
# 2 14.6445 123.4593 -1.7043 0.0000 -12.2425 0.0000
# 3 -6.8783 -1.7043 60.6578 0.0000 -14.5322 0.0000
# 4 0.0000 0.0000 0.0000 39.0363 0.0000 3.7355
# 5 -3.3058 -12.2425 -14.5322 0.0000 49.9585 0.0000
# 6 0.0000 0.0000 0.0000 3.7355 0.0000 -4.0294
#
#
#
# Elastic Compliance Matrix: (Units=1/GPa)
#
#
# Indices 1 2 3 4 5 6 
#
# 1 0.019458 -0.002125 0.002505 0.000000 0.001495 0.000000
# 2 -0.002125 0.008568 0.000504 0.000000 0.002106 0.000000
# 3 0.002505 0.000504 0.018116 0.000000 0.005559 0.000000
# 4 0.000000 0.000000 0.000000 0.023530 0.000000 0.021813
# 5 0.001495 0.002106 0.005559 0.000000 0.022249 0.000000
# 6 0.000000 0.000000 0.000000 0.021813 0.000000 -0.227954
#
#
# Mechanical properties :
#
#
# Convention : Reuss Voigt Hill
#
# Bulk Modulus (GPa) = 20.87261 27.81917 24.34589
# Shear Modulus (GPa) = -41.04002 32.47221 -4.28391
#
# Velocity S-wave (km/s) = -4.37569 3.89223 -1.41372
# Velocity P-wave (km/s) = 3.97379 5.76002 2.94846
#
# Compressibility (1/GPa) = 0.04790967
#
# Stress axis : x y z
#
# Youngs Moduli (GPa) = 51.39263 116.71779 55.19996
#
# Poissons Ratio (x) = 0.24805 -0.13828
# Poissons Ratio (y) = 0.10922 -0.02783
# Poissons Ratio (z) = -0.12874 -0.05885
#
# Static dielectric constant tensor:
#      x y z
#    x 1.761110 0.000000 0.033000 
#    y 0.000000 1.722840 0.000000 
#    z 0.033000 0.000000 1.815600 
# 
# From -- ./inp_files/48371.got.cif
#   From: 2010.05.17/outbox.cif.g08.bks.cpg/sg12_25_cif.got.tgz:48371.got - 2010.06.03 13:09:07.
