data_PCOD9218789
_publ_section_title
;
Structure prediction by ZEFSAII (Michael W. Deem and Ramdas Pophale) SiO2 
 PCOD9218789
Probable space group: C 2/M
;
_chemical_formula_sum "Si O2"
_cell_formula_units_Z 38
_cell_length_a 25.285797
_cell_length_b 9.929918
_cell_length_c 18.039884
_cell_angle_alpha 90.000000
_cell_angle_beta 159.229796
_cell_angle_gamma 90.000000
_cell_volume 1606.276173
_symmetry_space_group_name_H-M "C 2/M"
_symmetry_group_IT_number 12
_symmetry_cell_setting 'monoclinic'
loop_
_space_group_symop_operation_xyz
x,y,z
-x,y,-z
-x,-y,-z
x,-y,z
1/2+x,1/2+y,z
1/2-x,1/2+y,-z
1/2-x,1/2-y,-z
1/2+x,1/2-y,z
loop_
_atom_site_type_symbol
_atom_site_label
_atom_site_fract_x
_atom_site_fract_y
_atom_site_fract_z
Si Si1 0.616546 0.500000 0.504534
Si Si2 0.195621 0.714100 0.843986
Si Si3 0.500000 0.000000 0.500000
Si Si4 0.051927 0.500000 0.235419
Si Si5 0.315288 0.500000 0.672558
Si Si6 0.804883 0.000000 0.227702
Si Si7 0.858115 0.701036 0.766997
Si Si8 0.566292 0.500000 0.875259
O O1 0.612841 0.500000 0.586587
O O2 0.711911 0.631368 0.606985
O O3 0.477562 0.500000 0.268366
O O4 0.058303 0.618061 0.637597
O O5 0.166235 0.860351 0.774039
O O6 0.250000 0.750000 0.000000
O O7 0.331956 0.632851 0.981892
O O8 0.138161 0.500000 0.425384
O O9 0.114518 0.633646 0.276849
O O10 0.876149 0.500000 0.000621
O O11 0.350255 0.360692 0.757860
O O12 0.421344 0.500000 0.737719
O O13 0.000000 0.656217 0.000000
#
# Coordination Sequence:
#
# PCOD9218789 Si02
#       8
#     4   8   2   4   4   4   8   4
#     4  11  24  40  63 102 132 187 231 284 346 442
#     4  11  27  51  77 108 142 186 247 320 383 448
#     4  10  26  54  76 106 148 180 230 326 382 442
#     4  11  21  39  63  95 138 179 226 270 341 418
#     4  12  24  37  66  96 140 193 224 288 351 407
#     4  12  24  43  77 103 137 188 237 287 371 446
#     4  11  21  40  57  89 143 182 231 279 333 411
#     4  11  25  44  69 104 144 180 248 301 361 442
#
# _framework density 23.657202000000002
#
# number of rings (size 3 to 8) (size 9 to 14) (size 15 to 20)
#    0.000    0.842    4.211    4.105    5.895    0.421 
#    0.000    0.000    0.000    0.000    0.000    0.000 
#    0.000    0.000    0.000    0.000    0.000    0.000 
#
# Total GULP energy -105917.837709 kJ/mol
# GULP energy per Si atom -5574.623037 kJ/mol
# Density = 2.360336 g / cm^3
# Si number density = 23.657202 Si / 1000 Ang^3
#
#
#
# Elastic Constant Matrix: (Units=GPa)
#
#
# Indices 1 2 3 4 5 6 
#
# 1 57.5768 45.4473 16.1747 0.0000 -8.3342 0.0000
# 2 45.4473 243.0917 41.9406 0.0000 -6.0436 0.0000
# 3 16.1747 41.9406 103.6848 0.0000 -17.2929 0.0000
# 4 0.0000 0.0000 0.0000 37.0913 0.0000 -28.4495
# 5 -8.3342 -6.0436 -17.2929 0.0000 29.3417 0.0000
# 6 0.0000 0.0000 0.0000 -28.4495 0.0000 7.2555
#
#
#
# Elastic Compliance Matrix: (Units=1/GPa)
#
#
# Indices 1 2 3 4 5 6 
#
# 1 0.021237 -0.003673 -0.001050 0.000000 0.004656 0.000000
# 2 -0.003673 0.005058 -0.001634 0.000000 -0.000964 0.000000
# 3 -0.001050 -0.001634 0.011493 0.000000 0.006139 0.000000
# 4 0.000000 0.000000 0.000000 -0.013430 0.000000 -0.052659
# 5 0.004656 -0.000964 0.006139 0.000000 0.038823 0.000000
# 6 0.000000 0.000000 0.000000 -0.052659 0.000000 -0.068655
#
#
# Mechanical properties :
#
#
# Convention : Reuss Voigt Hill
#
# Bulk Modulus (GPa) = 39.88366 67.94207 53.91287
# Shear Modulus (GPa) = 320.50942 34.79039 177.64991
#
# Velocity S-wave (km/s) = 11.65224 3.83901 8.67504
# Velocity P-wave (km/s) = 14.06871 6.95934 11.09867
#
# Compressibility (1/GPa) = 0.02507292
#
# Stress axis : x y z
#
# Youngs Moduli (GPa) = 47.08834 197.69315 87.00757
#
# Poissons Ratio (x) = 0.72619 0.09140
# Poissons Ratio (y) = 0.17297 0.14216
# Poissons Ratio (z) = 0.04946 0.32302
#
# Static dielectric constant tensor:
#      x y z
#    x 1.935130 0.000000 0.008390 
#    y 0.000000 1.812720 0.000000 
#    z 0.008390 0.000000 1.953920 
# 
# From -- ./inp_files/329807.got.cif
#   From: 2010.05.17/outbox.cif.g08.bks.cpg/sg12_165_cif.got.tgz:329807.got - 2010.06.03 13:09:07.
