data_PCOD9218941
_publ_section_title
;
Structure prediction by ZEFSAII (Michael W. Deem and Ramdas Pophale) SiO2 
 PCOD9218941
Probable space group: C 2/M
;
_chemical_formula_sum "Si O2"
_cell_formula_units_Z 40
_cell_length_a 16.936688
_cell_length_b 17.107507
_cell_length_c 12.256756
_cell_angle_alpha 90.000000
_cell_angle_beta 153.252323
_cell_angle_gamma 90.000000
_cell_volume 1598.318504
_symmetry_space_group_name_H-M "C 2/M"
_symmetry_group_IT_number 12
_symmetry_cell_setting 'monoclinic'
loop_
_space_group_symop_operation_xyz
x,y,z
-x,y,-z
-x,-y,-z
x,-y,z
1/2+x,1/2+y,z
1/2-x,1/2+y,-z
1/2-x,1/2-y,-z
1/2+x,1/2-y,z
loop_
_atom_site_type_symbol
_atom_site_label
_atom_site_fract_x
_atom_site_fract_y
_atom_site_fract_z
Si Si1 0.316117 0.912143 0.686214
Si Si2 0.522469 0.661652 0.214529
Si Si3 0.375056 0.817572 0.550998
Si Si4 0.674249 0.093510 0.828145
Si Si5 0.305235 0.594175 0.236697
O O1 0.114986 0.910350 0.392770
O O2 0.404201 0.860707 0.703038
O O3 0.310499 0.880894 0.801734
O O4 0.382865 0.000000 0.761958
O O5 0.543697 0.732897 0.326476
O O6 0.661811 0.682423 0.289826
O O7 0.325042 0.637614 0.945650
O O8 0.481994 0.867133 0.594973
O O9 0.743195 0.108389 0.037841
O O10 0.666424 0.000000 0.798706
O O11 0.500000 0.625534 0.500000
O O12 0.311333 0.500000 0.256493
#
# Coordination Sequence:
#
# PCOD9218941 Si02
#       5
#     8   8   8   8   8
#     4   9  15  27  43  59  84 114 143 168 198 244
#     4   9  18  31  42  55  84 119 144 176 212 239
#     4   9  19  30  41  58  82 117 149 175 208 242
#     4  11  19  27  45  65  85 116 147 172 204 248
#     4   9  15  24  39  62  87 112 140 168 200 243
#
# _framework density 25.026302000000001
#
# number of rings (size 3 to 8) (size 9 to 14) (size 15 to 20)
#    1.200    1.400    2.000    1.800    0.000    0.800 
#    0.000    3.000    0.000    0.000    0.000    0.000 
#    0.000    0.000    0.000  126.000    0.000    0.000 
#
# Total GULP energy -111555.260896 kJ/mol
# GULP energy per Si atom -5577.763045 kJ/mol
# Density = 2.496934 g / cm^3
# Si number density = 25.026302 Si / 1000 Ang^3
#
#
#
# Elastic Constant Matrix: (Units=GPa)
#
#
# Indices 1 2 3 4 5 6 
#
# 1 99.1146 26.7950 27.2374 0.0000 17.2103 0.0000
# 2 26.7950 123.1256 38.7993 0.0000 32.7430 0.0000
# 3 27.2374 38.7993 147.5423 0.0000 34.6900 0.0000
# 4 0.0000 0.0000 0.0000 1.4637 0.0000 37.4803
# 5 17.2103 32.7430 34.6900 0.0000 50.3949 0.0000
# 6 0.0000 0.0000 0.0000 37.4803 0.0000 3.8961
#
#
#
# Elastic Compliance Matrix: (Units=1/GPa)
#
#
# Indices 1 2 3 4 5 6 
#
# 1 0.011177 -0.001523 -0.001191 0.000000 -0.002008 0.000000
# 2 -0.001523 0.010236 -0.001156 0.000000 -0.005335 0.000000
# 3 -0.001191 -0.001156 0.008387 0.000000 -0.004615 0.000000
# 4 0.000000 0.000000 0.000000 -0.002785 0.000000 0.026789
# 5 -0.002008 -0.005335 -0.004615 0.000000 0.027172 0.000000
# 6 0.000000 0.000000 0.000000 0.026789 0.000000 -0.001046
#
#
# Mechanical properties :
#
#
# Convention : Reuss Voigt Hill
#
# Bulk Modulus (GPa) = 45.33236 61.71624 53.52430
# Shear Modulus (GPa) = 73.27651 29.61434 51.44542
#
# Velocity S-wave (km/s) = 5.41695 3.44369 4.53885
# Velocity P-wave (km/s) = 7.56820 6.36601 6.99299
#
# Compressibility (1/GPa) = 0.02205930
#
# Stress axis : x y z
#
# Youngs Moduli (GPa) = 89.46968 97.69137 119.23586
#
# Poissons Ratio (x) = 0.14881 0.14198
# Poissons Ratio (y) = 0.13628 0.13788
# Poissons Ratio (z) = 0.10654 0.11297
#
# Static dielectric constant tensor:
#      x y z
#    x 1.989820 0.000000 0.050270 
#    y 0.000000 1.919300 0.000000 
#    z 0.050270 0.000000 2.163430 
# 
# From -- ./inp_files/74066.got.cif
#   From: 2010.05.17/outbox.cif.g08.bks.cpg/sg12_38_cif.got.tgz:74066.got - 2010.06.03 13:09:07.
