data_PCOD9218293
_publ_section_title
;
Structure prediction by ZEFSAII (Michael W. Deem and Ramdas Pophale) SiO2 
 PCOD9218293
Probable space group: C 2/M
;
_chemical_formula_sum "Si O2"
_cell_formula_units_Z 64
_cell_length_a 29.782570
_cell_length_b 8.306719
_cell_length_c 14.436035
_cell_angle_alpha 90.000000
_cell_angle_beta 132.104570
_cell_angle_gamma 90.000000
_cell_volume 2649.708381
_symmetry_space_group_name_H-M "C 2/M"
_symmetry_group_IT_number 12
_symmetry_cell_setting 'monoclinic'
loop_
_space_group_symop_operation_xyz
x,y,z
-x,y,-z
-x,-y,-z
x,-y,z
1/2+x,1/2+y,z
1/2-x,1/2+y,-z
1/2-x,1/2-y,-z
1/2+x,1/2-y,z
loop_
_atom_site_type_symbol
_atom_site_label
_atom_site_fract_x
_atom_site_fract_y
_atom_site_fract_z
Si Si1 0.133590 0.189573 0.121931
Si Si2 0.935063 0.812748 0.452548
Si Si3 0.313351 0.186866 0.546859
Si Si4 0.489081 0.185642 0.700218
Si Si5 0.873292 0.306676 0.094091
Si Si6 0.737079 0.317275 0.697632
Si Si7 0.934889 0.813502 0.801552
Si Si8 0.684988 0.812360 0.803190
O O1 0.193514 0.286412 0.232509
O O2 0.077231 0.236857 0.109028
O O3 0.144121 0.000000 0.153604
O O4 0.127456 0.219974 0.004956
O O5 0.945469 0.791788 0.576532
O O6 0.880344 0.710043 0.336678
O O7 0.000000 0.765100 0.500000
O O8 0.923262 0.000000 0.414002
O O9 0.250000 0.250000 0.500000
O O10 0.304447 0.206501 0.424131
O O11 0.368684 0.289539 0.663093
O O12 0.323281 0.000000 0.583171
O O13 0.558850 0.220471 0.774262
O O14 0.478274 0.216199 0.793759
O O15 0.476224 0.000000 0.661245
O O16 0.866353 0.500000 0.070785
O O17 0.825698 0.253393 0.106598
O O18 0.719752 0.500000 0.655218
O O19 0.729396 0.280110 0.795622
O O20 0.953585 0.000000 0.825901
O O21 0.701350 0.000000 0.828112
#
# Coordination Sequence:
#
# PCOD9218293 Si02
#       8
#     8   8   8   8   8   8   8   8
#     4  11  25  44  67  91 123 165 212 264 314 371
#     4  11  22  37  62  95 130 166 205 255 313 375
#     4  12  23  39  65  96 129 168 206 254 314 375
#     4  11  23  41  65  94 127 167 210 257 312 374
#     4  10  24  44  66  91 123 165 213 263 314 369
#     4  12  25  42  66  95 129 166 207 259 313 375
#     4  11  24  42  64  94 129 166 208 258 313 374
#     4  11  23  42  66  93 128 167 209 258 311 376
#
# _framework density 24.153599
#
# number of rings (size 3 to 8) (size 9 to 14) (size 15 to 20)
#    0.000    0.875    2.500    4.875    0.000    5.000 
#    0.000    2.500    0.000    0.000    0.000    0.000 
#    0.000    0.000    0.000    0.000    0.000    0.000 
#
# Total GULP energy -179211.856160 kJ/mol
# GULP energy per Si atom -5600.370505 kJ/mol
# Density = 2.409862 g / cm^3
# Si number density = 24.153599 Si / 1000 Ang^3
#
#
#
# Elastic Constant Matrix: (Units=GPa)
#
#
# Indices 1 2 3 4 5 6 
#
# 1 126.4242 -3.1975 1.8118 0.0000 -20.5374 0.0000
# 2 -3.1975 26.1430 5.4038 0.0000 0.5866 0.0000
# 3 1.8118 5.4038 49.4530 0.0000 -26.1644 0.0000
# 4 0.0000 0.0000 0.0000 28.1785 0.0000 -6.3067
# 5 -20.5374 0.5866 -26.1644 0.0000 42.1995 0.0000
# 6 0.0000 0.0000 0.0000 -6.3067 0.0000 28.8177
#
#
#
# Elastic Compliance Matrix: (Units=1/GPa)
#
#
# Indices 1 2 3 4 5 6 
#
# 1 0.008865 0.000359 0.002852 0.000000 0.006078 0.000000
# 2 0.000359 0.039801 -0.006790 0.000000 -0.004589 0.000000
# 3 0.002852 -0.006790 0.032208 0.000000 0.021452 0.000000
# 4 0.000000 0.000000 0.000000 0.037316 0.000000 0.008166
# 5 0.006078 -0.004589 0.021452 0.000000 0.040019 0.000000
# 6 0.000000 0.000000 0.000000 0.008166 0.000000 0.036488
#
#
# Mechanical properties :
#
#
# Convention : Reuss Voigt Hill
#
# Bulk Modulus (GPa) = 13.56574 23.33958 18.45266
# Shear Modulus (GPa) = 22.08187 33.03928 27.56057
#
# Velocity S-wave (km/s) = 3.02690 3.70250 3.38161
# Velocity P-wave (km/s) = 4.22431 5.28791 4.78575
#
# Compressibility (1/GPa) = 0.07371513
#
# Stress axis : x y z
#
# Youngs Moduli (GPa) = 112.79847 25.12470 31.04781
#
# Poissons Ratio (x) = -0.00901 -0.08853
# Poissons Ratio (y) = -0.04044 0.21082
# Poissons Ratio (z) = -0.32165 0.17060
#
# Static dielectric constant tensor:
#      x y z
#    x 1.962270 0.000000 -0.039550 
#    y 0.000000 1.839780 0.000000 
#    z -0.039550 0.000000 1.947920 
# 
# From -- ./inp_files/249945.got.cif
#   From: 2010.05.17/outbox.cif.g08.bks.cpg/sg12_125_cif.got.tgz:249945.got - 2010.06.03 13:09:07.
