data_PCOD9218331
_publ_section_title
;
Structure prediction by ZEFSAII (Michael W. Deem and Ramdas Pophale) SiO2 
 PCOD9218331
Probable space group: C 2/M
;
_chemical_formula_sum "Si O2"
_cell_formula_units_Z 44
_cell_length_a 26.641776
_cell_length_b 7.930914
_cell_length_c 26.798768
_cell_angle_alpha 90.000000
_cell_angle_beta 20.534056
_cell_angle_gamma 90.000000
_cell_volume 1986.169641
_symmetry_space_group_name_H-M "C 2/M"
_symmetry_group_IT_number 12
_symmetry_cell_setting 'monoclinic'
loop_
_space_group_symop_operation_xyz
x,y,z
-x,y,-z
-x,-y,-z
x,-y,z
1/2+x,1/2+y,z
1/2-x,1/2+y,-z
1/2-x,1/2-y,-z
1/2+x,1/2-y,z
loop_
_atom_site_type_symbol
_atom_site_label
_atom_site_fract_x
_atom_site_fract_y
_atom_site_fract_z
Si Si1 0.907245 0.315428 0.865150
Si Si2 0.372040 0.800326 0.083100
Si Si3 0.170305 0.185379 0.473289
Si Si4 0.403484 0.000000 0.391043
Si Si5 0.551704 0.803043 0.397059
Si Si6 0.050414 0.189954 0.825844
O O1 0.895352 0.500000 0.901607
O O2 0.987799 0.196824 0.828489
O O3 0.001549 0.355105 0.728609
O O4 0.750000 0.250000 0.000000
O O5 0.221357 0.714651 0.234381
O O6 0.352682 0.000000 0.108191
O O7 0.500000 0.742161 0.000000
O O8 0.429682 0.761614 0.974503
O O9 0.175213 0.347438 0.504389
O O10 0.304664 0.203049 0.310722
O O11 0.027869 0.202817 0.572682
O O12 0.180627 0.000000 0.488672
O O13 0.500000 0.748866 0.500000
O O14 0.511272 0.000000 0.428037
O O15 0.084107 0.000000 0.809992
#
# Coordination Sequence:
#
# PCOD9218331 Si02
#       6
#     8   8   8   4   8   8
#     4  10  24  44  69  98 135 181 231 290 339 415
#     4  11  25  43  69 103 139 183 234 284 347 420
#     4  12  25  46  72 102 142 187 232 290 348 418
#     4  10  26  48  69 104 141 180 243 281 359 409
#     4  11  24  43  70 103 143 185 233 286 347 416
#     4  12  25  45  71 100 141 182 232 289 349 415
#
# _framework density 22.153193999999999
#
# number of rings (size 3 to 8) (size 9 to 14) (size 15 to 20)
#    0.545    0.364    1.818    4.364    2.545    8.000 
#    0.000    0.000    0.000    0.000    0.000    0.000 
#    0.000    0.000    0.000    0.000    0.000    0.000 
#
# Total GULP energy -122479.986697 kJ/mol
# GULP energy per Si atom -5567.272123 kJ/mol
# Density = 2.210277 g / cm^3
# Si number density = 22.153194 Si / 1000 Ang^3
#
#
#
# Elastic Constant Matrix: (Units=GPa)
#
#
# Indices 1 2 3 4 5 6 
#
# 1 23.6172 11.3343 39.5029 0.0018 -4.6035 0.0000
# 2 11.3343 107.5577 4.5371 -0.0049 11.3814 0.0015
# 3 39.5029 4.5371 138.4529 -0.0090 11.4399 0.0010
# 4 0.0018 -0.0049 -0.0090 6.2664 0.0016 -15.4492
# 5 -4.6035 11.3814 11.4399 0.0016 38.0669 0.0010
# 6 0.0000 0.0015 0.0010 -15.4492 0.0010 14.8054
#
#
#
# Elastic Compliance Matrix: (Units=1/GPa)
#
#
# Indices 1 2 3 4 5 6 
#
# 1 0.108588 -0.012900 -0.032777 0.000058 0.026839 0.000062
# 2 -0.012900 0.011134 0.003814 -0.000011 -0.006035 -0.000012
# 3 -0.032777 0.003814 0.017301 -0.000024 -0.010303 -0.000026
# 4 0.000058 -0.000011 -0.000024 -0.101476 0.000024 -0.105888
# 5 0.026839 -0.006035 -0.010303 0.000024 0.034416 0.000024
# 6 0.000062 -0.000012 -0.000026 -0.105888 0.000024 -0.042950
#
#
# Mechanical properties :
#
#
# Convention : Reuss Voigt Hill
#
# Bulk Modulus (GPa) = 18.76235 42.26404 30.51320
# Shear Modulus (GPa) = 38.90881 26.11129 32.51005
#
# Velocity S-wave (km/s) = 4.19543 3.43690 3.83497
# Velocity P-wave (km/s) = 5.65302 5.90502 5.78039
#
# Compressibility (1/GPa) = 0.05329821
#
# Stress axis : x y z
#
# Youngs Moduli (GPa) = 9.20910 89.81111 57.80080
#
# Poissons Ratio (x) = 1.15858 1.89453
# Poissons Ratio (y) = 0.11880 -0.22048
# Poissons Ratio (z) = 0.30185 -0.34258
#
# Static dielectric constant tensor:
#      x y z
#    x 1.870250 0.000000 -0.010370 
#    y 0.000000 1.827840 0.000020 
#    z -0.010370 0.000020 1.918130 
# 
# From -- ./inp_files/369010.got.cif
#   From: 2010.05.17/outbox.cif.g08.bks.cpg/sg12_185_cif.got.tgz:369010.got - 2010.06.03 13:09:07.
