data_PCOD9218372
_publ_section_title
;
Structure prediction by ZEFSAII (Michael W. Deem and Ramdas Pophale) SiO2 
 PCOD9218372
Probable space group: C 2/M
;
_chemical_formula_sum "Si O2"
_cell_formula_units_Z 42
_cell_length_a 9.609792
_cell_length_b 24.172789
_cell_length_c 8.889396
_cell_angle_alpha 90.000000
_cell_angle_beta 94.778100
_cell_angle_gamma 90.000000
_cell_volume 2057.790228
_symmetry_space_group_name_H-M "C 2/M"
_symmetry_group_IT_number 12
_symmetry_cell_setting 'monoclinic'
loop_
_space_group_symop_operation_xyz
x,y,z
-x,y,-z
-x,-y,-z
x,-y,z
1/2+x,1/2+y,z
1/2-x,1/2+y,-z
1/2-x,1/2-y,-z
1/2+x,1/2-y,z
loop_
_atom_site_type_symbol
_atom_site_label
_atom_site_fract_x
_atom_site_fract_y
_atom_site_fract_z
Si Si1 0.446925 0.657370 0.657498
Si Si2 0.820660 0.105003 0.103412
Si Si3 0.000000 0.000000 0.000000
Si Si4 0.428033 0.064053 0.730356
Si Si5 0.714257 0.064276 0.612972
Si Si6 0.849344 0.209387 0.919900
O O1 0.500000 0.675414 0.500000
O O2 0.578328 0.635640 0.767023
O O3 0.344068 0.604942 0.630827
O O4 0.367163 0.705554 0.742333
O O5 0.669224 0.095697 0.162111
O O6 0.812638 0.146815 0.964091
O O7 0.895477 0.048795 0.059284
O O8 0.587144 0.081420 0.711530
O O9 0.349631 0.065266 0.561201
O O10 0.434558 0.000000 0.778048
O O11 0.753505 0.000000 0.651090
O O12 0.750000 0.250000 0.000000
O O13 0.000000 0.222455 0.000000
#
# Coordination Sequence:
#
# PCOD9218372 Si02
#       6
#     8   8   2   8   8   8
#     4  11  21  36  61  93 117 147 210 262 305 364
#     4  11  21  36  62  88 124 166 198 249 311 368
#     4  12  20  36  62  96 132 158 208 246 320 370
#     4   9  17  32  50  80 124 169 192 234 299 372
#     4   9  19  30  50  86 130 159 193 239 305 367
#     4  10  24  45  63  84 118 162 208 252 308 367
#
# _framework density 20.410243999999999
#
# number of rings (size 3 to 8) (size 9 to 14) (size 15 to 20)
#    0.000    1.905    5.714    1.143    1.333    1.905 
#    0.000    3.810    4.190    3.429    0.000    0.000 
#    0.000    0.000    0.000    0.000    0.000    0.000 
#
# Total GULP energy -116978.443092 kJ/mol
# GULP energy per Si atom -5570.402052 kJ/mol
# Density = 2.036379 g / cm^3
# Si number density = 20.410244 Si / 1000 Ang^3
#
#
#
# Elastic Constant Matrix: (Units=GPa)
#
#
# Indices 1 2 3 4 5 6 
#
# 1 85.9454 21.0803 41.0671 0.0000 -38.8479 0.0000
# 2 21.0803 61.5758 37.6398 0.0000 -18.7758 0.0000
# 3 41.0671 37.6398 102.7997 0.0000 -39.7082 0.0000
# 4 0.0000 0.0000 0.0000 22.7864 0.0000 -22.6603
# 5 -38.8479 -18.7758 -39.7082 0.0000 41.7060 0.0000
# 6 0.0000 0.0000 0.0000 -22.6603 0.0000 27.4233
#
#
#
# Elastic Compliance Matrix: (Units=1/GPa)
#
#
# Indices 1 2 3 4 5 6 
#
# 1 0.020249 -0.001010 -0.000964 0.000000 0.017488 0.000000
# 2 -0.001010 0.021276 -0.006406 0.000000 0.002538 0.000000
# 3 -0.000964 -0.006406 0.017395 0.000000 0.012780 0.000000
# 4 0.000000 0.000000 0.000000 0.246194 0.000000 0.203433
# 5 0.017488 0.002538 0.012780 0.000000 0.053577 0.000000
# 6 0.000000 0.000000 0.000000 0.203433 0.000000 0.204565
#
#
# Mechanical properties :
#
#
# Convention : Reuss Voigt Hill
#
# Bulk Modulus (GPa) = 23.72010 49.98835 36.85422
# Shear Modulus (GPa) = 8.41654 28.41871 18.41763
#
# Velocity S-wave (km/s) = 2.03289 3.73550 3.00721
# Velocity P-wave (km/s) = 4.14211 6.56889 5.49124
#
# Compressibility (1/GPa) = 0.04215835
#
# Stress axis : x y z
#
# Youngs Moduli (GPa) = 49.38635 47.00180 57.48891
#
# Poissons Ratio (x) = 0.04748 0.05542
# Poissons Ratio (y) = 0.04989 0.36828
# Poissons Ratio (z) = 0.04761 0.30110
#
# Static dielectric constant tensor:
#      x y z
#    x 1.778180 0.000000 0.258910 
#    y 0.000000 1.706590 0.000000 
#    z 0.258910 0.000000 3.907160 
# 
# From -- ./inp_files/49994.got.cif
#   From: 2010.05.17/outbox.cif.g08.bks.cpg/sg12_25_cif.got.tgz:49994.got - 2010.06.03 13:09:07.
