data_PCOD9218493
_publ_section_title
;
Structure prediction by ZEFSAII (Michael W. Deem and Ramdas Pophale) SiO2 
 PCOD9218493
Probable space group: C 2/M
;
_chemical_formula_sum "Si O2"
_cell_formula_units_Z 36
_cell_length_a 8.439561
_cell_length_b 25.913096
_cell_length_c 11.265635
_cell_angle_alpha 90.000000
_cell_angle_beta 138.617062
_cell_angle_gamma 90.000000
_cell_volume 1628.749945
_symmetry_space_group_name_H-M "C 2/M"
_symmetry_group_IT_number 12
_symmetry_cell_setting 'monoclinic'
loop_
_space_group_symop_operation_xyz
x,y,z
-x,y,-z
-x,-y,-z
x,-y,z
1/2+x,1/2+y,z
1/2-x,1/2+y,-z
1/2-x,1/2-y,-z
1/2+x,1/2-y,z
loop_
_atom_site_type_symbol
_atom_site_label
_atom_site_fract_x
_atom_site_fract_y
_atom_site_fract_z
Si Si1 0.129117 0.000000 0.944424
Si Si2 0.751189 0.106740 0.433174
Si Si3 0.346099 0.884535 0.033706
Si Si4 0.080005 0.818053 0.298664
Si Si5 0.706464 0.000000 0.518497
Si Si6 0.000000 0.242213 0.500000
O O1 0.257914 0.056414 0.006940
O O2 0.949854 0.000000 0.731238
O O3 0.000000 0.000000 0.000000
O O4 0.780287 0.131643 0.577949
O O5 0.691310 0.048183 0.424027
O O6 0.000000 0.108811 0.500000
O O7 0.532805 0.131944 0.240050
O O8 0.137591 0.841853 0.898923
O O9 0.500000 0.885996 0.000000
O O10 0.266186 0.777824 0.349609
O O11 0.013187 0.791565 0.387777
O O12 0.500000 0.000000 0.500000
#
# Coordination Sequence:
#
# PCOD9218493 Si02
#       6
#     4   8   8   8   4   4
#     4  12  25  42  63 107 145 176 224 273 329 405
#     4  12  23  43  70  98 138 183 222 268 334 408
#     4  12  23  43  70 101 138 182 226 271 331 412
#     4  11  23  46  70  98 135 172 232 278 350 396
#     4  12  25  42  63 101 145 181 219 272 328 396
#     4  10  24  46  72  98 132 174 224 306 336 402
#
# _framework density 22.102838999999999
#
# number of rings (size 3 to 8) (size 9 to 14) (size 15 to 20)
#    0.000    0.444    5.556    2.667    1.556    1.778 
#    0.000   12.222    0.000    0.000    0.000    0.000 
#    0.000    0.000    0.000    0.000    0.000    0.000 
#
# Total GULP energy -100582.603795 kJ/mol
# GULP energy per Si atom -5587.922433 kJ/mol
# Density = 2.205253 g / cm^3
# Si number density = 22.102839 Si / 1000 Ang^3
#
#
#
# Elastic Constant Matrix: (Units=GPa)
#
#
# Indices 1 2 3 4 5 6 
#
# 1 51.4095 22.9883 6.4814 0.0000 18.2201 0.0000
# 2 22.9883 103.1922 12.7382 0.0000 25.0361 0.0000
# 3 6.4814 12.7382 173.5242 0.0000 21.4431 0.0000
# 4 0.0000 0.0000 0.0000 -55.2801 0.0000 -4.1780
# 5 18.2201 25.0361 21.4431 0.0000 24.4439 0.0000
# 6 0.0000 0.0000 0.0000 -4.1780 0.0000 6.8401
#
#
#
# Elastic Compliance Matrix: (Units=1/GPa)
#
#
# Indices 1 2 3 4 5 6 
#
# 1 0.026982 -0.001318 0.001579 0.000000 -0.020148 0.000000
# 2 -0.001318 0.013051 0.000697 0.000000 -0.012997 0.000000
# 3 0.001579 0.000697 0.006602 0.000000 -0.007682 0.000000
# 4 0.000000 0.000000 0.000000 -0.017291 0.000000 -0.010562
# 5 -0.020148 -0.012997 -0.007682 0.000000 0.075979 0.000000
# 6 0.000000 0.000000 0.000000 -0.010562 0.000000 0.139746
#
#
# Mechanical properties :
#
#
# Convention : Reuss Voigt Hill
#
# Bulk Modulus (GPa) = 20.59636 45.83796 33.21716
# Shear Modulus (GPa) = 19.27994 14.26196 16.77095
#
# Velocity S-wave (km/s) = 2.95665 2.54294 2.75756
# Velocity P-wave (km/s) = 4.58196 5.42269 5.01996
#
# Compressibility (1/GPa) = 0.04855227
#
# Stress axis : x y z
#
# Youngs Moduli (GPa) = 37.06126 76.61986 151.46736
#
# Poissons Ratio (x) = 0.10096 -0.23911
# Poissons Ratio (y) = 0.04883 -0.10561
# Poissons Ratio (z) = -0.05850 -0.05342
#
# Static dielectric constant tensor:
#      x y z
#    x 1.009330 0.000000 0.390150 
#    y 0.000000 1.827120 0.000000 
#    z 0.390150 0.000000 1.655220 
# 
# From -- ./inp_files/124023.got.cif
#   From: 2010.05.17/outbox.cif.g08.bks.cpg/sg12_63_cif.got.tgz:124023.got - 2010.06.03 13:09:07.
