data_PCOD9218319
_publ_section_title
;
Structure prediction by ZEFSAII (Michael W. Deem and Ramdas Pophale) SiO2 
 PCOD9218319
Probable space group: C 2/M
;
_chemical_formula_sum "Si O2"
_cell_formula_units_Z 48
_cell_length_a 19.713974
_cell_length_b 18.483235
_cell_length_c 15.048002
_cell_angle_alpha 90.000000
_cell_angle_beta 153.570401
_cell_angle_gamma 90.000000
_cell_volume 2440.543181
_symmetry_space_group_name_H-M "C 2/M"
_symmetry_group_IT_number 12
_symmetry_cell_setting 'monoclinic'
loop_
_space_group_symop_operation_xyz
x,y,z
-x,y,-z
-x,-y,-z
x,-y,z
1/2+x,1/2+y,z
1/2-x,1/2+y,-z
1/2-x,1/2-y,-z
1/2+x,1/2-y,z
loop_
_atom_site_type_symbol
_atom_site_label
_atom_site_fract_x
_atom_site_fract_y
_atom_site_fract_z
Si Si1 0.643459 0.919656 0.602214
Si Si2 0.343512 0.864098 0.756565
Si Si3 0.173125 0.226130 0.170352
Si Si4 0.263824 0.690774 0.092769
Si Si5 0.522653 0.421550 0.421534
Si Si6 0.988473 0.583655 0.750707
O O1 0.500000 0.915883 0.500000
O O2 0.747550 0.850841 0.742312
O O3 0.585056 0.913923 0.432675
O O4 0.713859 0.000000 0.696465
O O5 0.278376 0.783747 0.697633
O O6 0.202953 0.914346 0.617414
O O7 0.386335 0.879150 0.705999
O O8 0.500000 0.872658 0.000000
O O9 0.213474 0.270113 0.126494
O O10 0.000000 0.213210 0.000000
O O11 0.425981 0.649236 0.280565
O O12 0.250000 0.750000 0.000000
O O13 0.144881 0.626890 0.935309
O O14 0.500000 0.423862 0.500000
O O15 0.470355 0.500000 0.322570
O O16 0.011222 0.500000 0.802455
#
# Coordination Sequence:
#
# PCOD9218319 Si02
#       6
#     8   8   8   8   8   8
#     4  10  24  44  68  93 125 173 219 268 320 375
#     4  11  22  41  65  97 133 166 207 262 330 392
#     4  11  23  43  63  94 130 168 215 262 327 384
#     4  12  25  40  62  97 127 173 215 268 317 375
#     4  11  23  39  63  93 129 170 215 264 321 386
#     4  11  23  42  66  94 128 169 213 258 321 388
#
# _framework density 19.667753000000001
#
# number of rings (size 3 to 8) (size 9 to 14) (size 15 to 20)
#    0.000    1.000    5.000    2.000    4.667    5.000 
#    0.000    0.833    0.000    0.000    0.000    0.000 
#    0.000    0.000    0.000    0.000    0.000    0.000 
#
# Total GULP energy -133825.861630 kJ/mol
# GULP energy per Si atom -5576.077568 kJ/mol
# Density = 1.962299 g / cm^3
# Si number density = 19.667753 Si / 1000 Ang^3
#
#
#
# Elastic Constant Matrix: (Units=GPa)
#
#
# Indices 1 2 3 4 5 6 
#
# 1 101.8367 29.2526 9.5718 0.0000 5.7743 0.0000
# 2 29.2526 166.2376 37.5902 0.0000 0.2171 0.0000
# 3 9.5718 37.5902 44.7084 0.0000 18.0700 0.0000
# 4 0.0000 0.0000 0.0000 44.3439 0.0000 8.1471
# 5 5.7743 0.2171 18.0700 0.0000 27.1852 0.0000
# 6 0.0000 0.0000 0.0000 8.1471 0.0000 34.3909
#
#
#
# Elastic Compliance Matrix: (Units=1/GPa)
#
#
# Indices 1 2 3 4 5 6 
#
# 1 0.010477 -0.001923 0.000365 0.000000 -0.002453 0.000000
# 2 -0.001923 0.008460 -0.009351 0.000000 0.006557 0.000000
# 3 0.000365 -0.009351 0.041229 0.000000 -0.027408 0.000000
# 4 0.000000 0.000000 0.000000 0.023577 0.000000 -0.005585
# 5 -0.002453 0.006557 -0.027408 0.000000 0.055471 0.000000
# 6 0.000000 0.000000 0.000000 -0.005585 0.000000 0.030401
#
#
# Mechanical properties :
#
#
# Convention : Reuss Voigt Hill
#
# Bulk Modulus (GPa) = 26.07749 51.73466 38.90607
# Shear Modulus (GPa) = 24.48395 36.94187 30.71291
#
# Velocity S-wave (km/s) = 3.53211 4.33863 3.95598
# Velocity P-wave (km/s) = 5.47012 7.17354 6.37895
#
# Compressibility (1/GPa) = 0.03834725
#
# Stress axis : x y z
#
# Youngs Moduli (GPa) = 95.44939 118.20558 24.25479
#
# Poissons Ratio (x) = 0.22730 -0.00885
# Poissons Ratio (y) = 0.18354 0.22681
# Poissons Ratio (z) = -0.03484 1.10537
#
# Static dielectric constant tensor:
#      x y z
#    x 1.664470 0.000000 0.006630 
#    y 0.000000 1.726140 0.000000 
#    z 0.006630 0.000000 1.676280 
# 
# From -- ./inp_files/226934.got.cif
#   From: 2010.05.17/outbox.cif.g08.bks.cpg/sg12_114_cif.got.tgz:226934.got - 2010.06.03 13:09:07.
