data_PCOD9218564
_publ_section_title
;
Structure prediction by ZEFSAII (Michael W. Deem and Ramdas Pophale) SiO2 
 PCOD9218564
Probable space group: C 2/M
;
_chemical_formula_sum "Si O2"
_cell_formula_units_Z 40
_cell_length_a 9.294296
_cell_length_b 16.065345
_cell_length_c 18.222904
_cell_angle_alpha 90.000000
_cell_angle_beta 131.981858
_cell_angle_gamma 90.000000
_cell_volume 2022.652987
_symmetry_space_group_name_H-M "C 2/M"
_symmetry_group_IT_number 12
_symmetry_cell_setting 'monoclinic'
loop_
_space_group_symop_operation_xyz
x,y,z
-x,y,-z
-x,-y,-z
x,-y,z
1/2+x,1/2+y,z
1/2-x,1/2+y,-z
1/2-x,1/2-y,-z
1/2+x,1/2-y,z
loop_
_atom_site_type_symbol
_atom_site_label
_atom_site_fract_x
_atom_site_fract_y
_atom_site_fract_z
Si Si1 0.775203 0.332486 0.270078
Si Si2 0.562618 0.000000 0.605761
Si Si3 0.026175 0.406366 0.925651
Si Si4 0.716171 0.500000 0.602115
Si Si5 0.601164 0.672882 0.957334
Si Si6 0.130114 0.667501 0.275055
O O1 0.822989 0.416525 0.330915
O O2 0.564230 0.337113 0.159856
O O3 0.759112 0.250679 0.315799
O O4 0.941432 0.322496 0.263626
O O5 0.500000 0.000000 0.500000
O O6 0.367451 0.000000 0.587052
O O7 0.948217 0.500000 0.894139
O O8 0.932279 0.351346 0.830165
O O9 0.255321 0.405042 0.991419
O O10 0.000000 0.376498 0.000000
O O11 0.500000 0.500000 0.500000
O O12 0.760620 0.584539 0.661497
O O13 0.500000 0.681881 0.000000
O O14 0.750000 0.750000 0.000000
#
# Coordination Sequence:
#
# PCOD9218564 Si02
#       6
#     8   4   8   4   8   8
#     4  11  24  41  67  97 134 175 219 267 328 394
#     4  10  26  50  68  95 130 166 224 287 335 390
#     4  11  24  39  58  92 138 174 222 262 315 389
#     4  10  24  48  72  92 122 166 216 278 341 394
#     4  12  22  36  60  92 132 175 212 256 315 389
#     4  11  23  43  66  96 132 172 216 267 327 395
#
# _framework density 19.776008000000001
#
# number of rings (size 3 to 8) (size 9 to 14) (size 15 to 20)
#    0.000    1.000    5.000    0.600    4.200    2.800 
#    0.000    4.000    0.000    0.000    0.000    0.000 
#    0.000    0.000    0.000    0.000    0.000    0.000 
#
# Total GULP energy -111662.798252 kJ/mol
# GULP energy per Si atom -5583.139913 kJ/mol
# Density = 1.973100 g / cm^3
# Si number density = 19.776008 Si / 1000 Ang^3
#
#
#
# Elastic Constant Matrix: (Units=GPa)
#
#
# Indices 1 2 3 4 5 6 
#
# 1 97.8951 61.9881 56.6857 0.0000 -8.8921 0.0000
# 2 61.9881 174.0352 79.1830 0.0000 -5.4253 0.0000
# 3 56.6857 79.1830 136.6694 0.0000 0.5378 0.0000
# 4 0.0000 0.0000 0.0000 14.4216 0.0000 6.5076
# 5 -8.8921 -5.4253 0.5378 0.0000 38.2569 0.0000
# 6 0.0000 0.0000 0.0000 6.5076 0.0000 24.0596
#
#
#
# Elastic Compliance Matrix: (Units=1/GPa)
#
#
# Indices 1 2 3 4 5 6 
#
# 1 0.015117 -0.003299 -0.004371 0.000000 0.003107 0.000000
# 2 -0.003299 0.008575 -0.003602 0.000000 0.000500 0.000000
# 3 -0.004371 -0.003602 0.011223 0.000000 -0.001685 0.000000
# 4 0.000000 0.000000 0.000000 0.078980 0.000000 -0.021362
# 5 0.003107 0.000500 -0.001685 0.000000 0.026956 0.000000
# 6 0.000000 0.000000 0.000000 -0.021362 0.000000 0.047342
#
#
# Mechanical properties :
#
#
# Convention : Reuss Voigt Hill
#
# Bulk Modulus (GPa) = 80.82709 89.36817 85.09763
# Shear Modulus (GPa) = 23.27079 29.39713 26.33396
#
# Velocity S-wave (km/s) = 3.43405 3.85970 3.65308
# Velocity P-wave (km/s) = 7.52885 8.07164 7.80497
#
# Compressibility (1/GPa) = 0.01237209
#
# Stress axis : x y z
#
# Youngs Moduli (GPa) = 66.15003 116.61204 89.09883
#
# Poissons Ratio (x) = 0.38468 0.38945
# Poissons Ratio (y) = 0.21822 0.32095
# Poissons Ratio (z) = 0.28914 0.42005
#
# Static dielectric constant tensor:
#      x y z
#    x 1.666930 0.000000 -0.005710 
#    y 0.000000 1.776090 0.000000 
#    z -0.005710 0.000000 1.681770 
# 
# From -- ./inp_files/119169.got.cif
#   From: 2010.05.17/outbox.cif.g08.bks.cpg/sg12_60_cif.got.tgz:119169.got - 2010.06.03 13:09:07.
