data_PCOD9218356
_publ_section_title
;
Structure prediction by ZEFSAII (Michael W. Deem and Ramdas Pophale) SiO2 
 PCOD9218356
Probable space group: C 2/M
;
_chemical_formula_sum "Si O2"
_cell_formula_units_Z 16
_cell_length_a 8.078342
_cell_length_b 15.058723
_cell_length_c 6.010207
_cell_angle_alpha 90.000000
_cell_angle_beta 116.846997
_cell_angle_gamma 90.000000
_cell_volume 652.333473
_symmetry_space_group_name_H-M "C 2/M"
_symmetry_group_IT_number 12
_symmetry_cell_setting 'monoclinic'
loop_
_space_group_symop_operation_xyz
x,y,z
-x,y,-z
-x,-y,-z
x,-y,z
1/2+x,1/2+y,z
1/2-x,1/2+y,-z
1/2-x,1/2-y,-z
1/2+x,1/2-y,z
loop_
_atom_site_type_symbol
_atom_site_label
_atom_site_fract_x
_atom_site_fract_y
_atom_site_fract_z
Si Si1 0.000000 0.186465 0.000000
Si Si2 0.401988 0.000000 0.685149
Si Si3 0.693843 0.332144 0.703822
O O1 0.156250 0.255240 0.183039
O O2 0.878263 0.131888 0.100966
O O3 0.500000 0.000000 0.500000
O O4 0.277561 0.088304 0.615738
O O5 0.500000 0.000000 0.000000
O O6 0.500000 0.294331 0.500000
#
# Coordination Sequence:
#
# PCOD9218356 Si02
#       3
#     4   4   8
#     4  10  24  44  72 108 144 178 246 298 358 436
#     4  12  29  49  74 105 149 193 245 300 353 433
#     4  11  24  44  72 105 142 190 238 296 365 426
#
# _framework density 24.527332000000001
#
# number of rings (size 3 to 8) (size 9 to 14) (size 15 to 20)
#    0.000    1.000    2.500    2.250    7.000    3.000 
#    0.000    0.000    0.000    0.000    0.000    0.000 
#    0.000    0.000    0.000    0.000    0.000    0.000 
#
# Total GULP energy -44599.864619 kJ/mol
# GULP energy per Si atom -5574.983077 kJ/mol
# Density = 2.447151 g / cm^3
# Si number density = 24.527332 Si / 1000 Ang^3
#
#
#
# Elastic Constant Matrix: (Units=GPa)
#
#
# Indices 1 2 3 4 5 6 
#
# 1 228.2989 68.9953 92.7366 0.0000 -41.3966 0.0000
# 2 68.9953 44.5611 19.1760 0.0000 -14.5791 0.0000
# 3 92.7366 19.1760 94.0207 0.0000 -1.7456 0.0000
# 4 0.0000 0.0000 0.0000 36.9139 0.0000 2.5629
# 5 -41.3966 -14.5791 -1.7456 0.0000 108.4512 0.0000
# 6 0.0000 0.0000 0.0000 2.5629 0.0000 71.0409
#
#
#
# Elastic Compliance Matrix: (Units=1/GPa)
#
#
# Indices 1 2 3 4 5 6 
#
# 1 0.014208 -0.016439 -0.010604 0.000000 0.003043 0.000000
# 2 -0.016439 0.044805 0.007074 0.000000 -0.000138 0.000000
# 3 -0.010604 0.007074 0.019601 0.000000 -0.002781 0.000000
# 4 0.000000 0.000000 0.000000 0.027158 0.000000 -0.000980
# 5 0.003043 -0.000138 -0.002781 0.000000 0.010319 0.000000
# 6 0.000000 0.000000 0.000000 -0.000980 0.000000 0.014112
#
#
# Mechanical properties :
#
#
# Convention : Reuss Voigt Hill
#
# Bulk Modulus (GPa) = 25.85665 80.96629 53.41147
# Shear Modulus (GPa) = 27.31743 55.67936 41.49840
#
# Velocity S-wave (km/s) = 3.34092 4.76972 4.11776
# Velocity P-wave (km/s) = 5.04452 7.96341 6.66570
#
# Compressibility (1/GPa) = 0.03867476
#
# Stress axis : x y z
#
# Youngs Moduli (GPa) = 70.38466 22.31875 51.01799
#
# Poissons Ratio (x) = 0.36691 0.54101
# Poissons Ratio (y) = 1.15708 -0.36090
# Poissons Ratio (z) = 0.74637 -0.15788
#
# Static dielectric constant tensor:
#      x y z
#    x 1.913940 0.000000 -0.112960 
#    y 0.000000 1.799740 0.000000 
#    z -0.112960 0.000000 2.427090 
# 
# From -- ./inp_files/1478.got.cif
#   From: 2010.05.17/outbox.cif.g08.bks.cpg/sg12_1_cif.got.tgz:1478.got - 2010.06.03 13:09:07.
