data_PCOD9218005
_publ_section_title
;
Structure prediction by ZEFSAII (Michael W. Deem and Ramdas Pophale) SiO2 
 PCOD9218005
Probable space group: C 2/M
;
_chemical_formula_sum "Si O2"
_cell_formula_units_Z 42
_cell_length_a 9.407587
_cell_length_b 14.792529
_cell_length_c 17.669846
_cell_angle_alpha 90.000000
_cell_angle_beta 121.385623
_cell_angle_gamma 90.000000
_cell_volume 2099.178211
_symmetry_space_group_name_H-M "C 2/M"
_symmetry_group_IT_number 12
_symmetry_cell_setting 'monoclinic'
loop_
_space_group_symop_operation_xyz
x,y,z
-x,y,-z
-x,-y,-z
x,-y,z
1/2+x,1/2+y,z
1/2-x,1/2+y,-z
1/2-x,1/2-y,-z
1/2+x,1/2-y,z
loop_
_atom_site_type_symbol
_atom_site_label
_atom_site_fract_x
_atom_site_fract_y
_atom_site_fract_z
Si Si1 0.500000 0.000000 0.000000
Si Si2 0.773059 0.500000 0.082684
Si Si3 0.000000 0.243469 0.500000
Si Si4 0.858516 0.192756 0.906922
Si Si5 0.628200 0.184844 0.378399
Si Si6 0.193701 0.000000 0.795445
Si Si7 0.969926 0.811278 0.207194
Si Si8 0.420475 0.000000 0.717702
O O1 0.349434 0.000000 0.020837
O O2 0.640256 0.000000 0.107480
O O3 0.677055 0.593562 0.069728
O O4 0.918907 0.500000 0.184805
O O5 0.171300 0.189236 0.560487
O O6 0.043178 0.298986 0.436057
O O7 0.692974 0.252644 0.859710
O O8 0.920918 0.185001 0.838364
O O9 0.000000 0.236690 0.000000
O O10 0.565567 0.260839 0.301671
O O11 0.577285 0.089221 0.331198
O O12 0.089765 0.910038 0.784286
O O13 0.259708 0.000000 0.727793
#
# Coordination Sequence:
#
# PCOD9218005 Si02
#       8
#     2   4   4   8   8   4   8   4
#     4  10  24  40  66  92 138 170 240 274 312 368
#     4  11  23  43  64  97 133 181 220 277 321 379
#     4  10  24  44  70  96 128 164 216 274 330 406
#     4  12  25  41  65  98 135 180 229 272 318 379
#     4  11  23  45  68  98 130 169 214 271 337 400
#     4  11  24  40  63  95 131 185 220 274 325 378
#     4  12  25  43  67  96 136 177 223 274 329 391
#     4  11  22  40  69  97 131 171 218 266 333 396
#
# _framework density 20.007829999999998
#
# number of rings (size 3 to 8) (size 9 to 14) (size 15 to 20)
#    0.000    0.762    1.905    6.000    4.000    0.762 
#    0.000    3.810    0.000    0.000    0.000    0.000 
#    0.000    0.000    0.000    0.000    0.000    0.000 
#
# Total GULP energy -117255.290100 kJ/mol
# GULP energy per Si atom -5583.585243 kJ/mol
# Density = 1.996229 g / cm^3
# Si number density = 20.007830 Si / 1000 Ang^3
#
#
#
# Elastic Constant Matrix: (Units=GPa)
#
#
# Indices 1 2 3 4 5 6 
#
# 1 125.7053 25.0643 33.8145 0.0000 -16.9414 0.0000
# 2 25.0643 98.4647 23.2932 0.0000 4.3125 0.0000
# 3 33.8145 23.2932 107.8512 0.0000 -8.3967 0.0000
# 4 0.0000 0.0000 0.0000 -68.1356 0.0000 -21.5356
# 5 -16.9414 4.3125 -8.3967 0.0000 43.0238 0.0000
# 6 0.0000 0.0000 0.0000 -21.5356 0.0000 3.4516
#
#
#
# Elastic Compliance Matrix: (Units=1/GPa)
#
#
# Indices 1 2 3 4 5 6 
#
# 1 0.009432 -0.002021 -0.002250 0.000000 0.003477 0.000000
# 2 -0.002021 0.011238 -0.001973 0.000000 -0.002307 0.000000
# 3 -0.002250 -0.001973 0.010510 0.000000 0.001363 0.000000
# 4 0.000000 0.000000 0.000000 -0.004938 0.000000 -0.030811
# 5 0.003477 -0.002307 0.001363 0.000000 0.025110 0.000000
# 6 0.000000 0.000000 0.000000 -0.030811 0.000000 0.097481
#
#
# Mechanical properties :
#
#
# Convention : Reuss Voigt Hill
#
# Bulk Modulus (GPa) = 53.49978 55.15168 54.32573
# Shear Modulus (GPa) = 29.84157 12.32458 21.08308
#
# Velocity S-wave (km/s) = 3.86618 2.48460 3.24966
# Velocity P-wave (km/s) = 6.83573 5.98798 6.42585
#
# Compressibility (1/GPa) = 0.01869166
#
# Stress axis : x y z
#
# Youngs Moduli (GPa) = 106.02231 88.98221 95.14987
#
# Poissons Ratio (x) = 0.17983 0.21409
# Poissons Ratio (y) = 0.21427 0.18775
# Poissons Ratio (z) = 0.23855 0.17558
#
# Static dielectric constant tensor:
#      x y z
#    x 1.690990 0.000000 0.019100 
#    y 0.000000 1.606800 0.000000 
#    z 0.019100 0.000000 1.692730 
# 
# From -- ./inp_files/255741.got.cif
#   From: 2010.05.17/outbox.cif.g08.bks.cpg/sg12_128_cif.got.tgz:255741.got - 2010.06.03 13:09:07.
