data_PCOD9218126
_publ_section_title
;
Structure prediction by ZEFSAII (Michael W. Deem and Ramdas Pophale) SiO2 
 PCOD9218126
Probable space group: C 2/M
;
_chemical_formula_sum "Si O2"
_cell_formula_units_Z 64
_cell_length_a 12.235476
_cell_length_b 15.992485
_cell_length_c 30.514436
_cell_angle_alpha 90.000000
_cell_angle_beta 26.902361
_cell_angle_gamma 90.000000
_cell_volume 2701.676575
_symmetry_space_group_name_H-M "C 2/M"
_symmetry_group_IT_number 12
_symmetry_cell_setting 'monoclinic'
loop_
_space_group_symop_operation_xyz
x,y,z
-x,y,-z
-x,-y,-z
x,-y,z
1/2+x,1/2+y,z
1/2-x,1/2+y,-z
1/2-x,1/2-y,-z
1/2+x,1/2-y,z
loop_
_atom_site_type_symbol
_atom_site_label
_atom_site_fract_x
_atom_site_fract_y
_atom_site_fract_z
Si Si1 0.532727 0.591886 0.757666
Si Si2 0.529718 0.813562 0.440630
Si Si3 0.318521 0.163388 0.798369
Si Si4 0.626059 0.403623 0.087559
Si Si5 0.074715 0.909010 0.599754
Si Si6 0.169277 0.879684 0.400554
Si Si7 0.283338 0.158624 0.198634
Si Si8 0.728612 0.782252 0.086614
O O1 0.581249 0.500000 0.723090
O O2 0.514004 0.589716 0.816187
O O3 0.279576 0.620539 0.826199
O O4 0.753159 0.647705 0.663836
O O5 0.500000 0.850930 0.500000
O O6 0.269467 0.839311 0.515914
O O7 0.604635 0.718465 0.419976
O O8 0.067185 0.113713 0.882048
O O9 0.543618 0.112744 0.698465
O O10 0.284534 0.244302 0.779998
O O11 0.378858 0.201454 0.825421
O O12 0.735952 0.500000 0.042699
O O13 0.747456 0.310737 0.056090
O O14 0.901338 0.915698 0.620527
O O15 0.905957 0.883016 0.700558
O O16 0.189466 0.000000 0.566345
O O17 0.000000 0.911301 0.500000
O O18 0.559129 0.160345 0.116242
O O19 0.000000 0.808114 0.000000
#
# Coordination Sequence:
#
# PCOD9218126 Si02
#       8
#     8   8   8   8   8   8   8   8
#     4  11  21  38  63  93 132 176 217 269 335 396
#     4  11  21  36  56  87 122 166 224 271 313 378
#     4  11  22  44  68  98 131 179 224 275 327 402
#     4  10  24  42  67 100 137 172 210 275 347 401
#     4  12  25  38  58  91 131 173 219 277 333 385
#     4  11  23  40  62  89 127 178 224 268 320 394
#     4  11  21  40  66  93 130 166 219 274 328 393
#     4  11  24  45  76 100 127 171 231 278 335 404
#
# _framework density 23.688995999999999
#
# number of rings (size 3 to 8) (size 9 to 14) (size 15 to 20)
#    0.000    1.000    5.000    1.875    3.500    3.500 
#    0.000    0.000    0.000    2.625    0.000    0.000 
#    0.000    0.000    0.000    0.000    0.000    0.000 
#
# Total GULP energy -178429.215232 kJ/mol
# GULP energy per Si atom -5575.912976 kJ/mol
# Density = 2.363508 g / cm^3
# Si number density = 23.688996 Si / 1000 Ang^3
#
#
#
# Elastic Constant Matrix: (Units=GPa)
#
#
# Indices 1 2 3 4 5 6 
#
# 1 85.3820 -2.9042 9.6741 -2.6586 -17.3492 -2.5560
# 2 -2.9042 84.7978 8.4092 -2.3423 -2.0116 -2.2206
# 3 9.6741 8.4092 72.5921 -0.1213 -19.6604 -0.2373
# 4 -2.6586 -2.3423 -0.1213 -285.7665 -0.2922 -303.8603
# 5 -17.3492 -2.0116 -19.6604 -0.2922 35.3091 -0.1849
# 6 -2.5560 -2.2206 -0.2373 -303.8603 -0.1849 -284.8949
#
#
#
# Elastic Compliance Matrix: (Units=1/GPa)
#
#
# Indices 1 2 3 4 5 6 
#
# 1 0.013037 0.000602 -0.000075 -0.000007 0.006398 -0.000118
# 2 0.000602 0.011956 -0.001414 -0.000004 0.000189 -0.000093
# 3 -0.000075 -0.001414 0.016389 -0.000033 0.009008 0.000027
# 4 -0.000007 -0.000004 -0.000033 0.026095 0.000048 -0.027832
# 5 0.006398 0.000189 0.009008 0.000048 0.036491 -0.000141
# 6 -0.000118 -0.000093 0.000027 -0.027832 -0.000141 0.026177
#
#
# Mechanical properties :
#
#
# Convention : Reuss Voigt Hill
#
# Bulk Modulus (GPa) = 25.24710 30.34780 27.79745
# Shear Modulus (GPa) = 34.45386 -91.89763 -28.72188
#
# Velocity S-wave (km/s) = 3.81783 -6.23519 -3.48581
# Velocity P-wave (km/s) = 5.48774 6.24484 2.10746
#
# Compressibility (1/GPa) = 0.03960851
#
# Stress axis : x y z
#
# Youngs Moduli (GPa) = 76.70296 83.64294 61.01585
#
# Poissons Ratio (x) = -0.05039 0.00457
# Poissons Ratio (y) = -0.04621 0.08630
# Poissons Ratio (z) = 0.00574 0.11830
#
# Static dielectric constant tensor:
#      x y z
#    x 2.129320 0.000230 -0.156710 
#    y 0.000230 1.995360 -0.000370 
#    z -0.156710 -0.000370 2.019220 
# 
# From -- ./inp_files/374438.got.cif
#   From: 2010.05.17/outbox.cif.g08.bks.cpg/sg12_188_cif.got.tgz:374438.got - 2010.06.03 13:09:07.
