data_PCOD9218939
_publ_section_title
;
Structure prediction by ZEFSAII (Michael W. Deem and Ramdas Pophale) SiO2 
 PCOD9218939
Probable space group: C 2/M
;
_chemical_formula_sum "Si O2"
_cell_formula_units_Z 56
_cell_length_a 27.595947
_cell_length_b 9.157985
_cell_length_c 14.989010
_cell_angle_alpha 90.000000
_cell_angle_beta 103.142257
_cell_angle_gamma 90.000000
_cell_volume 3688.856482
_symmetry_space_group_name_H-M "C 2/M"
_symmetry_group_IT_number 12
_symmetry_cell_setting 'monoclinic'
loop_
_space_group_symop_operation_xyz
x,y,z
-x,y,-z
-x,-y,-z
x,-y,z
1/2+x,1/2+y,z
1/2-x,1/2+y,-z
1/2-x,1/2-y,-z
1/2+x,1/2-y,z
loop_
_atom_site_type_symbol
_atom_site_label
_atom_site_fract_x
_atom_site_fract_y
_atom_site_fract_z
Si Si1 0.533607 0.830114 0.888154
Si Si2 0.955327 0.822813 0.599545
Si Si3 0.696858 0.176682 0.966606
Si Si4 0.611925 0.825434 0.072260
Si Si5 0.623030 0.170495 0.782635
Si Si6 0.930994 0.824078 0.393803
Si Si7 0.434077 0.674623 0.787560
O O1 0.575259 0.819683 0.828371
O O2 0.487723 0.728230 0.845609
O O3 0.517128 0.000000 0.886401
O O4 0.563121 0.793759 0.991120
O O5 0.928895 0.777259 0.496582
O O6 0.931933 0.775715 0.683314
O O7 0.013568 0.780071 0.616895
O O8 0.955309 0.000000 0.599330
O O9 0.669299 0.220240 0.862881
O O10 0.700634 0.000000 0.967544
O O11 0.750000 0.250000 0.000000
O O12 0.659493 0.215677 0.032140
O O13 0.606033 0.744887 0.163201
O O14 0.613182 0.000000 0.085287
O O15 0.609884 0.258000 0.688533
O O16 0.630029 0.000000 0.764209
O O17 0.928754 0.000000 0.389496
O O18 0.431117 0.500000 0.789407
#
# Coordination Sequence:
#
# PCOD9218939 Si02
#       7
#     8   8   8   8   8   8   8
#     4   9  17  29  42  57  86 125 153 174 212 263
#     4   8  16  27  40  60  90 123 154 188 222 251
#     4   9  19  35  52  69  91 115 143 183 229 274
#     4   9  19  33  45  60  87 121 148 175 220 273
#     4   9  17  29  45  67  92 116 146 187 226 261
#     4   9  15  28  45  60  85 124 158 184 219 262
#     4  11  19  27  41  64  90 118 154 190 215 245
#
# _framework density 15.180856
#
# number of rings (size 3 to 8) (size 9 to 14) (size 15 to 20)
#    0.000    2.857    1.429    3.429    0.000    3.429 
#    0.000    5.714    0.000    0.000    0.000    1.000 
#    0.000    0.000    0.000    0.000    0.000    0.000 
#
# Total GULP energy -155976.730664 kJ/mol
# GULP energy per Si atom -5570.597524 kJ/mol
# Density = 1.514630 g / cm^3
# Si number density = 15.180856 Si / 1000 Ang^3
#
#
#
# Elastic Constant Matrix: (Units=GPa)
#
#
# Indices 1 2 3 4 5 6 
#
# 1 65.3177 25.0991 62.6147 0.0000 4.0610 0.0000
# 2 25.0991 22.6188 43.9554 0.0000 -0.9383 0.0000
# 3 62.6147 43.9554 150.3829 0.0000 -10.5046 0.0000
# 4 0.0000 0.0000 0.0000 25.0641 0.0000 -0.6826
# 5 4.0610 -0.9383 -10.5046 0.0000 21.1520 0.0000
# 6 0.0000 0.0000 0.0000 -0.6826 0.0000 23.0002
#
#
#
# Elastic Compliance Matrix: (Units=1/GPa)
#
#
# Indices 1 2 3 4 5 6 
#
# 1 0.031156 -0.019306 -0.008088 0.000000 -0.010855 0.000000
# 2 -0.019306 0.116692 -0.026364 0.000000 -0.004210 0.000000
# 3 -0.008088 -0.026364 0.018388 0.000000 0.009515 0.000000
# 4 0.000000 0.000000 0.000000 0.039930 0.000000 0.001185
# 5 -0.010855 -0.004210 0.009515 0.000000 0.053899 0.000000
# 6 0.000000 0.000000 0.000000 0.001185 0.000000 0.043513
#
#
# Mechanical properties :
#
#
# Convention : Reuss Voigt Hill
#
# Bulk Modulus (GPa) = 17.02957 55.73975 36.38466
# Shear Modulus (GPa) = 11.60991 20.95328 16.28160
#
# Velocity S-wave (km/s) = 2.76845 3.71919 3.27847
# Velocity P-wave (km/s) = 4.63263 7.43236 6.19279
#
# Compressibility (1/GPa) = 0.05872139
#
# Stress axis : x y z
#
# Youngs Moduli (GPa) = 32.09626 8.56957 54.38428
#
# Poissons Ratio (x) = 0.16544 0.43985
# Poissons Ratio (y) = 0.61965 1.43376
# Poissons Ratio (z) = 0.25959 0.22592
#
# Static dielectric constant tensor:
#      x y z
#    x 1.490100 0.000000 -0.020640 
#    y 0.000000 1.505700 0.000000 
#    z -0.020640 0.000000 1.525160 
# 
# From -- ./inp_files/243253.got.cif
#   From: 2010.05.17/outbox.cif.g08.bks.cpg/sg12_122_cif.got.tgz:243253.got - 2010.06.03 13:09:07.
