data_PCOD9218390
_publ_section_title
;
Structure prediction by ZEFSAII (Michael W. Deem and Ramdas Pophale) SiO2 
 PCOD9218390
Probable space group: C 2/M
;
_chemical_formula_sum "Si O2"
_cell_formula_units_Z 52
_cell_length_a 8.557030
_cell_length_b 24.007056
_cell_length_c 15.655752
_cell_angle_alpha 90.000000
_cell_angle_beta 54.650385
_cell_angle_gamma 90.000000
_cell_volume 2623.208155
_symmetry_space_group_name_H-M "C 2/M"
_symmetry_group_IT_number 12
_symmetry_cell_setting 'monoclinic'
loop_
_space_group_symop_operation_xyz
x,y,z
-x,y,-z
-x,-y,-z
x,-y,z
1/2+x,1/2+y,z
1/2-x,1/2+y,-z
1/2-x,1/2-y,-z
1/2+x,1/2-y,z
loop_
_atom_site_type_symbol
_atom_site_label
_atom_site_fract_x
_atom_site_fract_y
_atom_site_fract_z
Si Si1 0.363608 0.187416 0.781689
Si Si2 0.049165 0.000000 0.723655
Si Si3 0.178939 0.383513 0.596427
Si Si4 0.547978 0.689654 0.180629
Si Si5 0.787204 0.500000 0.030435
Si Si6 0.482277 0.000000 0.609066
Si Si7 0.497725 0.385709 0.361142
Si Si8 0.207521 0.119247 0.979287
O O1 0.525950 0.163948 0.667607
O O2 0.398934 0.247647 0.811525
O O3 0.161890 0.188439 0.795984
O O4 0.350324 0.144743 0.864963
O O5 0.256846 0.000000 0.702658
O O6 0.035848 0.945955 0.669054
O O7 0.876105 0.000000 0.845155
O O8 0.306126 0.369575 0.473209
O O9 0.328466 0.387832 0.627099
O O10 0.078982 0.443452 0.612897
O O11 0.542862 0.655214 0.269552
O O12 0.687530 0.658913 0.068745
O O13 0.759956 0.556766 0.987114
O O14 0.000000 0.500000 0.000000
O O15 0.500000 0.000000 0.500000
O O16 0.000000 0.118880 0.000000
#
# Coordination Sequence:
#
# PCOD9218390 Si02
#       8
#     8   4   8   8   4   4   8   8
#     4  11  25  41  68  96 130 175 222 275 328 395
#     4  12  23  41  68  97 133 177 217 275 332 400
#     4  11  25  41  65 102 131 176 220 270 330 392
#     4  11  23  44  68  95 131 177 222 272 331 388
#     4  12  27  41  67 103 130 176 217 274 336 388
#     4  12  23  40  70  99 134 180 219 266 336 406
#     4  11  23  43  67  94 140 170 222 275 324 396
#     4  10  24  45  67  96 132 172 218 272 330 397
#
# _framework density 19.823056000000001
#
# number of rings (size 3 to 8) (size 9 to 14) (size 15 to 20)
#    0.000    0.923    3.077    3.000    4.308    3.692 
#    0.000    0.000    0.000    0.000    0.000    0.000 
#    0.000    0.000    0.000    0.000    0.000    0.000 
#
# Total GULP energy -145457.407319 kJ/mol
# GULP energy per Si atom -5594.515666 kJ/mol
# Density = 1.977794 g / cm^3
# Si number density = 19.823056 Si / 1000 Ang^3
#
#
#
# Elastic Constant Matrix: (Units=GPa)
#
#
# Indices 1 2 3 4 5 6 
#
# 1 54.4158 15.8215 35.6035 0.0000 8.6331 0.0000
# 2 15.8215 115.2839 39.1787 0.0000 19.8796 0.0000
# 3 35.6035 39.1787 107.5927 0.0000 12.4023 0.0000
# 4 0.0000 0.0000 0.0000 38.9201 0.0000 9.9399
# 5 8.6331 19.8796 12.4023 0.0000 31.5564 0.0000
# 6 0.0000 0.0000 0.0000 9.9399 0.0000 45.8451
#
#
#
# Elastic Compliance Matrix: (Units=1/GPa)
#
#
# Indices 1 2 3 4 5 6 
#
# 1 0.023838 -0.000140 -0.007432 0.000000 -0.003512 0.000000
# 2 -0.000140 0.010732 -0.003233 0.000000 -0.005452 0.000000
# 3 -0.007432 -0.003233 0.013053 0.000000 -0.001060 0.000000
# 4 0.000000 0.000000 0.000000 0.027200 0.000000 -0.005897
# 5 -0.003512 -0.005452 -0.001060 0.000000 0.036501 0.000000
# 6 0.000000 0.000000 0.000000 -0.005897 0.000000 0.023091
#
#
# Mechanical properties :
#
#
# Convention : Reuss Voigt Hill
#
# Bulk Modulus (GPa) = 38.44342 50.94444 44.69393
# Shear Modulus (GPa) = 30.35861 35.71023 33.03442
#
# Velocity S-wave (km/s) = 3.91766 4.24895 4.08666
# Velocity P-wave (km/s) = 6.31660 7.05881 6.69800
#
# Compressibility (1/GPa) = 0.02601225
#
# Stress axis : x y z
#
# Youngs Moduli (GPa) = 41.95022 93.17553 76.60900
#
# Poissons Ratio (x) = 0.01304 0.56938
# Poissons Ratio (y) = 0.00587 0.24770
# Poissons Ratio (z) = 0.31179 0.30127
#
# Static dielectric constant tensor:
#      x y z
#    x 1.679360 0.000000 -0.007650 
#    y 0.000000 1.712470 0.000000 
#    z -0.007650 0.000000 1.691990 
# 
# From -- ./inp_files/258455.got.cif
#   From: 2010.05.17/outbox.cif.g08.bks.cpg/sg12_130_cif.got.tgz:258455.got - 2010.06.03 13:09:07.
