data_PCOD9218692
_publ_section_title
;
Structure prediction by ZEFSAII (Michael W. Deem and Ramdas Pophale) SiO2 
 PCOD9218692
Probable space group: C 2/M
;
_chemical_formula_sum "Si O2"
_cell_formula_units_Z 40
_cell_length_a 14.799407
_cell_length_b 25.291158
_cell_length_c 9.952705
_cell_angle_alpha 90.000000
_cell_angle_beta 29.139544
_cell_angle_gamma 90.000000
_cell_volume 1813.961696
_symmetry_space_group_name_H-M "C 2/M"
_symmetry_group_IT_number 12
_symmetry_cell_setting 'monoclinic'
loop_
_space_group_symop_operation_xyz
x,y,z
-x,y,-z
-x,-y,-z
x,-y,z
1/2+x,1/2+y,z
1/2-x,1/2+y,-z
1/2-x,1/2-y,-z
1/2+x,1/2-y,z
loop_
_atom_site_type_symbol
_atom_site_label
_atom_site_fract_x
_atom_site_fract_y
_atom_site_fract_z
Si Si1 0.102636 0.807863 0.986994
Si Si2 0.864828 0.782286 0.556575
Si Si3 0.321059 0.094782 0.817879
Si Si4 0.671810 0.108832 0.880873
Si Si5 0.725525 0.000000 0.713213
Si Si6 0.457042 0.500000 0.897889
O O1 0.200517 0.759760 0.781284
O O2 0.244920 0.848659 0.867617
O O3 0.000000 0.838466 0.000000
O O4 0.970820 0.786558 0.277537
O O5 0.792526 0.840049 0.691763
O O6 0.000000 0.764754 0.500000
O O7 0.500000 0.078763 0.500000
O O8 0.379967 0.104055 0.895959
O O9 0.161629 0.050837 0.999503
O O10 0.778301 0.054274 0.715645
O O11 0.500000 0.111595 0.000000
O O12 0.500000 0.000000 0.000000
O O13 0.836993 0.000000 0.431689
O O14 0.500000 0.500000 0.000000
#
# Coordination Sequence:
#
# PCOD9218692 Si02
#       6
#     8   8   8   8   4   4
#     4  12  27  45  73 103 145 190 243 300 374 431
#     4  12  25  46  70 104 142 189 244 304 365 434
#     4  12  28  46  75 109 150 190 244 304 365 430
#     4  11  26  46  74 104 143 189 244 296 364 432
#     4  10  25  46  79 104 144 189 242 288 361 431
#     4  12  28  48  77 111 152 189 241 300 365 435
#
# _framework density 22.051182000000001
#
# number of rings (size 3 to 8) (size 9 to 14) (size 15 to 20)
#    0.000    0.400    2.000    5.100   11.200    0.800 
#    0.000    0.000    0.000    0.000    0.000    0.000 
#    0.000    0.000    0.000    0.000    0.000    0.000 
#
# Total GULP energy -111844.207223 kJ/mol
# GULP energy per Si atom -5592.210361 kJ/mol
# Density = 2.200099 g / cm^3
# Si number density = 22.051182 Si / 1000 Ang^3
#
#
#
# Elastic Constant Matrix: (Units=GPa)
#
#
# Indices 1 2 3 4 5 6 
#
# 1 157.9239 -3.0230 42.3067 0.0076 17.9324 -0.0063
# 2 -3.0230 102.6953 5.8989 0.0035 -16.5670 -0.0021
# 3 42.3067 5.8989 125.0492 0.0116 -3.0696 -0.0110
# 4 0.0076 0.0035 0.0116 6.4989 -0.0069 19.9021
# 5 17.9324 -16.5670 -3.0696 -0.0069 24.2199 0.0075
# 6 -0.0063 -0.0021 -0.0110 19.9021 0.0075 3.6923
#
#
#
# Elastic Compliance Matrix: (Units=1/GPa)
#
#
# Indices 1 2 3 4 5 6 
#
# 1 0.007811 -0.000675 -0.002773 0.000004 -0.006596 -0.000005
# 2 -0.000675 0.011018 -0.000094 -0.000002 0.008024 0.000002
# 3 -0.002773 -0.000094 0.009016 0.000004 0.003131 -0.000004
# 4 0.000004 -0.000002 0.000004 -0.009923 -0.000024 0.053486
# 5 -0.006596 0.008024 0.003131 -0.000024 0.052058 0.000025
# 6 -0.000005 0.000002 -0.000004 0.053486 0.000025 -0.017466
#
#
# Mechanical properties :
#
#
# Convention : Reuss Voigt Hill
#
# Bulk Modulus (GPa) = 48.16798 52.89263 50.53031
# Shear Modulus (GPa) = 75.16670 29.58127 52.37399
#
# Velocity S-wave (km/s) = 5.84477 3.66660 4.87880
# Velocity P-wave (km/s) = 8.21216 6.47793 7.39606
#
# Compressibility (1/GPa) = 0.02076068
#
# Stress axis : x y z
#
# Youngs Moduli (GPa) = 128.02348 90.76420 110.91106
#
# Poissons Ratio (x) = 0.06126 0.30753
# Poissons Ratio (y) = 0.08641 0.01047
# Poissons Ratio (z) = 0.35497 0.00857
#
# Static dielectric constant tensor:
#      x y z
#    x 1.683040 0.000000 -0.012340 
#    y 0.000000 1.796160 0.000000 
#    z -0.012340 0.000000 1.830350 
# 
# From -- ./inp_files/68469.got.cif
#   From: 2010.05.17/outbox.cif.g08.bks.cpg/sg12_35_cif.got.tgz:68469.got - 2010.06.03 13:09:07.
