data_PCOD9218858
_publ_section_title
;
Structure prediction by ZEFSAII (Michael W. Deem and Ramdas Pophale) SiO2 
 PCOD9218858
Probable space group: C 2/M
;
_chemical_formula_sum "Si O2"
_cell_formula_units_Z 48
_cell_length_a 9.952138
_cell_length_b 28.172646
_cell_length_c 10.122809
_cell_angle_alpha 90.000000
_cell_angle_beta 77.014136
_cell_angle_gamma 90.000000
_cell_volume 2765.627764
_symmetry_space_group_name_H-M "C 2/M"
_symmetry_group_IT_number 12
_symmetry_cell_setting 'monoclinic'
loop_
_space_group_symop_operation_xyz
x,y,z
-x,y,-z
-x,-y,-z
x,-y,z
1/2+x,1/2+y,z
1/2-x,1/2+y,-z
1/2-x,1/2-y,-z
1/2+x,1/2-y,z
loop_
_atom_site_type_symbol
_atom_site_label
_atom_site_fract_x
_atom_site_fract_y
_atom_site_fract_z
Si Si1 0.853694 0.238437 0.097948
Si Si2 0.262905 0.000000 0.085754
Si Si3 0.430667 0.900060 0.656840
Si Si4 0.844578 0.864002 0.190552
Si Si5 0.348769 0.603640 0.884701
Si Si6 0.966457 0.500000 0.791684
Si Si7 0.586979 0.842019 0.844376
O O1 0.815006 0.192316 0.190025
O O2 0.876322 0.286547 0.174360
O O3 0.750000 0.250000 0.000000
O O4 0.000000 0.225628 0.000000
O O5 0.172282 0.952724 0.119278
O O6 0.387431 0.000000 0.164130
O O7 0.344381 0.000000 0.927950
O O8 0.500000 0.895071 0.500000
O O9 0.268113 0.889117 0.694174
O O10 0.454611 0.952608 0.708708
O O11 0.498867 0.863457 0.745617
O O12 0.001505 0.877417 0.190714
O O13 0.827518 0.881893 0.042868
O O14 0.226920 0.628598 0.831140
O O15 0.500000 0.847065 0.000000
#
# Coordination Sequence:
#
# PCOD9218858 Si02
#       7
#     8   4   8   8   8   4   8
#     4  11  18  31  58  91 119 146 190 246 295 339
#     4  11  20  34  64  95 110 145 194 251 294 348
#     4  12  25  41  59  85 120 160 200 238 286 356
#     4  11  21  36  55  91 123 147 188 245 296 341
#     4  11  20  34  59  88 122 144 188 245 301 337
#     4  11  21  37  63  86 115 150 200 240 289 348
#     4  11  19  36  62  90 115 156 197 243 291 345
#
# _framework density 17.355915
#
# number of rings (size 3 to 8) (size 9 to 14) (size 15 to 20)
#    0.000    0.833    8.333    1.250    0.000    2.000 
#    0.000    1.667    0.000    1.000    0.000    0.000 
#    0.000    0.000    0.000    0.000    0.000    0.000 
#
# Total GULP energy -134054.079369 kJ/mol
# GULP energy per Si atom -5585.586640 kJ/mol
# Density = 1.731641 g / cm^3
# Si number density = 17.355915 Si / 1000 Ang^3
#
#
#
# Elastic Constant Matrix: (Units=GPa)
#
#
# Indices 1 2 3 4 5 6 
#
# 1 112.9448 34.6018 35.4689 0.0000 -9.9988 0.0000
# 2 34.6018 160.7485 40.1575 0.0000 -0.7763 0.0000
# 3 35.4689 40.1575 73.3268 0.0000 -16.5514 0.0000
# 4 0.0000 0.0000 0.0000 -0.7093 0.0000 -0.3503
# 5 -9.9988 -0.7763 -16.5514 0.0000 19.4796 0.0000
# 6 0.0000 0.0000 0.0000 -0.3503 0.0000 24.7374
#
#
#
# Elastic Compliance Matrix: (Units=1/GPa)
#
#
# Indices 1 2 3 4 5 6 
#
# 1 0.010686 -0.001290 -0.004004 0.000000 0.002032 0.000000
# 2 -0.001290 0.007597 -0.004476 0.000000 -0.004162 0.000000
# 3 -0.004004 -0.004476 0.021679 0.000000 0.016187 0.000000
# 4 0.000000 0.000000 0.000000 -1.400048 0.000000 -0.019823
# 5 0.002032 -0.004162 0.016187 0.000000 0.065966 0.000000
# 6 0.000000 0.000000 0.000000 -0.019823 0.000000 0.040144
#
#
# Mechanical properties :
#
#
# Convention : Reuss Voigt Hill
#
# Bulk Modulus (GPa) = 48.96587 63.05296 56.00942
# Shear Modulus (GPa) = -4.07289 24.48767 10.20739
#
# Velocity S-wave (km/s) = -1.53355 3.76029 2.42775
# Velocity P-wave (km/s) = 5.01381 7.43379 6.34033
#
# Compressibility (1/GPa) = 0.02042239
#
# Stress axis : x y z
#
# Youngs Moduli (GPa) = 93.57677 131.63707 46.12734
#
# Poissons Ratio (x) = 0.16985 0.18469
# Poissons Ratio (y) = 0.12074 0.20646
# Poissons Ratio (z) = 0.37467 0.58918
#
# Static dielectric constant tensor:
#      x y z
#    x 1.606080 0.000000 0.007670 
#    y 0.000000 1.615260 0.000000 
#    z 0.007670 0.000000 1.568810 
# 
# From -- ./inp_files/42256.got.cif
#   From: 2010.05.17/outbox.cif.g08.bks.cpg/sg12_22_cif.got.tgz:42256.got - 2010.06.03 13:09:07.
