data_PCOD9218837
_publ_section_title
;
Structure prediction by ZEFSAII (Michael W. Deem and Ramdas Pophale) SiO2 
 PCOD9218837
Probable space group: C 2/M
;
_chemical_formula_sum "Si O2"
_cell_formula_units_Z 56
_cell_length_a 18.482187
_cell_length_b 19.781482
_cell_length_c 20.064284
_cell_angle_alpha 90.000000
_cell_angle_beta 157.247546
_cell_angle_gamma 90.000000
_cell_volume 2837.048041
_symmetry_space_group_name_H-M "C 2/M"
_symmetry_group_IT_number 12
_symmetry_cell_setting 'monoclinic'
loop_
_space_group_symop_operation_xyz
x,y,z
-x,y,-z
-x,-y,-z
x,-y,z
1/2+x,1/2+y,z
1/2-x,1/2+y,-z
1/2-x,1/2-y,-z
1/2+x,1/2-y,z
loop_
_atom_site_type_symbol
_atom_site_label
_atom_site_fract_x
_atom_site_fract_y
_atom_site_fract_z
Si Si1 0.761799 0.078717 0.202570
Si Si2 0.590023 0.142063 0.175984
Si Si3 0.058380 0.609401 0.300514
Si Si4 0.950649 0.211861 0.034809
Si Si5 0.603053 0.749703 0.812292
Si Si6 0.459522 0.399139 0.675995
Si Si7 0.866923 0.072742 0.036522
O O1 0.754281 0.118154 0.266193
O O2 0.945754 0.082032 0.313587
O O3 0.718851 0.000000 0.178244
O O4 0.598841 0.113781 0.019785
O O5 0.591937 0.108158 0.249751
O O6 0.571692 0.223842 0.164087
O O7 0.242589 0.582264 0.492108
O O8 0.034780 0.688446 0.296593
O O9 0.858583 0.579562 0.151941
O O10 0.953774 0.139883 0.075949
O O11 0.737896 0.237431 0.864162
O O12 0.000000 0.202208 0.000000
O O13 0.494210 0.680735 0.713527
O O14 0.750000 0.750000 0.000000
O O15 0.566885 0.427877 0.830758
O O16 0.916884 0.000000 0.047952
#
# Coordination Sequence:
#
# PCOD9218837 Si02
#       7
#     8   8   8   8   8   8   8
#     4  11  22  35  57  87 124 166 199 235 299 369
#     4  11  18  37  59  88 121 161 201 246 298 356
#     4  11  23  35  64  91 118 160 205 253 297 360
#     4  11  19  36  66  90 115 161 205 246 306 367
#     4  11  17  38  62  92 121 153 196 249 299 352
#     4  12  21  38  61  90 122 161 204 245 306 362
#     4  11  24  41  59  85 123 158 205 264 312 355
#
# _framework density 19.738826
#
# number of rings (size 3 to 8) (size 9 to 14) (size 15 to 20)
#    0.000    0.857    8.571    1.714    0.000    2.571 
#    0.000    0.714    0.000    6.857    0.000    5.000 
#    0.000    0.000    0.000    0.000    0.000    0.000 
#
# Total GULP energy -156275.975203 kJ/mol
# GULP energy per Si atom -5581.284829 kJ/mol
# Density = 1.969390 g / cm^3
# Si number density = 19.738826 Si / 1000 Ang^3
#
#
#
# Elastic Constant Matrix: (Units=GPa)
#
#
# Indices 1 2 3 4 5 6 
#
# 1 82.0005 10.2644 16.2668 -0.0069 13.3620 0.0001
# 2 10.2644 142.7340 13.2674 -0.0341 0.7233 -0.0094
# 3 16.2668 13.2674 76.5032 -0.0620 14.4239 -0.0211
# 4 -0.0069 -0.0341 -0.0620 -21.9512 -0.0152 3.9125
# 5 13.3620 0.7233 14.4239 -0.0152 11.3513 0.0001
# 6 0.0001 -0.0094 -0.0211 3.9125 0.0001 10.4087
#
#
#
# Elastic Compliance Matrix: (Units=1/GPa)
#
#
# Indices 1 2 3 4 5 6 
#
# 1 0.015242 -0.001041 0.000407 0.000008 -0.018393 -0.000003
# 2 -0.001041 0.007211 -0.001543 -0.000007 0.002727 0.000006
# 3 0.000407 -0.001543 0.017522 -0.000024 -0.022646 0.000043
# 4 0.000008 -0.000007 -0.000024 -0.042695 -0.000036 0.016049
# 5 -0.018393 0.002727 -0.022646 -0.000036 0.138350 -0.000031
# 6 -0.000003 0.000006 0.000043 0.016049 -0.000031 0.090041
#
#
# Mechanical properties :
#
#
# Convention : Reuss Voigt Hill
#
# Bulk Modulus (GPa) = 28.07316 42.31500 35.19408
# Shear Modulus (GPa) = 20.66999 17.39103 19.03051
#
# Velocity S-wave (km/s) = 3.23952 2.97148 3.10839
# Velocity P-wave (km/s) = 5.31468 5.76688 5.54539
#
# Compressibility (1/GPa) = 0.03562121
#
# Stress axis : x y z
#
# Youngs Moduli (GPa) = 65.60978 138.68639 57.07088
#
# Poissons Ratio (x) = 0.14434 -0.02326
# Poissons Ratio (y) = 0.06828 0.08808
# Poissons Ratio (z) = -0.02674 0.21403
#
# Static dielectric constant tensor:
#      x y z
#    x 1.710190 0.000000 0.004590 
#    y 0.000000 1.740590 0.000000 
#    z 0.004590 0.000000 1.700900 
# 
# From -- ./inp_files/318049.got.cif
#   From: 2010.05.17/outbox.cif.g08.bks.cpg/sg12_160_cif.got.tgz:318049.got - 2010.06.03 13:09:07.
