data_PCOD9218574
_publ_section_title
;
Structure prediction by ZEFSAII (Michael W. Deem and Ramdas Pophale) SiO2 
 PCOD9218574
Probable space group: C 2/M
;
_chemical_formula_sum "Si O2"
_cell_formula_units_Z 36
_cell_length_a 8.804992
_cell_length_b 22.087824
_cell_length_c 8.052892
_cell_angle_alpha 90.000000
_cell_angle_beta 110.924635
_cell_angle_gamma 90.000000
_cell_volume 1462.865391
_symmetry_space_group_name_H-M "C 2/M"
_symmetry_group_IT_number 12
_symmetry_cell_setting 'monoclinic'
loop_
_space_group_symop_operation_xyz
x,y,z
-x,y,-z
-x,-y,-z
x,-y,z
1/2+x,1/2+y,z
1/2-x,1/2+y,-z
1/2-x,1/2-y,-z
1/2+x,1/2-y,z
loop_
_atom_site_type_symbol
_atom_site_label
_atom_site_fract_x
_atom_site_fract_y
_atom_site_fract_z
Si Si1 0.447562 0.305184 0.164935
Si Si2 0.581168 0.500000 0.858842
Si Si3 0.676769 0.106538 0.990760
Si Si4 0.254091 0.883431 0.368330
Si Si5 0.318301 0.500000 0.508258
Si Si6 0.500000 0.780227 0.500000
O O1 0.570253 0.360482 0.262787
O O2 0.464054 0.258397 0.321261
O O3 0.500000 0.284813 0.000000
O O4 0.266496 0.330971 0.071973
O O5 0.400660 0.500000 0.715558
O O6 0.500000 0.500000 0.000000
O O7 0.703725 0.555757 0.885503
O O8 0.677494 0.100399 0.789337
O O9 0.500000 0.101820 0.000000
O O10 0.271903 0.936049 0.515166
O O11 0.348462 0.824617 0.469400
O O12 0.500000 0.500000 0.500000
#
# Coordination Sequence:
#
# PCOD9218574 Si02
#       6
#     8   4   8   8   4   4
#     4  10  24  48  75 108 151 205 250 302 375 447
#     4  12  19  44  76 102 145 193 238 307 380 443
#     4  11  23  41  77 113 149 190 255 307 373 448
#     4  11  25  48  73 109 148 196 248 314 370 450
#     4  12  26  45  79 106 144 193 244 303 382 452
#     4  12  28  45  78 105 156 198 258 310 370 438
#
# _framework density 24.609235999999999
#
# number of rings (size 3 to 8) (size 9 to 14) (size 15 to 20)
#    0.000    0.889    4.444    1.667    1.556   10.222 
#    0.000    0.000    0.000    0.000    0.000    0.778 
#    0.000    0.000    0.000    0.000    0.000    0.000 
#
# Total GULP energy -100441.433851 kJ/mol
# GULP energy per Si atom -5580.079658 kJ/mol
# Density = 2.455322 g / cm^3
# Si number density = 24.609236 Si / 1000 Ang^3
#
#
#
# Elastic Constant Matrix: (Units=GPa)
#
#
# Indices 1 2 3 4 5 6 
#
# 1 165.4181 67.9444 9.8904 0.0000 8.2280 0.0000
# 2 67.9444 151.9862 40.2289 0.0000 -18.4489 0.0000
# 3 9.8904 40.2289 53.1017 0.0000 -9.8294 0.0000
# 4 0.0000 0.0000 0.0000 34.9662 0.0000 15.5203
# 5 8.2280 -18.4489 -9.8294 0.0000 37.5095 0.0000
# 6 0.0000 0.0000 0.0000 15.5203 0.0000 35.9124
#
#
#
# Elastic Compliance Matrix: (Units=1/GPa)
#
#
# Indices 1 2 3 4 5 6 
#
# 1 0.007902 -0.004252 0.001094 0.000000 -0.003538 0.000000
# 2 -0.004252 0.010754 -0.006519 0.000000 0.004513 0.000000
# 3 0.001094 -0.006519 0.024098 0.000000 0.002868 0.000000
# 4 0.000000 0.000000 0.000000 0.035387 0.000000 -0.015293
# 5 -0.003538 0.004513 0.002868 0.000000 0.030407 0.000000
# 6 0.000000 0.000000 0.000000 -0.015293 0.000000 0.034455
#
#
# Mechanical properties :
#
#
# Convention : Reuss Voigt Hill
#
# Bulk Modulus (GPa) = 42.73478 67.40368 55.06923
# Shear Modulus (GPa) = 29.38458 38.50711 33.94585
#
# Velocity S-wave (km/s) = 3.45925 3.95997 3.71805
# Velocity P-wave (km/s) = 5.77566 6.95396 6.39202
#
# Compressibility (1/GPa) = 0.02340014
#
# Stress axis : x y z
#
# Youngs Moduli (GPa) = 126.54709 92.99093 41.49734
#
# Poissons Ratio (x) = 0.39537 -0.04541
# Poissons Ratio (y) = 0.53804 0.27054
# Poissons Ratio (z) = -0.13849 0.60625
#
# Static dielectric constant tensor:
#      x y z
#    x 1.954160 0.000000 -0.013930 
#    y 0.000000 2.276420 0.000000 
#    z -0.013930 0.000000 1.916980 
# 
# From -- ./inp_files/39559.got.cif
#   From: 2010.05.17/outbox.cif.g08.bks.cpg/sg12_20_cif.got.tgz:39559.got - 2010.06.03 13:09:07.
