data_PCOD9218915
_publ_section_title
;
Structure prediction by ZEFSAII (Michael W. Deem and Ramdas Pophale) SiO2 
 PCOD9218915
Probable space group: C 2/M
;
_chemical_formula_sum "Si O2"
_cell_formula_units_Z 36
_cell_length_a 13.866240
_cell_length_b 12.336348
_cell_length_c 11.753803
_cell_angle_alpha 90.000000
_cell_angle_beta 51.801248
_cell_angle_gamma 90.000000
_cell_volume 1580.063872
_symmetry_space_group_name_H-M "C 2/M"
_symmetry_group_IT_number 12
_symmetry_cell_setting 'monoclinic'
loop_
_space_group_symop_operation_xyz
x,y,z
-x,y,-z
-x,-y,-z
x,-y,z
1/2+x,1/2+y,z
1/2-x,1/2+y,-z
1/2-x,1/2-y,-z
1/2+x,1/2-y,z
loop_
_atom_site_type_symbol
_atom_site_label
_atom_site_fract_x
_atom_site_fract_y
_atom_site_fract_z
Si Si1 0.433103 0.500000 0.744144
Si Si2 0.626852 0.875398 0.980122
Si Si3 0.820457 0.000000 0.570576
Si Si4 0.521710 0.283052 0.228036
Si Si5 0.000000 0.281395 0.500000
Si Si6 0.264555 0.763343 0.307214
O O1 0.375771 0.500000 0.659047
O O2 0.577857 0.500000 0.601927
O O3 0.409272 0.395472 0.838277
O O4 0.592064 0.818310 0.122998
O O5 0.667915 0.000000 0.960834
O O6 0.500000 0.879801 0.000000
O O7 0.711053 0.798438 0.841013
O O8 0.752997 0.882648 0.618816
O O9 0.508663 0.277507 0.373156
O O10 0.387749 0.285451 0.268975
O O11 0.145045 0.314688 0.403909
#
# Coordination Sequence:
#
# PCOD9218915 Si02
#       6
#     4   8   4   8   4   8
#     4  11  20  38  59  98 124 160 211 259 306 366
#     4   9  20  39  62  90 121 165 214 253 304 370
#     4  11  18  36  67  88 118 160 227 259 282 362
#     4  11  23  38  65  95 129 163 205 259 316 368
#     4  12  22  39  61  94 130 158 211 259 310 380
#     4  11  21  39  66  94 118 162 215 265 302 356
#
# _framework density 22.783888999999999
#
# number of rings (size 3 to 8) (size 9 to 14) (size 15 to 20)
#    0.000    1.333    5.556    0.667    1.556    0.889 
#    0.000    5.556    2.444    0.000    0.000    0.000 
#    0.000    0.000    0.000    0.000    0.000    0.000 
#
# Total GULP energy -100268.859935 kJ/mol
# GULP energy per Si atom -5570.492219 kJ/mol
# Density = 2.273203 g / cm^3
# Si number density = 22.783889 Si / 1000 Ang^3
#
#
#
# Elastic Constant Matrix: (Units=GPa)
#
#
# Indices 1 2 3 4 5 6 
#
# 1 108.3674 28.5926 13.8381 0.0000 -4.1786 0.0000
# 2 28.5926 75.2457 22.6124 0.0000 20.0991 0.0000
# 3 13.8381 22.6124 89.0419 0.0000 0.9576 0.0000
# 4 0.0000 0.0000 0.0000 -24.9355 0.0000 -11.2607
# 5 -4.1786 20.0991 0.9576 0.0000 34.6947 0.0000
# 6 0.0000 0.0000 0.0000 -11.2607 0.0000 29.6711
#
#
#
# Elastic Compliance Matrix: (Units=1/GPa)
#
#
# Indices 1 2 3 4 5 6 
#
# 1 0.010797 -0.005118 -0.000424 0.000000 0.004277 0.000000
# 2 -0.005118 0.019627 -0.004061 0.000000 -0.011874 0.000000
# 3 -0.000424 -0.004061 0.012307 0.000000 0.001962 0.000000
# 4 0.000000 0.000000 0.000000 -0.034236 0.000000 -0.012993
# 5 0.004277 -0.011874 0.001962 0.000000 0.036163 0.000000
# 6 0.000000 0.000000 0.000000 -0.012993 0.000000 0.028772
#
#
# Mechanical properties :
#
#
# Convention : Reuss Voigt Hill
#
# Bulk Modulus (GPa) = 42.50926 44.74902 43.62914
# Shear Modulus (GPa) = 49.76232 21.72685 35.74458
#
# Velocity S-wave (km/s) = 4.67851 3.09140 3.96517
# Velocity P-wave (km/s) = 6.91973 5.69435 6.33673
#
# Compressibility (1/GPa) = 0.02352429
#
# Stress axis : x y z
#
# Youngs Moduli (GPa) = 92.61581 50.95084 81.25545
#
# Poissons Ratio (x) = 0.26075 0.03448
# Poissons Ratio (y) = 0.47399 0.32999
# Poissons Ratio (z) = 0.03930 0.20692
#
# Static dielectric constant tensor:
#      x y z
#    x 1.918240 0.000000 -0.096780 
#    y 0.000000 1.855180 0.000000 
#    z -0.096780 0.000000 1.866910 
# 
# From -- ./inp_files/140090.got.cif
#   From: 2010.05.17/outbox.cif.g08.bks.cpg/sg12_71_cif.got.tgz:140090.got - 2010.06.03 13:09:07.
