data_PCOD9218088
_publ_section_title
;
Structure prediction by ZEFSAII (Michael W. Deem and Ramdas Pophale) SiO2 
 PCOD9218088
Probable space group: C 2/M
;
_chemical_formula_sum "Si O2"
_cell_formula_units_Z 38
_cell_length_a 12.863814
_cell_length_b 14.198532
_cell_length_c 19.503554
_cell_angle_alpha 90.000000
_cell_angle_beta 147.820665
_cell_angle_gamma 90.000000
_cell_volume 1897.162374
_symmetry_space_group_name_H-M "C 2/M"
_symmetry_group_IT_number 12
_symmetry_cell_setting 'monoclinic'
loop_
_space_group_symop_operation_xyz
x,y,z
-x,y,-z
-x,-y,-z
x,-y,z
1/2+x,1/2+y,z
1/2-x,1/2+y,-z
1/2-x,1/2-y,-z
1/2+x,1/2-y,z
loop_
_atom_site_type_symbol
_atom_site_label
_atom_site_fract_x
_atom_site_fract_y
_atom_site_fract_z
Si Si1 0.000000 0.500000 0.500000
Si Si2 0.544071 0.500000 0.333277
Si Si3 0.795201 0.000000 0.428748
Si Si4 0.600680 0.000000 0.129326
Si Si5 0.555628 0.845103 0.218484
Si Si6 0.867703 0.891280 0.988955
Si Si7 0.660967 0.366180 0.277708
O O1 0.131833 0.417996 0.613139
O O2 0.677478 0.500000 0.474715
O O3 0.328793 0.500000 0.241795
O O4 0.586626 0.410582 0.308342
O O5 0.671462 0.089965 0.336355
O O6 0.000000 0.000000 0.500000
O O7 0.551162 0.907643 0.146563
O O8 0.500000 0.000000 0.000000
O O9 0.663937 0.746000 0.275836
O O10 0.329322 0.832420 0.112334
O O11 0.002953 0.892303 0.131502
O O12 0.807277 0.000000 0.941232
O O13 0.000000 0.857514 0.000000
#
# Coordination Sequence:
#
# PCOD9218088 Si02
#       7
#     2   4   4   4   8   8   8
#     4  10  24  42  62  96 140 188 218 296 344 406
#     4  11  23  42  64  90 137 178 217 296 336 416
#     4  11  23  44  62  97 135 173 232 282 352 405
#     4  11  22  41  71  99 138 182 231 286 357 402
#     4  11  24  43  71 100 136 181 236 290 343 426
#     4  11  22  42  67  97 137 178 222 287 348 412
#     4  11  25  43  67 101 138 175 241 280 356 416
#
# _framework density 20.029914999999999
#
# number of rings (size 3 to 8) (size 9 to 14) (size 15 to 20)
#    0.000    1.053    6.316    1.895    1.474    6.737 
#    0.000    0.000    0.000    0.000    0.000    0.000 
#    0.000    0.000    0.000    0.000    0.000    0.000 
#
# Total GULP energy -105825.836037 kJ/mol
# GULP energy per Si atom -5569.780844 kJ/mol
# Density = 1.998433 g / cm^3
# Si number density = 20.029915 Si / 1000 Ang^3
#
#
#
# Elastic Constant Matrix: (Units=GPa)
#
#
# Indices 1 2 3 4 5 6 
#
# 1 82.0537 22.5985 41.9621 0.0003 -31.0260 0.0019
# 2 22.5985 160.6780 47.1834 0.0009 -13.3166 0.0021
# 3 41.9621 47.1834 156.6094 0.0023 -19.6912 0.0061
# 4 0.0003 0.0009 0.0023 20.8320 0.0005 -0.1544
# 5 -31.0260 -13.3166 -19.6912 0.0005 30.2701 0.0034
# 6 0.0019 0.0021 0.0061 -0.1544 0.0034 193.1519
#
#
#
# Elastic Compliance Matrix: (Units=1/GPa)
#
#
# Indices 1 2 3 4 5 6 
#
# 1 0.021328 -0.000460 -0.003107 0.000000 0.019637 0.000000
# 2 -0.000460 0.006930 -0.001787 0.000000 0.001415 0.000000
# 3 -0.003107 -0.001787 0.007903 -0.000001 0.001171 0.000000
# 4 0.000000 0.000000 -0.000001 0.048003 -0.000002 0.000038
# 5 0.019637 0.001415 0.001171 -0.000002 0.054547 -0.000001
# 6 0.000000 0.000000 0.000000 0.000038 -0.000001 0.005177
#
#
# Mechanical properties :
#
#
# Convention : Reuss Voigt Hill
#
# Bulk Modulus (GPa) = 39.28639 69.20322 54.24481
# Shear Modulus (GPa) = 30.65957 68.02394 49.34176
#
# Velocity S-wave (km/s) = 3.91665 5.83394 4.96865
# Velocity P-wave (km/s) = 6.33324 8.94454 7.74967
#
# Compressibility (1/GPa) = 0.02545411
#
# Stress axis : x y z
#
# Youngs Moduli (GPa) = 46.88722 144.29419 126.52901
#
# Poissons Ratio (x) = 0.06635 0.39313
# Poissons Ratio (y) = 0.02156 0.22609
# Poissons Ratio (z) = 0.14568 0.25783
#
# Static dielectric constant tensor:
#      x y z
#    x 1.739750 0.000000 0.040030 
#    y 0.000000 1.728540 0.000000 
#    z 0.040030 0.000000 1.672790 
# 
# From -- ./inp_files/263131.got.cif
#   From: 2010.05.17/outbox.cif.g08.bks.cpg/sg12_132_cif.got.tgz:263131.got - 2010.06.03 13:09:07.
