data_PCOD9218868
_publ_section_title
;
Structure prediction by ZEFSAII (Michael W. Deem and Ramdas Pophale) SiO2 
 PCOD9218868
Probable space group: C 2/M
;
_chemical_formula_sum "Si O2"
_cell_formula_units_Z 40
_cell_length_a 20.762898
_cell_length_b 20.626181
_cell_length_c 10.755881
_cell_angle_alpha 90.000000
_cell_angle_beta 29.709163
_cell_angle_gamma 90.000000
_cell_volume 2282.874087
_symmetry_space_group_name_H-M "C 2/M"
_symmetry_group_IT_number 12
_symmetry_cell_setting 'monoclinic'
loop_
_space_group_symop_operation_xyz
x,y,z
-x,y,-z
-x,-y,-z
x,-y,z
1/2+x,1/2+y,z
1/2-x,1/2+y,-z
1/2-x,1/2-y,-z
1/2+x,1/2-y,z
loop_
_atom_site_type_symbol
_atom_site_label
_atom_site_fract_x
_atom_site_fract_y
_atom_site_fract_z
Si Si1 0.880537 0.572563 0.333355
Si Si2 0.708068 0.500000 0.210169
Si Si3 0.431063 0.500000 0.810264
Si Si4 0.615789 0.394795 0.905280
Si Si5 0.646936 0.117330 0.904478
Si Si6 0.848778 0.748096 0.214440
O O1 0.933743 0.500000 0.250379
O O2 0.748362 0.576755 0.628853
O O3 0.850226 0.589651 0.241548
O O4 0.994091 0.618088 0.194231
O O5 0.571342 0.500000 0.511438
O O6 0.676607 0.500000 0.117076
O O7 0.781042 0.565740 0.130077
O O8 0.418833 0.435800 0.915394
O O9 0.642246 0.317813 0.866897
O O10 0.500000 0.403694 0.000000
O O11 0.695600 0.190515 0.803228
O O12 0.750000 0.750000 0.500000
O O13 0.000000 0.733980 0.000000
#
# Coordination Sequence:
#
# PCOD9218868 Si02
#       6
#     8   4   4   8   8   8
#     4  11  18  32  56  87 114 135 185 235 288 340
#     4  11  24  40  59  77 110 164 192 231 285 332
#     4  11  25  41  55  82 112 148 208 235 268 355
#     4  11  22  35  59  85 116 145 182 245 294 322
#     4  11  19  35  57  84 117 146 183 230 288 344
#     4  11  21  34  55  92 121 144 181 234 296 349
#
# _framework density 17.521771999999999
#
# number of rings (size 3 to 8) (size 9 to 14) (size 15 to 20)
#    0.000    1.000    7.000    2.100    2.800    0.000 
#    0.000    3.000    0.000    0.000    0.000    0.000 
#    0.000    0.000    0.000    0.000    0.000    0.000 
#
# Total GULP energy -111516.237813 kJ/mol
# GULP energy per Si atom -5575.811891 kJ/mol
# Density = 1.748189 g / cm^3
# Si number density = 17.521772 Si / 1000 Ang^3
#
#
#
# Elastic Constant Matrix: (Units=GPa)
#
#
# Indices 1 2 3 4 5 6 
#
# 1 99.3359 57.5154 26.6275 -0.0001 3.8556 0.0000
# 2 57.5154 154.5379 24.6884 0.0000 11.1763 0.0000
# 3 26.6275 24.6884 81.4605 -0.0002 -7.0392 0.0000
# 4 -0.0001 0.0000 -0.0002 20.1627 0.0001 -7.0207
# 5 3.8556 11.1763 -7.0392 0.0001 19.0452 0.0001
# 6 0.0000 0.0000 0.0000 -7.0207 0.0001 10.3789
#
#
#
# Elastic Compliance Matrix: (Units=1/GPa)
#
#
# Indices 1 2 3 4 5 6 
#
# 1 0.013542 -0.004434 -0.003197 0.000000 -0.001321 0.000000
# 2 -0.004434 0.008727 -0.001612 0.000000 -0.004820 0.000000
# 3 -0.003197 -0.001612 0.014407 0.000000 0.006918 0.000000
# 4 0.000000 0.000000 0.000000 0.064877 0.000000 0.043885
# 5 -0.001321 -0.004820 0.006918 0.000000 0.058159 -0.000001
# 6 0.000000 0.000000 0.000000 0.043885 -0.000001 0.126035
#
#
# Mechanical properties :
#
#
# Convention : Reuss Voigt Hill
#
# Bulk Modulus (GPa) = 54.97282 61.44410 58.20846
# Shear Modulus (GPa) = 16.11352 25.01757 20.56554
#
# Velocity S-wave (km/s) = 3.03583 3.78272 3.42967
# Velocity P-wave (km/s) = 6.61290 7.36356 6.99830
#
# Compressibility (1/GPa) = 0.01819081
#
# Stress axis : x y z
#
# Youngs Moduli (GPa) = 73.84264 114.58468 69.40896
#
# Poissons Ratio (x) = 0.50805 0.22191
# Poissons Ratio (y) = 0.32740 0.11190
# Poissons Ratio (z) = 0.23608 0.18473
#
# Static dielectric constant tensor:
#      x y z
#    x 1.572160 0.000000 -0.024800 
#    y 0.000000 1.665130 0.000000 
#    z -0.024800 0.000000 1.615700 
# 
# From -- ./inp_files/77211.got.cif
#   From: 2010.05.17/outbox.cif.g08.bks.cpg/sg12_39_cif.got.tgz:77211.got - 2010.06.03 13:09:07.
