data_PCOD9218012
_publ_section_title
;
Structure prediction by ZEFSAII (Michael W. Deem and Ramdas Pophale) SiO2 
 PCOD9218012
Probable space group: C 2/M
;
_chemical_formula_sum "Si O2"
_cell_formula_units_Z 34
_cell_length_a 15.722126
_cell_length_b 18.701850
_cell_length_c 16.170093
_cell_angle_alpha 90.000000
_cell_angle_beta 162.104584
_cell_angle_gamma 90.000000
_cell_volume 1460.976860
_symmetry_space_group_name_H-M "C 2/M"
_symmetry_group_IT_number 12
_symmetry_cell_setting 'monoclinic'
loop_
_space_group_symop_operation_xyz
x,y,z
-x,y,-z
-x,-y,-z
x,-y,z
1/2+x,1/2+y,z
1/2-x,1/2+y,-z
1/2-x,1/2-y,-z
1/2+x,1/2-y,z
loop_
_atom_site_type_symbol
_atom_site_label
_atom_site_fract_x
_atom_site_fract_y
_atom_site_fract_z
Si Si1 0.222519 0.735012 0.377979
Si Si2 0.666925 0.500000 0.827093
Si Si3 0.773451 0.607130 0.362958
Si Si4 0.792215 0.344448 0.883042
Si Si5 0.000000 0.000000 0.000000
Si Si6 0.423959 0.000000 0.645078
O O1 0.250000 0.750000 0.500000
O O2 0.206451 0.811116 0.317364
O O3 0.495280 0.692880 0.600341
O O4 0.950924 0.688860 0.108303
O O5 0.752455 0.428440 0.859000
O O6 0.339061 0.500000 0.537419
O O7 0.811915 0.500000 0.051417
O O8 0.523191 0.561903 0.093752
O O9 0.886391 0.568007 0.549514
O O10 0.000000 0.597255 0.500000
O O11 0.000000 0.329525 0.000000
#
# Coordination Sequence:
#
# PCOD9218012 Si02
#       6
#     8   4   8   8   2   4
#     4  12  27  47  72 106 146 191 238 300 366 433
#     4  12  25  47  71  99 144 181 243 306 353 432
#     4  11  25  43  68 103 146 185 240 290 362 437
#     4  12  26  47  72 106 135 193 242 297 364 423
#     4  10  24  40  68 102 136 186 224 288 354 420
#     4  11  26  42  70 101 140 189 231 295 369 427
#
# _framework density 23.272100999999999
#
# number of rings (size 3 to 8) (size 9 to 14) (size 15 to 20)
#    0.000    0.471    0.000    8.824   11.529    0.000 
#    0.000    3.529    0.000    0.000    0.000    0.000 
#    0.000    0.000    0.000    0.000    0.000    0.000 
#
# Total GULP energy -95048.490704 kJ/mol
# GULP energy per Si atom -5591.087688 kJ/mol
# Density = 2.321913 g / cm^3
# Si number density = 23.272101 Si / 1000 Ang^3
#
#
#
# Elastic Constant Matrix: (Units=GPa)
#
#
# Indices 1 2 3 4 5 6 
#
# 1 49.8227 2.0215 -9.0145 -0.0542 -4.1279 -0.0203
# 2 2.0215 194.0977 37.7259 0.0288 -2.5202 0.0909
# 3 -9.0145 37.7259 87.8523 0.2463 -0.1300 0.1201
# 4 -0.0542 0.0288 0.2463 15.6294 0.0229 8.2445
# 5 -4.1279 -2.5202 -0.1300 0.0229 34.1939 0.0192
# 6 -0.0203 0.0909 0.1201 8.2445 0.0192 29.4043
#
#
#
# Elastic Compliance Matrix: (Units=1/GPa)
#
#
# Indices 1 2 3 4 5 6 
#
# 1 0.020738 -0.000653 0.002412 0.000034 0.002465 -0.000005
# 2 -0.000653 0.005647 -0.002492 0.000036 0.000328 -0.000018
# 3 0.002412 -0.002492 0.012701 -0.000194 0.000156 0.000012
# 4 0.000034 0.000036 -0.000194 0.075091 -0.000032 -0.021054
# 5 0.002465 0.000328 0.000156 -0.000032 0.029567 -0.000010
# 6 -0.000005 -0.000018 0.000012 -0.021054 -0.000010 0.039912
#
#
# Mechanical properties :
#
#
# Convention : Reuss Voigt Hill
#
# Bulk Modulus (GPa) = 26.58067 43.69317 35.13692
# Shear Modulus (GPa) = 25.29563 35.91484 30.60524
#
# Velocity S-wave (km/s) = 3.30047 3.93269 3.63037
# Velocity P-wave (km/s) = 5.09614 6.27990 5.71873
#
# Compressibility (1/GPa) = 0.03762132
#
# Stress axis : x y z
#
# Youngs Moduli (GPa) = 48.22009 177.07251 78.73412
#
# Poissons Ratio (x) = 0.11559 -0.18989
# Poissons Ratio (y) = 0.03148 0.19618
# Poissons Ratio (z) = -0.11630 0.44121
#
# Static dielectric constant tensor:
#      x y z
#    x 1.887280 -0.000070 -0.008690 
#    y -0.000070 1.809410 0.000050 
#    z -0.008690 0.000050 1.922630 
# 
# From -- ./inp_files/217969.got.cif
#   From: 2010.05.17/outbox.cif.g08.bks.cpg/sg12_109_cif.got.tgz:217969.got - 2010.06.03 13:09:07.
