data_PCOD9218977
_publ_section_title
;
Structure prediction by ZEFSAII (Michael W. Deem and Ramdas Pophale) SiO2 
 PCOD9218977
Probable space group: C 2/M
;
_chemical_formula_sum "Si O2"
_cell_formula_units_Z 52
_cell_length_a 23.965639
_cell_length_b 29.585604
_cell_length_c 8.110777
_cell_angle_alpha 90.000000
_cell_angle_beta 148.660279
_cell_angle_gamma 90.000000
_cell_volume 2991.081496
_symmetry_space_group_name_H-M "C 2/M"
_symmetry_group_IT_number 12
_symmetry_cell_setting 'monoclinic'
loop_
_space_group_symop_operation_xyz
x,y,z
-x,y,-z
-x,-y,-z
x,-y,z
1/2+x,1/2+y,z
1/2-x,1/2+y,-z
1/2-x,1/2-y,-z
1/2+x,1/2-y,z
loop_
_atom_site_type_symbol
_atom_site_label
_atom_site_fract_x
_atom_site_fract_y
_atom_site_fract_z
Si Si1 0.650789 0.646412 0.196427
Si Si2 0.895323 0.697059 0.306367
Si Si3 0.949229 0.790768 0.612104
Si Si4 0.797538 0.861041 0.043553
Si Si5 0.412420 0.550912 0.427133
Si Si6 0.258872 0.286229 0.379044
Si Si7 0.000000 0.077464 0.000000
O O1 0.749211 0.666397 0.547788
O O2 0.592668 0.609809 0.162120
O O3 0.563125 0.686075 0.934663
O O4 0.689346 0.630463 0.116641
O O5 0.941787 0.740095 0.523187
O O6 0.000000 0.672538 0.500000
O O7 0.814415 0.663772 0.197108
O O8 0.824408 0.717987 0.978860
O O9 0.887077 0.825189 0.333025
O O10 0.875023 0.787814 0.586280
O O11 0.826403 0.908539 0.202024
O O12 0.500000 0.559869 0.500000
O O13 0.371583 0.500000 0.294694
O O14 0.462142 0.552524 0.737579
O O15 0.250000 0.250000 0.500000
#
# Coordination Sequence:
#
# PCOD9218977 Si02
#       7
#     8   8   8   8   8   8   4
#     4  12  20  33  56  81 111 148 184 232 288 343
#     4  11  23  36  51  73 106 152 200 236 275 325
#     4  11  19  33  51  77 107 147 184 222 287 343
#     4  11  20  37  55  76 111 151 184 224 285 338
#     4  11  22  37  59  88 120 149 182 228 288 353
#     4  11  20  31  46  75 106 142 195 240 271 325
#     4  12  19  36  54  88 118 146 182 216 283 350
#
# _framework density 17.385016
#
# number of rings (size 3 to 8) (size 9 to 14) (size 15 to 20)
#    0.000    0.769    4.615    7.154    0.000    0.000 
#    0.000    2.308    0.000    0.462    0.000    0.000 
#    0.000    2.462    0.000    0.000    0.000    0.000 
#
# Total GULP energy -145005.215539 kJ/mol
# GULP energy per Si atom -5577.123675 kJ/mol
# Density = 1.734545 g / cm^3
# Si number density = 17.385016 Si / 1000 Ang^3
#
#
#
# Elastic Constant Matrix: (Units=GPa)
#
#
# Indices 1 2 3 4 5 6 
#
# 1 107.2086 21.0179 16.8450 0.0000 -15.3677 0.0000
# 2 21.0179 89.4470 11.3401 0.0000 7.0337 0.0000
# 3 16.8450 11.3401 35.5359 0.0000 4.6493 0.0000
# 4 0.0000 0.0000 0.0000 17.5318 0.0000 -3.8102
# 5 -15.3677 7.0337 4.6493 0.0000 25.8752 0.0000
# 6 0.0000 0.0000 0.0000 -3.8102 0.0000 9.8963
#
#
#
# Elastic Compliance Matrix: (Units=1/GPa)
#
#
# Indices 1 2 3 4 5 6 
#
# 1 0.012120 -0.002794 -0.006037 0.000000 0.009042 0.000000
# 2 -0.002794 0.012463 -0.002041 0.000000 -0.004680 0.000000
# 3 -0.006037 -0.002041 0.032821 0.000000 -0.008928 0.000000
# 4 0.000000 0.000000 0.000000 0.062248 0.000000 0.023966
# 5 0.009042 -0.004680 -0.008928 0.000000 0.046894 0.000000
# 6 0.000000 0.000000 0.000000 0.023966 0.000000 0.110275
#
#
# Mechanical properties :
#
#
# Convention : Reuss Voigt Hill
#
# Bulk Modulus (GPa) = 28.04062 36.73304 32.38683
# Shear Modulus (GPa) = 16.10560 22.85989 19.48275
#
# Velocity S-wave (km/s) = 3.04700 3.63012 3.35126
# Velocity P-wave (km/s) = 5.34258 6.22457 5.80036
#
# Compressibility (1/GPa) = 0.03566255
#
# Stress axis : x y z
#
# Youngs Moduli (GPa) = 82.50841 80.23760 30.46789
#
# Poissons Ratio (x) = 0.22415 0.18393
# Poissons Ratio (y) = 0.23050 0.06217
# Poissons Ratio (z) = 0.49808 0.16373
#
# Static dielectric constant tensor:
#      x y z
#    x 1.664790 0.000000 -0.017490 
#    y 0.000000 1.612510 0.000000 
#    z -0.017490 0.000000 1.612230 
# 
# From -- ./inp_files/100170.got.cif
#   From: 2010.05.17/outbox.cif.g08.bks.cpg/sg12_51_cif.got.tgz:100170.got - 2010.06.03 13:09:07.
