data_PCOD9218018
_publ_section_title
;
Structure prediction by ZEFSAII (Michael W. Deem and Ramdas Pophale) SiO2 
 PCOD9218018
Probable space group: C 2/M
;
_chemical_formula_sum "Si O2"
_cell_formula_units_Z 48
_cell_length_a 10.211327
_cell_length_b 24.746465
_cell_length_c 15.739622
_cell_angle_alpha 90.000000
_cell_angle_beta 143.962613
_cell_angle_gamma 90.000000
_cell_volume 2339.904433
_symmetry_space_group_name_H-M "C 2/M"
_symmetry_group_IT_number 12
_symmetry_cell_setting 'monoclinic'
loop_
_space_group_symop_operation_xyz
x,y,z
-x,y,-z
-x,-y,-z
x,-y,z
1/2+x,1/2+y,z
1/2-x,1/2+y,-z
1/2-x,1/2-y,-z
1/2+x,1/2-y,z
loop_
_atom_site_type_symbol
_atom_site_label
_atom_site_fract_x
_atom_site_fract_y
_atom_site_fract_z
Si Si1 0.748179 0.900795 0.092608
Si Si2 0.160495 0.263414 0.237186
Si Si3 0.311931 0.400769 0.474091
Si Si4 0.002445 0.000000 0.315826
Si Si5 0.952678 0.808242 0.667178
Si Si6 0.500000 0.698401 0.000000
Si Si7 0.095210 0.369022 0.835029
O O1 0.877291 0.952507 0.194397
O O2 0.877558 0.847707 0.193071
O O3 0.500000 0.900703 0.000000
O O4 0.719294 0.898786 0.976559
O O5 0.395763 0.271582 0.314526
O O6 0.168839 0.227814 0.326471
O O7 0.999244 0.235224 0.083367
O O8 0.060514 0.321854 0.207297
O O9 0.500000 0.392771 0.500000
O O10 0.381560 0.452456 0.564468
O O11 0.308683 0.347942 0.532748
O O12 0.072390 0.406317 0.304804
O O13 0.717397 0.661396 0.120277
#
# Coordination Sequence:
#
# PCOD9218018 Si02
#       7
#     8   8   8   4   8   4   8
#     4  11  20  38  64  99 124 165 213 279 332 388
#     4  12  21  39  65  94 140 182 215 262 319 392
#     4  11  23  44  64  98 134 170 215 280 333 393
#     4  10  24  40  68  93 128 161 216 279 358 390
#     4  11  23  39  64  97 142 178 218 263 325 395
#     4  12  24  38  62 101 126 177 228 262 312 386
#     4  12  23  38  65  94 135 168 220 270 320 392
#
# _framework density 20.513660000000002
#
# number of rings (size 3 to 8) (size 9 to 14) (size 15 to 20)
#    0.000    0.667    6.667    3.000    0.000    1.333 
#    3.000    0.000    0.000    3.000    0.000    0.000 
#    0.000    0.000    0.000    0.000    0.000    0.000 
#
# Total GULP energy -133763.241386 kJ/mol
# GULP energy per Si atom -5573.468391 kJ/mol
# Density = 2.046697 g / cm^3
# Si number density = 20.513660 Si / 1000 Ang^3
#
#
#
# Elastic Constant Matrix: (Units=GPa)
#
#
# Indices 1 2 3 4 5 6 
#
# 1 56.6993 32.1261 28.4729 -0.0001 -12.6821 -0.0001
# 2 32.1261 109.9557 64.9421 0.0000 -16.6053 -0.0001
# 3 28.4729 64.9421 138.2834 -0.0001 -12.3025 0.0000
# 4 -0.0001 0.0000 -0.0001 29.1074 -0.0001 -3.1530
# 5 -12.6821 -16.6053 -12.3025 -0.0001 16.8902 0.0000
# 6 -0.0001 -0.0001 0.0000 -3.1530 0.0000 -2.0735
#
#
#
# Elastic Compliance Matrix: (Units=1/GPa)
#
#
# Indices 1 2 3 4 5 6 
#
# 1 0.023594 -0.003864 -0.001930 0.000000 0.012511 -0.000001
# 2 -0.003864 0.014515 -0.005357 0.000000 0.007467 0.000000
# 3 -0.001930 -0.005357 0.010209 0.000000 0.000720 0.000000
# 4 0.000000 0.000000 0.000000 0.029497 0.000000 -0.044853
# 5 0.012511 0.007467 0.000720 0.000000 0.076465 -0.000001
# 6 -0.000001 0.000000 0.000000 -0.044853 -0.000001 -0.414069
#
#
# Mechanical properties :
#
#
# Convention : Reuss Voigt Hill
#
# Bulk Modulus (GPa) = 38.43879 61.78005 50.10942
# Shear Modulus (GPa) = -21.85171 20.74462 -0.55354
#
# Velocity S-wave (km/s) = -3.26732 3.18348 -0.52003
# Velocity P-wave (km/s) = 2.13189 6.61019 4.91119
#
# Compressibility (1/GPa) = 0.02601539
#
# Stress axis : x y z
#
# Youngs Moduli (GPa) = 42.38367 68.89413 97.95516
#
# Poissons Ratio (x) = 0.26621 0.18909
# Poissons Ratio (y) = 0.16377 0.52472
# Poissons Ratio (z) = 0.08182 0.36905
#
# Static dielectric constant tensor:
#      x y z
#    x 1.739890 0.000000 -0.012800 
#    y 0.000000 1.690800 0.000000 
#    z -0.012800 0.000000 1.754880 
# 
# From -- ./inp_files/208021.got.cif
#   From: 2010.05.17/outbox.cif.g08.bks.cpg/sg12_105_cif.got.tgz:208021.got - 2010.06.03 13:09:07.
