data_PCOD9218434
_publ_section_title
;
Structure prediction by ZEFSAII (Michael W. Deem and Ramdas Pophale) SiO2 
 PCOD9218434
Probable space group: C 2/M
;
_chemical_formula_sum "Si O2"
_cell_formula_units_Z 32
_cell_length_a 10.356420
_cell_length_b 16.354192
_cell_length_c 8.722583
_cell_angle_alpha 90.000000
_cell_angle_beta 68.936969
_cell_angle_gamma 90.000000
_cell_volume 1378.643242
_symmetry_space_group_name_H-M "C 2/M"
_symmetry_group_IT_number 12
_symmetry_cell_setting 'monoclinic'
loop_
_space_group_symop_operation_xyz
x,y,z
-x,y,-z
-x,-y,-z
x,-y,z
1/2+x,1/2+y,z
1/2-x,1/2+y,-z
1/2-x,1/2-y,-z
1/2+x,1/2-y,z
loop_
_atom_site_type_symbol
_atom_site_label
_atom_site_fract_x
_atom_site_fract_y
_atom_site_fract_z
Si Si1 0.551559 0.500000 0.296547
Si Si2 0.655427 0.902313 0.373866
Si Si3 0.996823 0.339078 0.818787
Si Si4 0.374310 0.000000 0.177390
Si Si5 0.068668 0.832159 0.639005
O O1 0.500000 0.500000 0.500000
O O2 0.715308 0.500000 0.202610
O O3 0.495001 0.414392 0.258206
O O4 0.500000 0.886385 0.500000
O O5 0.644682 0.869803 0.202459
O O6 0.768845 0.851279 0.417514
O O7 0.681714 0.000000 0.368206
O O8 0.098992 0.416060 0.745292
O O9 0.036139 0.252043 0.735203
O O10 0.000000 0.330067 0.000000
O O11 0.500000 0.000000 0.000000
O O12 0.000000 0.826516 0.500000
#
# Coordination Sequence:
#
# PCOD9218434 Si02
#       5
#     4   8   8   4   8
#     4  10  24  45  76 104 149 191 243 308 376 428
#     4  11  25  44  75 108 141 192 251 302 371 447
#     4  11  26  47  72 102 147 195 251 296 369 449
#     4  10  24  49  71 103 146 202 240 301 373 445
#     4  11  26  47  71 110 149 188 239 317 375 429
#
# _framework density 23.211224999999999
#
# number of rings (size 3 to 8) (size 9 to 14) (size 15 to 20)
#    0.000    1.250    2.500    0.750   10.500    3.000 
#    4.500    0.625    0.000    0.000    0.000    0.000 
#    0.000    0.000    0.000    0.000    0.000    0.000 
#
# Total GULP energy -89390.290593 kJ/mol
# GULP energy per Si atom -5586.893162 kJ/mol
# Density = 2.315839 g / cm^3
# Si number density = 23.211225 Si / 1000 Ang^3
#
#
#
# Elastic Constant Matrix: (Units=GPa)
#
#
# Indices 1 2 3 4 5 6 
#
# 1 165.6892 59.9537 56.1234 0.0000 10.6882 0.0000
# 2 59.9537 261.1082 47.9719 0.0000 6.3977 0.0000
# 3 56.1234 47.9719 73.1012 0.0000 16.6038 0.0000
# 4 0.0000 0.0000 0.0000 27.2137 0.0000 11.2250
# 5 10.6882 6.3977 16.6038 0.0000 39.1658 0.0000
# 6 0.0000 0.0000 0.0000 11.2250 0.0000 8.2612
#
#
#
# Elastic Compliance Matrix: (Units=1/GPa)
#
#
# Indices 1 2 3 4 5 6 
#
# 1 0.008320 -0.000830 -0.005928 0.000000 0.000379 0.000000
# 2 -0.000830 0.004449 -0.002399 0.000000 0.000517 0.000000
# 3 -0.005928 -0.002399 0.021411 0.000000 -0.007067 0.000000
# 4 0.000000 0.000000 0.000000 0.083600 0.000000 -0.113593
# 5 0.000379 0.000517 -0.007067 0.000000 0.028341 0.000000
# 6 0.000000 0.000000 0.000000 -0.113593 0.000000 0.275393
#
#
# Mechanical properties :
#
#
# Convention : Reuss Voigt Hill
#
# Bulk Modulus (GPa) = 63.04001 91.99962 77.51982
# Shear Modulus (GPa) = 11.23300 37.31810 24.27555
#
# Velocity S-wave (km/s) = 2.20227 4.01404 3.23747
# Velocity P-wave (km/s) = 5.80387 7.82338 6.88804
#
# Compressibility (1/GPa) = 0.01586294
#
# Stress axis : x y z
#
# Youngs Moduli (GPa) = 120.19886 224.78829 46.70528
#
# Poissons Ratio (x) = 0.18665 0.27689
# Poissons Ratio (y) = 0.09981 0.11206
# Poissons Ratio (z) = 0.71259 0.53933
#
# Static dielectric constant tensor:
#      x y z
#    x 1.910680 0.000000 0.090310 
#    y 0.000000 1.861560 0.000000 
#    z 0.090310 0.000000 2.206100 
# 
# From -- ./inp_files/118134.got.cif
#   From: 2010.05.17/outbox.cif.g08.bks.cpg/sg12_60_cif.got.tgz:118134.got - 2010.06.03 13:09:07.
