data_PCOD9218220
_publ_section_title
;
Structure prediction by ZEFSAII (Michael W. Deem and Ramdas Pophale) SiO2 
 PCOD9218220
Probable space group: C 2/M
;
_chemical_formula_sum "Si O2"
_cell_formula_units_Z 24
_cell_length_a 7.977556
_cell_length_b 26.097357
_cell_length_c 5.985205
_cell_angle_alpha 90.000000
_cell_angle_beta 65.727528
_cell_angle_gamma 90.000000
_cell_volume 1135.926304
_symmetry_space_group_name_H-M "C 2/M"
_symmetry_group_IT_number 12
_symmetry_cell_setting 'monoclinic'
loop_
_space_group_symop_operation_xyz
x,y,z
-x,y,-z
-x,-y,-z
x,-y,z
1/2+x,1/2+y,z
1/2-x,1/2+y,-z
1/2-x,1/2-y,-z
1/2+x,1/2-y,z
loop_
_atom_site_type_symbol
_atom_site_label
_atom_site_fract_x
_atom_site_fract_y
_atom_site_fract_z
Si Si1 0.699307 0.100450 0.783929
Si Si2 0.500000 0.134897 0.500000
Si Si3 0.588617 0.500000 0.201112
Si Si4 0.293634 0.309098 0.019786
O O1 0.649521 0.100435 0.550285
O O2 0.804184 0.053549 0.835846
O O3 0.500000 0.098608 0.000000
O O4 0.785504 0.154797 0.805293
O O5 0.369916 0.169421 0.730390
O O6 0.500000 0.500000 0.500000
O O7 0.500000 0.500000 0.000000
O O8 0.500000 0.313920 0.000000
O O9 0.250000 0.250000 0.000000
#
# Coordination Sequence:
#
# PCOD9218220 Si02
#       4
#     8   4   4   8
#     4  10  24  44  68  96 139 183 238 294 357 432
#     4  10  24  43  68 100 134 189 232 294 368 420
#     4  12  29  45  72 108 142 191 244 298 364 433
#     4  11  24  42  68 100 139 181 239 295 358 432
#
# _framework density 21.128129000000001
#
# number of rings (size 3 to 8) (size 9 to 14) (size 15 to 20)
#    0.000    1.333    0.000    4.500   14.000    6.000 
#    0.000    0.000    0.000    0.000    0.000    0.000 
#    0.000    0.000    0.000    0.000    0.000    0.000 
#
# Total GULP energy -66857.207006 kJ/mol
# GULP energy per Si atom -5571.433917 kJ/mol
# Density = 2.108004 g / cm^3
# Si number density = 21.128129 Si / 1000 Ang^3
#
#
#
# Elastic Constant Matrix: (Units=GPa)
#
#
# Indices 1 2 3 4 5 6 
#
# 1 159.6786 76.4608 52.9238 0.0000 37.4534 0.0000
# 2 76.4608 159.4179 27.5199 0.0000 42.0408 0.0000
# 3 52.9238 27.5199 66.2518 0.0000 23.7903 0.0000
# 4 0.0000 0.0000 0.0000 17.0297 0.0000 13.4959
# 5 37.4534 42.0408 23.7903 0.0000 49.2044 0.0000
# 6 0.0000 0.0000 0.0000 13.4959 0.0000 49.3693
#
#
#
# Elastic Compliance Matrix: (Units=1/GPa)
#
#
# Indices 1 2 3 4 5 6 
#
# 1 0.010411 -0.003388 -0.006175 0.000000 -0.002044 0.000000
# 2 -0.003388 0.009263 0.000938 0.000000 -0.005788 0.000000
# 3 -0.006175 0.000938 0.022069 0.000000 -0.006771 0.000000
# 4 0.000000 0.000000 0.000000 0.074960 0.000000 -0.020492
# 5 -0.002044 -0.005788 -0.006771 0.000000 0.030098 0.000000
# 6 0.000000 0.000000 0.000000 -0.020492 0.000000 0.025857
#
#
# Mechanical properties :
#
#
# Convention : Reuss Voigt Hill
#
# Bulk Modulus (GPa) = 40.83202 77.68415 59.25809
# Shear Modulus (GPa) = 25.24304 38.35026 31.79665
#
# Velocity S-wave (km/s) = 3.46028 4.26505 3.88357
# Velocity P-wave (km/s) = 5.94412 7.81679 6.94387
#
# Compressibility (1/GPa) = 0.02449059
#
# Stress axis : x y z
#
# Youngs Moduli (GPa) = 96.04949 107.96145 45.31275
#
# Poissons Ratio (x) = 0.36582 0.27982
# Poissons Ratio (y) = 0.32546 -0.04249
# Poissons Ratio (z) = 0.59314 -0.10124
#
# Static dielectric constant tensor:
#      x y z
#    x 1.890300 0.000000 0.153600 
#    y 0.000000 3.108720 0.000000 
#    z 0.153600 0.000000 2.037000 
# 
# From -- ./inp_files/2767.got.cif
#   From: 2010.05.17/outbox.cif.g08.bks.cpg/sg12_2_cif.got.tgz:2767.got - 2010.06.03 13:09:07.
