data_PCOD9218231
_publ_section_title
;
Structure prediction by ZEFSAII (Michael W. Deem and Ramdas Pophale) SiO2 
 PCOD9218231
Probable space group: C 2/M
;
_chemical_formula_sum "Si O2"
_cell_formula_units_Z 56
_cell_length_a 13.677527
_cell_length_b 16.596684
_cell_length_c 19.613454
_cell_angle_alpha 90.000000
_cell_angle_beta 35.442931
_cell_angle_gamma 90.000000
_cell_volume 2581.843631
_symmetry_space_group_name_H-M "C 2/M"
_symmetry_group_IT_number 12
_symmetry_cell_setting 'monoclinic'
loop_
_space_group_symop_operation_xyz
x,y,z
-x,y,-z
-x,-y,-z
x,-y,z
1/2+x,1/2+y,z
1/2-x,1/2+y,-z
1/2-x,1/2-y,-z
1/2+x,1/2-y,z
loop_
_atom_site_type_symbol
_atom_site_label
_atom_site_fract_x
_atom_site_fract_y
_atom_site_fract_z
Si Si1 0.166768 0.356925 0.864909
Si Si2 0.028140 0.090276 0.669588
Si Si3 0.642420 0.683024 0.473136
Si Si4 0.422455 0.094340 0.234990
Si Si5 0.682104 0.861497 0.399435
Si Si6 0.348312 0.330243 0.161878
Si Si7 0.199635 0.094673 0.953650
O O1 0.340390 0.386166 0.799628
O O2 0.157948 0.391127 0.793285
O O3 0.165332 0.260311 0.858256
O O4 0.000000 0.382639 0.000000
O O5 0.084629 0.152486 0.579152
O O6 0.165349 0.093363 0.651158
O O7 0.023697 0.000000 0.642994
O O8 0.500000 0.655682 0.500000
O O9 0.818452 0.644628 0.349370
O O10 0.655338 0.778806 0.457212
O O11 0.618669 0.118727 0.120645
O O12 0.416050 0.000000 0.256147
O O13 0.500000 0.902891 0.500000
O O14 0.737635 0.838955 0.291742
O O15 0.295349 0.389514 0.130726
O O16 0.541955 0.352988 0.068620
O O17 0.170210 0.000000 0.983804
#
# Coordination Sequence:
#
# PCOD9218231 Si02
#       7
#     8   8   8   8   8   8   8
#     4  12  25  42  67 100 136 176 223 272 333 403
#     4  12  28  45  67  99 138 180 216 273 342 398
#     4  11  22  45  70  95 128 172 226 276 325 391
#     4  11  24  41  67  98 131 175 225 276 331 392
#     4  11  26  45  70  99 132 172 227 280 330 395
#     4  11  22  44  69  96 133 174 223 277 332 391
#     4  10  24  43  70 100 132 178 228 277 328 391
#
# _framework density 21.689926
#
# number of rings (size 3 to 8) (size 9 to 14) (size 15 to 20)
#    0.000    0.857    4.286    3.000    6.000    3.714 
#    0.000    0.000    0.000    0.000    0.000    0.000 
#    0.000    0.000    0.000    0.000    0.000    0.000 
#
# Total GULP energy -156673.253928 kJ/mol
# GULP energy per Si atom -5595.473355 kJ/mol
# Density = 2.164056 g / cm^3
# Si number density = 21.689926 Si / 1000 Ang^3
#
#
#
# Elastic Constant Matrix: (Units=GPa)
#
#
# Indices 1 2 3 4 5 6 
#
# 1 72.8520 1.2060 36.4346 -0.0007 -34.5705 -0.0001
# 2 1.2060 66.4965 22.5289 -0.0013 -16.7917 -0.0001
# 3 36.4346 22.5289 123.2622 -0.0029 -20.4524 0.0000
# 4 -0.0007 -0.0013 -0.0029 13.1726 0.0014 -10.1004
# 5 -34.5705 -16.7917 -20.4524 0.0014 48.3765 0.0001
# 6 -0.0001 -0.0001 0.0000 -10.1004 0.0001 6.2865
#
#
#
# Elastic Compliance Matrix: (Units=1/GPa)
#
#
# Indices 1 2 3 4 5 6 
#
# 1 0.024524 0.005747 -0.005442 0.000004 0.017219 0.000007
# 2 0.005747 0.018414 -0.003573 -0.000002 0.008988 -0.000004
# 3 -0.005442 -0.003573 0.010242 -0.000007 -0.000799 -0.000012
# 4 0.000004 -0.000002 -0.000007 -0.327291 0.000009 -0.525848
# 5 0.017219 0.008988 -0.000799 0.000009 0.035758 0.000015
# 6 0.000007 -0.000004 -0.000012 -0.525848 0.000015 -0.685794
#
#
# Mechanical properties :
#
#
# Convention : Reuss Voigt Hill
#
# Bulk Modulus (GPa) = 21.43879 42.54995 31.99437
# Shear Modulus (GPa) = -5.54286 27.06321 10.76017
#
# Velocity S-wave (km/s) = -1.60033 3.53616 2.22973
# Velocity P-wave (km/s) = 2.54773 6.02765 4.62728
#
# Compressibility (1/GPa) = 0.04664442
#
# Stress axis : x y z
#
# Youngs Moduli (GPa) = 40.77587 54.30528 97.63830
#
# Poissons Ratio (x) = -0.31211 0.53138
# Poissons Ratio (y) = -0.23435 0.34887
# Poissons Ratio (z) = 0.22192 0.19404
#
# Static dielectric constant tensor:
#      x y z
#    x 1.787940 0.000000 -0.032160 
#    y 0.000000 1.768760 0.000000 
#    z -0.032160 0.000000 1.774780 
# 
# From -- ./inp_files/311704.got.cif
#   From: 2010.05.17/outbox.cif.g08.bks.cpg/sg12_156_cif.got.tgz:311704.got - 2010.06.03 13:09:07.
