data_PCOD9218291
_publ_section_title
;
Structure prediction by ZEFSAII (Michael W. Deem and Ramdas Pophale) SiO2 
 PCOD9218291
Probable space group: C 2/M
;
_chemical_formula_sum "Si O2"
_cell_formula_units_Z 52
_cell_length_a 27.585795
_cell_length_b 9.493603
_cell_length_c 11.886913
_cell_angle_alpha 90.000000
_cell_angle_beta 126.413972
_cell_angle_gamma 90.000000
_cell_volume 2505.221530
_symmetry_space_group_name_H-M "C 2/M"
_symmetry_group_IT_number 12
_symmetry_cell_setting 'monoclinic'
loop_
_space_group_symop_operation_xyz
x,y,z
-x,y,-z
-x,-y,-z
x,-y,z
1/2+x,1/2+y,z
1/2-x,1/2+y,-z
1/2-x,1/2-y,-z
1/2+x,1/2-y,z
loop_
_atom_site_type_symbol
_atom_site_label
_atom_site_fract_x
_atom_site_fract_y
_atom_site_fract_z
Si Si1 0.602122 0.161720 0.599473
Si Si2 0.436665 0.834253 0.846190
Si Si3 0.529764 0.664618 0.328339
Si Si4 0.210793 0.289218 0.580085
Si Si5 0.887931 0.162425 0.167164
Si Si6 0.749547 0.000000 0.450977
Si Si7 0.157402 0.162159 0.137509
O O1 0.551682 0.257972 0.471043
O O2 0.658107 0.168134 0.591162
O O3 0.620659 0.230961 0.742890
O O4 0.582705 0.000000 0.586596
O O5 0.442384 0.747014 0.739070
O O6 0.385001 0.767403 0.852463
O O7 0.426564 0.000000 0.811470
O O8 0.500000 0.820461 0.000000
O O9 0.546536 0.500000 0.351046
O O10 0.457391 0.673017 0.222993
O O11 0.210519 0.124811 0.552992
O O12 0.210650 0.378076 0.465412
O O13 0.274816 0.326258 0.725669
O O14 0.877718 0.000000 0.189148
O O15 0.847912 0.191761 0.002287
O O16 0.136884 0.000000 0.127847
#
# Coordination Sequence:
#
# PCOD9218291 Si02
#       7
#     8   8   8   8   8   4   8
#     4  12  26  43  66  96 131 169 218 271 323 383
#     4  11  24  39  62  98 135 167 211 265 327 382
#     4  11  24  42  67  95 127 171 222 271 321 386
#     4  11  25  43  66 102 126 175 207 267 318 389
#     4  10  24  45  66  92 127 172 223 267 317 386
#     4  10  24  44  66  88 142 160 214 256 322 380
#     4  11  23  43  68  94 133 175 215 265 319 390
#
# _framework density 20.756646
#
# number of rings (size 3 to 8) (size 9 to 14) (size 15 to 20)
#    0.000    1.077    3.077    1.846    7.538    4.923 
#    0.000    0.000    0.000    0.000    0.000    0.000 
#    0.000    0.000    0.000    0.000    0.000    0.000 
#
# Total GULP energy -145002.597628 kJ/mol
# GULP energy per Si atom -5577.022986 kJ/mol
# Density = 2.070940 g / cm^3
# Si number density = 20.756646 Si / 1000 Ang^3
#
#
#
# Elastic Constant Matrix: (Units=GPa)
#
#
# Indices 1 2 3 4 5 6 
#
# 1 36.4087 18.6063 12.7685 0.0000 -5.0156 0.0000
# 2 18.6063 181.5409 42.3541 0.0000 -27.3969 0.0000
# 3 12.7685 42.3541 91.1495 0.0000 -3.7521 0.0000
# 4 0.0000 0.0000 0.0000 -35.2679 0.0000 -1.8948
# 5 -5.0156 -27.3969 -3.7521 0.0000 31.1308 0.0000
# 6 0.0000 0.0000 0.0000 -1.8948 0.0000 28.1931
#
#
#
# Elastic Compliance Matrix: (Units=1/GPa)
#
#
# Indices 1 2 3 4 5 6 
#
# 1 0.029941 -0.001907 -0.003195 0.000000 0.002761 0.000000
# 2 -0.001907 0.007233 -0.002859 0.000000 0.005714 0.000000
# 3 -0.003195 -0.002859 0.012685 0.000000 -0.001502 0.000000
# 4 0.000000 0.000000 0.000000 -0.028252 0.000000 -0.001899
# 5 0.002761 0.005714 -0.001502 0.000000 0.037415 0.000000
# 6 0.000000 0.000000 0.000000 -0.001899 0.000000 0.035342
#
#
# Mechanical properties :
#
#
# Convention : Reuss Voigt Hill
#
# Bulk Modulus (GPa) = 29.46452 50.72857 40.09654
# Shear Modulus (GPa) = 41.11960 20.50255 30.81108
#
# Velocity S-wave (km/s) = 4.45571 3.14627 3.85697
# Velocity P-wave (km/s) = 6.37943 6.13933 6.26053
#
# Compressibility (1/GPa) = 0.03393913
#
# Stress axis : x y z
#
# Youngs Moduli (GPa) = 33.39896 138.25456 78.83325
#
# Poissons Ratio (x) = 0.26361 0.25184
# Poissons Ratio (y) = 0.06368 0.22536
# Poissons Ratio (z) = 0.10670 0.39522
#
# Static dielectric constant tensor:
#      x y z
#    x 1.720900 0.000000 0.020110 
#    y 0.000000 1.728520 0.000000 
#    z 0.020110 0.000000 1.769080 
# 
# From -- ./inp_files/181217.got.cif
#   From: 2010.05.17/outbox.cif.g08.bks.cpg/sg12_91_cif.got.tgz:181217.got - 2010.06.03 13:09:07.
