data_PCOD9218806
_publ_section_title
;
Structure prediction by ZEFSAII (Michael W. Deem and Ramdas Pophale) SiO2 
 PCOD9218806
Probable space group: C 2/M
;
_chemical_formula_sum "Si O2"
_cell_formula_units_Z 40
_cell_length_a 11.499615
_cell_length_b 14.866391
_cell_length_c 24.223046
_cell_angle_alpha 90.000000
_cell_angle_beta 156.742575
_cell_angle_gamma 90.000000
_cell_volume 1635.173944
_symmetry_space_group_name_H-M "C 2/M"
_symmetry_group_IT_number 12
_symmetry_cell_setting 'monoclinic'
loop_
_space_group_symop_operation_xyz
x,y,z
-x,y,-z
-x,-y,-z
x,-y,z
1/2+x,1/2+y,z
1/2-x,1/2+y,-z
1/2-x,1/2-y,-z
1/2+x,1/2-y,z
loop_
_atom_site_type_symbol
_atom_site_label
_atom_site_fract_x
_atom_site_fract_y
_atom_site_fract_z
Si Si1 0.836461 0.157308 0.601920
Si Si2 0.105309 0.298034 0.215189
Si Si3 0.668792 0.141222 0.357875
Si Si4 0.415256 0.897325 0.902191
Si Si5 0.214249 0.598452 0.703841
O O1 0.793976 0.254085 0.609921
O O2 0.540955 0.111089 0.453476
O O3 0.044940 0.177617 0.639646
O O4 0.060409 0.104747 0.739107
O O5 0.017387 0.351752 0.231534
O O6 0.977642 0.336213 0.102273
O O7 0.097135 0.190246 0.215543
O O8 0.459344 0.101098 0.313220
O O9 0.000000 0.102158 0.500000
O O10 0.510173 0.000000 0.936468
O O11 0.500000 0.865557 0.000000
O O12 0.352956 0.500000 0.758652
#
# Coordination Sequence:
#
# PCOD9218806 Si02
#       5
#     8   8   8   8   8
#     4   9  18  31  48  73 106 133 160 209 256 300
#     4   9  19  33  50  72 107 131 167 210 260 299
#     4  11  16  31  51  74 104 138 167 205 252 313
#     4   9  18  34  55  73  94 130 174 216 256 297
#     4  11  20  31  50  78 109 138 169 204 255 310
#
# _framework density 24.462230000000002
#
# number of rings (size 3 to 8) (size 9 to 14) (size 15 to 20)
#    1.200    1.000    4.000    1.800    0.000    1.200 
#    0.000    4.000    0.000    0.600    0.000    0.000 
#    0.000    0.000    0.000    0.000    0.000    0.000 
#
# Total GULP energy -111734.434231 kJ/mol
# GULP energy per Si atom -5586.721712 kJ/mol
# Density = 2.440655 g / cm^3
# Si number density = 24.462230 Si / 1000 Ang^3
#
#
#
# Elastic Constant Matrix: (Units=GPa)
#
#
# Indices 1 2 3 4 5 6 
#
# 1 80.8021 25.7327 47.4469 0.0028 -30.6593 0.0045
# 2 25.7327 138.8859 55.4232 0.0039 -18.6454 -0.0075
# 3 47.4469 55.4232 173.1854 0.0286 -36.7932 -0.0384
# 4 0.0028 0.0039 0.0286 17.1846 0.0033 -18.6540
# 5 -30.6593 -18.6454 -36.7932 0.0033 59.1786 0.0048
# 6 0.0045 -0.0075 -0.0384 -18.6540 0.0048 20.4747
#
#
#
# Elastic Compliance Matrix: (Units=1/GPa)
#
#
# Indices 1 2 3 4 5 6 
#
# 1 0.016934 -0.001098 -0.002878 -0.001003 0.006638 -0.000925
# 2 -0.001098 0.008389 -0.002239 0.000067 0.000682 0.000060
# 3 -0.002878 -0.002239 0.007849 0.000228 0.002684 0.000221
# 4 -0.001003 0.000067 0.000228 5.282852 -0.001035 4.813097
# 5 0.006638 0.000682 0.002684 -0.001035 0.022221 -0.000944
# 6 -0.000925 0.000060 0.000221 4.813097 -0.000944 4.433953
#
#
# Mechanical properties :
#
#
# Convention : Reuss Voigt Hill
#
# Bulk Modulus (GPa) = 48.20904 72.23099 60.22001
# Shear Modulus (GPa) = 0.51064 36.98561 18.74813
#
# Velocity S-wave (km/s) = 0.45739 3.89260 2.77142
# Velocity P-wave (km/s) = 4.47541 7.05654 5.90864
#
# Compressibility (1/GPa) = 0.02074300
#
# Stress axis : x y z
#
# Youngs Moduli (GPa) = 59.05164 119.20969 127.40140
#
# Poissons Ratio (x) = 0.13089 0.36663
# Poissons Ratio (y) = 0.06484 0.28522
# Poissons Ratio (z) = 0.16994 0.26688
#
# Static dielectric constant tensor:
#      x y z
#    x 2.027080 0.000000 -0.001290 
#    y 0.000000 1.888910 0.000000 
#    z -0.001290 0.000000 1.967130 
# 
# From -- ./inp_files/305215.got.cif
#   From: 2010.05.17/outbox.cif.g08.bks.cpg/sg12_153_cif.got.tgz:305215.got - 2010.06.03 13:09:07.
