data_PCOD9218344
_publ_section_title
;
Structure prediction by ZEFSAII (Michael W. Deem and Ramdas Pophale) SiO2 
 PCOD9218344
Probable space group: C 2/M
;
_chemical_formula_sum "Si O2"
_cell_formula_units_Z 32
_cell_length_a 8.098267
_cell_length_b 22.529121
_cell_length_c 12.811684
_cell_angle_alpha 90.000000
_cell_angle_beta 35.612767
_cell_angle_gamma 90.000000
_cell_volume 1361.107515
_symmetry_space_group_name_H-M "C 2/M"
_symmetry_group_IT_number 12
_symmetry_cell_setting 'monoclinic'
loop_
_space_group_symop_operation_xyz
x,y,z
-x,y,-z
-x,-y,-z
x,-y,z
1/2+x,1/2+y,z
1/2-x,1/2+y,-z
1/2-x,1/2-y,-z
1/2+x,1/2-y,z
loop_
_atom_site_type_symbol
_atom_site_label
_atom_site_fract_x
_atom_site_fract_y
_atom_site_fract_z
Si Si1 0.069783 0.729172 0.305387
Si Si2 0.691613 0.121418 0.109946
Si Si3 0.222105 0.066657 0.478928
Si Si4 0.505144 0.341886 0.236404
O O1 0.054018 0.683618 0.217121
O O2 0.273944 0.694858 0.283056
O O3 0.180163 0.792133 0.208785
O O4 0.750000 0.750000 0.500000
O O5 0.512278 0.073839 0.265898
O O6 0.771176 0.121252 0.947954
O O7 0.000000 0.119953 0.000000
O O8 0.000000 0.076720 0.500000
O O9 0.165860 0.114850 0.597747
O O10 0.193251 0.000000 0.535779
#
# Coordination Sequence:
#
# PCOD9218344 Si02
#       4
#     8   8   8   8
#     4  11  22  40  71 105 148 188 233 285 364 439
#     4  10  24  44  71 110 148 185 241 299 366 433
#     4  11  27  51  76 103 142 198 254 301 358 430
#     4  11  25  45  71 111 147 191 237 300 367 433
#
# _framework density 23.510268
#
# number of rings (size 3 to 8) (size 9 to 14) (size 15 to 20)
#    0.000    1.250    2.500    1.500    7.000    2.500 
#    0.000   11.250    0.000    0.000    0.000    0.000 
#    0.000    0.000    0.000    0.000    0.000    0.000 
#
# Total GULP energy -89289.740398 kJ/mol
# GULP energy per Si atom -5580.608775 kJ/mol
# Density = 2.345676 g / cm^3
# Si number density = 23.510268 Si / 1000 Ang^3
#
#
#
# Elastic Constant Matrix: (Units=GPa)
#
#
# Indices 1 2 3 4 5 6 
#
# 1 84.7214 61.2558 38.5897 0.0000 9.3222 0.0000
# 2 61.2558 116.4211 25.0138 0.0000 17.9054 0.0000
# 3 38.5897 25.0138 138.6660 0.0000 18.0657 0.0000
# 4 0.0000 0.0000 0.0000 40.8714 0.0000 -23.7733
# 5 9.3222 17.9054 18.0657 0.0000 34.0300 0.0000
# 6 0.0000 0.0000 0.0000 -23.7733 0.0000 83.8714
#
#
#
# Elastic Compliance Matrix: (Units=1/GPa)
#
#
# Indices 1 2 3 4 5 6 
#
# 1 0.021108 -0.010502 -0.004240 0.000000 0.001994 0.000000
# 2 -0.010502 0.014737 0.000967 0.000000 -0.005390 0.000000
# 3 -0.004240 0.000967 0.008736 0.000000 -0.003985 0.000000
# 4 0.000000 0.000000 0.000000 0.029297 0.000000 0.008304
# 5 0.001994 -0.005390 -0.003985 0.000000 0.033791 0.000000
# 6 0.000000 0.000000 0.000000 0.008304 0.000000 0.014277
#
#
# Mechanical properties :
#
#
# Convention : Reuss Voigt Hill
#
# Bulk Modulus (GPa) = 58.71695 65.50300 62.10997
# Shear Modulus (GPa) = 32.22192 46.08449 39.15320
#
# Velocity S-wave (km/s) = 3.70611 4.43220 4.08532
# Velocity P-wave (km/s) = 6.58353 7.35625 6.98059
#
# Compressibility (1/GPa) = 0.01703086
#
# Stress axis : x y z
#
# Youngs Moduli (GPa) = 47.37459 67.85839 114.46555
#
# Poissons Ratio (x) = 0.71266 0.48529
# Poissons Ratio (y) = 0.49753 -0.11064
# Poissons Ratio (z) = 0.20085 -0.06559
#
# Static dielectric constant tensor:
#      x y z
#    x 2.010380 0.000000 0.176090 
#    y 0.000000 1.911960 0.000000 
#    z 0.176090 0.000000 2.649130 
# 
# From -- ./inp_files/198738.got.cif
#   From: 2010.05.17/outbox.cif.g08.bks.cpg/sg12_100_cif.got.tgz:198738.got - 2010.06.03 13:09:07.
