data_PCOD9218717
_publ_section_title
;
Structure prediction by ZEFSAII (Michael W. Deem and Ramdas Pophale) SiO2 
 PCOD9218717
Probable space group: C 2/M
;
_chemical_formula_sum "Si O2"
_cell_formula_units_Z 52
_cell_length_a 9.265752
_cell_length_b 22.669300
_cell_length_c 21.243735
_cell_angle_alpha 90.000000
_cell_angle_beta 143.447553
_cell_angle_gamma 90.000000
_cell_volume 2657.504368
_symmetry_space_group_name_H-M "C 2/M"
_symmetry_group_IT_number 12
_symmetry_cell_setting 'monoclinic'
loop_
_space_group_symop_operation_xyz
x,y,z
-x,y,-z
-x,-y,-z
x,-y,z
1/2+x,1/2+y,z
1/2-x,1/2+y,-z
1/2-x,1/2-y,-z
1/2+x,1/2-y,z
loop_
_atom_site_type_symbol
_atom_site_label
_atom_site_fract_x
_atom_site_fract_y
_atom_site_fract_z
Si Si1 0.457278 0.119975 0.841274
Si Si2 0.368397 0.685614 0.053406
Si Si3 0.042941 0.183161 0.771983
Si Si4 0.719907 0.688050 0.525927
Si Si5 0.224877 0.898341 0.409963
Si Si6 0.816991 0.000000 0.251561
Si Si7 0.440156 0.816633 0.243577
O O1 0.265993 0.166105 0.804678
O O2 0.461678 0.133753 0.768677
O O3 0.382285 0.053421 0.828717
O O4 0.714292 0.138922 0.960108
O O5 0.366883 0.669490 0.126521
O O6 0.651088 0.686175 0.135845
O O7 0.250000 0.750000 0.000000
O O8 0.973307 0.251610 0.746681
O O9 0.827084 0.145185 0.667136
O O10 0.500000 0.689960 0.500000
O O11 0.750000 0.750000 0.500000
O O12 0.687257 0.638776 0.460909
O O13 0.958491 0.675334 0.651184
O O14 0.500000 0.919474 0.500000
O O15 0.026061 0.948888 0.336283
#
# Coordination Sequence:
#
# PCOD9218717 Si02
#       7
#     8   8   8   8   8   4   8
#     4  11  24  42  65  93 133 179 224 272 328 403
#     4  12  23  37  64  99 137 171 214 276 348 402
#     4  11  21  37  63  98 136 165 215 275 345 402
#     4  12  25  39  64 101 141 177 215 278 350 401
#     4  11  23  44  70  97 132 180 230 281 331 399
#     4  10  25  48  69  92 135 194 233 262 328 414
#     4  12  23  38  63 101 136 171 217 276 343 403
#
# _framework density 19.567229999999999
#
# number of rings (size 3 to 8) (size 9 to 14) (size 15 to 20)
#    0.000    0.615    4.615    4.385    2.154    0.000 
#    0.000   11.154    0.000    0.000    0.000    0.000 
#    0.000    0.000    0.000    0.000    0.000    0.000 
#
# Total GULP energy -144816.757143 kJ/mol
# GULP energy per Si atom -5569.875275 kJ/mol
# Density = 1.952269 g / cm^3
# Si number density = 19.567230 Si / 1000 Ang^3
#
#
#
# Elastic Constant Matrix: (Units=GPa)
#
#
# Indices 1 2 3 4 5 6 
#
# 1 75.4554 23.1895 21.4183 0.0000 -13.4858 0.0001
# 2 23.1895 115.6420 48.9770 -0.0002 4.6180 0.0000
# 3 21.4183 48.9770 135.9491 -0.0001 -9.3167 -0.0001
# 4 0.0000 -0.0002 -0.0001 41.2603 0.0001 17.9036
# 5 -13.4858 4.6180 -9.3167 0.0001 36.3393 0.0000
# 6 0.0001 0.0000 -0.0001 17.9036 0.0000 9.3810
#
#
#
# Elastic Compliance Matrix: (Units=1/GPa)
#
#
# Indices 1 2 3 4 5 6 
#
# 1 0.015478 -0.002921 -0.000984 0.000000 0.005863 -0.000001
# 2 -0.002921 0.010944 -0.003718 0.000000 -0.003428 0.000000
# 3 -0.000984 -0.003718 0.009016 0.000000 0.002419 0.000001
# 4 0.000000 0.000000 0.000000 0.141015 0.000000 -0.269126
# 5 0.005863 -0.003428 0.002419 0.000000 0.030750 0.000000
# 6 -0.000001 0.000000 0.000001 -0.269126 0.000000 0.620222
#
#
# Mechanical properties :
#
#
# Convention : Reuss Voigt Hill
#
# Bulk Modulus (GPa) = 49.52395 57.13510 53.32953
# Shear Modulus (GPa) = 5.88650 32.96025 19.42337
#
# Velocity S-wave (km/s) = 1.73634 4.10867 3.15405
# Velocity P-wave (km/s) = 5.42074 7.19521 6.37006
#
# Compressibility (1/GPa) = 0.02019225
#
# Stress axis : x y z
#
# Youngs Moduli (GPa) = 64.60874 91.37029 110.91608
#
# Poissons Ratio (x) = 0.26689 0.10919
# Poissons Ratio (y) = 0.18872 0.41234
# Poissons Ratio (z) = 0.06360 0.33968
#
# Static dielectric constant tensor:
#      x y z
#    x 1.756350 0.000000 0.014370 
#    y 0.000000 1.708330 0.000000 
#    z 0.014370 0.000000 1.725430 
# 
# From -- ./inp_files/302383.got.cif
#   From: 2010.05.17/outbox.cif.g08.bks.cpg/sg12_152_cif.got.tgz:302383.got - 2010.06.03 13:09:07.
