data_PCOD9218062
_publ_section_title
;
Structure prediction by ZEFSAII (Michael W. Deem and Ramdas Pophale) SiO2 
 PCOD9218062
Probable space group: C 2/M
;
_chemical_formula_sum "Si O2"
_cell_formula_units_Z 44
_cell_length_a 17.730126
_cell_length_b 18.937191
_cell_length_c 5.726621
_cell_angle_alpha 90.000000
_cell_angle_beta 78.458671
_cell_angle_gamma 90.000000
_cell_volume 1883.886252
_symmetry_space_group_name_H-M "C 2/M"
_symmetry_group_IT_number 12
_symmetry_cell_setting 'monoclinic'
loop_
_space_group_symop_operation_xyz
x,y,z
-x,y,-z
-x,-y,-z
x,-y,z
1/2+x,1/2+y,z
1/2-x,1/2+y,-z
1/2-x,1/2-y,-z
1/2+x,1/2-y,z
loop_
_atom_site_type_symbol
_atom_site_label
_atom_site_fract_x
_atom_site_fract_y
_atom_site_fract_z
Si Si1 0.652934 0.378276 0.812180
Si Si2 0.781198 0.579641 0.427551
Si Si3 0.956116 0.000000 0.278097
Si Si4 0.301915 0.300385 0.811422
Si Si5 0.427011 0.741508 0.418507
Si Si6 0.038676 0.602421 0.725483
O O1 0.739456 0.404596 0.701614
O O2 0.598592 0.432772 0.716100
O O3 0.621678 0.304868 0.729366
O O4 0.649330 0.361422 0.085865
O O5 0.755653 0.500000 0.368679
O O6 0.751458 0.649608 0.312639
O O7 0.872705 0.579588 0.350690
O O8 0.000000 0.000000 0.500000
O O9 0.000000 0.000000 0.000000
O O10 0.361989 0.247735 0.653809
O O11 0.250000 0.250000 0.000000
O O12 0.500000 0.705557 0.500000
O O13 0.458867 0.812294 0.285989
O O14 0.000000 0.581079 0.500000
O O15 0.000000 0.581893 0.000000
#
# Coordination Sequence:
#
# PCOD9218062 Si02
#       6
#     8   8   4   8   8   8
#     4  11  25  43  72 103 144 197 245 300 376 444
#     4  11  26  47  71 102 150 192 251 304 375 449
#     4  12  30  46  74 106 154 191 250 303 368 452
#     4  11  25  43  73 107 142 194 254 308 373 445
#     4  10  24  41  69 102 144 183 243 300 374 428
#     4  11  27  47  75 110 145 190 248 313 378 442
#
# _framework density 23.355976999999999
#
# number of rings (size 3 to 8) (size 9 to 14) (size 15 to 20)
#    0.000    1.091    0.909    2.727   21.636    3.636 
#    0.000    0.000    0.000    0.000    0.000    0.000 
#    0.000    0.000    0.000    0.000    0.000    0.000 
#
# Total GULP energy -122632.676303 kJ/mol
# GULP energy per Si atom -5574.212559 kJ/mol
# Density = 2.330282 g / cm^3
# Si number density = 23.355977 Si / 1000 Ang^3
#
#
#
# Elastic Constant Matrix: (Units=GPa)
#
#
# Indices 1 2 3 4 5 6 
#
# 1 120.3491 14.5665 53.5938 0.0000 -8.3150 0.0000
# 2 14.5665 96.7225 19.7910 0.0000 1.2814 0.0000
# 3 53.5938 19.7910 112.1440 0.0000 -9.6183 0.0000
# 4 0.0000 0.0000 0.0000 -13.1666 0.0000 -6.9903
# 5 -8.3150 1.2814 -9.6183 0.0000 27.7399 0.0000
# 6 0.0000 0.0000 0.0000 -6.9903 0.0000 30.5089
#
#
#
# Elastic Compliance Matrix: (Units=1/GPa)
#
#
# Indices 1 2 3 4 5 6 
#
# 1 0.010650 -0.000633 -0.004846 0.000000 0.001541 0.000000
# 2 -0.000633 0.010802 -0.001714 0.000000 -0.001283 0.000000
# 3 -0.004846 -0.001714 0.011768 0.000000 0.002707 0.000000
# 4 0.000000 0.000000 0.000000 -0.067713 0.000000 -0.015515
# 5 0.001541 -0.001283 0.002707 0.000000 0.037509 0.000000
# 6 0.000000 0.000000 0.000000 -0.015515 0.000000 0.029223
#
#
# Mechanical properties :
#
#
# Convention : Reuss Voigt Hill
#
# Bulk Modulus (GPa) = 53.09417 56.12425 54.60921
# Shear Modulus (GPa) = 94.51531 25.10074 59.80802
#
# Velocity S-wave (km/s) = 6.36829 3.28182 5.06584
# Velocity P-wave (km/s) = 8.76672 6.20021 7.59269
#
# Compressibility (1/GPa) = 0.01883446
#
# Stress axis : x y z
#
# Youngs Moduli (GPa) = 93.89491 92.57673 84.97921
#
# Poissons Ratio (x) = 0.05858 0.41180
# Poissons Ratio (y) = 0.05942 0.14565
# Poissons Ratio (z) = 0.45500 0.15867
#
# Static dielectric constant tensor:
#      x y z
#    x 1.900150 0.000000 -0.014540 
#    y 0.000000 1.912370 0.000000 
#    z -0.014540 0.000000 2.195610 
# 
# From -- ./inp_files/16073.got.cif
#   From: 2010.05.17/outbox.cif.g08.bks.cpg/sg12_9_cif.got.tgz:16073.got - 2010.06.03 13:09:07.
