data_PCOD9218984
_publ_section_title
;
Structure prediction by ZEFSAII (Michael W. Deem and Ramdas Pophale) SiO2 
 PCOD9218984
Probable space group: C 2/M
;
_chemical_formula_sum "Si O2"
_cell_formula_units_Z 52
_cell_length_a 15.386962
_cell_length_b 23.884452
_cell_length_c 8.993659
_cell_angle_alpha 90.000000
_cell_angle_beta 80.369238
_cell_angle_gamma 90.000000
_cell_volume 3258.668981
_symmetry_space_group_name_H-M "C 2/M"
_symmetry_group_IT_number 12
_symmetry_cell_setting 'monoclinic'
loop_
_space_group_symop_operation_xyz
x,y,z
-x,y,-z
-x,-y,-z
x,-y,z
1/2+x,1/2+y,z
1/2-x,1/2+y,-z
1/2-x,1/2-y,-z
1/2+x,1/2-y,z
loop_
_atom_site_type_symbol
_atom_site_label
_atom_site_fract_x
_atom_site_fract_y
_atom_site_fract_z
Si Si1 0.000000 0.271101 0.000000
Si Si2 0.167085 0.879780 0.977192
Si Si3 0.459011 0.500000 0.352557
Si Si4 0.881055 0.878254 0.348375
Si Si5 0.199049 0.696731 0.935065
Si Si6 0.047823 0.809008 0.243341
Si Si7 0.708387 0.703105 0.403815
Si Si8 0.407212 0.500000 0.939888
O O1 0.905394 0.300316 0.019194
O O2 0.998946 0.235143 0.152302
O O3 0.149555 0.864927 0.811028
O O4 0.262219 0.858007 0.996849
O O5 0.102396 0.846442 0.108386
O O6 0.146723 0.944651 0.007769
O O7 0.500000 0.500000 0.500000
O O8 0.400715 0.444364 0.347136
O O9 0.549830 0.500000 0.233142
O O10 0.815813 0.851336 0.488946
O O11 0.975214 0.847919 0.339194
O O12 0.225984 0.694947 0.753982
O O13 0.250000 0.750000 0.000000
O O14 0.116248 0.783515 0.342862
O O15 0.750000 0.750000 0.500000
O O16 0.500000 0.500000 0.000000
#
# Coordination Sequence:
#
# PCOD9218984 Si02
#       8
#     4   8   4   8   8   8   8   4
#     4  12  20  36  64  78 108 152 202 242 280 336
#     4  11  20  35  56  81 115 150 195 232 273 342
#     4  12  24  32  52  86 119 152 190 227 288 352
#     4  12  21  35  53  83 120 153 184 229 283 348
#     4  11  22  38  57  82 109 150 197 239 284 343
#     4  11  19  33  56  80 108 155 191 226 277 343
#     4  11  23  34  50  78 119 151 183 234 290 341
#     4  12  20  36  58  83 113 158 197 223 279 357
#
# _framework density 15.957436
#
# number of rings (size 3 to 8) (size 9 to 14) (size 15 to 20)
#    0.000    0.615    7.692    3.231    2.154    0.000 
#    0.000    0.000    0.000    0.462    0.000    0.000 
#    0.000    2.462    0.000    0.000    0.000    0.000 
#
# Total GULP energy -144959.359703 kJ/mol
# GULP energy per Si atom -5575.359989 kJ/mol
# Density = 1.592112 g / cm^3
# Si number density = 15.957436 Si / 1000 Ang^3
#
#
#
# Elastic Constant Matrix: (Units=GPa)
#
#
# Indices 1 2 3 4 5 6 
#
# 1 119.1620 64.3794 38.5407 0.0000 4.8302 0.0000
# 2 64.3794 91.1891 32.4792 0.0000 3.4231 0.0000
# 3 38.5407 32.4792 115.0601 0.0000 9.6698 0.0000
# 4 0.0000 0.0000 0.0000 21.0461 0.0000 -3.2882
# 5 4.8302 3.4231 9.6698 0.0000 35.1131 0.0000
# 6 0.0000 0.0000 0.0000 -3.2882 0.0000 25.2252
#
#
#
# Elastic Compliance Matrix: (Units=1/GPa)
#
#
# Indices 1 2 3 4 5 6 
#
# 1 0.014022 -0.009142 -0.002077 0.000000 -0.000466 0.000000
# 2 -0.009142 0.018155 -0.002067 0.000000 0.000057 0.000000
# 3 -0.002077 -0.002067 0.010165 0.000000 -0.002312 0.000000
# 4 0.000000 0.000000 0.000000 0.048502 0.000000 0.006322
# 5 -0.000466 0.000057 -0.002312 0.000000 0.029175 0.000000
# 6 0.000000 0.000000 0.000000 0.006322 0.000000 0.040467
#
#
# Mechanical properties :
#
#
# Convention : Reuss Voigt Hill
#
# Bulk Modulus (GPa) = 63.41776 66.24552 64.83164
# Shear Modulus (GPa) = 25.99916 28.94435 27.47176
#
# Velocity S-wave (km/s) = 4.04082 4.26355 4.15368
# Velocity P-wave (km/s) = 7.84850 8.11426 7.98249
#
# Compressibility (1/GPa) = 0.01576845
#
# Stress axis : x y z
#
# Youngs Moduli (GPa) = 71.31785 55.08218 98.37992
#
# Poissons Ratio (x) = 0.50357 0.20433
# Poissons Ratio (y) = 0.65199 0.20338
# Poissons Ratio (z) = 0.14813 0.11387
#
# Static dielectric constant tensor:
#      x y z
#    x 1.541250 0.000000 0.006860 
#    y 0.000000 1.532000 0.000000 
#    z 0.006860 0.000000 1.549030 
# 
# From -- ./inp_files/64769.got.cif
#   From: 2010.05.17/outbox.cif.g08.bks.cpg/sg12_33_cif.got.tgz:64769.got - 2010.06.03 13:09:07.
