data_PCOD9218175
_publ_section_title
;
Structure prediction by ZEFSAII (Michael W. Deem and Ramdas Pophale) SiO2 
 PCOD9218175
Probable space group: C 2/M
;
_chemical_formula_sum "Si O2"
_cell_formula_units_Z 48
_cell_length_a 8.904757
_cell_length_b 30.545658
_cell_length_c 16.291633
_cell_angle_alpha 90.000000
_cell_angle_beta 31.119836
_cell_angle_gamma 90.000000
_cell_volume 2290.254117
_symmetry_space_group_name_H-M "C 2/M"
_symmetry_group_IT_number 12
_symmetry_cell_setting 'monoclinic'
loop_
_space_group_symop_operation_xyz
x,y,z
-x,y,-z
-x,-y,-z
x,-y,z
1/2+x,1/2+y,z
1/2-x,1/2+y,-z
1/2-x,1/2-y,-z
1/2+x,1/2-y,z
loop_
_atom_site_type_symbol
_atom_site_label
_atom_site_fract_x
_atom_site_fract_y
_atom_site_fract_z
Si Si1 0.937859 0.048768 0.126462
Si Si2 0.675834 0.694748 0.772142
Si Si3 0.954297 0.394156 0.425870
Si Si4 0.976713 0.765521 0.324612
Si Si5 0.114354 0.850037 0.358522
Si Si6 0.730121 0.367838 0.968103
O O1 0.623203 0.069493 0.293787
O O2 0.969580 0.000000 0.146614
O O3 0.000000 0.045200 0.000000
O O4 0.157300 0.087371 0.050769
O O5 0.667317 0.723484 0.694263
O O6 0.889668 0.653124 0.661514
O O7 0.793232 0.726262 0.788123
O O8 0.362305 0.673894 0.935423
O O9 0.618817 0.386397 0.560931
O O10 0.000000 0.404810 0.500000
O O11 0.750000 0.750000 0.500000
O O12 0.107980 0.810700 0.296844
O O13 0.440950 0.866890 0.214119
O O14 0.000000 0.833677 0.500000
O O15 0.500000 0.365920 0.000000
#
# Coordination Sequence:
#
# PCOD9218175 Si02
#       6
#     8   8   8   8   8   8
#     4   9  19  40  69  94 126 167 203 254 322 389
#     4  11  23  42  60  88 128 171 209 260 311 366
#     4  11  21  41  65  96 129 160 211 263 319 372
#     4  12  23  38  63  88 123 169 214 264 304 364
#     4  12  23  39  65  90 121 172 213 260 312 369
#     4  10  24  43  63  91 128 165 211 260 315 376
#
# _framework density 20.958373999999999
#
# number of rings (size 3 to 8) (size 9 to 14) (size 15 to 20)
#    0.000    1.167    3.333    4.500    2.333    1.667 
#    0.000    0.833    0.000    7.000    0.000    0.000 
#    0.000    0.000    0.000    0.000    0.000    0.000 
#
# Total GULP energy -134128.125015 kJ/mol
# GULP energy per Si atom -5588.671876 kJ/mol
# Density = 2.091067 g / cm^3
# Si number density = 20.958374 Si / 1000 Ang^3
#
#
#
# Elastic Constant Matrix: (Units=GPa)
#
#
# Indices 1 2 3 4 5 6 
#
# 1 76.2492 19.4604 33.8119 0.0000 -7.0493 0.0000
# 2 19.4604 115.4242 50.0326 0.0000 -2.9767 0.0000
# 3 33.8119 50.0326 143.4203 0.0000 -24.0562 0.0000
# 4 0.0000 0.0000 0.0000 -43.2082 0.0000 -66.7978
# 5 -7.0493 -2.9767 -24.0562 0.0000 27.6033 0.0000
# 6 0.0000 0.0000 0.0000 -66.7978 0.0000 -69.9945
#
#
#
# Elastic Compliance Matrix: (Units=1/GPa)
#
#
# Indices 1 2 3 4 5 6 
#
# 1 0.014806 -0.001222 -0.002872 0.000000 0.001146 0.000000
# 2 -0.001222 0.010439 -0.003768 0.000000 -0.002470 0.000000
# 3 -0.002872 -0.003768 0.010275 0.000000 0.007815 0.000000
# 4 0.000000 0.000000 0.000000 0.048688 0.000000 -0.046465
# 5 0.001146 -0.002470 0.007815 0.000000 0.043064 0.000000
# 6 0.000000 0.000000 0.000000 -0.046465 0.000000 0.030056
#
#
# Mechanical properties :
#
#
# Convention : Reuss Voigt Hill
#
# Bulk Modulus (GPa) = 50.51380 60.18930 55.35155
# Shear Modulus (GPa) = 27.83160 -1.66729 13.08216
#
# Velocity S-wave (km/s) = 3.64805 -0.89289 2.50110
# Velocity P-wave (km/s) = 6.47292 5.26477 5.89985
#
# Compressibility (1/GPa) = 0.01979657
#
# Stress axis : x y z
#
# Youngs Moduli (GPa) = 67.53875 95.79172 97.32447
#
# Poissons Ratio (x) = 0.11704 0.27953
# Poissons Ratio (y) = 0.08252 0.36672
# Poissons Ratio (z) = 0.19398 0.36095
#
# Static dielectric constant tensor:
#      x y z
#    x 1.798260 0.000000 0.018280 
#    y 0.000000 1.777980 0.000000 
#    z 0.018280 0.000000 1.812110 
# 
# From -- ./inp_files/260218.got.cif
#   From: 2010.05.17/outbox.cif.g08.bks.cpg/sg12_131_cif.got.tgz:260218.got - 2010.06.03 13:09:07.
