data_PCOD9218052
_publ_section_title
;
Structure prediction by ZEFSAII (Michael W. Deem and Ramdas Pophale) SiO2 
 PCOD9218052
Probable space group: C 2/M
;
_chemical_formula_sum "Si O2"
_cell_formula_units_Z 36
_cell_length_a 21.923443
_cell_length_b 14.013021
_cell_length_c 8.790025
_cell_angle_alpha 90.000000
_cell_angle_beta 140.460434
_cell_angle_gamma 90.000000
_cell_volume 1719.114194
_symmetry_space_group_name_H-M "C 2/M"
_symmetry_group_IT_number 12
_symmetry_cell_setting 'monoclinic'
loop_
_space_group_symop_operation_xyz
x,y,z
-x,y,-z
-x,-y,-z
x,-y,z
1/2+x,1/2+y,z
1/2-x,1/2+y,-z
1/2-x,1/2-y,-z
1/2+x,1/2-y,z
loop_
_atom_site_type_symbol
_atom_site_label
_atom_site_fract_x
_atom_site_fract_y
_atom_site_fract_z
Si Si1 0.333468 0.820005 0.472593
Si Si2 0.005769 0.796004 0.329733
Si Si3 0.155181 0.692199 0.152912
Si Si4 0.759428 0.500000 0.824663
Si Si5 0.892086 0.500000 0.374958
Si Si6 0.471129 0.500000 0.620957
O O1 0.386730 0.729432 0.505040
O O2 0.223122 0.786022 0.265120
O O3 0.364466 0.827055 0.707705
O O4 0.368475 0.908508 0.437080
O O5 0.000000 0.793010 0.500000
O O6 0.938138 0.718325 0.122895
O O7 0.986913 0.902334 0.232858
O O8 0.203312 0.596184 0.183672
O O9 0.644218 0.500000 0.600045
O O10 0.811180 0.500000 0.088346
O O11 0.000000 0.500000 0.500000
O O12 0.500000 0.500000 0.500000
#
# Coordination Sequence:
#
# PCOD9218052 Si02
#       6
#     8   8   8   4   4   4
#     4  11  24  44  64  98 139 177 223 270 342 404
#     4  11  23  42  68  98 133 175 226 275 332 396
#     4  11  25  42  70  97 136 180 219 278 336 406
#     4  12  23  45  71 101 131 178 225 281 334 396
#     4  12  27  42  69 103 133 177 233 284 337 398
#     4  10  24  41  64  99 137 170 218 280 337 394
#
# _framework density 20.941016999999999
#
# number of rings (size 3 to 8) (size 9 to 14) (size 15 to 20)
#    0.000    0.889    2.222    4.667    6.222    1.778 
#    0.000    6.667    0.000    0.000    0.000    0.000 
#    0.000    0.000    0.000    0.000    0.000    0.000 
#
# Total GULP energy -100459.015142 kJ/mol
# GULP energy per Si atom -5581.056397 kJ/mol
# Density = 2.089335 g / cm^3
# Si number density = 20.941017 Si / 1000 Ang^3
#
#
#
# Elastic Constant Matrix: (Units=GPa)
#
#
# Indices 1 2 3 4 5 6 
#
# 1 130.7969 54.3228 40.8744 0.0000 -13.7225 0.0000
# 2 54.3228 133.0944 14.2739 0.0000 -10.4331 0.0000
# 3 40.8744 14.2739 77.3483 0.0000 -8.1038 0.0000
# 4 0.0000 0.0000 0.0000 39.8107 0.0000 -35.6695
# 5 -13.7225 -10.4331 -8.1038 0.0000 29.7138 0.0000
# 6 0.0000 0.0000 0.0000 -35.6695 0.0000 156.9268
#
#
#
# Elastic Compliance Matrix: (Units=1/GPa)
#
#
# Indices 1 2 3 4 5 6 
#
# 1 0.010983 -0.003772 -0.004854 0.000000 0.002424 0.000000
# 2 -0.003772 0.009127 0.000476 0.000000 0.001592 0.000000
# 3 -0.004854 0.000476 0.015635 0.000000 0.002190 0.000000
# 4 0.000000 0.000000 0.000000 0.031543 0.000000 0.007170
# 5 0.002424 0.001592 0.002190 0.000000 0.035930 0.000000
# 6 0.000000 0.000000 0.000000 0.007170 0.000000 0.008002
#
#
# Mechanical properties :
#
#
# Convention : Reuss Voigt Hill
#
# Bulk Modulus (GPa) = 51.42756 62.24243 56.83499
# Shear Modulus (GPa) = 37.31268 60.74147 49.02708
#
# Velocity S-wave (km/s) = 4.22572 5.39156 4.84384
# Velocity P-wave (km/s) = 6.95848 8.27924 7.64743
#
# Compressibility (1/GPa) = 0.01944483
#
# Stress axis : x y z
#
# Youngs Moduli (GPa) = 91.04672 109.56608 63.95833
#
# Poissons Ratio (x) = 0.41332 0.31045
# Poissons Ratio (y) = 0.34346 -0.03044
# Poissons Ratio (z) = 0.44194 -0.05215
#
# Static dielectric constant tensor:
#      x y z
#    x 1.764100 0.000000 -0.009480 
#    y 0.000000 1.782450 0.000000 
#    z -0.009480 0.000000 1.727940 
# 
# From -- ./inp_files/86279.got.cif
#   From: 2010.05.17/outbox.cif.g08.bks.cpg/sg12_44_cif.got.tgz:86279.got - 2010.06.03 13:09:07.
