data_PCOD9218842
_publ_section_title
;
Structure prediction by ZEFSAII (Michael W. Deem and Ramdas Pophale) SiO2 
 PCOD9218842
Probable space group: C 2/M
;
_chemical_formula_sum "Si O2"
_cell_formula_units_Z 56
_cell_length_a 13.038420
_cell_length_b 13.701167
_cell_length_c 17.240114
_cell_angle_alpha 90.000000
_cell_angle_beta 124.353570
_cell_angle_gamma 90.000000
_cell_volume 2542.594575
_symmetry_space_group_name_H-M "C 2/M"
_symmetry_group_IT_number 12
_symmetry_cell_setting 'monoclinic'
loop_
_space_group_symop_operation_xyz
x,y,z
-x,y,-z
-x,-y,-z
x,-y,z
1/2+x,1/2+y,z
1/2-x,1/2+y,-z
1/2-x,1/2-y,-z
1/2+x,1/2-y,z
loop_
_atom_site_type_symbol
_atom_site_label
_atom_site_fract_x
_atom_site_fract_y
_atom_site_fract_z
Si Si1 0.042319 0.288038 0.782783
Si Si2 0.808900 0.387317 0.617187
Si Si3 0.940837 0.880743 0.556574
Si Si4 0.551329 0.616025 0.897934
Si Si5 0.438139 0.882093 0.894313
Si Si6 0.679407 0.387948 0.732792
Si Si7 0.799516 0.116970 0.886301
O O1 0.171523 0.332480 0.808645
O O2 0.926373 0.318417 0.679369
O O3 0.060113 0.179210 0.824433
O O4 0.009926 0.344994 0.849880
O O5 0.847182 0.500000 0.618478
O O6 0.704761 0.356862 0.509730
O O7 0.737806 0.389147 0.670094
O O8 0.000000 0.849881 0.500000
O O9 0.042098 0.844859 0.661952
O O10 0.944207 0.000000 0.560194
O O11 0.561504 0.500000 0.888495
O O12 0.416274 0.634865 0.879199
O O13 0.653605 0.643042 0.006712
O O14 0.295195 0.848651 0.830592
O O15 0.438578 0.000000 0.892005
O O16 0.500000 0.849488 0.000000
O O17 0.662729 0.500000 0.750217
O O18 0.780475 0.000000 0.878466
#
# Coordination Sequence:
#
# PCOD9218842 Si02
#       7
#     8   8   8   8   8   8   8
#     4  11  18  28  50  68  91 126 164 200 249 291
#     4   8  13  20  34  63  93 114 146 197 245 286
#     4   7   9  15  29  49  80 119 152 185 230 288
#     4   9  20  35  49  66  92 128 171 210 241 286
#     4   9  17  25  35  62 102 133 158 198 245 294
#     4   7  10  18  30  46  81 130 159 179 230 294
#     4   9  18  34  52  68  88 125 170 208 246 289
#
# _framework density 22.024747999999999
#
# number of rings (size 3 to 8) (size 9 to 14) (size 15 to 20)
#    0.000    3.429    0.000    5.143    2.000    0.000 
#    0.000    0.000    0.000    1.714    0.000    0.000 
#    0.000   42.857    0.000    3.571    0.000    2.429 
#
# Total GULP energy -156272.636044 kJ/mol
# GULP energy per Si atom -5581.165573 kJ/mol
# Density = 2.197462 g / cm^3
# Si number density = 22.024748 Si / 1000 Ang^3
#
#
#
# Elastic Constant Matrix: (Units=GPa)
#
#
# Indices 1 2 3 4 5 6 
#
# 1 41.5637 14.7815 22.2046 0.0000 13.3039 0.0000
# 2 14.7815 69.5816 14.9658 0.0000 17.6663 0.0000
# 3 22.2046 14.9658 163.2890 0.0000 31.9991 0.0000
# 4 0.0000 0.0000 0.0000 3.3304 0.0000 7.1551
# 5 13.3039 17.6663 31.9991 0.0000 33.3117 0.0000
# 6 0.0000 0.0000 0.0000 7.1551 0.0000 31.6966
#
#
#
# Elastic Compliance Matrix: (Units=1/GPa)
#
#
# Indices 1 2 3 4 5 6 
#
# 1 0.028942 -0.003784 -0.002115 0.000000 -0.007520 0.000000
# 2 -0.003784 0.017111 0.000528 0.000000 -0.008070 0.000000
# 3 -0.002115 0.000528 0.007703 0.000000 -0.006834 0.000000
# 4 0.000000 0.000000 0.000000 0.583004 0.000000 -0.131605
# 5 -0.007520 -0.008070 -0.006834 0.000000 0.043868 0.000000
# 6 0.000000 0.000000 0.000000 -0.131605 0.000000 0.061257
#
#
# Mechanical properties :
#
#
# Convention : Reuss Voigt Hill
#
# Bulk Modulus (GPa) = 23.24874 42.03758 32.64316
# Shear Modulus (GPa) = 6.51920 28.49990 17.50955
#
# Velocity S-wave (km/s) = 1.72231 3.60112 2.82262
# Velocity P-wave (km/s) = 3.81232 6.03479 5.04740
#
# Compressibility (1/GPa) = 0.04301309
#
# Stress axis : x y z
#
# Youngs Moduli (GPa) = 34.55151 58.44217 129.82538
#
# Poissons Ratio (x) = 0.22115 0.27460
# Poissons Ratio (y) = 0.13075 -0.06852
# Poissons Ratio (z) = 0.07308 -0.03085
#
# Static dielectric constant tensor:
#      x y z
#    x 1.827650 0.000000 -0.007470 
#    y 0.000000 1.837960 0.000000 
#    z -0.007470 0.000000 1.839270 
# 
# From -- ./inp_files/214331.got.cif
#   From: 2010.05.17/outbox.cif.g08.bks.cpg/sg12_108_cif.got.tgz:214331.got - 2010.06.03 13:09:07.
