data_PCOD9218766
_publ_section_title
;
Structure prediction by ZEFSAII (Michael W. Deem and Ramdas Pophale) SiO2 
 PCOD9218766
Probable space group: C 2/M
;
_chemical_formula_sum "Si O2"
_cell_formula_units_Z 48
_cell_length_a 20.406903
_cell_length_b 28.257544
_cell_length_c 8.898148
_cell_angle_alpha 90.000000
_cell_angle_beta 155.103867
_cell_angle_gamma 90.000000
_cell_volume 2160.066018
_symmetry_space_group_name_H-M "C 2/M"
_symmetry_group_IT_number 12
_symmetry_cell_setting 'monoclinic'
loop_
_space_group_symop_operation_xyz
x,y,z
-x,y,-z
-x,-y,-z
x,-y,z
1/2+x,1/2+y,z
1/2-x,1/2+y,-z
1/2-x,1/2-y,-z
1/2+x,1/2-y,z
loop_
_atom_site_type_symbol
_atom_site_label
_atom_site_fract_x
_atom_site_fract_y
_atom_site_fract_z
Si Si1 0.670193 0.857424 0.792960
Si Si2 0.106740 0.555181 0.446678
Si Si3 0.755284 0.445611 0.594903
Si Si4 0.139531 0.861380 0.506621
Si Si5 0.356947 0.212669 0.809754
Si Si6 0.404832 0.289989 0.147417
O O1 0.500000 0.846557 0.500000
O O2 0.658054 0.905087 0.670220
O O3 0.785464 0.866208 0.172363
O O4 0.740022 0.813320 0.845808
O O5 0.128604 0.500000 0.538576
O O6 0.201041 0.562688 0.488005
O O7 0.922223 0.561157 0.027367
O O8 0.709891 0.500000 0.517377
O O9 0.628282 0.411648 0.404262
O O10 0.260571 0.832828 0.655314
O O11 0.990374 0.828400 0.219047
O O12 0.250000 0.250000 0.500000
O O13 0.500000 0.200866 0.000000
O O14 0.399651 0.240834 0.050009
O O15 0.500000 0.285187 0.500000
#
# Coordination Sequence:
#
# PCOD9218766 Si02
#       6
#     8   8   8   8   8   8
#     4  11  23  37  65  93 119 172 218 260 320 385
#     4   9  19  36  59  95 130 162 215 273 318 374
#     4   9  19  37  63  95 130 166 209 268 325 382
#     4  11  24  42  63  94 132 170 209 265 328 380
#     4  12  27  45  69  98 126 172 219 267 321 382
#     4  10  26  48  61  92 139 170 210 270 326 386
#
# _framework density 22.221544000000002
#
# number of rings (size 3 to 8) (size 9 to 14) (size 15 to 20)
#    0.000    1.667    3.333    1.000    7.000    4.333 
#    0.000    0.833    0.000    5.000    0.000    0.000 
#    0.000    0.000    0.000    0.000    0.000    0.000 
#
# Total GULP energy -134419.632484 kJ/mol
# GULP energy per Si atom -5600.818020 kJ/mol
# Density = 2.217097 g / cm^3
# Si number density = 22.221544 Si / 1000 Ang^3
#
#
#
# Elastic Constant Matrix: (Units=GPa)
#
#
# Indices 1 2 3 4 5 6 
#
# 1 80.4102 36.4835 10.8389 0.0000 4.4727 0.0000
# 2 36.4835 78.0681 15.4119 0.0000 -11.0400 0.0000
# 3 10.8389 15.4119 41.4321 0.0000 -7.0475 0.0000
# 4 0.0000 0.0000 0.0000 -140.9304 0.0000 -182.8080
# 5 4.4727 -11.0400 -7.0475 0.0000 26.3234 0.0000
# 6 0.0000 0.0000 0.0000 -182.8080 0.0000 -147.6357
#
#
#
# Elastic Compliance Matrix: (Units=1/GPa)
#
#
# Indices 1 2 3 4 5 6 
#
# 1 0.017008 -0.008458 -0.002513 0.000000 -0.007110 0.000000
# 2 -0.008458 0.018591 -0.003282 0.000000 0.008356 0.000000
# 3 -0.002513 -0.003282 0.027086 0.000000 0.006302 0.000000
# 4 0.000000 0.000000 0.000000 0.011706 0.000000 -0.014494
# 5 -0.007110 0.008356 0.006302 0.000000 0.044389 0.000000
# 6 0.000000 0.000000 0.000000 -0.014494 0.000000 0.011174
#
#
# Mechanical properties :
#
#
# Convention : Reuss Voigt Hill
#
# Bulk Modulus (GPa) = 29.25597 36.15320 32.70459
# Shear Modulus (GPa) = 29.43764 -43.30345 -6.93290
#
# Velocity S-wave (km/s) = 3.64364 -4.41921 -1.76824
# Velocity P-wave (km/s) = 5.55838 3.12002 3.25278
#
# Compressibility (1/GPa) = 0.03418106
#
# Stress axis : x y z
#
# Youngs Moduli (GPa) = 58.79682 53.78874 36.91953
#
# Poissons Ratio (x) = 0.45492 0.09276
# Poissons Ratio (y) = 0.49728 0.12116
# Poissons Ratio (z) = 0.14773 0.17652
#
# Static dielectric constant tensor:
#      x y z
#    x 1.800150 0.000000 -0.008300 
#    y 0.000000 1.787970 0.000000 
#    z -0.008300 0.000000 1.824050 
# 
# From -- ./inp_files/91264.got.cif
#   From: 2010.05.17/outbox.cif.g08.bks.cpg/sg12_46_cif.got.tgz:91264.got - 2010.06.03 13:09:07.
