data_PCOD9218103
_publ_section_title
;
Structure prediction by ZEFSAII (Michael W. Deem and Ramdas Pophale) SiO2 
 PCOD9218103
Probable space group: C 2/M
;
_chemical_formula_sum "Si O2"
_cell_formula_units_Z 40
_cell_length_a 14.342949
_cell_length_b 22.570329
_cell_length_c 7.817426
_cell_angle_alpha 90.000000
_cell_angle_beta 143.541470
_cell_angle_gamma 90.000000
_cell_volume 1503.843337
_symmetry_space_group_name_H-M "C 2/M"
_symmetry_group_IT_number 12
_symmetry_cell_setting 'monoclinic'
loop_
_space_group_symop_operation_xyz
x,y,z
-x,y,-z
-x,-y,-z
x,-y,z
1/2+x,1/2+y,z
1/2-x,1/2+y,-z
1/2-x,1/2-y,-z
1/2+x,1/2-y,z
loop_
_atom_site_type_symbol
_atom_site_label
_atom_site_fract_x
_atom_site_fract_y
_atom_site_fract_z
Si Si1 0.850684 0.409827 0.491238
Si Si2 0.197227 0.411735 0.965574
Si Si3 0.096139 0.935303 0.403361
Si Si4 0.086294 0.715144 0.289324
Si Si5 0.407914 0.681636 0.191134
O O1 0.808727 0.432037 0.239978
O O2 0.728729 0.428368 0.454789
O O3 0.864149 0.337911 0.512092
O O4 0.028833 0.427669 0.791369
O O5 0.324535 0.432406 0.291275
O O6 0.238035 0.341343 0.001168
O O7 0.985571 0.877991 0.226318
O O8 0.022120 0.000000 0.273120
O O9 0.250000 0.750000 0.500000
O O10 0.954655 0.763559 0.144928
O O11 0.000000 0.684764 0.000000
O O12 0.500000 0.695402 0.500000
#
# Coordination Sequence:
#
# PCOD9218103 Si02
#       5
#     8   8   8   8   8
#     4  11  24  43  67 103 135 179 226 278 348 419
#     4  10  24  43  65  99 138 170 226 282 340 413
#     4  11  24  46  70  94 133 184 234 286 340 404
#     4  12  24  41  70 101 145 181 227 283 348 423
#     4  10  24  42  65 100 137 178 228 280 346 409
#
# _framework density 26.598514999999999
#
# number of rings (size 3 to 8) (size 9 to 14) (size 15 to 20)
#    0.000    1.200    2.000    3.000    5.600    6.800 
#    0.000    3.000    0.000    0.000    0.000    0.000 
#    0.000    0.000    0.000    0.000    0.000    0.000 
#
# Total GULP energy -111916.564367 kJ/mol
# GULP energy per Si atom -5595.828218 kJ/mol
# Density = 2.653798 g / cm^3
# Si number density = 26.598515 Si / 1000 Ang^3
#
#
#
# Elastic Constant Matrix: (Units=GPa)
#
#
# Indices 1 2 3 4 5 6 
#
# 1 133.8526 41.4583 25.5094 0.0000 4.2313 0.0000
# 2 41.4583 170.0099 6.7848 0.0000 1.5483 0.0000
# 3 25.5094 6.7848 75.2154 0.0000 -0.9496 0.0000
# 4 0.0000 0.0000 0.0000 3.9684 0.0000 9.1228
# 5 4.2313 1.5483 -0.9496 0.0000 43.9274 0.0000
# 6 0.0000 0.0000 0.0000 9.1228 0.0000 -2.7495
#
#
#
# Elastic Compliance Matrix: (Units=1/GPa)
#
#
# Indices 1 2 3 4 5 6 
#
# 1 0.008639 -0.001989 -0.002761 0.000000 -0.000822 0.000000
# 2 -0.001989 0.006363 0.000100 0.000000 -0.000031 0.000000
# 3 -0.002761 0.000100 0.014230 0.000000 0.000570 0.000000
# 4 0.000000 0.000000 0.000000 0.029208 0.000000 0.096910
# 5 -0.000822 -0.000031 0.000570 0.000000 0.022857 0.000000
# 6 0.000000 0.000000 0.000000 0.096910 0.000000 -0.042155
#
#
# Mechanical properties :
#
#
# Convention : Reuss Voigt Hill
#
# Bulk Modulus (GPa) = 50.16910 58.50923 54.33917
# Shear Modulus (GPa) = 90.76763 29.38428 60.07595
#
# Velocity S-wave (km/s) = 5.84800 3.32736 4.75765
# Velocity P-wave (km/s) = 8.03128 6.06685 7.11717
#
# Compressibility (1/GPa) = 0.01993259
#
# Stress axis : x y z
#
# Youngs Moduli (GPa) = 115.75243 157.15028 70.27562
#
# Poissons Ratio (x) = 0.31258 0.19403
# Poissons Ratio (y) = 0.23024 -0.00704
# Poissons Ratio (z) = 0.31958 -0.01575
#
# Static dielectric constant tensor:
#      x y z
#    x 2.133300 0.000000 0.027220 
#    y 0.000000 2.052920 0.000000 
#    z 0.027220 0.000000 2.083760 
# 
# From -- ./inp_files/65607.got.cif
#   From: 2010.05.17/outbox.cif.g08.bks.cpg/sg12_33_cif.got.tgz:65607.got - 2010.06.03 13:09:07.
