data_PCOD9218913
_publ_section_title
;
Structure prediction by ZEFSAII (Michael W. Deem and Ramdas Pophale) SiO2 
 PCOD9218913
Probable space group: C 2/M
;
_chemical_formula_sum "Si O2"
_cell_formula_units_Z 48
_cell_length_a 16.378920
_cell_length_b 21.708121
_cell_length_c 7.948939
_cell_angle_alpha 90.000000
_cell_angle_beta 49.950156
_cell_angle_gamma 90.000000
_cell_volume 2163.482192
_symmetry_space_group_name_H-M "C 2/M"
_symmetry_group_IT_number 12
_symmetry_cell_setting 'monoclinic'
loop_
_space_group_symop_operation_xyz
x,y,z
-x,y,-z
-x,-y,-z
x,-y,z
1/2+x,1/2+y,z
1/2-x,1/2+y,-z
1/2-x,1/2-y,-z
1/2+x,1/2-y,z
loop_
_atom_site_type_symbol
_atom_site_label
_atom_site_fract_x
_atom_site_fract_y
_atom_site_fract_z
Si Si1 0.312894 0.069172 0.332174
Si Si2 0.376070 0.697983 0.202329
Si Si3 0.039270 0.352243 0.616965
Si Si4 0.614270 0.720225 0.424313
Si Si5 0.321094 0.819033 0.083314
Si Si6 0.370570 0.566640 0.160316
O O1 0.395779 0.103624 0.347029
O O2 0.308813 0.113516 0.178612
O O3 0.198422 0.063957 0.576381
O O4 0.348931 0.000000 0.245830
O O5 0.367146 0.690582 0.415938
O O6 0.331457 0.763697 0.205482
O O7 0.339179 0.636557 0.150696
O O8 0.500000 0.703392 0.000000
O O9 0.109797 0.293465 0.467664
O O10 0.000000 0.385437 0.500000
O O11 0.932703 0.322512 0.839257
O O12 0.500000 0.703271 0.500000
O O13 0.704137 0.699210 0.172644
O O14 0.344669 0.500000 0.108801
O O15 0.500000 0.567700 0.000000
#
# Coordination Sequence:
#
# PCOD9218913 Si02
#       6
#     8   8   8   8   8   8
#     4  11  22  40  67  92 121 165 213 258 303 364
#     4  11  18  36  64  89 119 161 204 255 302 359
#     4  11  25  42  59  92 128 159 204 258 319 372
#     4  11  23  38  58  92 128 158 197 251 317 367
#     4  12  22  41  64  90 124 162 211 257 304 369
#     4   9  19  34  58  93 124 155 203 251 296 355
#
# _framework density 22.186454000000001
#
# number of rings (size 3 to 8) (size 9 to 14) (size 15 to 20)
#    0.000    1.167    5.000    2.000    0.000    4.333 
#    6.000    0.000    0.000    2.000    0.000    0.000 
#    0.000    0.667    0.000    0.000    0.000    0.000 
#
# Total GULP energy -133710.590228 kJ/mol
# GULP energy per Si atom -5571.274593 kJ/mol
# Density = 2.213596 g / cm^3
# Si number density = 22.186454 Si / 1000 Ang^3
#
#
#
# Elastic Constant Matrix: (Units=GPa)
#
#
# Indices 1 2 3 4 5 6 
#
# 1 36.4364 41.5286 25.5209 0.0000 -13.1097 0.0000
# 2 41.5286 170.5261 36.5209 0.0000 -15.0311 0.0000
# 3 25.5209 36.5209 104.1944 0.0000 -26.6970 0.0000
# 4 0.0000 0.0000 0.0000 15.7879 0.0000 -4.9327
# 5 -13.1097 -15.0311 -26.6970 0.0000 30.4539 0.0000
# 6 0.0000 0.0000 0.0000 -4.9327 0.0000 4.3857
#
#
#
# Elastic Compliance Matrix: (Units=1/GPa)
#
#
# Indices 1 2 3 4 5 6 
#
# 1 0.045026 -0.008928 -0.005239 0.000000 0.010384 0.000000
# 2 -0.008928 0.008166 -0.000809 0.000000 -0.000522 0.000000
# 3 -0.005239 -0.000809 0.013521 0.000000 0.009199 0.000000
# 4 0.000000 0.000000 0.000000 0.097658 0.000000 0.109840
# 5 0.010384 -0.000522 0.009199 0.000000 0.045112 0.000000
# 6 0.000000 0.000000 0.000000 0.109840 0.000000 0.351557
#
#
# Mechanical properties :
#
#
# Convention : Reuss Voigt Hill
#
# Bulk Modulus (GPa) = 27.20250 57.58864 42.39557
# Shear Modulus (GPa) = 8.28849 23.96459 16.12654
#
# Velocity S-wave (km/s) = 1.93493 3.29012 2.69897
# Velocity P-wave (km/s) = 4.15685 6.35973 5.37241
#
# Compressibility (1/GPa) = 0.03676133
#
# Stress axis : x y z
#
# Youngs Moduli (GPa) = 22.20925 122.46266 73.95866
#
# Poissons Ratio (x) = 1.09337 0.38744
# Poissons Ratio (y) = 0.19829 0.05985
# Poissons Ratio (z) = 0.11634 0.09909
#
# Static dielectric constant tensor:
#      x y z
#    x 1.901440 0.000000 -0.009680 
#    y 0.000000 1.850870 0.000000 
#    z -0.009680 0.000000 1.895600 
# 
# From -- ./inp_files/77298.got.cif
#   From: 2010.05.17/outbox.cif.g08.bks.cpg/sg12_39_cif.got.tgz:77298.got - 2010.06.03 13:09:07.
